data_PCOD8107768
_publ_section_title
;
Structure prediction by ZEFSAII (Michael W. Deem and Ramdas Pophale) SiO2 
 PCOD8107768
Probable space group: C 2/M
;
_chemical_formula_sum "Si O2"
_cell_formula_units_Z 56
_cell_length_a 8.718486
_cell_length_b 29.004150
_cell_length_c 11.430545
_cell_angle_alpha 90.000000
_cell_angle_beta 110.469393
_cell_angle_gamma 90.000000
_cell_volume 2707.961278
_symmetry_space_group_name_H-M "C 2/M"
_symmetry_group_IT_number 12
_symmetry_cell_setting 'monoclinic'
loop_
_space_group_symop_operation_xyz
x,y,z
-x,y,-z
-x,-y,-z
x,-y,z
1/2+x,1/2+y,z
1/2-x,1/2+y,-z
1/2-x,1/2-y,-z
1/2+x,1/2-y,z
loop_
_atom_site_type_symbol
_atom_site_label
_atom_site_fract_x
_atom_site_fract_y
_atom_site_fract_z
Si Si1 0.322189 0.115561 0.399270
Si Si2 0.855089 0.726614 0.125784
Si Si3 0.286707 0.197008 0.782369
Si Si4 0.367575 0.612314 0.136443
Si Si5 0.782766 0.128618 0.868107
Si Si6 0.311323 0.301323 0.489863
Si Si7 0.470619 0.554306 0.625412
O O1 0.500000 0.110318 0.500000
O O2 0.346346 0.112228 0.264661
O O3 0.231236 0.163182 0.416356
O O4 0.212223 0.071574 0.400247
O O5 0.848183 0.761952 0.235035
O O6 0.758913 0.680303 0.117272
O O7 0.038866 0.717415 0.134036
O O8 0.750000 0.750000 0.000000
O O9 0.249322 0.152281 0.848516
O O10 0.292781 0.181633 0.649277
O O11 0.543824 0.631567 0.150527
O O12 0.394424 0.573954 0.245162
O O13 0.285851 0.596961 0.988374
O O14 0.500000 0.303453 0.500000
O O15 0.250000 0.250000 0.500000
O O16 0.500000 0.570272 0.500000
O O17 0.478125 0.500000 0.642086
#
# Coordination Sequence:
#
# PCOD8107768 Si02
#       7
#     8   8   8   8   8   8   8
#     4  11  22  40  63  92 127 166 207 259 320 378
#     4  12  23  35  53  84 122 166 210 254 299 357
#     4  12  23  36  55  81 118 161 209 257 298 363
#     4  10  21  38  61  85 118 158 204 252 314 365
#     4  10  21  38  56  85 124 164 201 256 295 364
#     4  12  23  38  58  84 122 170 215 261 308 368
#     4  10  22  43  70  97 122 155 204 263 322 391
#
# _framework density 20.679763000000001
#
# number of rings (size 3 to 8) (size 9 to 14) (size 15 to 20)
#    0.000    1.000    1.429    7.286    2.000    0.286 
#    0.000    5.714    0.000    0.000    0.000    4.000 
#    0.000    0.000    0.000    0.000    0.000    0.000 
#
# Total GULP energy -346893.891880 kJ/mol
# GULP energy per Si atom -12389.067567 kJ/mol
# Density = 2.063270 g / cm^3
# Si number density = 20.679763 Si / 1000 Ang^3
#
#
#
# Elastic Constant Matrix: (Units=GPa)
#
#
# Indices 1 2 3 4 5 6 
#
# 1 56.8304 33.1594 54.4064 0.0000 15.3575 0.0000
# 2 33.1594 74.6245 51.1227 0.0000 -3.4793 0.0000
# 3 54.4064 51.1227 202.3232 0.0000 -4.3448 0.0000
# 4 0.0000 0.0000 0.0000 25.4926 0.0000 -6.6481
# 5 15.3575 -3.4793 -4.3448 0.0000 31.9550 0.0000
# 6 0.0000 0.0000 0.0000 -6.6481 0.0000 21.9922
#
#
#
# Elastic Compliance Matrix: (Units=1/GPa)
#
#
# Indices 1 2 3 4 5 6 
#
# 1 0.037453 -0.012568 -0.007333 0.000000 -0.020365 0.000000
# 2 -0.012568 0.020470 -0.001620 0.000000 0.008049 0.000000
# 3 -0.007333 -0.001620 0.007417 0.000000 0.004356 0.000000
# 4 0.000000 0.000000 0.000000 0.042584 0.000000 0.012873
# 5 -0.020365 0.008049 0.004356 0.000000 0.042550 0.000000
# 6 0.000000 0.000000 0.000000 0.012873 0.000000 0.049362
#
#
# Mechanical properties :
#
#
# Convention : Reuss Voigt Hill
#
# Bulk Modulus (GPa) = 44.84622 67.90614 56.37618
# Shear Modulus (GPa) = 19.97503 28.89392 24.43447
#
# Velocity S-wave (km/s) = 3.11130 3.74198 3.44112
# Velocity P-wave (km/s) = 5.88558 7.18179 6.56575
#
# Compressibility (1/GPa) = 0.02229842
#
# Stress axis : x y z
#
# Youngs Moduli (GPa) = 26.69988 48.85176 134.81875
#
# Poissons Ratio (x) = 0.61398 0.98864
# Poissons Ratio (y) = 0.33557 0.21838
# Poissons Ratio (z) = 0.19579 0.07913
#
# Static dielectric constant tensor:
#      x y z
#    x 3.751070 0.000000 -0.209030 
#    y 0.000000 3.392430 0.000000 
#    z -0.209030 0.000000 4.755340 
# 
# 
# High freq. dielectric constant tensor:
#      x y z
#    x 1.806470 0.000000 -0.008830 
#    y 0.000000 1.770470 0.000000 
#    z -0.008830 0.000000 1.843640 
# 
# From -- ./inp_files/124352.got.cif
#   From: 2010.06.25/outbox.cif.g09.slc.cpg/sg12_63_cif.got.tgz:124352.got - 2010.06.28 00:19:55.
