data_PCOD8107464
_publ_section_title
;
Structure prediction by ZEFSAII (Michael W. Deem and Ramdas Pophale) SiO2 
 PCOD8107464
Probable space group: C 2/M
;
_chemical_formula_sum "Si O2"
_cell_formula_units_Z 64
_cell_length_a 30.270667
_cell_length_b 8.841229
_cell_length_c 16.096099
_cell_angle_alpha 90.000000
_cell_angle_beta 133.873120
_cell_angle_gamma 90.000000
_cell_volume 3105.389178
_symmetry_space_group_name_H-M "C 2/M"
_symmetry_group_IT_number 12
_symmetry_cell_setting 'monoclinic'
loop_
_space_group_symop_operation_xyz
x,y,z
-x,y,-z
-x,-y,-z
x,-y,z
1/2+x,1/2+y,z
1/2-x,1/2+y,-z
1/2-x,1/2-y,-z
1/2+x,1/2-y,z
loop_
_atom_site_type_symbol
_atom_site_label
_atom_site_fract_x
_atom_site_fract_y
_atom_site_fract_z
Si Si1 0.187002 0.676183 0.197879
Si Si2 0.719867 0.322418 0.540051
Si Si3 0.520668 0.179150 0.402459
Si Si4 0.061900 0.675872 0.129706
Si Si5 0.173199 0.665404 0.849383
Si Si6 0.084946 0.822797 0.629697
Si Si7 0.419128 0.321833 0.669263
Si Si8 0.310339 0.666229 0.974068
O O1 0.193732 0.500000 0.186985
O O2 0.242449 0.731868 0.329728
O O3 0.120825 0.712609 0.150446
O O4 0.193103 0.766536 0.121411
O O5 0.726803 0.500000 0.539107
O O6 0.750000 0.250000 0.500000
O O7 0.648804 0.273881 0.450173
O O8 0.577202 0.234462 0.533117
O O9 0.461103 0.262633 0.359992
O O10 0.532327 0.231739 0.323736
O O11 0.512651 0.000000 0.396823
O O12 0.060575 0.500000 0.153440
O O13 0.067806 0.776278 0.219375
O O14 0.000000 0.720971 0.000000
O O15 0.141858 0.500000 0.798434
O O16 0.151924 0.783706 0.751080
O O17 0.244845 0.648341 0.931354
O O18 0.152975 0.725767 0.914527
O O19 0.076375 0.000000 0.602835
O O20 0.429095 0.500000 0.672230
O O21 0.341306 0.500000 0.009591
#
# Coordination Sequence:
#
# PCOD8107464 Si02
#       8
#     8   8   8   8   8   8   8   8
#     4  10  21  38  59  86 119 156 198 249 307 365
#     4  10  21  37  60  88 119 156 197 246 305 360
#     4  11  23  40  61  87 120 158 199 240 291 356
#     4  10  22  41  63  86 116 158 204 247 297 359
#     4  10  21  39  60  85 118 158 200 244 298 358
#     4  11  22  39  62  88 120 155 196 248 298 347
#     4  11  23  39  60  91 123 156 199 249 304 358
#     4  10  22  38  58  87 118 154 201 249 297 352
#
# _framework density 20.609331999999998
#
# number of rings (size 3 to 8) (size 9 to 14) (size 15 to 20)
#    0.000    1.625    1.250    4.125    1.750    4.250 
#    0.000    3.750    0.000    0.000    0.000    0.000 
#    0.000    0.000    0.000    0.000    0.000    0.000 
#
# Total GULP energy -396776.917178 kJ/mol
# GULP energy per Si atom -12399.278662 kJ/mol
# Density = 2.056242 g / cm^3
# Si number density = 20.609332 Si / 1000 Ang^3
#
#
#
# Elastic Constant Matrix: (Units=GPa)
#
#
# Indices 1 2 3 4 5 6 
#
# 1 62.6045 29.1432 18.9705 0.0000 -19.5323 0.0000
# 2 29.1432 85.8435 23.3016 0.0000 -10.1743 0.0000
# 3 18.9705 23.3016 93.3302 0.0000 -4.0532 0.0000
# 4 0.0000 0.0000 0.0000 36.2943 0.0000 -7.4602
# 5 -19.5323 -10.1743 -4.0532 0.0000 35.8601 0.0000
# 6 0.0000 0.0000 0.0000 -7.4602 0.0000 29.9031
#
#
#
# Elastic Compliance Matrix: (Units=1/GPa)
#
#
# Indices 1 2 3 4 5 6 
#
# 1 0.022731 -0.005737 -0.002734 0.000000 0.010444 0.000000
# 2 -0.005737 0.014322 -0.002381 0.000000 0.000670 0.000000
# 3 -0.002734 -0.002381 0.011829 0.000000 -0.000828 0.000000
# 4 0.000000 0.000000 0.000000 0.029042 0.000000 0.007245
# 5 0.010444 0.000670 -0.000828 0.000000 0.033672 0.000000
# 6 0.000000 0.000000 0.000000 0.007245 0.000000 0.035249
#
#
# Mechanical properties :
#
#
# Convention : Reuss Voigt Hill
#
# Bulk Modulus (GPa) = 36.79407 42.73432 39.76420
# Shear Modulus (GPa) = 28.15188 31.76902 29.96045
#
# Velocity S-wave (km/s) = 3.69992 3.93044 3.81692
# Velocity P-wave (km/s) = 6.01202 6.43259 6.22586
#
# Compressibility (1/GPa) = 0.02717829
#
# Stress axis : x y z
#
# Youngs Moduli (GPa) = 43.99258 69.82110 84.53890
#
# Poissons Ratio (x) = 0.40056 0.23117
# Poissons Ratio (y) = 0.25238 0.20126
# Poissons Ratio (z) = 0.12030 0.16622
#
# Static dielectric constant tensor:
#      x y z
#    x 5.531370 0.000000 3.402720 
#    y 0.000000 3.976660 0.000000 
#    z 3.402720 0.000000 9.767980 
# 
# 
# High freq. dielectric constant tensor:
#      x y z
#    x 1.798490 0.000000 -0.005730 
#    y 0.000000 1.812560 0.000000 
#    z -0.005730 0.000000 1.814380 
# 
# From -- ./inp_files/250002.got.cif
#   From: 2010.06.25/outbox.cif.g09.slc.cpg/sg12_126_cif.got.tgz:250002.got - 2010.06.28 00:19:55.
