data_PCOD8107000
_publ_section_title
;
Structure prediction by ZEFSAII (Michael W. Deem and Ramdas Pophale) SiO2 
 PCOD8107000
Probable space group: C 2/M
;
_chemical_formula_sum "Si O2"
_cell_formula_units_Z 56
_cell_length_a 28.807095
_cell_length_b 9.118846
_cell_length_c 11.130463
_cell_angle_alpha 90.000000
_cell_angle_beta 65.477926
_cell_angle_gamma 90.000000
_cell_volume 2660.107545
_symmetry_space_group_name_H-M "C 2/M"
_symmetry_group_IT_number 12
_symmetry_cell_setting 'monoclinic'
loop_
_space_group_symop_operation_xyz
x,y,z
-x,y,-z
-x,-y,-z
x,-y,z
1/2+x,1/2+y,z
1/2-x,1/2+y,-z
1/2-x,1/2-y,-z
1/2+x,1/2-y,z
loop_
_atom_site_type_symbol
_atom_site_label
_atom_site_fract_x
_atom_site_fract_y
_atom_site_fract_z
Si Si1 0.636033 0.168216 0.345849
Si Si2 0.291334 0.830112 0.303318
Si Si3 0.037212 0.673061 0.072024
Si Si4 0.823485 0.830574 0.495320
Si Si5 0.027991 0.667835 0.352780
Si Si6 0.357722 0.664017 0.056860
Si Si7 0.203628 0.835723 0.104736
O O1 0.630901 0.254789 0.477318
O O2 0.587892 0.186413 0.311237
O O3 0.685897 0.241156 0.235898
O O4 0.647702 0.000000 0.361373
O O5 0.231427 0.804079 0.384058
O O6 0.324792 0.747859 0.366737
O O7 0.310320 0.757291 0.160050
O O8 0.305624 0.000000 0.291305
O O9 0.048022 0.500000 0.069330
O O10 0.016930 0.728000 0.227628
O O11 0.089102 0.754062 0.982020
O O12 0.000000 0.709413 0.000000
O O13 0.836388 0.000000 0.465180
O O14 0.009818 0.500000 0.372348
O O15 0.000000 0.743956 0.500000
O O16 0.361032 0.500000 0.109637
O O17 0.344622 0.651038 0.931184
O O18 0.220467 0.000000 0.128877
O O19 0.250000 0.750000 0.000000
#
# Coordination Sequence:
#
# PCOD8107000 Si02
#       7
#     8   8   8   8   8   8   8
#     4  11  21  35  59  86 117 156 199 248 305 366
#     4  10  21  37  58  83 116 160 204 246 296 364
#     4  10  21  39  64  90 117 157 209 262 315 378
#     4  10  21  37  57  84 121 159 199 249 301 362
#     4   9  19  37  60  87 119 155 201 259 314 368
#     4  11  23  38  58  85 120 157 197 250 311 370
#     4  11  23  37  57  86 121 160 201 246 301 366
#
# _framework density 21.051779
#
# number of rings (size 3 to 8) (size 9 to 14) (size 15 to 20)
#    0.000    1.714    1.429    3.000    0.000    7.143 
#    0.000    2.857    0.000    3.857    0.000    0.000 
#    0.000    0.000    0.000    0.000    0.000    0.000 
#
# Total GULP energy -346986.519798 kJ/mol
# GULP energy per Si atom -12392.375707 kJ/mol
# Density = 2.100386 g / cm^3
# Si number density = 21.051779 Si / 1000 Ang^3
#
#
#
# Elastic Constant Matrix: (Units=GPa)
#
#
# Indices 1 2 3 4 5 6 
#
# 1 68.4039 31.4432 13.3149 0.0000 27.6245 0.0000
# 2 31.4432 117.0205 27.6854 0.0000 6.5608 0.0000
# 3 13.3149 27.6854 83.8415 0.0000 16.4246 0.0000
# 4 0.0000 0.0000 0.0000 31.2156 0.0000 1.6475
# 5 27.6245 6.5608 16.4246 0.0000 39.8119 0.0000
# 6 0.0000 0.0000 0.0000 1.6475 0.0000 27.5282
#
#
#
# Elastic Compliance Matrix: (Units=1/GPa)
#
#
# Indices 1 2 3 4 5 6 
#
# 1 0.023370 -0.005693 0.001263 0.000000 -0.015799 0.000000
# 2 -0.005693 0.010659 -0.003313 0.000000 0.003560 0.000000
# 3 0.001263 -0.003313 0.014018 0.000000 -0.006114 0.000000
# 4 0.000000 0.000000 0.000000 0.032137 0.000000 -0.001923
# 5 -0.015799 0.003560 -0.006114 0.000000 0.038016 0.000000
# 6 0.000000 0.000000 0.000000 -0.001923 0.000000 0.036441
#
#
# Mechanical properties :
#
#
# Convention : Reuss Voigt Hill
#
# Bulk Modulus (GPa) = 30.70965 46.01698 38.36332
# Shear Modulus (GPa) = 27.62705 32.83265 30.22985
#
# Velocity S-wave (km/s) = 3.62655 3.95348 3.79354
# Velocity P-wave (km/s) = 5.67055 6.53807 6.11970
#
# Compressibility (1/GPa) = 0.03256305
#
# Stress axis : x y z
#
# Youngs Moduli (GPa) = 42.78945 93.81411 71.33461
#
# Poissons Ratio (x) = 0.53405 -0.09013
# Poissons Ratio (y) = 0.24359 0.23635
# Poissons Ratio (z) = -0.05406 0.31083
#
# Static dielectric constant tensor:
#      x y z
#    x 3.699390 0.000000 0.306430 
#    y 0.000000 3.770050 0.000000 
#    z 0.306430 0.000000 3.870300 
# 
# 
# High freq. dielectric constant tensor:
#      x y z
#    x 1.819750 0.000000 0.022640 
#    y 0.000000 1.815810 0.000000 
#    z 0.022640 0.000000 1.827080 
# 
# From -- ./inp_files/180726.got.cif
#   From: 2010.06.25/outbox.cif.g09.slc.cpg/sg12_91_cif.got.tgz:180726.got - 2010.06.28 00:19:55.
