data_PCOD8107698
_publ_section_title
;
Structure prediction by ZEFSAII (Michael W. Deem and Ramdas Pophale) SiO2 
 PCOD8107698
Probable space group: C 2/M
;
_chemical_formula_sum "Si O2"
_cell_formula_units_Z 56
_cell_length_a 21.053517
_cell_length_b 27.808535
_cell_length_c 8.775670
_cell_angle_alpha 90.000000
_cell_angle_beta 30.396551
_cell_angle_gamma 90.000000
_cell_volume 2599.668559
_symmetry_space_group_name_H-M "C 2/M"
_symmetry_group_IT_number 12
_symmetry_cell_setting 'monoclinic'
loop_
_space_group_symop_operation_xyz
x,y,z
-x,y,-z
-x,-y,-z
x,-y,z
1/2+x,1/2+y,z
1/2-x,1/2+y,-z
1/2-x,1/2-y,-z
1/2+x,1/2-y,z
loop_
_atom_site_type_symbol
_atom_site_label
_atom_site_fract_x
_atom_site_fract_y
_atom_site_fract_z
Si Si1 0.118725 0.553936 0.849208
Si Si2 0.251996 0.376235 0.768664
Si Si3 0.614230 0.125043 0.350525
Si Si4 0.970903 0.055073 0.232257
Si Si5 0.255473 0.553098 0.270559
Si Si6 0.259957 0.227428 0.312963
Si Si7 0.027855 0.728775 0.611390
O O1 0.098723 0.500000 0.953636
O O2 0.137251 0.590216 0.949818
O O3 0.239199 0.557082 0.487784
O O4 0.000000 0.571533 0.000000
O O5 0.377158 0.407929 0.505385
O O6 0.261599 0.329961 0.639288
O O7 0.222335 0.360627 0.003838
O O8 0.500000 0.098233 0.500000
O O9 0.670464 0.091635 0.363170
O O10 0.555435 0.172061 0.550785
O O11 0.919177 0.000000 0.347137
O O12 0.000000 0.070364 0.000000
O O13 0.098151 0.059997 0.067680
O O14 0.210918 0.500000 0.309959
O O15 0.250000 0.250000 0.500000
O O16 0.150786 0.247130 0.428998
O O17 0.400961 0.239769 0.967255
O O18 0.000000 0.749098 0.500000
#
# Coordination Sequence:
#
# PCOD8107698 Si02
#       7
#     8   8   8   8   8   8   8
#     4  10  21  37  63  97 134 181 228 278 337 398
#     4  12  24  41  68 101 132 177 229 277 346 409
#     4  11  24  44  68  97 133 183 224 274 346 415
#     4  10  21  41  66  95 139 182 222 279 340 400
#     4  10  22  40  64  97 138 185 228 276 340 402
#     4  12  28  47  74 109 138 178 239 301 356 418
#     4  11  25  51  74  98 144 188 226 287 366 435
#
# _framework density 21.541208000000001
#
# number of rings (size 3 to 8) (size 9 to 14) (size 15 to 20)
#    0.000    1.143    4.286    2.143    2.000    4.286 
#    0.000    1.429    0.000    0.000    0.000    0.000 
#    0.000    0.000    0.000    0.000    0.000    0.000 
#
# Total GULP energy -347148.383764 kJ/mol
# GULP energy per Si atom -12398.156563 kJ/mol
# Density = 2.149218 g / cm^3
# Si number density = 21.541208 Si / 1000 Ang^3
#
#
#
# Elastic Constant Matrix: (Units=GPa)
#
#
# Indices 1 2 3 4 5 6 
#
# 1 97.6312 48.4799 31.0653 0.0000 -4.8203 0.0000
# 2 48.4799 93.6710 38.6893 0.0000 -0.5430 0.0000
# 3 31.0653 38.6893 128.4016 0.0000 -2.9420 0.0000
# 4 0.0000 0.0000 0.0000 31.2976 0.0000 -3.5058
# 5 -4.8203 -0.5430 -2.9420 0.0000 39.8246 0.0000
# 6 0.0000 0.0000 0.0000 -3.5058 0.0000 36.9356
#
#
#
# Elastic Compliance Matrix: (Units=1/GPa)
#
#
# Indices 1 2 3 4 5 6 
#
# 1 0.014085 -0.006725 -0.001347 0.000000 0.001514 0.000000
# 2 -0.006725 0.015404 -0.003034 0.000000 -0.000828 0.000000
# 3 -0.001347 -0.003034 0.009039 0.000000 0.000463 0.000000
# 4 0.000000 0.000000 0.000000 0.032295 0.000000 0.003065
# 5 0.001514 -0.000828 0.000463 0.000000 0.025316 0.000000
# 6 0.000000 0.000000 0.000000 0.003065 0.000000 0.027365
#
#
# Mechanical properties :
#
#
# Convention : Reuss Voigt Hill
#
# Bulk Modulus (GPa) = 61.28282 61.79699 61.53990
# Shear Modulus (GPa) = 33.07895 35.04285 34.06090
#
# Velocity S-wave (km/s) = 3.92294 4.03771 3.98074
# Velocity P-wave (km/s) = 7.00215 7.10546 7.05400
#
# Compressibility (1/GPa) = 0.01631779
#
# Stress axis : x y z
#
# Youngs Moduli (GPa) = 70.99660 64.91704 110.63703
#
# Poissons Ratio (x) = 0.43656 0.14900
# Poissons Ratio (y) = 0.47744 0.33562
# Poissons Ratio (z) = 0.09562 0.19693
#
# Static dielectric constant tensor:
#      x y z
#    x 3.807480 0.000000 -0.156130 
#    y 0.000000 3.781320 0.000000 
#    z -0.156130 0.000000 4.130650 
# 
# 
# High freq. dielectric constant tensor:
#      x y z
#    x 1.841040 0.000000 -0.015650 
#    y 0.000000 1.836680 0.000000 
#    z -0.015650 0.000000 1.862010 
# 
# From -- ./inp_files/91554.got.cif
#   From: 2010.06.25/outbox.cif.g09.slc.cpg/sg12_46_cif.got.tgz:91554.got - 2010.06.28 00:19:55.
