data_PCOD8107849
_publ_section_title
;
Structure prediction by ZEFSAII (Michael W. Deem and Ramdas Pophale) SiO2 
 PCOD8107849
Probable space group: C 2/M
;
_chemical_formula_sum "Si O2"
_cell_formula_units_Z 56
_cell_length_a 25.456210
_cell_length_b 8.471772
_cell_length_c 19.203859
_cell_angle_alpha 90.000000
_cell_angle_beta 132.022336
_cell_angle_gamma 90.000000
_cell_volume 3076.645576
_symmetry_space_group_name_H-M "C 2/M"
_symmetry_group_IT_number 12
_symmetry_cell_setting 'monoclinic'
loop_
_space_group_symop_operation_xyz
x,y,z
-x,y,-z
-x,-y,-z
x,-y,z
1/2+x,1/2+y,z
1/2-x,1/2+y,-z
1/2-x,1/2-y,-z
1/2+x,1/2-y,z
loop_
_atom_site_type_symbol
_atom_site_label
_atom_site_fract_x
_atom_site_fract_y
_atom_site_fract_z
Si Si1 0.605809 0.817174 0.592527
Si Si2 0.765834 0.814877 0.220289
Si Si3 0.393931 0.815314 0.900438
Si Si4 0.995694 0.183859 0.101072
Si Si5 0.196864 0.684866 0.895739
Si Si6 0.534803 0.184919 0.779270
Si Si7 0.502221 0.683632 0.397352
O O1 0.686369 0.771196 0.679618
O O2 0.577007 0.718647 0.501061
O O3 0.559588 0.781966 0.620099
O O4 0.600377 0.000000 0.569183
O O5 0.686216 0.757372 0.162720
O O6 0.789816 0.772842 0.164269
O O7 0.773735 0.000000 0.237640
O O8 0.429218 0.719939 0.868445
O O9 0.398767 0.000000 0.888525
O O10 0.433823 0.780904 0.008107
O O11 0.999748 0.236823 0.184035
O O12 0.978484 0.000000 0.079669
O O13 0.209004 0.500000 0.895443
O O14 0.117924 0.722999 0.850976
O O15 0.250000 0.750000 0.000000
O O16 0.493743 0.263047 0.678558
O O17 0.520003 0.000000 0.766311
O O18 0.483967 0.500000 0.387288
#
# Coordination Sequence:
#
# PCOD8107849 Si02
#       7
#     8   8   8   8   8   8   8
#     4  11  21  35  55  80 112 147 182 223 275 330
#     4  11  22  36  56  81 110 144 185 228 274 327
#     4  10  21  38  58  80 109 147 187 231 278 325
#     4  11  22  36  57  83 109 144 189 234 274 323
#     4  11  23  35  51  76 111 148 181 220 272 331
#     4  11  22  37  55  79 111 148 184 224 277 331
#     4  11  21  35  56  81 110 144 185 229 270 323
#
# _framework density 18.201640999999999
#
# number of rings (size 3 to 8) (size 9 to 14) (size 15 to 20)
#    0.000    1.143    1.429    8.143    0.000    7.429 
#    0.000    0.000    0.000    0.857    0.000    0.000 
#    0.000    0.000    0.000    0.000    0.000    0.000 
#
# Total GULP energy -347368.815889 kJ/mol
# GULP energy per Si atom -12406.029139 kJ/mol
# Density = 1.816021 g / cm^3
# Si number density = 18.201641 Si / 1000 Ang^3
#
#
#
# Elastic Constant Matrix: (Units=GPa)
#
#
# Indices 1 2 3 4 5 6 
#
# 1 64.7218 21.6370 43.3547 0.0000 -9.4255 0.0000
# 2 21.6370 73.2011 10.0741 0.0000 -0.9984 0.0000
# 3 43.3547 10.0741 103.4063 0.0000 -11.3550 0.0000
# 4 0.0000 0.0000 0.0000 33.9606 0.0000 -2.4501
# 5 -9.4255 -0.9984 -11.3550 0.0000 28.7736 0.0000
# 6 0.0000 0.0000 0.0000 -2.4501 0.0000 27.2812
#
#
#
# Elastic Compliance Matrix: (Units=1/GPa)
#
#
# Indices 1 2 3 4 5 6 
#
# 1 0.024069 -0.005810 -0.009075 0.000000 0.004102 0.000000
# 2 -0.005810 0.015249 0.000836 0.000000 -0.001044 0.000000
# 3 -0.009075 0.000836 0.013663 0.000000 0.002448 0.000000
# 4 0.000000 0.000000 0.000000 0.029638 0.000000 0.002662
# 5 0.004102 -0.001044 0.002448 0.000000 0.037028 0.000000
# 6 0.000000 0.000000 0.000000 0.002662 0.000000 0.036894
#
#
# Mechanical properties :
#
#
# Convention : Reuss Voigt Hill
#
# Bulk Modulus (GPa) = 40.18832 43.49566 41.84199
# Shear Modulus (GPa) = 25.91566 29.08730 27.50148
#
# Velocity S-wave (km/s) = 3.77743 4.00191 3.89129
# Velocity P-wave (km/s) = 6.41504 6.73069 6.57476
#
# Compressibility (1/GPa) = 0.02488285
#
# Stress axis : x y z
#
# Youngs Moduli (GPa) = 41.54666 65.57813 73.19110
#
# Poissons Ratio (x) = 0.38098 0.66421
# Poissons Ratio (y) = 0.24137 -0.06115
# Poissons Ratio (z) = 0.37704 -0.05479
#
# Static dielectric constant tensor:
#      x y z
#    x 3.356620 0.000000 0.002110 
#    y 0.000000 3.514400 0.000000 
#    z 0.002110 0.000000 3.548710 
# 
# 
# High freq. dielectric constant tensor:
#      x y z
#    x 1.684880 0.000000 0.000250 
#    y 0.000000 1.724760 0.000000 
#    z 0.000250 0.000000 1.709770 
# 
# From -- ./inp_files/291967.got.cif
#   From: 2010.06.25/outbox.cif.g09.slc.cpg/sg12_146_cif.got.tgz:291967.got - 2010.06.28 00:19:55.
