data_PCOD8107316
_publ_section_title
;
Structure prediction by ZEFSAII (Michael W. Deem and Ramdas Pophale) SiO2 
 PCOD8107316
Probable space group: C 2/M
;
_chemical_formula_sum "Si O2"
_cell_formula_units_Z 40
_cell_length_a 15.650013
_cell_length_b 8.749782
_cell_length_c 31.157677
_cell_angle_alpha 90.000000
_cell_angle_beta 151.754936
_cell_angle_gamma 90.000000
_cell_volume 2019.119013
_symmetry_space_group_name_H-M "C 2/M"
_symmetry_group_IT_number 12
_symmetry_cell_setting 'monoclinic'
loop_
_space_group_symop_operation_xyz
x,y,z
-x,y,-z
-x,-y,-z
x,-y,z
1/2+x,1/2+y,z
1/2-x,1/2+y,-z
1/2-x,1/2-y,-z
1/2+x,1/2-y,z
loop_
_atom_site_type_symbol
_atom_site_label
_atom_site_fract_x
_atom_site_fract_y
_atom_site_fract_z
Si Si1 0.603111 0.327651 0.088634
Si Si2 0.441131 0.175444 0.093420
Si Si3 0.179499 0.179657 0.605462
Si Si4 0.764308 0.318555 0.278994
Si Si5 0.971446 0.326953 0.286786
O O1 0.549425 0.500000 0.080550
O O2 0.548758 0.195763 0.097125
O O3 0.820601 0.318285 0.182029
O O4 0.500000 0.287610 0.000000
O O5 0.559181 0.256135 0.182882
O O6 0.415811 0.000000 0.094830
O O7 0.250000 0.250000 0.000000
O O8 0.158198 0.261824 0.641698
O O9 0.347256 0.250696 0.652092
O O10 0.000000 0.216148 0.500000
O O11 0.206929 0.000000 0.625924
O O12 0.755493 0.500000 0.273571
O O13 0.893776 0.256427 0.297268
O O14 0.023805 0.500000 0.320703
#
# Coordination Sequence:
#
# PCOD8107316 Si02
#       5
#     8   8   8   8   8
#     4   9  18  33  54  80 110 151 192 230 287 344
#     4  11  22  36  55  82 115 151 191 234 285 344
#     4  10  21  37  59  87 115 151 196 240 291 351
#     4  10  21  39  59  82 113 152 194 240 296 348
#     4   8  17  35  55  78 114 153 188 231 290 348
#
# _framework density 19.810621999999999
#
# number of rings (size 3 to 8) (size 9 to 14) (size 15 to 20)
#    0.000    2.400    0.000    3.600    2.800    1.600 
#    0.000    5.000    0.000    0.000    0.000    0.000 
#    0.000    0.000    0.000    0.000    0.000    0.000 
#
# Total GULP energy -247818.434296 kJ/mol
# GULP energy per Si atom -12390.921715 kJ/mol
# Density = 1.976553 g / cm^3
# Si number density = 19.810622 Si / 1000 Ang^3
#
#
#
# Elastic Constant Matrix: (Units=GPa)
#
#
# Indices 1 2 3 4 5 6 
#
# 1 106.1665 24.7574 71.7459 -0.0001 -1.9279 0.0004
# 2 24.7574 69.9399 38.1658 -0.0002 -5.3458 0.0008
# 3 71.7459 38.1658 147.0521 -0.0001 -5.0283 0.0002
# 4 -0.0001 -0.0002 -0.0001 24.2265 0.0000 -7.1765
# 5 -1.9279 -5.3458 -5.0283 0.0000 37.7907 -0.0002
# 6 0.0004 0.0008 0.0002 -7.1765 -0.0002 25.2539
#
#
#
# Elastic Compliance Matrix: (Units=1/GPa)
#
#
# Indices 1 2 3 4 5 6 
#
# 1 0.014182 -0.001474 -0.006549 0.000000 -0.000356 0.000000
# 2 -0.001474 0.016932 -0.003613 0.000000 0.001839 0.000000
# 3 -0.006549 -0.003613 0.010954 0.000000 0.000612 0.000000
# 4 0.000000 0.000000 0.000000 0.045071 0.000000 0.012808
# 5 -0.000356 0.001839 0.000612 0.000000 0.026785 0.000000
# 6 0.000000 0.000000 0.000000 0.012808 0.000000 0.043238
#
#
# Mechanical properties :
#
#
# Convention : Reuss Voigt Hill
#
# Bulk Modulus (GPa) = 53.19925 65.83295 59.51610
# Shear Modulus (GPa) = 26.78123 30.02018 28.40070
#
# Velocity S-wave (km/s) = 3.68076 3.89698 3.79041
# Velocity P-wave (km/s) = 6.70643 7.31792 7.01883
#
# Compressibility (1/GPa) = 0.01879726
#
# Stress axis : x y z
#
# Youngs Moduli (GPa) = 70.51123 59.06130 91.28994
#
# Poissons Ratio (x) = 0.08704 0.59787
# Poissons Ratio (y) = 0.10391 0.32979
# Poissons Ratio (z) = 0.46178 0.21336
#
# Static dielectric constant tensor:
#      x y z
#    x 3.926030 -0.000030 0.168830 
#    y -0.000030 3.729040 -0.000010 
#    z 0.168830 -0.000010 3.929400 
# 
# 
# High freq. dielectric constant tensor:
#      x y z
#    x 1.764710 0.000000 0.001820 
#    y 0.000000 1.743970 0.000000 
#    z 0.001820 0.000000 1.782690 
# 
# From -- ./inp_files/211435.got.cif
#   From: 2010.06.25/outbox.cif.g09.slc.cpg/sg12_106_cif.got.tgz:211435.got - 2010.06.28 00:19:55.
