data_PCOD8107693
_publ_section_title
;
Structure prediction by ZEFSAII (Michael W. Deem and Ramdas Pophale) SiO2 
 PCOD8107693
Probable space group: C 2/M
;
_chemical_formula_sum "Si O2"
_cell_formula_units_Z 64
_cell_length_a 18.771137
_cell_length_b 15.248420
_cell_length_c 14.314930
_cell_angle_alpha 90.000000
_cell_angle_beta 138.062849
_cell_angle_gamma 90.000000
_cell_volume 2738.330623
_symmetry_space_group_name_H-M "C 2/M"
_symmetry_group_IT_number 12
_symmetry_cell_setting 'monoclinic'
loop_
_space_group_symop_operation_xyz
x,y,z
-x,y,-z
-x,-y,-z
x,-y,z
1/2+x,1/2+y,z
1/2-x,1/2+y,-z
1/2-x,1/2-y,-z
1/2+x,1/2-y,z
loop_
_atom_site_type_symbol
_atom_site_label
_atom_site_fract_x
_atom_site_fract_y
_atom_site_fract_z
Si Si1 0.118876 0.594710 0.151634
Si Si2 0.796384 0.600773 0.291931
Si Si3 0.025573 0.901209 0.624398
Si Si4 0.744342 0.599615 0.898569
Si Si5 0.603129 0.713423 0.166783
Si Si6 0.133705 0.348644 0.445469
Si Si7 0.098691 0.396913 0.797166
Si Si8 0.147165 0.845122 0.410468
O O1 0.143412 0.500000 0.226966
O O2 0.197868 0.605592 0.143049
O O3 0.132539 0.684938 0.223770
O O4 0.000000 0.589785 0.000000
O O5 0.757537 0.500000 0.241600
O O6 0.695981 0.665757 0.199202
O O7 0.869393 0.608432 0.455023
O O8 0.869104 0.630406 0.275806
O O9 0.127548 0.854296 0.773521
O O10 0.000000 0.854143 0.500000
O O11 0.925132 0.906174 0.595553
O O12 0.062064 0.000000 0.636181
O O13 0.727446 0.500000 0.915620
O O14 0.816239 0.646557 0.048136
O O15 0.590002 0.665180 0.253382
O O16 0.500000 0.708154 0.000000
O O17 0.157661 0.245640 0.477177
O O18 0.235019 0.388653 0.486726
O O19 0.018800 0.363685 0.287136
O O20 0.095260 0.500000 0.807649
#
# Coordination Sequence:
#
# PCOD8107693 Si02
#       8
#     8   8   8   8   8   8   8   8
#     4   9  19  38  63  91 131 170 208 271 339 394
#     4  10  22  41  62  92 133 177 220 269 332 397
#     4  10  23  44  67  91 127 177 227 273 331 401
#     4   9  20  38  61  96 129 162 218 275 330 397
#     4  10  23  39  63 100 134 170 221 276 331 404
#     4  10  22  40  61  89 129 170 222 272 328 393
#     4  10  21  37  63  95 129 169 217 275 332 394
#     4  10  24  42  63  92 131 171 220 279 332 396
#
# _framework density 23.371905000000002
#
# number of rings (size 3 to 8) (size 9 to 14) (size 15 to 20)
#    0.000    2.250    0.000    0.750    5.250    8.750 
#    0.000    1.875    0.000    0.000    0.000    0.000 
#    0.000    0.000    0.000    0.000    0.000    0.000 
#
# Total GULP energy -396549.861301 kJ/mol
# GULP energy per Si atom -12392.183166 kJ/mol
# Density = 2.331871 g / cm^3
# Si number density = 23.371905 Si / 1000 Ang^3
#
#
#
# Elastic Constant Matrix: (Units=GPa)
#
#
# Indices 1 2 3 4 5 6 
#
# 1 135.5083 16.4931 79.1424 0.0000 20.6040 0.0000
# 2 16.4931 62.9058 22.4947 0.0000 4.5451 0.0000
# 3 79.1424 22.4947 167.7444 0.0000 19.8345 0.0000
# 4 0.0000 0.0000 0.0000 22.0451 0.0000 0.3277
# 5 20.6040 4.5451 19.8345 0.0000 34.2344 0.0000
# 6 0.0000 0.0000 0.0000 0.3277 0.0000 26.8839
#
#
#
# Elastic Compliance Matrix: (Units=1/GPa)
#
#
# Indices 1 2 3 4 5 6 
#
# 1 0.010667 -0.000931 -0.004470 0.000000 -0.003707 0.000000
# 2 -0.000931 0.016810 -0.001736 0.000000 -0.000666 0.000000
# 3 -0.004470 -0.001736 0.008543 0.000000 -0.002029 0.000000
# 4 0.000000 0.000000 0.000000 0.045370 0.000000 -0.000553
# 5 -0.003707 -0.000666 -0.002029 0.000000 0.032705 0.000000
# 6 0.000000 0.000000 0.000000 -0.000553 0.000000 0.037204
#
#
# Mechanical properties :
#
#
# Convention : Reuss Voigt Hill
#
# Bulk Modulus (GPa) = 45.98458 66.93545 56.46001
# Shear Modulus (GPa) = 28.93173 33.16790 31.04981
#
# Velocity S-wave (km/s) = 3.52218 3.77123 3.64883
# Velocity P-wave (km/s) = 6.02153 6.90394 6.47778
#
# Compressibility (1/GPa) = 0.02174642
#
# Stress axis : x y z
#
# Youngs Moduli (GPa) = 93.74764 59.48910 117.05495
#
# Poissons Ratio (x) = 0.05536 0.52319
# Poissons Ratio (y) = 0.08724 0.20326
# Poissons Ratio (z) = 0.41901 0.10330
#
# Static dielectric constant tensor:
#      x y z
#    x 4.085130 0.000000 0.092030 
#    y 0.000000 4.163540 0.000000 
#    z 0.092030 0.000000 4.395400 
# 
# 
# High freq. dielectric constant tensor:
#      x y z
#    x 1.928610 0.000000 0.007060 
#    y 0.000000 1.900790 0.000000 
#    z 0.007060 0.000000 1.930080 
# 
# From -- ./inp_files/226860.got.cif
#   From: 2010.06.25/outbox.cif.g09.slc.cpg/sg12_114_cif.got.tgz:226860.got - 2010.06.28 00:19:55.
