data_PCOD8107023
_publ_section_title
;
Structure prediction by ZEFSAII (Michael W. Deem and Ramdas Pophale) SiO2 
 PCOD8107023
Probable space group: C 2/M
;
_chemical_formula_sum "Si O2"
_cell_formula_units_Z 40
_cell_length_a 14.564506
_cell_length_b 8.852182
_cell_length_c 30.775295
_cell_angle_alpha 90.000000
_cell_angle_beta 147.327401
_cell_angle_gamma 90.000000
_cell_volume 2141.961311
_symmetry_space_group_name_H-M "C 2/M"
_symmetry_group_IT_number 12
_symmetry_cell_setting 'monoclinic'
loop_
_space_group_symop_operation_xyz
x,y,z
-x,y,-z
-x,-y,-z
x,-y,z
1/2+x,1/2+y,z
1/2-x,1/2+y,-z
1/2-x,1/2-y,-z
1/2+x,1/2-y,z
loop_
_atom_site_type_symbol
_atom_site_label
_atom_site_fract_x
_atom_site_fract_y
_atom_site_fract_z
Si Si1 0.766784 0.320793 0.295789
Si Si2 0.413185 0.323650 0.010360
Si Si3 0.527198 0.823997 0.876502
Si Si4 0.824963 0.326205 0.413891
Si Si5 0.384193 0.674962 0.585656
O O1 0.762714 0.500000 0.291115
O O2 0.604529 0.258017 0.206779
O O3 0.761740 0.257319 0.343165
O O4 0.938719 0.260791 0.343059
O O5 0.449132 0.500000 0.031645
O O6 0.212277 0.288667 0.930074
O O7 0.500000 0.267407 0.000000
O O8 0.495733 0.235664 0.083581
O O9 0.487388 0.000000 0.861210
O O10 0.869089 0.500000 0.422234
O O11 0.677906 0.305677 0.390031
O O12 0.000000 0.246748 0.500000
O O13 0.405333 0.500000 0.581208
O O14 0.250000 0.750000 0.500000
#
# Coordination Sequence:
#
# PCOD8107023 Si02
#       5
#     8   8   8   8   8
#     4  11  22  38  58  80 112 152 192 236 282 331
#     4   9  19  38  63  87 115 150 185 227 278 335
#     4  10  21  37  57  86 119 148 184 230 281 338
#     4   9  18  35  56  77 106 146 188 229 281 337
#     4  11  21  36  57  81 109 144 189 236 285 337
#
# _framework density 18.674475000000001
#
# number of rings (size 3 to 8) (size 9 to 14) (size 15 to 20)
#    0.000    2.000    2.000    1.800    0.000    2.800 
#    0.000    9.000    0.000    0.000    0.000    0.000 
#    0.000    0.000    0.000    0.000    0.000    0.000 
#
# Total GULP energy -248003.658422 kJ/mol
# GULP energy per Si atom -12400.182921 kJ/mol
# Density = 1.863197 g / cm^3
# Si number density = 18.674475 Si / 1000 Ang^3
#
#
#
# Elastic Constant Matrix: (Units=GPa)
#
#
# Indices 1 2 3 4 5 6 
#
# 1 133.3052 48.7788 77.5917 0.0000 -18.1760 0.0000
# 2 48.7788 79.6372 74.6514 0.0000 -11.1629 0.0001
# 3 77.5917 74.6514 145.9226 0.0000 -8.8819 0.0000
# 4 0.0000 0.0000 0.0000 33.7281 0.0000 2.4203
# 5 -18.1760 -11.1629 -8.8819 0.0000 22.6514 0.0000
# 6 0.0000 0.0001 0.0000 2.4203 0.0000 26.2960
#
#
#
# Elastic Compliance Matrix: (Units=1/GPa)
#
#
# Indices 1 2 3 4 5 6 
#
# 1 0.012017 -0.001540 -0.005185 0.000000 0.006851 0.000000
# 2 -0.001540 0.025536 -0.011837 0.000000 0.006708 0.000000
# 3 -0.005185 -0.011837 0.015425 0.000000 -0.003946 0.000000
# 4 0.000000 0.000000 0.000000 0.029846 0.000000 -0.002747
# 5 0.006851 0.006708 -0.003946 0.000000 0.051403 0.000000
# 6 0.000000 0.000000 0.000000 -0.002747 0.000000 0.038281
#
#
# Mechanical properties :
#
#
# Convention : Reuss Voigt Hill
#
# Bulk Modulus (GPa) = 63.07116 84.54543 73.80829
# Shear Modulus (GPa) = 23.26472 27.05797 25.16135
#
# Velocity S-wave (km/s) = 3.53342 3.81061 3.67463
# Velocity P-wave (km/s) = 7.10592 8.04565 7.59034
#
# Compressibility (1/GPa) = 0.01585511
#
# Stress axis : x y z
#
# Youngs Moduli (GPa) = 83.21371 39.16046 64.82818
#
# Poissons Ratio (x) = 0.06030 0.33615
# Poissons Ratio (y) = 0.12813 0.76735
# Poissons Ratio (z) = 0.43148 0.46353
#
# Static dielectric constant tensor:
#      x y z
#    x 3.540290 0.000000 -0.138630 
#    y 0.000000 3.422310 0.000000 
#    z -0.138630 0.000000 3.443570 
# 
# 
# High freq. dielectric constant tensor:
#      x y z
#    x 1.734510 0.000000 -0.004000 
#    y 0.000000 1.716900 0.000000 
#    z -0.004000 0.000000 1.729260 
# 
# From -- ./inp_files/211183.got.cif
#   From: 2010.06.25/outbox.cif.g09.slc.cpg/sg12_106_cif.got.tgz:211183.got - 2010.06.28 00:19:55.
