data_PCOD8107111
_publ_section_title
;
Structure prediction by ZEFSAII (Michael W. Deem and Ramdas Pophale) SiO2 
 PCOD8107111
Probable space group: C 2/M
;
_chemical_formula_sum "Si O2"
_cell_formula_units_Z 40
_cell_length_a 13.719344
_cell_length_b 13.850318
_cell_length_c 11.912267
_cell_angle_alpha 90.000000
_cell_angle_beta 112.461504
_cell_angle_gamma 90.000000
_cell_volume 2091.816605
_symmetry_space_group_name_H-M "C 2/M"
_symmetry_group_IT_number 12
_symmetry_cell_setting 'monoclinic'
loop_
_space_group_symop_operation_xyz
x,y,z
-x,y,-z
-x,-y,-z
x,-y,z
1/2+x,1/2+y,z
1/2-x,1/2+y,-z
1/2-x,1/2-y,-z
1/2+x,1/2-y,z
loop_
_atom_site_type_symbol
_atom_site_label
_atom_site_fract_x
_atom_site_fract_y
_atom_site_fract_z
Si Si1 0.695036 0.227408 0.359610
Si Si2 0.768085 0.607212 0.249603
Si Si3 0.954131 0.284727 0.253863
Si Si4 0.175136 0.608367 0.964051
Si Si5 0.314732 0.613188 0.234156
O O1 0.750000 0.250000 0.500000
O O2 0.688390 0.323968 0.281047
O O3 0.575879 0.194896 0.329625
O O4 0.759379 0.141835 0.326737
O O5 0.762224 0.500000 0.298822
O O6 0.887410 0.650462 0.313952
O O7 0.741580 0.606895 0.104240
O O8 0.922814 0.172448 0.261110
O O9 0.921921 0.320481 0.112878
O O10 0.130745 0.500000 0.964406
O O11 0.234132 0.645508 0.100461
O O12 0.341591 0.500000 0.244076
#
# Coordination Sequence:
#
# PCOD8107111 Si02
#       5
#     8   8   8   8   8
#     4  11  24  37  52  80 113 147 189 226 263 318
#     4   8  18  37  57  76 106 142 178 224 270 319
#     4   9  19  36  57  80 110 142 182 222 276 322
#     4   8  16  36  61  84 109 137 178 228 279 330
#     4  10  21  37  58  84 114 142 176 228 281 327
#
# _framework density 19.122135
#
# number of rings (size 3 to 8) (size 9 to 14) (size 15 to 20)
#    1.200    1.600    0.000    0.600    0.000    7.200 
#    0.000    4.000    0.000    3.600    0.000    0.000 
#    0.000    0.000    0.000    0.000    0.000    0.000 
#
# Total GULP energy -247769.759344 kJ/mol
# GULP energy per Si atom -12388.487967 kJ/mol
# Density = 1.907861 g / cm^3
# Si number density = 19.122135 Si / 1000 Ang^3
#
#
#
# Elastic Constant Matrix: (Units=GPa)
#
#
# Indices 1 2 3 4 5 6 
#
# 1 54.0245 -3.1683 13.3538 0.0000 1.3878 0.0000
# 2 -3.1683 89.0769 3.5900 0.0000 -7.0200 0.0000
# 3 13.3538 3.5900 85.4215 0.0000 -0.1257 0.0000
# 4 0.0000 0.0000 0.0000 20.9879 0.0000 -7.1557
# 5 1.3878 -7.0200 -0.1257 0.0000 16.2071 0.0000
# 6 0.0000 0.0000 0.0000 -7.1557 0.0000 16.2943
#
#
#
# Elastic Compliance Matrix: (Units=1/GPa)
#
#
# Indices 1 2 3 4 5 6 
#
# 1 0.019342 0.000703 -0.003055 0.000000 -0.001376 0.000000
# 2 0.000703 0.011668 -0.000593 0.000000 0.004989 0.000000
# 3 -0.003055 -0.000593 0.012209 0.000000 0.000100 0.000000
# 4 0.000000 0.000000 0.000000 0.056037 0.000000 0.024609
# 5 -0.001376 0.004989 0.000100 0.000000 0.063981 0.000000
# 6 0.000000 0.000000 0.000000 0.024609 0.000000 0.072178
#
#
# Mechanical properties :
#
#
# Convention : Reuss Voigt Hill
#
# Bulk Modulus (GPa) = 26.78908 28.45266 27.62087
# Shear Modulus (GPa) = 19.70453 25.01436 22.35944
#
# Velocity S-wave (km/s) = 3.21355 3.62074 3.42321
# Velocity P-wave (km/s) = 5.27344 5.69135 5.48637
#
# Compressibility (1/GPa) = 0.03732865
#
# Stress axis : x y z
#
# Youngs Moduli (GPa) = 51.70132 85.70198 81.90453
#
# Poissons Ratio (x) = -0.06022 0.25024
# Poissons Ratio (y) = -0.03633 0.04856
# Poissons Ratio (z) = 0.15796 0.05081
#
# Static dielectric constant tensor:
#      x y z
#    x 3.105850 0.000000 -0.164360 
#    y 0.000000 3.554390 0.000000 
#    z -0.164360 0.000000 3.319360 
# 
# 
# High freq. dielectric constant tensor:
#      x y z
#    x 1.706740 0.000000 -0.011740 
#    y 0.000000 1.753680 0.000000 
#    z -0.011740 0.000000 1.725520 
# 
# From -- ./inp_files/129298.got.cif
#   From: 2010.06.25/outbox.cif.g09.slc.cpg/sg12_65_cif.got.tgz:129298.got - 2010.06.28 00:19:55.
