data_PCOD8107242
_publ_section_title
;
Structure prediction by ZEFSAII (Michael W. Deem and Ramdas Pophale) SiO2 
 PCOD8107242
Probable space group: C 2/M
;
_chemical_formula_sum "Si O2"
_cell_formula_units_Z 48
_cell_length_a 10.290824
_cell_length_b 18.862528
_cell_length_c 19.819415
_cell_angle_alpha 90.000000
_cell_angle_beta 35.298423
_cell_angle_gamma 90.000000
_cell_volume 2223.027548
_symmetry_space_group_name_H-M "C 2/M"
_symmetry_group_IT_number 12
_symmetry_cell_setting 'monoclinic'
loop_
_space_group_symop_operation_xyz
x,y,z
-x,y,-z
-x,-y,-z
x,-y,z
1/2+x,1/2+y,z
1/2-x,1/2+y,-z
1/2-x,1/2-y,-z
1/2+x,1/2-y,z
loop_
_atom_site_type_symbol
_atom_site_label
_atom_site_fract_x
_atom_site_fract_y
_atom_site_fract_z
Si Si1 0.310694 0.576497 0.024298
Si Si2 0.942159 0.726170 0.681516
Si Si3 0.592595 0.345069 0.531329
Si Si4 0.245507 0.917851 0.595897
Si Si5 0.734397 0.775296 0.100568
Si Si6 0.968694 0.855190 0.188053
O O1 0.178504 0.500000 0.080998
O O2 0.159027 0.646039 0.106122
O O3 0.500000 0.573227 0.000000
O O4 0.428130 0.582302 0.901127
O O5 0.885441 0.748881 0.780597
O O6 0.783557 0.661107 0.728666
O O7 0.198512 0.703598 0.575551
O O8 0.910141 0.792949 0.644215
O O9 0.500000 0.377850 0.500000
O O10 0.667978 0.406302 0.551483
O O11 0.500000 0.887746 0.500000
O O12 0.059887 0.879487 0.722240
O O13 0.242909 0.000000 0.614807
O O14 0.631710 0.712058 0.098144
O O15 0.000000 0.771099 0.000000
#
# Coordination Sequence:
#
# PCOD8107242 Si02
#       6
#     8   8   8   8   8   8
#     4  10  21  37  58  90 128 164 206 263 325 379
#     4  11  22  38  64  96 128 163 217 274 327 382
#     4  11  24  41  65  97 133 168 214 276 334 387
#     4  11  24  42  67  98 132 176 222 267 324 395
#     4  11  22  38  61  96 127 165 216 273 318 385
#     4  12  21  40  66  92 129 169 222 265 322 386
#
# _framework density 21.592177
#
# number of rings (size 3 to 8) (size 9 to 14) (size 15 to 20)
#    0.000    1.000    6.667    2.000    2.333    0.333 
#    0.000    0.833    0.000    9.000    0.000    0.000 
#    0.000    0.667    0.000    0.000    0.000    0.000 
#
# Total GULP energy -297358.979833 kJ/mol
# GULP energy per Si atom -12389.957493 kJ/mol
# Density = 2.154303 g / cm^3
# Si number density = 21.592177 Si / 1000 Ang^3
#
#
#
# Elastic Constant Matrix: (Units=GPa)
#
#
# Indices 1 2 3 4 5 6 
#
# 1 97.9666 34.4401 16.1584 -0.0190 9.5131 -0.0024
# 2 34.4401 124.0221 45.6525 -0.0272 6.5306 0.0137
# 3 16.1584 45.6525 85.3347 -0.0315 14.0854 0.0341
# 4 -0.0190 -0.0272 -0.0315 33.4887 -0.0151 -0.5287
# 5 9.5131 6.5306 14.0854 -0.0151 24.3774 0.0063
# 6 -0.0024 0.0137 0.0341 -0.5287 0.0063 30.0803
#
#
#
# Elastic Compliance Matrix: (Units=1/GPa)
#
#
# Indices 1 2 3 4 5 6 
#
# 1 0.011637 -0.003052 0.000048 0.000003 -0.003752 0.000003
# 2 -0.003052 0.010845 -0.005462 0.000003 0.001442 0.000001
# 3 0.000048 -0.005462 0.015911 0.000007 -0.007749 -0.000014
# 4 0.000003 0.000003 0.000007 0.029869 0.000013 0.000525
# 5 -0.003752 0.001442 -0.007749 0.000013 0.046577 -0.000002
# 6 0.000003 0.000001 -0.000014 0.000525 -0.000002 0.033254
#
#
# Mechanical properties :
#
#
# Convention : Reuss Voigt Hill
#
# Bulk Modulus (GPa) = 46.59472 55.53617 51.06544
# Shear Modulus (GPa) = 29.03997 31.66078 30.35037
#
# Velocity S-wave (km/s) = 3.67131 3.83339 3.75323
# Velocity P-wave (km/s) = 6.29266 6.73569 6.51794
#
# Compressibility (1/GPa) = 0.02146166
#
# Stress axis : x y z
#
# Youngs Moduli (GPa) = 85.93502 92.20679 62.85146
#
# Poissons Ratio (x) = 0.28139 -0.00304
# Poissons Ratio (y) = 0.26225 0.34330
# Poissons Ratio (z) = -0.00416 0.50364
#
# Static dielectric constant tensor:
#      x y z
#    x 3.907620 0.000210 0.298650 
#    y 0.000210 4.141620 0.000080 
#    z 0.298650 0.000080 4.014510 
# 
# 
# High freq. dielectric constant tensor:
#      x y z
#    x 1.841620 0.000000 0.031340 
#    y 0.000000 1.837610 0.000010 
#    z 0.031340 0.000010 1.846060 
# 
# From -- ./inp_files/336619.got.cif
#   From: 2010.06.25/outbox.cif.g09.slc.cpg/sg12_169_cif.got.tgz:336619.got - 2010.06.28 00:19:55.
