data_PCOD8107429
_publ_section_title
;
Structure prediction by ZEFSAII (Michael W. Deem and Ramdas Pophale) SiO2 
 PCOD8107429
Probable space group: C 2/M
;
_chemical_formula_sum "Si O2"
_cell_formula_units_Z 64
_cell_length_a 29.327250
_cell_length_b 8.881135
_cell_length_c 14.906141
_cell_angle_alpha 90.000000
_cell_angle_beta 59.263068
_cell_angle_gamma 90.000000
_cell_volume 3337.048686
_symmetry_space_group_name_H-M "C 2/M"
_symmetry_group_IT_number 12
_symmetry_cell_setting 'monoclinic'
loop_
_space_group_symop_operation_xyz
x,y,z
-x,y,-z
-x,-y,-z
x,-y,z
1/2+x,1/2+y,z
1/2-x,1/2+y,-z
1/2-x,1/2-y,-z
1/2+x,1/2-y,z
loop_
_atom_site_type_symbol
_atom_site_label
_atom_site_fract_x
_atom_site_fract_y
_atom_site_fract_z
Si Si1 0.354294 0.678262 0.779602
Si Si2 0.339396 0.672007 0.144803
Si Si3 0.697775 0.822426 0.510988
Si Si4 0.615823 0.176598 0.070987
Si Si5 0.783478 0.327820 0.708682
Si Si6 0.506533 0.325691 0.214922
Si Si7 0.967629 0.825157 0.613164
Si Si8 0.390182 0.323813 0.280747
O O1 0.355244 0.500000 0.790670
O O2 0.350630 0.747924 0.882491
O O3 0.305555 0.725514 0.766583
O O4 0.408311 0.741267 0.679801
O O5 0.350120 0.500000 0.104342
O O6 0.279031 0.696977 0.233331
O O7 0.373965 0.715615 0.196273
O O8 0.354604 0.783702 0.050308
O O9 0.750000 0.750000 0.500000
O O10 0.692704 0.778101 0.411193
O O11 0.644992 0.766502 0.612929
O O12 0.703752 0.000000 0.515893
O O13 0.555115 0.231993 0.125571
O O14 0.616259 0.000000 0.085604
O O15 0.797993 0.500000 0.715696
O O16 0.518630 0.500000 0.182341
O O17 0.500924 0.296995 0.326668
O O18 0.451370 0.273080 0.227082
O O19 0.000000 0.744764 0.500000
O O20 0.961877 0.000000 0.596781
O O21 0.383101 0.500000 0.309362
#
# Coordination Sequence:
#
# PCOD8107429 Si02
#       8
#     8   8   8   8   8   8   8   8
#     4  10  21  37  60  86 114 151 194 239 290 347
#     4  10  21  40  61  82 114 153 199 243 290 350
#     4  11  22  38  59  85 122 161 197 240 290 344
#     4  11  23  40  61  84 116 151 191 245 301 347
#     4  10  22  39  58  85 121 156 191 239 291 344
#     4   9  19  36  59  84 116 154 195 236 286 349
#     4   8  15  29  50  80 111 141 183 234 275 324
#     4  10  21  38  61  89 118 156 199 242 291 345
#
# _framework density 19.178623000000002
#
# number of rings (size 3 to 8) (size 9 to 14) (size 15 to 20)
#    0.000    2.125    1.250    2.625    1.750    3.500 
#    0.000    2.500    0.000    1.875    0.000    0.000 
#    0.000    0.000    0.000    0.000    0.000    0.000 
#
# Total GULP energy -396856.464732 kJ/mol
# GULP energy per Si atom -12401.764523 kJ/mol
# Density = 1.913497 g / cm^3
# Si number density = 19.178623 Si / 1000 Ang^3
#
#
#
# Elastic Constant Matrix: (Units=GPa)
#
#
# Indices 1 2 3 4 5 6 
#
# 1 107.1629 36.4559 18.7690 0.0000 20.3283 0.0000
# 2 36.4559 83.1214 39.2591 0.0000 7.5932 0.0000
# 3 18.7690 39.2591 93.2364 0.0000 15.4971 0.0000
# 4 0.0000 0.0000 0.0000 30.9121 0.0000 -0.9636
# 5 20.3283 7.5932 15.4971 0.0000 18.4027 0.0000
# 6 0.0000 0.0000 0.0000 -0.9636 0.0000 27.9036
#
#
#
# Elastic Compliance Matrix: (Units=1/GPa)
#
#
# Indices 1 2 3 4 5 6 
#
# 1 0.013625 -0.005611 0.002019 0.000000 -0.014436 0.000000
# 2 -0.005611 0.017344 -0.006993 0.000000 0.004930 0.000000
# 3 0.002019 -0.006993 0.015296 0.000000 -0.012226 0.000000
# 4 0.000000 0.000000 0.000000 0.032385 0.000000 0.001118
# 5 -0.014436 0.004930 -0.012226 0.000000 0.078547 0.000000
# 6 0.000000 0.000000 0.000000 0.001118 0.000000 0.035876
#
#
# Mechanical properties :
#
#
# Convention : Reuss Voigt Hill
#
# Bulk Modulus (GPa) = 39.84794 52.49876 46.17335
# Shear Modulus (GPa) = 22.46108 28.04612 25.25360
#
# Velocity S-wave (km/s) = 3.42592 3.82824 3.63265
# Velocity P-wave (km/s) = 6.03918 6.85372 6.45930
#
# Compressibility (1/GPa) = 0.02509540
#
# Stress axis : x y z
#
# Youngs Moduli (GPa) = 73.39377 57.65726 65.37850
#
# Poissons Ratio (x) = 0.32350 -0.13201
# Poissons Ratio (y) = 0.41179 0.45719
# Poissons Ratio (z) = -0.14819 0.40320
#
# Static dielectric constant tensor:
#      x y z
#    x 3.583750 0.000000 -0.022750 
#    y 0.000000 3.356490 0.000000 
#    z -0.022750 0.000000 3.601360 
# 
# 
# High freq. dielectric constant tensor:
#      x y z
#    x 1.751840 0.000000 0.002490 
#    y 0.000000 1.728530 0.000000 
#    z 0.002490 0.000000 1.751400 
# 
# From -- ./inp_files/249109.got.cif
#   From: 2010.06.25/outbox.cif.g09.slc.cpg/sg12_125_cif.got.tgz:249109.got - 2010.06.28 00:19:55.
