data_PCOD8107119
_publ_section_title
;
Structure prediction by ZEFSAII (Michael W. Deem and Ramdas Pophale) SiO2 
 PCOD8107119
Probable space group: C 2/M
;
_chemical_formula_sum "Si O2"
_cell_formula_units_Z 64
_cell_length_a 23.967676
_cell_length_b 9.247378
_cell_length_c 31.553182
_cell_angle_alpha 90.000000
_cell_angle_beta 28.255876
_cell_angle_gamma 90.000000
_cell_volume 3310.740412
_symmetry_space_group_name_H-M "C 2/M"
_symmetry_group_IT_number 12
_symmetry_cell_setting 'monoclinic'
loop_
_space_group_symop_operation_xyz
x,y,z
-x,y,-z
-x,-y,-z
x,-y,z
1/2+x,1/2+y,z
1/2-x,1/2+y,-z
1/2-x,1/2-y,-z
1/2+x,1/2-y,z
loop_
_atom_site_type_symbol
_atom_site_label
_atom_site_fract_x
_atom_site_fract_y
_atom_site_fract_z
Si Si1 0.447400 0.833147 0.812585
Si Si2 0.098658 0.333000 0.632553
Si Si3 0.731367 0.666597 0.762472
Si Si4 0.306347 0.668378 0.049124
Si Si5 0.511431 0.831341 0.443588
Si Si6 0.014108 0.166643 0.850124
Si Si7 0.636696 0.171055 0.906522
Si Si8 0.367308 0.332126 0.472537
O O1 0.506219 0.781370 0.729548
O O2 0.308285 0.803750 0.902910
O O3 0.505679 0.748418 0.811809
O O4 0.476216 0.000000 0.801100
O O5 0.080936 0.500000 0.631940
O O6 0.228237 0.303962 0.564035
O O7 0.071118 0.239503 0.609442
O O8 0.724612 0.500000 0.782038
O O9 0.859933 0.708962 0.659946
O O10 0.643264 0.693400 0.782391
O O11 0.696881 0.768785 0.824150
O O12 0.318721 0.500000 0.053222
O O13 0.296054 0.760349 0.098687
O O14 0.417802 0.725264 0.947913
O O15 0.500000 0.785745 0.500000
O O16 0.413968 0.740995 0.483842
O O17 0.484053 0.000000 0.455924
O O18 0.988210 0.000000 0.858155
O O19 0.652388 0.000000 0.896981
O O20 0.500000 0.217129 0.000000
O O21 0.399579 0.500000 0.451260
#
# Coordination Sequence:
#
# PCOD8107119 Si02
#       8
#     8   8   8   8   8   8   8   8
#     4  10  22  37  58  85 113 148 191 236 287 340
#     4   9  20  39  59  83 114 151 191 234 289 350
#     4  10  22  40  61  85 116 156 197 238 289 351
#     4  10  21  38  59  83 115 155 193 232 282 343
#     4  10  23  41  62  87 117 155 196 241 293 351
#     4  10  21  37  58  84 114 150 193 234 282 345
#     4  11  23  38  59  89 120 153 194 243 292 339
#     4  10  21  38  60  85 115 149 188 239 293 341
#
# _framework density 19.331022999999998
#
# number of rings (size 3 to 8) (size 9 to 14) (size 15 to 20)
#    0.000    2.000    1.250    1.125    3.500    3.750 
#    0.000    0.000    0.000    0.000    0.000    0.000 
#    0.000    0.000    0.000    0.000    0.000    0.000 
#
# Total GULP energy -396979.586268 kJ/mol
# GULP energy per Si atom -12405.612071 kJ/mol
# Density = 1.928702 g / cm^3
# Si number density = 19.331023 Si / 1000 Ang^3
#
#
#
# Elastic Constant Matrix: (Units=GPa)
#
#
# Indices 1 2 3 4 5 6 
#
# 1 107.9908 54.8447 25.5586 -0.0191 16.8186 0.0413
# 2 54.8447 73.2831 33.2861 -0.0228 13.3856 0.0529
# 3 25.5586 33.2861 80.1935 -0.0069 11.5601 0.0165
# 4 -0.0191 -0.0228 -0.0069 25.0462 0.0052 6.9360
# 5 16.8186 13.3856 11.5601 0.0052 26.4222 -0.0113
# 6 0.0413 0.0529 0.0165 6.9360 -0.0113 38.4724
#
#
#
# Elastic Compliance Matrix: (Units=1/GPa)
#
#
# Indices 1 2 3 4 5 6 
#
# 1 0.015384 -0.010806 0.000219 0.000004 -0.004413 -0.000004
# 2 -0.010806 0.025294 -0.006616 0.000020 -0.003041 -0.000025
# 3 0.000219 -0.006616 0.015672 -0.000001 -0.003644 0.000001
# 4 0.000004 0.000020 -0.000001 0.042024 -0.000024 -0.007576
# 5 -0.004413 -0.003041 -0.003644 -0.000024 0.043791 0.000028
# 6 -0.000004 -0.000025 0.000001 -0.007576 0.000028 0.027359
#
#
# Mechanical properties :
#
#
# Convention : Reuss Voigt Hill
#
# Bulk Modulus (GPa) = 45.57638 54.31624 49.94631
# Shear Modulus (GPa) = 23.66920 27.84002 25.75461
#
# Velocity S-wave (km/s) = 3.50296 3.79908 3.65402
# Velocity P-wave (km/s) = 6.32368 6.88498 6.61029
#
# Compressibility (1/GPa) = 0.02194119
#
# Stress axis : x y z
#
# Youngs Moduli (GPa) = 65.00340 39.53549 63.80933
#
# Poissons Ratio (x) = 0.42723 -0.01395
# Poissons Ratio (y) = 0.70245 0.42218
# Poissons Ratio (z) = -0.01421 0.26158
#
# Static dielectric constant tensor:
#      x y z
#    x 3.472980 -0.000060 -0.038400 
#    y -0.000060 3.453860 0.000000 
#    z -0.038400 0.000000 3.613840 
# 
# 
# High freq. dielectric constant tensor:
#      x y z
#    x 1.759110 0.000000 -0.000540 
#    y 0.000000 1.745540 0.000000 
#    z -0.000540 0.000000 1.758890 
# 
# From -- ./inp_files/382257.got.cif
#   From: 2010.06.25/outbox.cif.g09.slc.cpg/sg12_192_cif.got.tgz:382257.got - 2010.06.28 00:19:55.
