data_PCOD8107847
_publ_section_title
;
Structure prediction by ZEFSAII (Michael W. Deem and Ramdas Pophale) SiO2 
 PCOD8107847
Probable space group: C 2/M
;
_chemical_formula_sum "Si O2"
_cell_formula_units_Z 56
_cell_length_a 19.954355
_cell_length_b 9.120852
_cell_length_c 16.487960
_cell_angle_alpha 90.000000
_cell_angle_beta 90.016627
_cell_angle_gamma 90.000000
_cell_volume 3000.820444
_symmetry_space_group_name_H-M "C 2/M"
_symmetry_group_IT_number 12
_symmetry_cell_setting 'monoclinic'
loop_
_space_group_symop_operation_xyz
x,y,z
-x,y,-z
-x,-y,-z
x,-y,z
1/2+x,1/2+y,z
1/2-x,1/2+y,-z
1/2-x,1/2-y,-z
1/2+x,1/2-y,z
loop_
_atom_site_type_symbol
_atom_site_label
_atom_site_fract_x
_atom_site_fract_y
_atom_site_fract_z
Si Si1 0.579761 0.665764 0.500053
Si Si2 0.421740 0.829777 0.342753
Si Si3 0.733335 0.329850 0.083044
Si Si4 0.012045 0.831975 0.905363
Si Si5 0.388525 0.829415 0.832763
Si Si6 0.424864 0.832205 0.655381
Si Si7 0.130034 0.331271 0.830030
O O1 0.500000 0.680673 0.500000
O O2 0.604859 0.500000 0.501350
O O3 0.608619 0.744102 0.580160
O O4 0.607521 0.739097 0.417700
O O5 0.498677 0.784031 0.326369
O O6 0.379007 0.785778 0.263737
O O7 0.415390 0.000000 0.362788
O O8 0.719943 0.500000 0.064551
O O9 0.667231 0.261911 0.121246
O O10 0.792884 0.307666 0.147042
O O11 0.750000 0.250000 0.000000
O O12 0.960940 0.729169 0.857740
O O13 0.086363 0.773131 0.887482
O O14 0.005090 0.000000 0.876073
O O15 0.000000 0.818520 0.000000
O O16 0.380932 0.807415 0.736063
O O17 0.382973 0.000000 0.856622
O O18 0.423598 0.000000 0.627459
O O19 0.107673 0.500000 0.843299
#
# Coordination Sequence:
#
# PCOD8107847 Si02
#       7
#     8   8   8   8   8   8   8
#     4   9  17  27  44  76 113 143 172 215 271 322
#     4   9  16  31  52  76 106 141 182 221 267 326
#     4  11  24  41  60  82 111 148 190 233 281 335
#     4  11  23  36  54  82 112 141 179 230 284 333
#     4  11  22  38  59  82 111 147 188 231 277 332
#     4   9  17  31  52  77 106 143 182 220 267 325
#     4  10  21  38  58  80 108 146 187 229 277 333
#
# _framework density 18.661563000000001
#
# number of rings (size 3 to 8) (size 9 to 14) (size 15 to 20)
#    0.000    2.000    1.429    2.571    0.000    8.000 
#    0.000    0.000    0.000    0.857    0.000    0.000 
#    0.000    0.000    0.000    0.000    0.000    0.000 
#
# Total GULP energy -347273.479372 kJ/mol
# GULP energy per Si atom -12402.624263 kJ/mol
# Density = 1.861909 g / cm^3
# Si number density = 18.661563 Si / 1000 Ang^3
#
#
#
# Elastic Constant Matrix: (Units=GPa)
#
#
# Indices 1 2 3 4 5 6 
#
# 1 36.2897 20.0741 8.2071 0.0000 -2.0010 0.0000
# 2 20.0741 100.4435 50.0132 0.0000 -1.5637 0.0000
# 3 8.2071 50.0132 101.9741 0.0000 3.6676 0.0000
# 4 0.0000 0.0000 0.0000 30.1925 0.0000 -1.4559
# 5 -2.0010 -1.5637 3.6676 0.0000 23.5738 0.0000
# 6 0.0000 0.0000 0.0000 -1.4559 0.0000 25.4830
#
#
#
# Elastic Compliance Matrix: (Units=1/GPa)
#
#
# Indices 1 2 3 4 5 6 
#
# 1 0.031125 -0.006486 0.000600 0.000000 0.002118 0.000000
# 2 -0.006486 0.014609 -0.006695 0.000000 0.001460 0.000000
# 3 0.000600 -0.006695 0.013129 0.000000 -0.002436 0.000000
# 4 0.000000 0.000000 0.000000 0.033212 0.000000 0.001897
# 5 0.002118 0.001460 -0.002436 0.000000 0.043076 0.000000
# 6 0.000000 0.000000 0.000000 0.001897 0.000000 0.039350
#
#
# Mechanical properties :
#
#
# Convention : Reuss Voigt Hill
#
# Bulk Modulus (GPa) = 29.67359 43.92181 36.79770
# Shear Modulus (GPa) = 23.70815 26.54404 25.12610
#
# Velocity S-wave (km/s) = 3.56817 3.77555 3.67333
# Velocity P-wave (km/s) = 5.73683 6.52637 6.14429
#
# Compressibility (1/GPa) = 0.03370000
#
# Stress axis : x y z
#
# Youngs Moduli (GPa) = 32.12842 68.45266 76.16473
#
# Poissons Ratio (x) = 0.44400 -0.04570
# Poissons Ratio (y) = 0.20839 0.50995
# Poissons Ratio (z) = -0.01928 0.45831
#
# Static dielectric constant tensor:
#      x y z
#    x 3.143380 0.000000 0.022410 
#    y 0.000000 3.527370 0.000000 
#    z 0.022410 0.000000 3.639800 
# 
# 
# High freq. dielectric constant tensor:
#      x y z
#    x 1.684680 0.000000 0.001530 
#    y 0.000000 1.732600 0.000000 
#    z 0.001530 0.000000 1.739590 
# 
# From -- ./inp_files/230891.got.cif
#   From: 2010.06.25/outbox.cif.g09.slc.cpg/sg12_116_cif.got.tgz:230891.got - 2010.06.28 00:19:55.
