data_PCOD8107060
_publ_section_title
;
Structure prediction by ZEFSAII (Michael W. Deem and Ramdas Pophale) SiO2 
 PCOD8107060
Probable space group: C 2/M
;
_chemical_formula_sum "Si O2"
_cell_formula_units_Z 56
_cell_length_a 20.133925
_cell_length_b 9.452334
_cell_length_c 28.273069
_cell_angle_alpha 90.000000
_cell_angle_beta 147.493028
_cell_angle_gamma 90.000000
_cell_volume 2891.611375
_symmetry_space_group_name_H-M "C 2/M"
_symmetry_group_IT_number 12
_symmetry_cell_setting 'monoclinic'
loop_
_space_group_symop_operation_xyz
x,y,z
-x,y,-z
-x,-y,-z
x,-y,z
1/2+x,1/2+y,z
1/2-x,1/2+y,-z
1/2-x,1/2-y,-z
1/2+x,1/2-y,z
loop_
_atom_site_type_symbol
_atom_site_label
_atom_site_fract_x
_atom_site_fract_y
_atom_site_fract_z
Si Si1 0.294752 0.333879 0.763466
Si Si2 0.249926 0.835206 0.928668
Si Si3 0.068828 0.162838 0.901782
Si Si4 0.135559 0.163056 0.597422
Si Si5 0.932471 0.163107 0.620329
Si Si6 0.212846 0.834643 0.798451
Si Si7 0.242391 0.339471 0.427253
O O1 0.268321 0.500000 0.753223
O O2 0.423068 0.304669 0.813242
O O3 0.182834 0.262187 0.667694
O O4 0.302490 0.260358 0.819748
O O5 0.127685 0.798008 0.886129
O O6 0.227703 0.787825 0.861637
O O7 0.280458 0.000000 0.950119
O O8 0.368463 0.753529 0.019354
O O9 0.093653 0.000000 0.929184
O O10 0.229181 0.181508 0.610389
O O11 0.000000 0.212594 0.500000
O O12 0.130848 0.000000 0.612374
O O13 0.875405 0.245585 0.630541
O O14 0.862485 0.205452 0.530034
O O15 0.074521 0.202375 0.698946
O O16 0.917883 0.000000 0.624610
O O17 0.244282 0.000000 0.810422
O O18 0.207674 0.500000 0.418208
#
# Coordination Sequence:
#
# PCOD8107060 Si02
#       7
#     8   8   8   8   8   8   8
#     4  11  24  38  57  85 118 151 187 236 288 339
#     4   9  19  37  62  86 109 146 192 233 277 338
#     4   9  20  39  59  84 116 147 183 231 289 341
#     4  10  21  38  58  79 111 153 194 233 278 334
#     4   9  18  33  54  77 107 145 182 226 279 330
#     4  10  21  37  58  82 111 151 191 231 280 337
#     4   9  18  32  51  78 106 141 186 231 276 325
#
# _framework density 19.366364999999998
#
# number of rings (size 3 to 8) (size 9 to 14) (size 15 to 20)
#    0.000    2.429    0.000    1.286    2.000    6.000 
#    0.000    5.714    0.000    0.000    0.000    0.000 
#    0.000    0.000    0.000    0.000    0.000    0.000 
#
# Total GULP energy -347258.918167 kJ/mol
# GULP energy per Si atom -12402.104220 kJ/mol
# Density = 1.932229 g / cm^3
# Si number density = 19.366365 Si / 1000 Ang^3
#
#
#
# Elastic Constant Matrix: (Units=GPa)
#
#
# Indices 1 2 3 4 5 6 
#
# 1 95.6905 49.5719 43.7202 0.0000 -9.7881 0.0001
# 2 49.5719 69.2953 46.9108 0.0000 -4.1353 0.0002
# 3 43.7202 46.9108 80.8862 0.0002 -5.0656 0.0000
# 4 0.0000 0.0000 0.0002 30.3669 0.0000 0.3011
# 5 -9.7881 -4.1353 -5.0656 0.0000 29.0743 0.0000
# 6 0.0001 0.0002 0.0000 0.3011 0.0000 34.6476
#
#
#
# Elastic Compliance Matrix: (Units=1/GPa)
#
#
# Indices 1 2 3 4 5 6 
#
# 1 0.017631 -0.010033 -0.003467 0.000000 0.003905 0.000000
# 2 -0.010033 0.029497 -0.011761 0.000000 -0.001231 0.000000
# 3 -0.003467 -0.011761 0.021110 0.000000 0.000838 0.000000
# 4 0.000000 0.000000 0.000000 0.032933 0.000000 -0.000286
# 5 0.003905 -0.001231 0.000838 0.000000 0.035680 0.000000
# 6 0.000000 0.000000 0.000000 -0.000286 0.000000 0.028864
#
#
# Mechanical properties :
#
#
# Convention : Reuss Voigt Hill
#
# Bulk Modulus (GPa) = 56.44379 58.47532 57.45955
# Shear Modulus (GPa) = 22.50800 25.86237 24.18519
#
# Velocity S-wave (km/s) = 3.41284 3.65831 3.53770
# Velocity P-wave (km/s) = 6.68868 6.93572 6.81332
#
# Compressibility (1/GPa) = 0.01771674
#
# Stress axis : x y z
#
# Youngs Moduli (GPa) = 56.71769 33.90204 47.37029
#
# Poissons Ratio (x) = 0.34014 0.16422
# Poissons Ratio (y) = 0.56905 0.55713
# Poissons Ratio (z) = 0.19662 0.39872
#
# Static dielectric constant tensor:
#      x y z
#    x 3.661340 0.000000 0.002680 
#    y 0.000000 3.464380 0.000000 
#    z 0.002680 0.000000 3.421430 
# 
# 
# High freq. dielectric constant tensor:
#      x y z
#    x 1.762530 0.000000 -0.000170 
#    y 0.000000 1.745840 0.000000 
#    z -0.000170 0.000000 1.743920 
# 
# From -- ./inp_files/380718.got.cif
#   From: 2010.06.25/outbox.cif.g09.slc.cpg/sg12_191_cif.got.tgz:380718.got - 2010.06.28 00:19:55.
