data_PCOD8107261
_publ_section_title
;
Structure prediction by ZEFSAII (Michael W. Deem and Ramdas Pophale) SiO2 
 PCOD8107261
Probable space group: C 2/M
;
_chemical_formula_sum "Si O2"
_cell_formula_units_Z 48
_cell_length_a 18.664103
_cell_length_b 8.946872
_cell_length_c 29.660060
_cell_angle_alpha 90.000000
_cell_angle_beta 150.052853
_cell_angle_gamma 90.000000
_cell_volume 2472.439903
_symmetry_space_group_name_H-M "C 2/M"
_symmetry_group_IT_number 12
_symmetry_cell_setting 'monoclinic'
loop_
_space_group_symop_operation_xyz
x,y,z
-x,y,-z
-x,-y,-z
x,-y,z
1/2+x,1/2+y,z
1/2-x,1/2+y,-z
1/2-x,1/2-y,-z
1/2+x,1/2-y,z
loop_
_atom_site_type_symbol
_atom_site_label
_atom_site_fract_x
_atom_site_fract_y
_atom_site_fract_z
Si Si1 0.608817 0.674759 0.940257
Si Si2 0.138196 0.665628 0.045326
Si Si3 0.557006 0.676891 0.753279
Si Si4 0.405700 0.678269 0.580023
Si Si5 0.615060 0.322577 0.254536
Si Si6 0.565696 0.826498 0.584714
O O1 0.624844 0.500000 0.944383
O O2 0.477881 0.732807 0.838483
O O3 0.750000 0.750000 0.000000
O O4 0.586595 0.720119 0.979407
O O5 0.176921 0.500000 0.046863
O O6 0.278260 0.728813 0.148105
O O7 0.000000 0.650438 0.000000
O O8 0.549078 0.500000 0.749119
O O9 0.502449 0.735058 0.675021
O O10 0.454005 0.741504 0.736777
O O11 0.390764 0.500000 0.571367
O O12 0.250000 0.750000 0.500000
O O13 0.478565 0.731890 0.573690
O O14 0.621092 0.500000 0.261560
O O15 0.773795 0.260747 0.331884
O O16 0.500000 0.804131 0.500000
O O17 0.562505 0.000000 0.597676
#
# Coordination Sequence:
#
# PCOD8107261 Si02
#       6
#     8   8   8   8   8   8
#     4  11  21  36  58  84 117 156 197 240 286 339
#     4  10  21  37  59  84 116 155 197 240 286 341
#     4   9  18  36  58  82 113 153 193 233 286 343
#     4  11  23  39  62  88 118 152 189 235 287 343
#     4   9  18  34  58  83 111 149 192 238 285 341
#     4  10  21  39  63  87 113 150 193 235 288 348
#
# _framework density 19.414021000000002
#
# number of rings (size 3 to 8) (size 9 to 14) (size 15 to 20)
#    0.000    2.000    1.667    2.000    2.333    3.333 
#    0.000    2.500    0.000    0.000    0.000    0.000 
#    0.000    0.000    0.000    0.000    0.000    0.000 
#
# Total GULP energy -297540.449965 kJ/mol
# GULP energy per Si atom -12397.518749 kJ/mol
# Density = 1.936983 g / cm^3
# Si number density = 19.414021 Si / 1000 Ang^3
#
#
#
# Elastic Constant Matrix: (Units=GPa)
#
#
# Indices 1 2 3 4 5 6 
#
# 1 127.1088 35.4391 73.7263 0.0000 4.8751 0.0001
# 2 35.4391 47.8965 38.1644 -0.0001 -2.5236 0.0006
# 3 73.7263 38.1644 164.1474 0.0003 5.4340 0.0001
# 4 0.0000 -0.0001 0.0003 23.8274 0.0000 -2.7584
# 5 4.8751 -2.5236 5.4340 0.0000 42.7225 0.0000
# 6 0.0001 0.0006 0.0001 -2.7584 0.0000 28.5641
#
#
#
# Elastic Compliance Matrix: (Units=1/GPa)
#
#
# Indices 1 2 3 4 5 6 
#
# 1 0.011765 -0.005631 -0.003936 0.000000 -0.001174 0.000000
# 2 -0.005631 0.028544 -0.004202 0.000000 0.002863 0.000000
# 3 -0.003936 -0.004202 0.008868 0.000000 -0.000927 0.000000
# 4 0.000000 0.000000 0.000000 0.042443 0.000000 0.004099
# 5 -0.001174 0.002863 -0.000927 0.000000 0.023828 0.000000
# 6 0.000000 0.000000 0.000000 0.004099 0.000000 0.035405
#
#
# Mechanical properties :
#
#
# Convention : Reuss Voigt Hill
#
# Bulk Modulus (GPa) = 46.21414 70.42357 58.31886
# Shear Modulus (GPa) = 26.93909 31.81101 29.37505
#
# Velocity S-wave (km/s) = 3.72911 4.05230 3.89406
# Velocity P-wave (km/s) = 6.51136 7.63205 7.09387
#
# Compressibility (1/GPa) = 0.02163840
#
# Stress axis : x y z
#
# Youngs Moduli (GPa) = 84.99499 35.03397 112.76753
#
# Poissons Ratio (x) = 0.19726 0.44390
# Poissons Ratio (y) = 0.47858 0.47387
# Poissons Ratio (z) = 0.33457 0.14722
#
# Static dielectric constant tensor:
#      x y z
#    x 3.451880 0.000000 0.138370 
#    y 0.000000 2.260180 0.000000 
#    z 0.138370 0.000000 3.803950 
# 
# 
# High freq. dielectric constant tensor:
#      x y z
#    x 1.765320 0.000000 0.001300 
#    y 0.000000 1.719660 0.000000 
#    z 0.001300 0.000000 1.776520 
# 
# From -- ./inp_files/244630.got.cif
#   From: 2010.06.25/outbox.cif.g09.slc.cpg/sg12_123_cif.got.tgz:244630.got - 2010.06.28 00:19:55.
