data_PCOD8107611
_publ_section_title
;
Structure prediction by ZEFSAII (Michael W. Deem and Ramdas Pophale) SiO2 
 PCOD8107611
Probable space group: C 2/M
;
_chemical_formula_sum "Si O2"
_cell_formula_units_Z 40
_cell_length_a 21.592535
_cell_length_b 8.924028
_cell_length_c 10.913814
_cell_angle_alpha 90.000000
_cell_angle_beta 122.010203
_cell_angle_gamma 90.000000
_cell_volume 1783.254188
_symmetry_space_group_name_H-M "C 2/M"
_symmetry_group_IT_number 12
_symmetry_cell_setting 'monoclinic'
loop_
_space_group_symop_operation_xyz
x,y,z
-x,y,-z
-x,-y,-z
x,-y,z
1/2+x,1/2+y,z
1/2-x,1/2+y,-z
1/2-x,1/2-y,-z
1/2+x,1/2-y,z
loop_
_atom_site_type_symbol
_atom_site_label
_atom_site_fract_x
_atom_site_fract_y
_atom_site_fract_z
Si Si1 0.915706 0.676928 0.416946
Si Si2 0.207990 0.171870 0.846402
Si Si3 0.902582 0.177484 0.651316
Si Si4 0.954348 0.163702 0.074720
Si Si5 0.161538 0.329597 0.184838
O O1 0.906541 0.500000 0.400218
O O2 0.870892 0.750694 0.257415
O O3 0.879448 0.738315 0.503847
O O4 0.000000 0.727021 0.500000
O O5 0.255074 0.185909 0.770840
O O6 0.194964 0.000000 0.867868
O O7 0.250000 0.250000 0.000000
O O8 0.850488 0.229179 0.707785
O O9 0.987632 0.222300 0.763955
O O10 0.893115 0.000000 0.626212
O O11 0.922515 0.000000 0.078227
O O12 0.888291 0.278244 0.983417
O O13 0.000000 0.144948 0.000000
O O14 0.140782 0.500000 0.195067
#
# Coordination Sequence:
#
# PCOD8107611 Si02
#       5
#     8   8   8   8   8
#     4  11  26  46  68  96 130 170 218 271 328 388
#     4  11  26  46  68  96 131 174 220 266 325 390
#     4  10  21  38  63  95 129 169 215 263 322 387
#     4   8  16  31  53  87 125 163 206 251 308 375
#     4  10  21  37  61  94 129 167 213 266 321 379
#
# _framework density 22.430903000000001
#
# number of rings (size 3 to 8) (size 9 to 14) (size 15 to 20)
#    0.000    2.000    0.000    3.600    2.800   10.000 
#    0.000    0.000    0.000    0.000    0.000    0.000 
#    0.000    0.000    0.000    0.000    0.000    0.000 
#
# Total GULP energy -247998.947527 kJ/mol
# GULP energy per Si atom -12399.947376 kJ/mol
# Density = 2.237985 g / cm^3
# Si number density = 22.430903 Si / 1000 Ang^3
#
#
#
# Elastic Constant Matrix: (Units=GPa)
#
#
# Indices 1 2 3 4 5 6 
#
# 1 86.5955 42.4412 31.1855 0.0000 14.3310 0.0000
# 2 42.4412 135.8458 59.5536 0.0000 14.4891 0.0000
# 3 31.1855 59.5536 132.7349 0.0000 15.5557 0.0000
# 4 0.0000 0.0000 0.0000 39.5772 0.0000 4.7133
# 5 14.3310 14.4891 15.5557 0.0000 31.5305 0.0000
# 6 0.0000 0.0000 0.0000 4.7133 0.0000 25.6802
#
#
#
# Elastic Compliance Matrix: (Units=1/GPa)
#
#
# Indices 1 2 3 4 5 6 
#
# 1 0.014441 -0.003468 -0.001331 0.000000 -0.004313 0.000000
# 2 -0.003468 0.010159 -0.003588 0.000000 -0.001322 0.000000
# 3 -0.001331 -0.003588 0.009756 0.000000 -0.002559 0.000000
# 4 0.000000 0.000000 0.000000 0.025832 0.000000 -0.004741
# 5 -0.004313 -0.001322 -0.002559 0.000000 0.035546 0.000000
# 6 0.000000 0.000000 0.000000 -0.004741 0.000000 0.039811
#
#
# Mechanical properties :
#
#
# Convention : Reuss Voigt Hill
#
# Bulk Modulus (GPa) = 56.87961 69.05963 62.96962
# Shear Modulus (GPa) = 31.60960 34.15729 32.88345
#
# Velocity S-wave (km/s) = 3.75800 3.90651 3.83298
# Velocity P-wave (km/s) = 6.65153 7.15558 6.90815
#
# Compressibility (1/GPa) = 0.01758099
#
# Stress axis : x y z
#
# Youngs Moduli (GPa) = 69.24786 98.43714 102.49609
#
# Poissons Ratio (x) = 0.34137 0.13646
# Poissons Ratio (y) = 0.24015 0.36778
# Poissons Ratio (z) = 0.09220 0.35321
#
# Static dielectric constant tensor:
#      x y z
#    x 4.009830 0.000000 0.193770 
#    y 0.000000 3.979270 0.000000 
#    z 0.193770 0.000000 4.267610 
# 
# 
# High freq. dielectric constant tensor:
#      x y z
#    x 1.881930 0.000000 -0.000930 
#    y 0.000000 1.884250 0.000000 
#    z -0.000930 0.000000 1.884820 
# 
# From -- ./inp_files/172573.got.cif
#   From: 2010.06.25/outbox.cif.g09.slc.cpg/sg12_87_cif.got.tgz:172573.got - 2010.06.28 00:19:55.
