data_PCOD8107498
_publ_section_title
;
Structure prediction by ZEFSAII (Michael W. Deem and Ramdas Pophale) SiO2 
 PCOD8107498
Probable space group: C 2/M
;
_chemical_formula_sum "Si O2"
_cell_formula_units_Z 48
_cell_length_a 9.114583
_cell_length_b 10.140483
_cell_length_c 27.148365
_cell_angle_alpha 90.000000
_cell_angle_beta 113.182330
_cell_angle_gamma 90.000000
_cell_volume 2306.619557
_symmetry_space_group_name_H-M "C 2/M"
_symmetry_group_IT_number 12
_symmetry_cell_setting 'monoclinic'
loop_
_space_group_symop_operation_xyz
x,y,z
-x,y,-z
-x,-y,-z
x,-y,z
1/2+x,1/2+y,z
1/2-x,1/2+y,-z
1/2-x,1/2-y,-z
1/2+x,1/2-y,z
loop_
_atom_site_type_symbol
_atom_site_label
_atom_site_fract_x
_atom_site_fract_y
_atom_site_fract_z
Si Si1 0.948570 0.853375 0.439007
Si Si2 0.998358 0.353498 0.262760
Si Si3 0.680656 0.289853 0.881787
Si Si4 0.159812 0.000000 0.956597
Si Si5 0.283160 0.500000 0.924428
Si Si6 0.075173 0.648593 0.377940
Si Si7 0.661585 0.253960 0.191183
O O1 0.761250 0.859542 0.409609
O O2 0.000000 0.807700 0.500000
O O3 0.008461 0.744166 0.409962
O O4 0.019582 0.000000 0.437043
O O5 0.040496 0.500000 0.282454
O O6 0.816175 0.344921 0.220058
O O7 0.030768 0.281449 0.319126
O O8 0.125239 0.319591 0.237045
O O9 0.725448 0.370545 0.936670
O O10 0.498859 0.331889 0.844808
O O11 0.791324 0.336399 0.850237
O O12 0.700009 0.131525 0.891700
O O13 0.969239 0.000000 0.935870
O O14 0.242753 0.000000 0.020408
O O15 0.001929 0.500000 0.373946
#
# Coordination Sequence:
#
# PCOD8107498 Si02
#       7
#     8   8   8   4   4   8   8
#     4  10  21  37  60  89 125 163 202 252 306 360
#     4  10  22  40  60  84 119 160 200 256 304 352
#     4  11  23  41  67  92 120 162 200 248 304 365
#     4  11  24  43  67  93 123 163 201 241 306 367
#     4  11  24  45  63  93 133 155 193 259 302 353
#     4  10  21  38  60  87 121 159 208 251 303 361
#     4  10  23  37  61  86 118 153 202 246 299 357
#
# _framework density 20.809674999999999
#
# number of rings (size 3 to 8) (size 9 to 14) (size 15 to 20)
#    0.000    1.667    1.667    2.000    7.000    1.000 
#    0.000    1.667    0.000    0.000    0.000    0.000 
#    0.000    0.000    0.000    0.000    0.000    0.000 
#
# Total GULP energy -297364.598215 kJ/mol
# GULP energy per Si atom -12390.191592 kJ/mol
# Density = 2.076231 g / cm^3
# Si number density = 20.809675 Si / 1000 Ang^3
#
#
#
# Elastic Constant Matrix: (Units=GPa)
#
#
# Indices 1 2 3 4 5 6 
#
# 1 99.3831 36.0297 50.8570 0.0000 -27.4680 0.0000
# 2 36.0297 108.9116 54.5038 0.0000 -28.4609 0.0000
# 3 50.8570 54.5038 162.8215 0.0000 -32.1260 0.0000
# 4 0.0000 0.0000 0.0000 29.5267 0.0000 1.9683
# 5 -27.4680 -28.4609 -32.1260 0.0000 44.1214 0.0000
# 6 0.0000 0.0000 0.0000 1.9683 0.0000 2.1866
#
#
#
# Elastic Compliance Matrix: (Units=1/GPa)
#
#
# Indices 1 2 3 4 5 6 
#
# 1 0.013508 -0.001777 -0.002559 0.000000 0.005400 0.000000
# 2 -0.001777 0.012374 -0.002605 0.000000 0.004979 0.000000
# 3 -0.002559 -0.002605 0.008369 0.000000 0.002821 0.000000
# 4 0.000000 0.000000 0.000000 0.036030 0.000000 -0.032433
# 5 0.005400 0.004979 0.002821 0.000000 0.031292 0.000000
# 6 0.000000 0.000000 0.000000 -0.032433 0.000000 0.486530
#
#
# Mechanical properties :
#
#
# Convention : Reuss Voigt Hill
#
# Bulk Modulus (GPa) = 49.09014 72.65527 60.87271
# Shear Modulus (GPa) = 8.21320 30.48197 19.34759
#
# Velocity S-wave (km/s) = 1.98882 3.83142 3.05247
# Velocity P-wave (km/s) = 5.37728 7.38668 6.46058
#
# Compressibility (1/GPa) = 0.02037069
#
# Stress axis : x y z
#
# Youngs Moduli (GPa) = 74.02855 80.81243 119.48197
#
# Poissons Ratio (x) = 0.14360 0.30575
# Poissons Ratio (y) = 0.13155 0.31122
# Poissons Ratio (z) = 0.18944 0.21050
#
# Static dielectric constant tensor:
#      x y z
#    x 3.752140 0.000000 -0.207520 
#    y 0.000000 3.740940 0.000000 
#    z -0.207520 0.000000 4.108140 
# 
# 
# High freq. dielectric constant tensor:
#      x y z
#    x 1.813480 0.000000 -0.008050 
#    y 0.000000 1.792630 0.000000 
#    z -0.008050 0.000000 1.841430 
# 
# From -- ./inp_files/332239.got.cif
#   From: 2010.06.25/outbox.cif.g09.slc.cpg/sg12_167_cif.got.tgz:332239.got - 2010.06.28 00:19:55.
