data_PCOD8107882
_publ_section_title
;
Structure prediction by ZEFSAII (Michael W. Deem and Ramdas Pophale) SiO2 
 PCOD8107882
Probable space group: C 2/M
;
_chemical_formula_sum "Si O2"
_cell_formula_units_Z 48
_cell_length_a 30.368414
_cell_length_b 8.681283
_cell_length_c 9.317000
_cell_angle_alpha 90.000000
_cell_angle_beta 89.659390
_cell_angle_gamma 90.000000
_cell_volume 2456.260627
_symmetry_space_group_name_H-M "C 2/M"
_symmetry_group_IT_number 12
_symmetry_cell_setting 'monoclinic'
loop_
_space_group_symop_operation_xyz
x,y,z
-x,y,-z
-x,-y,-z
x,-y,z
1/2+x,1/2+y,z
1/2-x,1/2+y,-z
1/2-x,1/2-y,-z
1/2+x,1/2-y,z
loop_
_atom_site_type_symbol
_atom_site_label
_atom_site_fract_x
_atom_site_fract_y
_atom_site_fract_z
Si Si1 0.613963 0.683776 0.594500
Si Si2 0.616800 0.819049 0.899708
Si Si3 0.456985 0.680065 0.910805
Si Si4 0.459148 0.180070 0.601768
Si Si5 0.710021 0.675336 0.918215
Si Si6 0.711877 0.327861 0.587621
O O1 0.609622 0.500000 0.584380
O O2 0.600695 0.732800 0.755897
O O3 0.584745 0.766474 0.476975
O O4 0.663546 0.744291 0.562644
O O5 0.665442 0.769057 0.947784
O O6 0.615865 0.000000 0.870901
O O7 0.584062 0.776013 0.028555
O O8 0.446201 0.500000 0.922010
O O9 0.465397 0.725312 0.746735
O O10 0.500000 0.724543 0.000000
O O11 0.500000 0.220377 0.500000
O O12 0.456364 0.000000 0.637324
O O13 0.702372 0.500000 0.969022
O O14 0.723981 0.681721 0.753248
O O15 0.750000 0.750000 0.000000
O O16 0.709788 0.500000 0.530747
O O17 0.750000 0.250000 0.500000
#
# Coordination Sequence:
#
# PCOD8107882 Si02
#       6
#     8   8   8   8   8   8
#     4  10  21  39  60  84 116 153 194 238 287 345
#     4  11  22  38  61  87 116 152 194 242 295 347
#     4  11  24  41  62  87 116 153 194 237 289 349
#     4  11  24  40  60  88 119 151 190 237 288 343
#     4  10  21  38  58  84 117 153 195 240 290 347
#     4   9  20  36  56  82 112 147 187 232 280 334
#
# _framework density 19.541899000000001
#
# number of rings (size 3 to 8) (size 9 to 14) (size 15 to 20)
#    0.000    1.667    0.000    5.500    0.000   10.667 
#    0.000    3.333    0.000    0.000    0.000    0.000 
#    0.000    0.000    0.000    0.000    0.000    0.000 
#
# Total GULP energy -297683.515353 kJ/mol
# GULP energy per Si atom -12403.479806 kJ/mol
# Density = 1.949742 g / cm^3
# Si number density = 19.541899 Si / 1000 Ang^3
#
#
#
# Elastic Constant Matrix: (Units=GPa)
#
#
# Indices 1 2 3 4 5 6 
#
# 1 116.1230 40.9365 63.7913 0.0000 5.0470 0.0000
# 2 40.9365 57.2894 17.8913 0.0000 -4.6669 0.0000
# 3 63.7913 17.8913 90.4528 0.0000 6.3788 0.0000
# 4 0.0000 0.0000 0.0000 38.2383 0.0000 -1.0833
# 5 5.0470 -4.6669 6.3788 0.0000 43.2407 0.0000
# 6 0.0000 0.0000 0.0000 -1.0833 0.0000 32.7581
#
#
#
# Elastic Compliance Matrix: (Units=1/GPa)
#
#
# Indices 1 2 3 4 5 6 
#
# 1 0.017891 -0.009598 -0.010609 0.000000 -0.001559 0.000000
# 2 -0.009598 0.024042 0.001770 0.000000 0.003454 0.000000
# 3 -0.010609 0.001770 0.018277 0.000000 -0.001267 0.000000
# 4 0.000000 0.000000 0.000000 0.026176 0.000000 0.000866
# 5 -0.001559 0.003454 -0.001267 0.000000 0.023868 0.000000
# 6 0.000000 0.000000 0.000000 0.000866 0.000000 0.030555
#
#
# Mechanical properties :
#
#
# Convention : Reuss Voigt Hill
#
# Bulk Modulus (GPa) = 42.85319 56.56704 49.71012
# Shear Modulus (GPa) = 26.95970 32.26381 29.61176
#
# Velocity S-wave (km/s) = 3.71831 4.06767 3.89690
# Velocity P-wave (km/s) = 6.35695 7.14637 6.76319
#
# Compressibility (1/GPa) = 0.02333548
#
# Stress axis : x y z
#
# Youngs Moduli (GPa) = 55.89467 41.59375 54.71440
#
# Poissons Ratio (x) = 0.39921 0.58047
# Poissons Ratio (y) = 0.53647 -0.09683
# Poissons Ratio (z) = 0.59299 -0.07361
#
# Static dielectric constant tensor:
#      x y z
#    x 3.716610 0.000000 -0.036690 
#    y 0.000000 3.703980 0.000000 
#    z -0.036690 0.000000 3.455190 
# 
# 
# High freq. dielectric constant tensor:
#      x y z
#    x 1.774370 0.000000 0.001440 
#    y 0.000000 1.771820 0.000000 
#    z 0.001440 0.000000 1.760670 
# 
# From -- ./inp_files/108682.got.cif
#   From: 2010.06.25/outbox.cif.g09.slc.cpg/sg12_55_cif.got.tgz:108682.got - 2010.06.28 00:19:55.
