data_PCOD8107176
_publ_section_title
;
Structure prediction by ZEFSAII (Michael W. Deem and Ramdas Pophale) SiO2 
 PCOD8107176
Probable space group: C 2/M
;
_chemical_formula_sum "Si O2"
_cell_formula_units_Z 48
_cell_length_a 22.161674
_cell_length_b 11.104539
_cell_length_c 19.829372
_cell_angle_alpha 90.000000
_cell_angle_beta 32.722722
_cell_angle_gamma 90.000000
_cell_volume 2637.953944
_symmetry_space_group_name_H-M "C 2/M"
_symmetry_group_IT_number 12
_symmetry_cell_setting 'monoclinic'
loop_
_space_group_symop_operation_xyz
x,y,z
-x,y,-z
-x,-y,-z
x,-y,z
1/2+x,1/2+y,z
1/2-x,1/2+y,-z
1/2-x,1/2-y,-z
1/2+x,1/2-y,z
loop_
_atom_site_type_symbol
_atom_site_label
_atom_site_fract_x
_atom_site_fract_y
_atom_site_fract_z
Si Si1 0.901278 0.000000 0.180989
Si Si2 0.032834 0.141986 0.393494
Si Si3 0.616684 0.711212 0.701707
Si Si4 0.604454 0.858946 0.109953
Si Si5 0.212079 0.277669 0.143555
Si Si6 0.838571 0.000000 0.090300
Si Si7 0.664322 0.365009 0.512249
O O1 0.868629 0.879437 0.250607
O O2 0.830183 0.000000 0.179063
O O3 0.033026 0.000000 0.049334
O O4 0.143933 0.211587 0.266650
O O5 0.000000 0.174927 0.500000
O O6 0.931392 0.192286 0.444001
O O7 0.053028 0.000000 0.364177
O O8 0.503773 0.787276 0.813255
O O9 0.618904 0.636104 0.630895
O O10 0.720589 0.798919 0.606446
O O11 0.629593 0.831924 0.164653
O O12 0.582556 0.000000 0.120915
O O13 0.707846 0.820158 0.966345
O O14 0.282296 0.382700 0.111991
O O15 0.686514 0.500000 0.467769
#
# Coordination Sequence:
#
# PCOD8107176 Si02
#       7
#     4   8   8   8   8   4   8
#     4  11  24  42  63  86 120 172 205 242 310 367
#     4  10  22  40  61  87 122 165 204 245 304 369
#     4  11  21  38  61  88 116 160 205 249 297 359
#     4  11  22  37  63  94 122 151 203 261 309 356
#     4  11  22  39  63  92 122 159 200 254 311 363
#     4  11  24  42  62  89 126 159 204 251 304 379
#     4  10  21  37  58  85 121 158 201 247 294 356
#
# _framework density 18.195920999999998
#
# number of rings (size 3 to 8) (size 9 to 14) (size 15 to 20)
#    0.000    1.333    5.000    1.000    2.333    0.000 
#    0.000    1.250    0.000    1.000    0.000    0.000 
#    0.000    0.000    0.000    0.000    0.000    0.000 
#
# Total GULP energy -297655.383048 kJ/mol
# GULP energy per Si atom -12402.307627 kJ/mol
# Density = 1.815451 g / cm^3
# Si number density = 18.195921 Si / 1000 Ang^3
#
#
#
# Elastic Constant Matrix: (Units=GPa)
#
#
# Indices 1 2 3 4 5 6 
#
# 1 90.0500 24.0862 26.8887 0.0000 12.9065 0.0000
# 2 24.0862 77.7626 23.2592 0.0000 6.5133 0.0000
# 3 26.8887 23.2592 78.2801 0.0000 13.8489 0.0000
# 4 0.0000 0.0000 0.0000 12.4089 0.0000 9.9197
# 5 12.9065 6.5133 13.8489 0.0000 28.7114 0.0000
# 6 0.0000 0.0000 0.0000 9.9197 0.0000 18.8275
#
#
#
# Elastic Compliance Matrix: (Units=1/GPa)
#
#
# Indices 1 2 3 4 5 6 
#
# 1 0.013343 -0.002900 -0.003036 0.000000 -0.003876 0.000000
# 2 -0.002900 0.014788 -0.003318 0.000000 -0.000451 0.000000
# 3 -0.003036 -0.003318 0.015775 0.000000 -0.005492 0.000000
# 4 0.000000 0.000000 0.000000 0.139228 0.000000 -0.073356
# 5 -0.003876 -0.000451 -0.005492 0.000000 0.039323 0.000000
# 6 0.000000 0.000000 0.000000 -0.073356 0.000000 0.091763
#
#
# Mechanical properties :
#
#
# Convention : Reuss Voigt Hill
#
# Bulk Modulus (GPa) = 39.37361 43.84011 41.60686
# Shear Modulus (GPa) = 14.65444 23.44680 19.05062
#
# Velocity S-wave (km/s) = 2.84098 3.59357 3.23920
# Velocity P-wave (km/s) = 5.69625 6.43148 6.07500
#
# Compressibility (1/GPa) = 0.02539772
#
# Stress axis : x y z
#
# Youngs Moduli (GPa) = 74.94789 67.62181 63.39209
#
# Poissons Ratio (x) = 0.19611 0.19244
# Poissons Ratio (y) = 0.21736 0.21034
# Poissons Ratio (z) = 0.22752 0.22437
#
# Static dielectric constant tensor:
#      x y z
#    x 3.471390 0.000000 0.018280 
#    y 0.000000 3.280530 0.000000 
#    z 0.018280 0.000000 3.360550 
# 
# 
# High freq. dielectric constant tensor:
#      x y z
#    x 1.709450 0.000000 -0.002760 
#    y 0.000000 1.709260 0.000000 
#    z -0.002760 0.000000 1.713090 
# 
# From -- ./inp_files/174094.got.cif
#   From: 2010.06.25/outbox.cif.g09.slc.cpg/sg12_88_cif.got.tgz:174094.got - 2010.06.28 00:19:55.
