data_PCOD8107754
_publ_section_title
;
Structure prediction by ZEFSAII (Michael W. Deem and Ramdas Pophale) SiO2 
 PCOD8107754
Probable space group: C 2/M
;
_chemical_formula_sum "Si O2"
_cell_formula_units_Z 64
_cell_length_a 19.989892
_cell_length_b 9.421260
_cell_length_c 23.162726
_cell_angle_alpha 90.000000
_cell_angle_beta 122.767659
_cell_angle_gamma 90.000000
_cell_volume 3668.082731
_symmetry_space_group_name_H-M "C 2/M"
_symmetry_group_IT_number 12
_symmetry_cell_setting 'monoclinic'
loop_
_space_group_symop_operation_xyz
x,y,z
-x,y,-z
-x,-y,-z
x,-y,z
1/2+x,1/2+y,z
1/2-x,1/2+y,-z
1/2-x,1/2-y,-z
1/2+x,1/2-y,z
loop_
_atom_site_type_symbol
_atom_site_label
_atom_site_fract_x
_atom_site_fract_y
_atom_site_fract_z
Si Si1 0.668068 0.666588 0.965291
Si Si2 0.276498 0.162272 0.820008
Si Si3 0.091706 0.337590 0.030190
Si Si4 0.364624 0.834718 0.577318
Si Si5 0.379554 0.338677 0.183487
Si Si6 0.958209 0.666084 0.313607
Si Si7 0.695750 0.166378 0.689089
Si Si8 0.736043 0.834565 0.579684
O O1 0.685392 0.500000 0.983358
O O2 0.618142 0.691038 0.883494
O O3 0.750000 0.750000 0.000000
O O4 0.614891 0.728340 0.991422
O O5 0.360431 0.198684 0.888915
O O6 0.208954 0.196752 0.835638
O O7 0.265085 0.258151 0.758062
O O8 0.272761 0.000000 0.797791
O O9 0.110930 0.500000 0.020146
O O10 0.000000 0.315626 0.000000
O O11 0.456548 0.788011 0.621499
O O12 0.331808 0.796712 0.498584
O O13 0.316696 0.749694 0.603737
O O14 0.354425 0.000000 0.586473
O O15 0.402347 0.500000 0.208291
O O16 0.444049 0.240895 0.245509
O O17 0.954210 0.500000 0.300085
O O18 0.891148 0.713621 0.328441
O O19 0.702459 0.213621 0.625854
O O20 0.708434 0.000000 0.702287
O O21 0.757208 0.000000 0.588620
#
# Coordination Sequence:
#
# PCOD8107754 Si02
#       8
#     8   8   8   8   8   8   8   8
#     4  11  21  35  57  81 105 136 178 220 261 313
#     4   9  17  33  53  73 101 135 168 206 255 305
#     4  10  21  38  56  76 106 140 176 218 266 314
#     4   9  18  33  52  74 101 133 168 206 248 296
#     4   9  18  33  52  75 103 133 167 208 256 307
#     4   9  18  32  51  76 102 128 166 212 252 295
#     4   9  18  32  51  76 100 128 168 207 250 300
#     4   9  18  33  52  73 101 136 168 203 248 298
#
# _framework density 17.447807000000001
#
# number of rings (size 3 to 8) (size 9 to 14) (size 15 to 20)
#    0.000    2.625    1.250    0.375    0.000    3.250 
#    2.250    2.500    0.000    0.000    0.000    7.000 
#    0.000    0.000    0.000    0.000    0.000    0.000 
#
# Total GULP energy -396844.577804 kJ/mol
# GULP energy per Si atom -12401.393056 kJ/mol
# Density = 1.740810 g / cm^3
# Si number density = 17.447807 Si / 1000 Ang^3
#
#
#
# Elastic Constant Matrix: (Units=GPa)
#
#
# Indices 1 2 3 4 5 6 
#
# 1 95.5882 50.9220 75.1735 0.0000 5.0000 0.0000
# 2 50.9220 64.9133 59.9389 0.0000 -4.0874 0.0000
# 3 75.1735 59.9389 128.2953 0.0000 2.1330 0.0000
# 4 0.0000 0.0000 0.0000 31.8502 0.0000 -1.2688
# 5 5.0000 -4.0874 2.1330 0.0000 30.5418 0.0000
# 6 0.0000 0.0000 0.0000 -1.2688 0.0000 26.8737
#
#
#
# Elastic Compliance Matrix: (Units=1/GPa)
#
#
# Indices 1 2 3 4 5 6 
#
# 1 0.022937 -0.010448 -0.008483 0.000000 -0.004561 0.000000
# 2 -0.010448 0.032488 -0.009168 0.000000 0.006699 0.000000
# 3 -0.008483 -0.009168 0.017065 0.000000 -0.001030 0.000000
# 4 0.000000 0.000000 0.000000 0.031456 0.000000 0.001485
# 5 -0.004561 0.006699 -0.001030 0.000000 0.034457 0.000000
# 6 0.000000 0.000000 0.000000 0.001485 0.000000 0.037281
#
#
# Mechanical properties :
#
#
# Convention : Reuss Voigt Hill
#
# Bulk Modulus (GPa) = 61.37375 73.42951 67.40163
# Shear Modulus (GPa) = 21.06926 24.70395 22.88661
#
# Velocity S-wave (km/s) = 3.47877 3.76690 3.62569
# Velocity P-wave (km/s) = 7.16852 7.81639 7.49946
#
# Compressibility (1/GPa) = 0.01629361
#
# Stress axis : x y z
#
# Youngs Moduli (GPa) = 43.59802 30.78051 58.59846
#
# Poissons Ratio (x) = 0.32158 0.49708
# Poissons Ratio (y) = 0.45549 0.53723
# Poissons Ratio (z) = 0.36983 0.28220
#
# Static dielectric constant tensor:
#      x y z
#    x 8.780870 0.000000 -3.629390 
#    y 0.000000 3.266980 0.000000 
#    z -3.629390 0.000000 5.714030 
# 
# 
# High freq. dielectric constant tensor:
#      x y z
#    x 1.659650 0.000000 0.001820 
#    y 0.000000 1.673230 0.000000 
#    z 0.001820 0.000000 1.678860 
# 
# From -- ./inp_files/320157.got.cif
#   From: 2010.06.25/outbox.cif.g09.slc.cpg/sg12_161_cif.got.tgz:320157.got - 2010.06.28 00:19:55.
