data_PCOD8107533
_publ_section_title
;
Structure prediction by ZEFSAII (Michael W. Deem and Ramdas Pophale) SiO2 
 PCOD8107533
Probable space group: C 2/M
;
_chemical_formula_sum "Si O2"
_cell_formula_units_Z 64
_cell_length_a 24.687595
_cell_length_b 18.253263
_cell_length_c 14.473932
_cell_angle_alpha 90.000000
_cell_angle_beta 28.296193
_cell_angle_gamma 90.000000
_cell_volume 3091.799915
_symmetry_space_group_name_H-M "C 2/M"
_symmetry_group_IT_number 12
_symmetry_cell_setting 'monoclinic'
loop_
_space_group_symop_operation_xyz
x,y,z
-x,y,-z
-x,-y,-z
x,-y,z
1/2+x,1/2+y,z
1/2-x,1/2+y,-z
1/2-x,1/2-y,-z
1/2+x,1/2-y,z
loop_
_atom_site_type_symbol
_atom_site_label
_atom_site_fract_x
_atom_site_fract_y
_atom_site_fract_z
Si Si1 0.041307 0.913726 0.782660
Si Si2 0.124147 0.585250 0.089865
Si Si3 0.180031 0.169594 0.874929
Si Si4 0.096551 0.332124 0.578469
Si Si5 0.297526 0.833459 0.195033
Si Si6 0.269676 0.834932 0.451565
Si Si7 0.802155 0.828792 0.937151
Si Si8 0.050094 0.828549 0.589920
O O1 0.156798 0.879411 0.651950
O O2 0.041493 0.896522 0.673148
O O3 0.039217 0.000000 0.803705
O O4 0.927801 0.877983 0.999489
O O5 0.111022 0.500000 0.120874
O O6 0.009921 0.622574 0.301449
O O7 0.135814 0.606001 0.964076
O O8 0.233480 0.610826 0.983627
O O9 0.294413 0.149903 0.648524
O O10 0.147695 0.254849 0.909879
O O11 0.201579 0.151395 0.949552
O O12 0.126191 0.358640 0.638160
O O13 0.064437 0.246205 0.627905
O O14 0.304167 0.851074 0.293883
O O15 0.165344 0.835778 0.356590
O O16 0.250000 0.750000 0.500000
O O17 0.934547 0.827091 0.702805
O O18 0.750000 0.750000 0.000000
#
# Coordination Sequence:
#
# PCOD8107533 Si02
#       8
#     8   8   8   8   8   8   8   8
#     4  10  21  37  60  93 130 161 203 262 319 373
#     4  12  27  44  61  93 136 173 212 265 327 388
#     4  10  21  39  67  94 124 164 216 266 318 377
#     4  11  22  43  64  95 127 172 220 264 308 381
#     4  10  21  40  65  98 124 164 212 269 313 381
#     4  11  21  40  69  97 125 168 218 258 315 380
#     4  11  20  39  66  93 123 164 215 266 321 384
#     4   9  19  38  66  95 119 159 215 264 318 372
#
# _framework density 20.699916000000002
#
# number of rings (size 3 to 8) (size 9 to 14) (size 15 to 20)
#    0.000    1.500    6.250    0.750    0.000    7.000 
#    0.000    2.500    0.000    0.000    0.000    0.000 
#    0.000    0.000    0.000    0.000    0.000    0.000 
#
# Total GULP energy -396714.124849 kJ/mol
# GULP energy per Si atom -12397.316402 kJ/mol
# Density = 2.065280 g / cm^3
# Si number density = 20.699916 Si / 1000 Ang^3
#
#
#
# Elastic Constant Matrix: (Units=GPa)
#
#
# Indices 1 2 3 4 5 6 
#
# 1 82.0842 12.7759 20.9182 -0.0001 -12.1347 0.0000
# 2 12.7759 82.3561 31.9181 0.0000 -8.9068 0.0000
# 3 20.9182 31.9181 83.1985 -0.0001 -13.6035 0.0000
# 4 -0.0001 0.0000 -0.0001 20.4078 0.0000 -6.5796
# 5 -12.1347 -8.9068 -13.6035 0.0000 39.1789 0.0000
# 6 0.0000 0.0000 0.0000 -6.5796 0.0000 23.6454
#
#
#
# Elastic Compliance Matrix: (Units=1/GPa)
#
#
# Indices 1 2 3 4 5 6 
#
# 1 0.013413 -0.000746 -0.002581 0.000000 0.003088 0.000000
# 2 -0.000746 0.014380 -0.005123 0.000000 0.001259 0.000000
# 3 -0.002581 -0.005123 0.015174 0.000000 0.003305 0.000000
# 4 0.000000 0.000000 0.000000 0.053830 0.000000 0.014979
# 5 0.003088 0.001259 0.003305 0.000000 0.027914 0.000000
# 6 0.000000 0.000000 0.000000 0.014979 0.000000 0.046460
#
#
# Mechanical properties :
#
#
# Convention : Reuss Voigt Hill
#
# Bulk Modulus (GPa) = 38.36427 42.09592 40.23009
# Shear Modulus (GPa) = 25.41157 28.78152 27.09654
#
# Velocity S-wave (km/s) = 3.50754 3.73288 3.62196
# Velocity P-wave (km/s) = 5.91418 6.24176 6.08018
#
# Compressibility (1/GPa) = 0.02606592
#
# Stress axis : x y z
#
# Youngs Moduli (GPa) = 74.55390 69.54157 65.90156
#
# Poissons Ratio (x) = 0.05191 0.17009
# Poissons Ratio (y) = 0.05565 0.33762
# Poissons Ratio (z) = 0.19243 0.35627
#
# Static dielectric constant tensor:
#      x y z
#    x 117.239190 0.000010 -74.008590 
#    y 0.000010 3.438680 0.000000 
#    z -74.008590 0.000000 51.985520 
# 
# 
# High freq. dielectric constant tensor:
#      x y z
#    x 1.804930 0.000000 -0.013910 
#    y 0.000000 1.780650 0.000000 
#    z -0.013910 0.000000 1.823800 
# 
# From -- ./inp_files/241469.got.cif
#   From: 2010.06.25/outbox.cif.g09.slc.cpg/sg12_121_cif.got.tgz:241469.got - 2010.06.28 00:19:55.
