data_PCOD8107935
_publ_section_title
;
Structure prediction by ZEFSAII (Michael W. Deem and Ramdas Pophale) SiO2 
 PCOD8107935
Probable space group: C 2/M
;
_chemical_formula_sum "Si O2"
_cell_formula_units_Z 64
_cell_length_a 24.178939
_cell_length_b 9.042537
_cell_length_c 29.249366
_cell_angle_alpha 90.000000
_cell_angle_beta 149.007152
_cell_angle_gamma 90.000000
_cell_volume 3293.010319
_symmetry_space_group_name_H-M "C 2/M"
_symmetry_group_IT_number 12
_symmetry_cell_setting 'monoclinic'
loop_
_space_group_symop_operation_xyz
x,y,z
-x,y,-z
-x,-y,-z
x,-y,z
1/2+x,1/2+y,z
1/2-x,1/2+y,-z
1/2-x,1/2-y,-z
1/2+x,1/2-y,z
loop_
_atom_site_type_symbol
_atom_site_label
_atom_site_fract_x
_atom_site_fract_y
_atom_site_fract_z
Si Si1 0.054572 0.674807 0.969864
Si Si2 0.137405 0.323850 0.930995
Si Si3 0.361474 0.330316 0.585906
Si Si4 0.234313 0.331256 0.634305
Si Si5 0.160076 0.327354 0.681732
Si Si6 0.541780 0.670925 0.251143
Si Si7 0.056370 0.829812 0.453768
Si Si8 0.338208 0.174989 0.861795
O O1 0.049355 0.500000 0.964316
O O2 0.095507 0.737129 0.950418
O O3 0.934693 0.731871 0.897156
O O4 0.136201 0.722666 0.067953
O O5 0.149166 0.500000 0.939162
O O6 0.054845 0.273868 0.833587
O O7 0.250000 0.250000 0.000000
O O8 0.331376 0.500000 0.573028
O O9 0.250000 0.250000 0.500000
O O10 0.424770 0.270770 0.674964
O O11 0.438380 0.308326 0.596995
O O12 0.199072 0.500000 0.599473
O O13 0.216200 0.288299 0.673835
O O14 0.359415 0.307494 0.713342
O O15 0.167208 0.224534 0.554121
O O16 0.154336 0.500000 0.687302
O O17 0.227283 0.251975 0.769720
O O18 0.040387 0.264838 0.594704
O O19 0.504115 0.500000 0.225869
O O20 0.038757 0.000000 0.454482
O O21 0.323333 0.000000 0.847233
#
# Coordination Sequence:
#
# PCOD8107935 Si02
#       8
#     8   8   8   8   8   8   8   8
#     4   8  17  35  60  84 108 141 183 232 285 334
#     4  11  23  39  58  84 117 151 189 234 282 338
#     4  10  21  38  61  85 112 146 190 238 285 335
#     4  10  21  38  59  81 112 151 187 228 285 342
#     4  11  23  36  52  81 118 152 185 225 282 343
#     4  10  21  39  62  86 113 148 188 235 289 341
#     4  11  23  37  56  83 111 147 192 236 278 330
#     4   9  17  35  61  84 106 140 185 233 283 335
#
# _framework density 19.435106000000001
#
# number of rings (size 3 to 8) (size 9 to 14) (size 15 to 20)
#    0.000    2.000    1.250    3.000    0.000    5.000 
#    0.000    8.125    0.000    0.000    0.000    0.000 
#    0.000    0.000    0.000    0.000    0.000    0.000 
#
# Total GULP energy -396891.496625 kJ/mol
# GULP energy per Si atom -12402.859270 kJ/mol
# Density = 1.939087 g / cm^3
# Si number density = 19.435106 Si / 1000 Ang^3
#
#
#
# Elastic Constant Matrix: (Units=GPa)
#
#
# Indices 1 2 3 4 5 6 
#
# 1 75.6749 41.0105 45.8884 0.0001 -7.2719 0.0004
# 2 41.0105 67.5100 46.0490 0.0001 -3.8467 0.0003
# 3 45.8884 46.0490 123.1536 0.0006 -6.8259 0.0002
# 4 0.0001 0.0001 0.0006 38.5900 0.0001 3.0814
# 5 -7.2719 -3.8467 -6.8259 0.0001 29.1959 0.0000
# 6 0.0004 0.0003 0.0002 3.0814 0.0000 25.7483
#
#
#
# Elastic Compliance Matrix: (Units=1/GPa)
#
#
# Indices 1 2 3 4 5 6 
#
# 1 0.021424 -0.010082 -0.004043 0.000000 0.003063 0.000000
# 2 -0.010082 0.024652 -0.005491 0.000000 -0.000547 0.000000
# 3 -0.004043 -0.005491 0.011736 0.000000 0.001013 0.000000
# 4 0.000000 0.000000 0.000000 0.026163 0.000000 -0.003131
# 5 0.003063 -0.000547 0.001013 0.000000 0.035179 0.000000
# 6 0.000000 0.000000 0.000000 -0.003131 0.000000 0.039212
#
#
# Mechanical properties :
#
#
# Convention : Reuss Voigt Hill
#
# Bulk Modulus (GPa) = 53.82569 59.13714 56.48142
# Shear Modulus (GPa) = 24.53467 27.59954 26.06710
#
# Velocity S-wave (km/s) = 3.55687 3.77249 3.66626
# Velocity P-wave (km/s) = 6.68009 7.03347 6.85905
#
# Compressibility (1/GPa) = 0.01857849
#
# Stress axis : x y z
#
# Youngs Moduli (GPa) = 46.67568 40.56514 85.20837
#
# Poissons Ratio (x) = 0.40899 0.34453
# Poissons Ratio (y) = 0.47060 0.46790
# Poissons Ratio (z) = 0.18873 0.22275
#
# Static dielectric constant tensor:
#      x y z
#    x 3.844680 0.000000 -0.113550 
#    y 0.000000 3.390060 0.000000 
#    z -0.113550 0.000000 3.472430 
# 
# 
# High freq. dielectric constant tensor:
#      x y z
#    x 1.764820 0.000000 -0.005430 
#    y 0.000000 1.742540 0.000000 
#    z -0.005430 0.000000 1.760780 
# 
# From -- ./inp_files/382520.got.cif
#   From: 2010.06.25/outbox.cif.g09.slc.cpg/sg12_192_cif.got.tgz:382520.got - 2010.06.28 00:19:55.
