data_PCOD8107580
_publ_section_title
;
Structure prediction by ZEFSAII (Michael W. Deem and Ramdas Pophale) SiO2 
 PCOD8107580
Probable space group: C 2/M
;
_chemical_formula_sum "Si O2"
_cell_formula_units_Z 36
_cell_length_a 9.262276
_cell_length_b 20.137768
_cell_length_c 16.015111
_cell_angle_alpha 90.000000
_cell_angle_beta 141.483517
_cell_angle_gamma 90.000000
_cell_volume 1860.225506
_symmetry_space_group_name_H-M "C 2/M"
_symmetry_group_IT_number 12
_symmetry_cell_setting 'monoclinic'
loop_
_space_group_symop_operation_xyz
x,y,z
-x,y,-z
-x,-y,-z
x,-y,z
1/2+x,1/2+y,z
1/2-x,1/2+y,-z
1/2-x,1/2-y,-z
1/2+x,1/2-y,z
loop_
_atom_site_type_symbol
_atom_site_label
_atom_site_fract_x
_atom_site_fract_y
_atom_site_fract_z
Si Si1 0.012526 0.305081 0.329067
Si Si2 0.740193 0.710426 0.910187
Si Si3 0.213126 0.570854 0.036084
Si Si4 0.233229 0.574519 0.862224
Si Si5 0.500000 0.740902 0.500000
O O1 0.283024 0.306842 0.424754
O O2 0.902325 0.246889 0.224559
O O3 0.892525 0.375610 0.257981
O O4 0.962652 0.288464 0.403102
O O5 0.630599 0.636010 0.872551
O O6 0.750000 0.750000 0.000000
O O7 0.000000 0.698529 0.000000
O O8 0.355585 0.500000 0.104252
O O9 0.107893 0.579313 0.895230
O O10 0.000000 0.564288 0.000000
O O11 0.217639 0.500000 0.817733
O O12 0.500000 0.595526 0.000000
#
# Coordination Sequence:
#
# PCOD8107580 Si02
#       5
#     8   8   8   8   4
#     4  11  22  41  58  82 118 151 201 243 276 336
#     4  11  20  31  58  90 111 144 181 233 306 353
#     4   9  19  33  50  86 121 143 174 219 295 363
#     4  10  21  37  61  91 120 146 178 237 310 357
#     4  10  26  40  58  78 110 164 210 238 266 320
#
# _framework density 19.352492000000002
#
# number of rings (size 3 to 8) (size 9 to 14) (size 15 to 20)
#    0.000    1.778    2.222    2.000    6.222    0.000 
#    0.000    1.111    0.000    5.333    0.000    0.000 
#    0.000    0.000    0.000    0.000    0.000    0.000 
#
# Total GULP energy -223003.304437 kJ/mol
# GULP energy per Si atom -12389.072469 kJ/mol
# Density = 1.930844 g / cm^3
# Si number density = 19.352492 Si / 1000 Ang^3
#
#
#
# Elastic Constant Matrix: (Units=GPa)
#
#
# Indices 1 2 3 4 5 6 
#
# 1 108.6950 35.9016 40.5108 0.0000 -19.3079 -0.0005
# 2 35.9016 189.0546 66.1460 0.0005 -11.0398 -0.0004
# 3 40.5108 66.1460 99.0155 0.0023 -14.6707 -0.0048
# 4 0.0000 0.0005 0.0023 32.0787 0.0008 -2.6171
# 5 -19.3079 -11.0398 -14.6707 0.0008 35.1727 -0.0019
# 6 -0.0005 -0.0004 -0.0048 -2.6171 -0.0019 19.3108
#
#
#
# Elastic Compliance Matrix: (Units=1/GPa)
#
#
# Indices 1 2 3 4 5 6 
#
# 1 0.011591 -0.000667 -0.003608 0.000000 0.004648 0.000000
# 2 -0.000667 0.006944 -0.004367 0.000000 -0.000008 -0.000001
# 3 -0.003608 -0.004367 0.014918 -0.000001 0.002871 0.000004
# 4 0.000000 0.000000 -0.000001 0.031522 -0.000001 0.004272
# 5 0.004648 -0.000008 0.002871 -0.000001 0.032178 0.000004
# 6 0.000000 -0.000001 0.000004 0.004272 0.000004 0.052364
#
#
# Mechanical properties :
#
#
# Convention : Reuss Voigt Hill
#
# Bulk Modulus (GPa) = 61.84731 75.76466 68.80598
# Shear Modulus (GPa) = 29.03789 34.25954 31.64871
#
# Velocity S-wave (km/s) = 3.87780 4.21205 4.04837
# Velocity P-wave (km/s) = 7.21647 7.93032 7.58180
#
# Compressibility (1/GPa) = 0.01616885
#
# Stress axis : x y z
#
# Youngs Moduli (GPa) = 86.27535 144.01844 67.03309
#
# Poissons Ratio (x) = 0.09612 0.24183
# Poissons Ratio (y) = 0.05758 0.29271
# Poissons Ratio (z) = 0.31125 0.62889
#
# Static dielectric constant tensor:
#      x y z
#    x 3.975530 0.000000 -0.111410 
#    y 0.000000 4.272960 0.000000 
#    z -0.111410 0.000000 3.405350 
# 
# 
# High freq. dielectric constant tensor:
#      x y z
#    x 1.782390 0.000000 -0.015040 
#    y 0.000000 1.768220 0.000000 
#    z -0.015040 0.000000 1.704990 
# 
# From -- ./inp_files/119987.got.cif
#   From: 2010.06.25/outbox.cif.g09.slc.cpg/sg12_60_cif.got.tgz:119987.got - 2010.06.28 00:19:55.
