data_PCOD8107877
_publ_section_title
;
Structure prediction by ZEFSAII (Michael W. Deem and Ramdas Pophale) SiO2 
 PCOD8107877
Probable space group: C 2/M
;
_chemical_formula_sum "Si O2"
_cell_formula_units_Z 56
_cell_length_a 29.037414
_cell_length_b 8.800808
_cell_length_c 21.039225
_cell_angle_alpha 90.000000
_cell_angle_beta 150.071486
_cell_angle_gamma 90.000000
_cell_volume 2682.503837
_symmetry_space_group_name_H-M "C 2/M"
_symmetry_group_IT_number 12
_symmetry_cell_setting 'monoclinic'
loop_
_space_group_symop_operation_xyz
x,y,z
-x,y,-z
-x,-y,-z
x,-y,z
1/2+x,1/2+y,z
1/2-x,1/2+y,-z
1/2-x,1/2-y,-z
1/2+x,1/2-y,z
loop_
_atom_site_type_symbol
_atom_site_label
_atom_site_fract_x
_atom_site_fract_y
_atom_site_fract_z
Si Si1 0.278318 0.179453 0.101844
Si Si2 0.544664 0.320679 0.243723
Si Si3 0.790681 0.823810 0.642651
Si Si4 0.868514 0.672215 0.985539
Si Si5 0.411543 0.179374 0.581026
Si Si6 0.969449 0.321541 0.394360
Si Si7 0.894097 0.329613 0.873552
O O1 0.374588 0.242391 0.248418
O O2 0.285314 0.000000 0.100089
O O3 0.250000 0.250000 0.000000
O O4 0.198920 0.218109 0.056852
O O5 0.531260 0.500000 0.220729
O O6 0.647162 0.267480 0.342616
O O7 0.472247 0.234204 0.113306
O O8 0.524987 0.265912 0.291898
O O9 0.689783 0.748694 0.527820
O O10 0.842839 0.792610 0.770022
O O11 0.773180 0.000000 0.615266
O O12 0.861868 0.500000 0.004131
O O13 0.844847 0.676862 0.883024
O O14 0.446570 0.219025 0.552493
O O15 0.418574 0.000000 0.601535
O O16 0.955479 0.500000 0.386455
O O17 0.000000 0.251736 0.500000
O O18 0.884617 0.500000 0.833837
O O19 0.000000 0.280577 0.000000
#
# Coordination Sequence:
#
# PCOD8107877 Si02
#       7
#     8   8   8   8   8   8   8
#     4  11  23  40  66  95 124 160 206 259 313 368
#     4  11  22  37  57  88 123 155 196 245 297 356
#     4  10  22  36  57  88 119 154 197 244 294 358
#     4  11  23  39  61  87 120 159 201 247 304 366
#     4  10  21  38  61  86 116 156 197 240 297 361
#     4   9  20  39  62  88 117 154 202 251 299 357
#     4  10  21  38  58  83 116 158 200 246 303 361
#
# _framework density 20.876017999999998
#
# number of rings (size 3 to 8) (size 9 to 14) (size 15 to 20)
#    0.000    1.714    1.429    2.571    2.000    3.714 
#    0.000    0.714    0.000    2.143    0.000    0.000 
#    0.000    0.000    0.000    0.000    0.000    0.000 
#
# Total GULP energy -347080.124251 kJ/mol
# GULP energy per Si atom -12395.718723 kJ/mol
# Density = 2.082850 g / cm^3
# Si number density = 20.876018 Si / 1000 Ang^3
#
#
#
# Elastic Constant Matrix: (Units=GPa)
#
#
# Indices 1 2 3 4 5 6 
#
# 1 119.1908 26.8356 48.2978 0.0000 -10.1558 0.0000
# 2 26.8356 31.7088 15.9192 0.0000 -2.7985 0.0000
# 3 48.2978 15.9192 97.4958 0.0000 -6.2100 0.0000
# 4 0.0000 0.0000 0.0000 27.4808 0.0000 -3.3065
# 5 -10.1558 -2.7985 -6.2100 0.0000 37.9850 0.0000
# 6 0.0000 0.0000 0.0000 -3.3065 0.0000 18.5821
#
#
#
# Elastic Compliance Matrix: (Units=1/GPa)
#
#
# Indices 1 2 3 4 5 6 
#
# 1 0.012196 -0.007821 -0.004642 0.000000 0.001926 0.000000
# 2 -0.007821 0.039469 -0.002545 0.000000 0.000401 0.000000
# 3 -0.004642 -0.002545 0.013016 0.000000 0.000699 0.000000
# 4 0.000000 0.000000 0.000000 0.037185 0.000000 0.006617
# 5 0.001926 0.000401 0.000699 0.000000 0.026985 0.000000
# 6 0.000000 0.000000 0.000000 0.006617 0.000000 0.054993
#
#
# Mechanical properties :
#
#
# Convention : Reuss Voigt Hill
#
# Bulk Modulus (GPa) = 28.84668 47.83339 38.34004
# Shear Modulus (GPa) = 22.18135 27.29909 24.74022
#
# Velocity S-wave (km/s) = 3.26318 3.62010 3.44627
# Velocity P-wave (km/s) = 5.29584 6.35896 5.85159
#
# Compressibility (1/GPa) = 0.03466603
#
# Stress axis : x y z
#
# Youngs Moduli (GPa) = 81.99495 25.33638 76.82611
#
# Poissons Ratio (x) = 0.19816 0.35662
# Poissons Ratio (y) = 0.64129 0.19549
# Poissons Ratio (z) = 0.38062 0.06447
#
# Static dielectric constant tensor:
#      x y z
#    x 3.905040 0.000000 0.051720 
#    y 0.000000 3.490020 0.000000 
#    z 0.051720 0.000000 3.960550 
# 
# 
# High freq. dielectric constant tensor:
#      x y z
#    x 1.831590 0.000000 -0.001400 
#    y 0.000000 1.792230 0.000000 
#    z -0.001400 0.000000 1.820490 
# 
# From -- ./inp_files/329730.got.cif
#   From: 2010.06.25/outbox.cif.g09.slc.cpg/sg12_165_cif.got.tgz:329730.got - 2010.06.28 00:19:55.
