data_PCOD8107438
_publ_section_title
;
Structure prediction by ZEFSAII (Michael W. Deem and Ramdas Pophale) SiO2 
 PCOD8107438
Probable space group: C 2/M
;
_chemical_formula_sum "Si O2"
_cell_formula_units_Z 64
_cell_length_a 22.337393
_cell_length_b 13.471977
_cell_length_c 12.130585
_cell_angle_alpha 90.000000
_cell_angle_beta 109.776428
_cell_angle_gamma 90.000000
_cell_volume 3435.139985
_symmetry_space_group_name_H-M "C 2/M"
_symmetry_group_IT_number 12
_symmetry_cell_setting 'monoclinic'
loop_
_space_group_symop_operation_xyz
x,y,z
-x,y,-z
-x,-y,-z
x,-y,z
1/2+x,1/2+y,z
1/2-x,1/2+y,-z
1/2-x,1/2-y,-z
1/2+x,1/2-y,z
loop_
_atom_site_type_symbol
_atom_site_label
_atom_site_fract_x
_atom_site_fract_y
_atom_site_fract_z
Si Si1 0.407172 0.884780 0.102270
Si Si2 0.167118 0.694158 0.745812
Si Si3 0.568141 0.771469 0.499559
Si Si4 0.336721 0.387626 0.524297
Si Si5 0.135168 0.699776 0.146803
Si Si6 0.453359 0.114595 0.727669
Si Si7 0.230248 0.111200 0.740200
Si Si8 0.702945 0.386761 0.256923
O O1 0.350600 0.852622 0.148193
O O2 0.473795 0.860645 0.200634
O O3 0.400261 0.000000 0.068284
O O4 0.403226 0.821842 0.988203
O O5 0.108087 0.685827 0.626273
O O6 0.187481 0.808959 0.779480
O O7 0.224294 0.631145 0.729904
O O8 0.500000 0.733793 0.500000
O O9 0.602156 0.679403 0.461640
O O10 0.559683 0.860657 0.407651
O O11 0.362121 0.500000 0.542048
O O12 0.282639 0.372968 0.397867
O O13 0.303659 0.359428 0.618514
O O14 0.090241 0.682161 0.222671
O O15 0.195688 0.627445 0.191808
O O16 0.156762 0.814829 0.158768
O O17 0.437369 0.000000 0.739652
O O18 0.211312 0.000000 0.766744
O O19 0.683570 0.500000 0.219535
#
# Coordination Sequence:
#
# PCOD8107438 Si02
#       8
#     8   8   8   8   8   8   8   8
#     4  11  23  40  57  80 116 154 192 231 276 334
#     4  10  22  36  57  84 120 152 183 229 289 333
#     4  11  21  37  59  86 117 146 186 234 283 337
#     4   9  19  36  58  85 118 148 182 232 282 338
#     4  11  22  38  61  82 111 150 194 233 277 330
#     4  11  23  37  58  85 112 148 190 235 283 333
#     4   9  19  34  56  87 116 145 188 234 279 333
#     4  10  21  37  60  87 114 147 185 230 287 340
#
# _framework density 18.630973999999998
#
# number of rings (size 3 to 8) (size 9 to 14) (size 15 to 20)
#    0.000    1.750    2.500    1.875    1.750    6.000 
#    0.000    1.875    0.000    3.000    0.000    0.000 
#    0.000    0.000    0.000    0.000    0.000    0.000 
#
# Total GULP energy -396911.906493 kJ/mol
# GULP energy per Si atom -12403.497078 kJ/mol
# Density = 1.858857 g / cm^3
# Si number density = 18.630974 Si / 1000 Ang^3
#
#
#
# Elastic Constant Matrix: (Units=GPa)
#
#
# Indices 1 2 3 4 5 6 
#
# 1 91.8064 26.5305 13.2255 0.0000 -3.2521 0.0000
# 2 26.5305 94.6308 25.8861 0.0000 11.2623 0.0000
# 3 13.2255 25.8861 55.2700 0.0000 0.0111 0.0000
# 4 0.0000 0.0000 0.0000 29.8006 0.0000 -3.0373
# 5 -3.2521 11.2623 0.0111 0.0000 15.8736 0.0000
# 6 0.0000 0.0000 0.0000 -3.0373 0.0000 23.2885
#
#
#
# Elastic Compliance Matrix: (Units=1/GPa)
#
#
# Indices 1 2 3 4 5 6 
#
# 1 0.012331 -0.003747 -0.001197 0.000000 0.005186 0.000000
# 2 -0.003747 0.014557 -0.005919 0.000000 -0.011092 0.000000
# 3 -0.001197 -0.005919 0.021151 0.000000 0.003940 0.000000
# 4 0.000000 0.000000 0.000000 0.034008 0.000000 0.004435
# 5 0.005186 -0.011092 0.003940 0.000000 0.071927 0.000000
# 6 0.000000 0.000000 0.000000 0.004435 0.000000 0.043518
#
#
# Mechanical properties :
#
#
# Convention : Reuss Voigt Hill
#
# Bulk Modulus (GPa) = 38.00335 41.44348 39.72341
# Shear Modulus (GPa) = 21.93078 25.53021 23.73050
#
# Velocity S-wave (km/s) = 3.43463 3.70579 3.57278
# Velocity P-wave (km/s) = 6.01425 6.37206 6.19574
#
# Compressibility (1/GPa) = 0.02631347
#
# Stress axis : x y z
#
# Youngs Moduli (GPa) = 81.09364 68.69498 47.27946
#
# Poissons Ratio (x) = 0.25740 0.05659
# Poissons Ratio (y) = 0.30386 0.27985
# Poissons Ratio (z) = 0.09706 0.40661
#
# Static dielectric constant tensor:
#      x y z
#    x 3.406330 0.000000 0.006390 
#    y 0.000000 3.477790 0.000000 
#    z 0.006390 0.000000 3.359900 
# 
# 
# High freq. dielectric constant tensor:
#      x y z
#    x 1.724170 0.000000 -0.000890 
#    y 0.000000 1.725560 0.000000 
#    z -0.000890 0.000000 1.719890 
# 
# From -- ./inp_files/167279.got.cif
#   From: 2010.06.25/outbox.cif.g09.slc.cpg/sg12_84_cif.got.tgz:167279.got - 2010.06.28 00:19:55.
