data_PCOD8107805
_publ_section_title
;
Structure prediction by ZEFSAII (Michael W. Deem and Ramdas Pophale) SiO2 
 PCOD8107805
Probable space group: C 2/M
;
_chemical_formula_sum "Si O2"
_cell_formula_units_Z 48
_cell_length_a 19.153796
_cell_length_b 10.395542
_cell_length_c 25.951100
_cell_angle_alpha 90.000000
_cell_angle_beta 27.702699
_cell_angle_gamma 90.000000
_cell_volume 2402.161127
_symmetry_space_group_name_H-M "C 2/M"
_symmetry_group_IT_number 12
_symmetry_cell_setting 'monoclinic'
loop_
_space_group_symop_operation_xyz
x,y,z
-x,y,-z
-x,-y,-z
x,-y,z
1/2+x,1/2+y,z
1/2-x,1/2+y,-z
1/2-x,1/2-y,-z
1/2+x,1/2-y,z
loop_
_atom_site_type_symbol
_atom_site_label
_atom_site_fract_x
_atom_site_fract_y
_atom_site_fract_z
Si Si1 0.675463 0.854448 0.164594
Si Si2 0.363252 0.148272 0.696589
Si Si3 0.162177 0.144660 0.370263
Si Si4 0.357319 0.355943 0.952888
Si Si5 0.291221 0.140195 0.513093
Si Si6 0.908062 0.761279 0.272122
O O1 0.692994 0.799264 0.210767
O O2 0.543036 0.789660 0.218843
O O3 0.622359 0.000000 0.206728
O O4 0.835152 0.843672 0.029616
O O5 0.295682 0.247707 0.699590
O O6 0.541494 0.160360 0.576455
O O7 0.311371 0.000000 0.719517
O O8 0.291946 0.151676 0.329157
O O9 0.000000 0.175312 0.500000
O O10 0.163825 0.000000 0.345863
O O11 0.305916 0.500000 0.969802
O O12 0.525389 0.331397 0.822611
O O13 0.250000 0.250000 0.000000
O O14 0.250000 0.250000 0.500000
O O15 0.184048 0.139236 0.632864
O O16 0.274806 0.000000 0.496993
#
# Coordination Sequence:
#
# PCOD8107805 Si02
#       6
#     8   8   8   8   8   8
#     4   9  18  36  60  84 110 147 189 231 279 336
#     4  10  21  38  57  81 115 153 188 232 285 342
#     4  11  24  39  57  85 118 156 193 236 288 342
#     4   9  19  35  58  86 115 146 189 236 285 336
#     4  11  22  34  54  85 116 149 189 234 288 339
#     4  11  20  36  58  86 117 148 189 238 285 338
#
# _framework density 19.982005999999998
#
# number of rings (size 3 to 8) (size 9 to 14) (size 15 to 20)
#    0.000    1.833    3.333    1.000    0.000    3.667 
#    0.000    1.667    0.000    4.000    0.000    0.000 
#    0.000    0.000    0.000    0.000    0.000    0.000 
#
# Total GULP energy -297356.921710 kJ/mol
# GULP energy per Si atom -12389.871738 kJ/mol
# Density = 1.993653 g / cm^3
# Si number density = 19.982006 Si / 1000 Ang^3
#
#
#
# Elastic Constant Matrix: (Units=GPa)
#
#
# Indices 1 2 3 4 5 6 
#
# 1 65.0088 43.0429 22.6378 -0.0001 16.5363 0.0001
# 2 43.0429 117.4836 29.0209 -0.0025 12.2182 0.0001
# 3 22.6378 29.0209 129.7375 -0.0014 29.3510 0.0000
# 4 -0.0001 -0.0025 -0.0014 18.2090 0.0003 6.3174
# 5 16.5363 12.2182 29.3510 0.0003 26.0718 0.0002
# 6 0.0001 0.0001 0.0000 6.3174 0.0002 30.1948
#
#
#
# Elastic Compliance Matrix: (Units=1/GPa)
#
#
# Indices 1 2 3 4 5 6 
#
# 1 0.023058 -0.007309 0.000195 -0.000001 -0.011419 0.000000
# 2 -0.007309 0.011462 -0.001506 0.000001 0.000959 0.000000
# 3 0.000195 -0.001506 0.010571 0.000001 -0.011319 0.000000
# 4 -0.000001 0.000001 0.000001 0.059216 -0.000002 -0.012389
# 5 -0.011419 0.000959 -0.011319 -0.000002 0.057892 0.000000
# 6 0.000000 0.000000 0.000000 -0.012389 0.000000 0.035710
#
#
# Mechanical properties :
#
#
# Convention : Reuss Voigt Hill
#
# Bulk Modulus (GPa) = 35.90288 55.73700 45.81994
# Shear Modulus (GPa) = 22.27844 29.39703 25.83773
#
# Velocity S-wave (km/s) = 3.34267 3.83975 3.59980
# Velocity P-wave (km/s) = 5.73625 6.90017 6.34496
#
# Compressibility (1/GPa) = 0.02785292
#
# Stress axis : x y z
#
# Youngs Moduli (GPa) = 43.36808 87.24752 94.59477
#
# Poissons Ratio (x) = 0.63765 -0.01843
# Poissons Ratio (y) = 0.31696 0.14242
# Poissons Ratio (z) = -0.00845 0.13136
#
# Static dielectric constant tensor:
#      x y z
#    x 3.402670 0.000000 0.322450 
#    y 0.000000 3.644660 0.000010 
#    z 0.322450 0.000010 4.336580 
# 
# 
# High freq. dielectric constant tensor:
#      x y z
#    x 1.750900 0.000000 0.015900 
#    y 0.000000 1.777070 0.000000 
#    z 0.015900 0.000000 1.795420 
# 
# From -- ./inp_files/310207.got.cif
#   From: 2010.06.25/outbox.cif.g09.slc.cpg/sg12_156_cif.got.tgz:310207.got - 2010.06.28 00:19:55.
