data_PCOD8107676
_publ_section_title
;
Structure prediction by ZEFSAII (Michael W. Deem and Ramdas Pophale) SiO2 
 PCOD8107676
Probable space group: C 2/M
;
_chemical_formula_sum "Si O2"
_cell_formula_units_Z 56
_cell_length_a 20.742019
_cell_length_b 19.493154
_cell_length_c 17.437750
_cell_angle_alpha 90.000000
_cell_angle_beta 158.134135
_cell_angle_gamma 90.000000
_cell_volume 2625.874752
_symmetry_space_group_name_H-M "C 2/M"
_symmetry_group_IT_number 12
_symmetry_cell_setting 'monoclinic'
loop_
_space_group_symop_operation_xyz
x,y,z
-x,y,-z
-x,-y,-z
x,-y,z
1/2+x,1/2+y,z
1/2-x,1/2+y,-z
1/2-x,1/2-y,-z
1/2+x,1/2-y,z
loop_
_atom_site_type_symbol
_atom_site_label
_atom_site_fract_x
_atom_site_fract_y
_atom_site_fract_z
Si Si1 0.191267 0.297661 0.223840
Si Si2 0.827562 0.421714 0.909836
Si Si3 0.177083 0.345043 0.660968
Si Si4 0.206822 0.385712 0.373470
Si Si5 0.130608 0.924473 0.001429
Si Si6 0.899781 0.077860 0.199331
Si Si7 0.229736 0.423995 0.565544
O O1 0.222306 0.369761 0.213827
O O2 0.318769 0.237502 0.338695
O O3 0.215061 0.311423 0.341333
O O4 0.000000 0.268233 0.000000
O O5 0.769737 0.500000 0.825577
O O6 0.716238 0.391822 0.859290
O O7 0.035398 0.423789 0.151226
O O8 0.322341 0.373010 0.878567
O O9 0.175811 0.377555 0.576255
O O10 0.000000 0.370074 0.500000
O O11 0.392346 0.420078 0.558012
O O12 0.177457 0.381478 0.431894
O O13 0.220991 0.000000 0.109879
O O14 0.159705 0.889899 0.948846
O O15 0.930211 0.937512 0.789291
O O16 0.843835 0.000000 0.130417
O O17 0.139689 0.500000 0.466713
#
# Coordination Sequence:
#
# PCOD8107676 Si02
#       7
#     8   8   8   8   8   8   8
#     4  10  24  43  62  84 123 166 206 246 302 361
#     4  10  21  37  63  93 122 158 204 257 308 358
#     4  12  26  39  59  88 124 166 204 249 301 363
#     4  10  21  38  64  90 123 156 201 252 303 372
#     4   9  19  39  63  89 121 157 201 249 307 369
#     4   9  19  35  61  92 123 158 191 249 312 359
#     4  10  21  39  66  93 119 157 200 252 312 363
#
# _framework density 21.326226999999999
#
# number of rings (size 3 to 8) (size 9 to 14) (size 15 to 20)
#    0.000    2.000    0.000    3.857    4.000    6.571 
#    0.000    3.571    0.000    0.000    0.000    0.000 
#    0.000    0.000    0.000    0.000    0.000    0.000 
#
# Total GULP energy -346866.184965 kJ/mol
# GULP energy per Si atom -12388.078034 kJ/mol
# Density = 2.127769 g / cm^3
# Si number density = 21.326227 Si / 1000 Ang^3
#
#
#
# Elastic Constant Matrix: (Units=GPa)
#
#
# Indices 1 2 3 4 5 6 
#
# 1 144.6202 64.4820 40.5683 -0.0003 -14.9326 -0.0001
# 2 64.4820 107.9159 32.1551 -0.0001 -20.7722 0.0000
# 3 40.5683 32.1551 52.4255 -0.0007 -15.3344 -0.0007
# 4 -0.0003 -0.0001 -0.0007 4.3183 -0.0005 2.8595
# 5 -14.9326 -20.7722 -15.3344 -0.0005 38.2877 -0.0003
# 6 -0.0001 0.0000 -0.0007 2.8595 -0.0003 26.4522
#
#
#
# Elastic Compliance Matrix: (Units=1/GPa)
#
#
# Indices 1 2 3 4 5 6 
#
# 1 0.010491 -0.004796 -0.005370 0.000000 -0.000661 0.000000
# 2 -0.004796 0.014045 -0.003649 0.000000 0.004288 0.000000
# 3 -0.005370 -0.003649 0.027498 0.000005 0.006939 0.000000
# 4 0.000000 0.000000 0.000005 0.249426 0.000005 -0.026963
# 5 -0.000661 0.004288 0.006939 0.000005 0.030966 0.000000
# 6 0.000000 0.000000 0.000000 -0.026963 0.000000 0.040719
#
#
# Mechanical properties :
#
#
# Convention : Reuss Voigt Hill
#
# Bulk Modulus (GPa) = 40.97703 64.37474 52.67589
# Shear Modulus (GPa) = 12.22765 24.99538 18.61152
#
# Velocity S-wave (km/s) = 2.39710 3.42723 2.95736
# Velocity P-wave (km/s) = 5.18821 6.77588 6.03448
#
# Compressibility (1/GPa) = 0.02440391
#
# Stress axis : x y z
#
# Youngs Moduli (GPa) = 95.31852 71.20139 36.36623
#
# Poissons Ratio (x) = 0.34147 0.19529
# Poissons Ratio (y) = 0.45713 0.13270
# Poissons Ratio (z) = 0.51188 0.25981
#
# Static dielectric constant tensor:
#      x y z
#    x 3.914800 0.000000 0.150700 
#    y 0.000000 3.554880 0.000000 
#    z 0.150700 0.000000 3.701830 
# 
# 
# High freq. dielectric constant tensor:
#      x y z
#    x 1.854350 0.000000 -0.001450 
#    y 0.000000 1.806300 0.000000 
#    z -0.001450 0.000000 1.830040 
# 
# From -- ./inp_files/286092.got.cif
#   From: 2010.06.25/outbox.cif.g09.slc.cpg/sg12_144_cif.got.tgz:286092.got - 2010.06.28 00:19:55.
