data_PCOD8107274
_publ_section_title
;
Structure prediction by ZEFSAII (Michael W. Deem and Ramdas Pophale) SiO2 
 PCOD8107274
Probable space group: C 2/M
;
_chemical_formula_sum "Si O2"
_cell_formula_units_Z 48
_cell_length_a 20.576105
_cell_length_b 8.921429
_cell_length_c 26.734924
_cell_angle_alpha 90.000000
_cell_angle_beta 150.083397
_cell_angle_gamma 90.000000
_cell_volume 2447.652784
_symmetry_space_group_name_H-M "C 2/M"
_symmetry_group_IT_number 12
_symmetry_cell_setting 'monoclinic'
loop_
_space_group_symop_operation_xyz
x,y,z
-x,y,-z
-x,-y,-z
x,-y,z
1/2+x,1/2+y,z
1/2-x,1/2+y,-z
1/2-x,1/2-y,-z
1/2+x,1/2-y,z
loop_
_atom_site_type_symbol
_atom_site_label
_atom_site_fract_x
_atom_site_fract_y
_atom_site_fract_z
Si Si1 0.483904 0.326891 0.046698
Si Si2 0.751498 0.177244 0.055186
Si Si3 0.249046 0.172616 0.281630
Si Si4 0.007502 0.676639 0.729814
Si Si5 0.243998 0.175774 0.608301
Si Si6 0.505825 0.825031 0.393821
O O1 0.440061 0.500000 0.022046
O O2 0.619485 0.296673 0.164228
O O3 0.500000 0.280228 0.000000
O O4 0.376528 0.222512 0.999921
O O5 0.877346 0.231169 0.168680
O O6 0.755602 0.000000 0.051581
O O7 0.750000 0.250000 0.000000
O O8 0.248847 0.274117 0.330025
O O9 0.369286 0.220672 0.327283
O O10 0.260366 0.000000 0.305675
O O11 0.035482 0.500000 0.754281
O O12 0.874655 0.727224 0.667612
O O13 0.997580 0.725836 0.665764
O O14 0.120606 0.243513 0.498766
O O15 0.228379 0.000000 0.596023
O O16 0.532718 0.000000 0.416273
#
# Coordination Sequence:
#
# PCOD8107274 Si02
#       6
#     8   8   8   8   8   8
#     4  10  21  40  65  90 119 156 198 244 296 354
#     4  12  25  40  61  89 121 157 199 246 296 351
#     4  10  21  37  59  85 113 152 196 234 280 344
#     4  10  22  41  62  85 115 152 195 241 292 349
#     4  11  23  37  57  86 118 151 189 239 293 343
#     4  10  21  39  62  85 113 151 194 237 283 344
#
# _framework density 19.610624999999999
#
# number of rings (size 3 to 8) (size 9 to 14) (size 15 to 20)
#    0.000    1.500    0.000    5.000    0.000   11.000 
#    0.000    1.667    0.000    0.000    0.000    0.000 
#    0.000    0.000    0.000    0.000    0.000    0.000 
#
# Total GULP energy -297744.421120 kJ/mol
# GULP energy per Si atom -12406.017547 kJ/mol
# Density = 1.956599 g / cm^3
# Si number density = 19.610625 Si / 1000 Ang^3
#
#
#
# Elastic Constant Matrix: (Units=GPa)
#
#
# Indices 1 2 3 4 5 6 
#
# 1 164.8971 36.3347 69.2949 0.0000 -1.4906 -0.0002
# 2 36.3347 51.9743 43.0569 -0.0002 2.9637 -0.0005
# 3 69.2949 43.0569 142.9231 -0.0007 2.8049 0.0001
# 4 0.0000 -0.0002 -0.0007 2.7719 -0.0002 12.2125
# 5 -1.4906 2.9637 2.8049 -0.0002 42.5377 0.0000
# 6 -0.0002 -0.0005 0.0001 12.2125 0.0000 29.4138
#
#
#
# Elastic Compliance Matrix: (Units=1/GPa)
#
#
# Indices 1 2 3 4 5 6 
#
# 1 0.008010 -0.003213 -0.002929 0.000001 0.000698 0.000000
# 2 -0.003213 0.026997 -0.006545 0.000002 -0.001562 -0.000001
# 3 -0.002929 -0.006545 0.010395 -0.000003 -0.000332 0.000001
# 4 0.000001 0.000002 -0.000003 -0.435036 -0.000002 0.180625
# 5 0.000698 -0.001562 -0.000332 -0.000002 0.023664 0.000001
# 6 0.000000 -0.000001 0.000001 0.180625 0.000001 -0.040998
#
#
# Mechanical properties :
#
#
# Convention : Reuss Voigt Hill
#
# Bulk Modulus (GPa) = 49.92867 73.01862 61.47364
# Shear Modulus (GPa) = -13.33625 29.01856 7.84115
#
# Velocity S-wave (km/s) = -2.61061 3.85091 2.00177
# Velocity P-wave (km/s) = 4.05318 7.55564 6.06283
#
# Compressibility (1/GPa) = 0.02002857
#
# Stress axis : x y z
#
# Youngs Moduli (GPa) = 124.85150 37.04088 96.19804
#
# Poissons Ratio (x) = 0.11899 0.28179
# Poissons Ratio (y) = 0.40109 0.62961
# Poissons Ratio (z) = 0.36572 0.24243
#
# Static dielectric constant tensor:
#      x y z
#    x 3.870160 0.000000 0.027620 
#    y 0.000000 3.414630 0.000000 
#    z 0.027620 0.000000 3.721610 
# 
# 
# High freq. dielectric constant tensor:
#      x y z
#    x 1.785590 0.000000 0.000060 
#    y 0.000000 1.757360 0.000000 
#    z 0.000060 0.000000 1.784900 
# 
# From -- ./inp_files/365564.got.cif
#   From: 2010.06.25/outbox.cif.g09.slc.cpg/sg12_183_cif.got.tgz:365564.got - 2010.06.28 00:19:55.
