data_PCOD8107940
_publ_section_title
;
Structure prediction by ZEFSAII (Michael W. Deem and Ramdas Pophale) SiO2 
 PCOD8107940
Probable space group: C 2/M
;
_chemical_formula_sum "Si O2"
_cell_formula_units_Z 64
_cell_length_a 28.930902
_cell_length_b 9.283518
_cell_length_c 14.782217
_cell_angle_alpha 90.000000
_cell_angle_beta 59.993442
_cell_angle_gamma 90.000000
_cell_volume 3438.080648
_symmetry_space_group_name_H-M "C 2/M"
_symmetry_group_IT_number 12
_symmetry_cell_setting 'monoclinic'
loop_
_space_group_symop_operation_xyz
x,y,z
-x,y,-z
-x,-y,-z
x,-y,z
1/2+x,1/2+y,z
1/2-x,1/2+y,-z
1/2-x,1/2-y,-z
1/2+x,1/2-y,z
loop_
_atom_site_type_symbol
_atom_site_label
_atom_site_fract_x
_atom_site_fract_y
_atom_site_fract_z
Si Si1 0.972700 0.333381 0.287490
Si Si2 0.579426 0.665359 0.168971
Si Si3 0.556835 0.166090 0.482429
Si Si4 0.752092 0.333296 0.776012
Si Si5 0.135514 0.829458 0.933426
Si Si6 0.279334 0.664056 0.394768
Si Si7 0.143562 0.165193 0.285902
Si Si8 0.897034 0.169871 0.229516
O O1 0.979835 0.500000 0.256032
O O2 0.940381 0.314057 0.412305
O O3 0.943253 0.255736 0.234211
O O4 0.030290 0.263810 0.244873
O O5 0.560627 0.500000 0.174735
O O6 0.623067 0.678104 0.204105
O O7 0.605157 0.727524 0.051562
O O8 0.500000 0.221342 0.500000
O O9 0.604083 0.259246 0.394909
O O10 0.565247 0.000000 0.446043
O O11 0.761166 0.500000 0.793304
O O12 0.696382 0.271938 0.870923
O O13 0.751774 0.314895 0.668382
O O14 0.798989 0.238663 0.771162
O O15 0.102472 0.783281 0.876478
O O16 0.140377 0.000000 0.928862
O O17 0.278538 0.500000 0.426000
O O18 0.250000 0.750000 0.500000
O O19 0.340346 0.715894 0.326833
O O20 0.148922 0.000000 0.311098
O O21 0.907366 0.000000 0.230039
#
# Coordination Sequence:
#
# PCOD8107940 Si02
#       8
#     8   8   8   8   8   8   8   8
#     4  11  23  37  56  83 112 144 183 227 276 329
#     4  10  21  38  59  82 109 144 187 230 273 322
#     4  10  21  39  58  75 106 150 188 221 269 335
#     4   9  19  37  58  79 109 148 186 220 266 330
#     4   8  17  38  63  81 105 147 190 224 264 326
#     4   9  19  34  53  78 106 140 182 224 266 318
#     4  11  23  35  54  86 116 141 180 232 279 320
#     4   9  19  37  58  80 108 143 184 225 268 323
#
# _framework density 18.615037999999998
#
# number of rings (size 3 to 8) (size 9 to 14) (size 15 to 20)
#    0.000    2.375    1.250    2.250    1.750    3.750 
#    0.000    5.625    0.000    0.000    0.000    0.000 
#    0.000    0.000    0.000    0.000    0.000    0.000 
#
# Total GULP energy -396837.869793 kJ/mol
# GULP energy per Si atom -12401.183431 kJ/mol
# Density = 1.857267 g / cm^3
# Si number density = 18.615038 Si / 1000 Ang^3
#
#
#
# Elastic Constant Matrix: (Units=GPa)
#
#
# Indices 1 2 3 4 5 6 
#
# 1 89.6920 37.9080 11.1835 0.0000 6.4114 0.0000
# 2 37.9080 71.2406 31.5492 0.0000 2.6808 0.0000
# 3 11.1835 31.5492 89.0203 0.0000 8.4415 0.0000
# 4 0.0000 0.0000 0.0000 21.9438 0.0000 -0.5443
# 5 6.4114 2.6808 8.4415 0.0000 17.0565 0.0000
# 6 0.0000 0.0000 0.0000 -0.5443 0.0000 34.8148
#
#
#
# Elastic Compliance Matrix: (Units=1/GPa)
#
#
# Indices 1 2 3 4 5 6 
#
# 1 0.014876 -0.008434 0.001600 0.000000 -0.005058 0.000000
# 2 -0.008434 0.021433 -0.006839 0.000000 0.003186 0.000000
# 3 0.001600 -0.006839 0.014072 0.000000 -0.006491 0.000000
# 4 0.000000 0.000000 0.000000 0.045589 0.000000 0.000713
# 5 -0.005058 0.003186 -0.006491 0.000000 0.063241 0.000000
# 6 0.000000 0.000000 0.000000 0.000713 0.000000 0.028735
#
#
# Mechanical properties :
#
#
# Convention : Reuss Voigt Hill
#
# Bulk Modulus (GPa) = 43.41146 45.69268 44.55207
# Shear Modulus (GPa) = 22.42463 26.05049 24.23756
#
# Velocity S-wave (km/s) = 3.47457 3.74496 3.61230
# Velocity P-wave (km/s) = 6.28237 6.58020 6.43301
#
# Compressibility (1/GPa) = 0.02303539
#
# Stress axis : x y z
#
# Youngs Moduli (GPa) = 67.22310 46.65651 71.06542
#
# Poissons Ratio (x) = 0.39349 -0.11369
# Poissons Ratio (y) = 0.56694 0.48599
# Poissons Ratio (z) = -0.10754 0.31907
#
# Static dielectric constant tensor:
#      x y z
#    x 3.435870 0.000000 0.013400 
#    y 0.000000 3.289590 0.000000 
#    z 0.013400 0.000000 3.732140 
# 
# 
# High freq. dielectric constant tensor:
#      x y z
#    x 1.727710 0.000000 0.002520 
#    y 0.000000 1.706980 0.000000 
#    z 0.002520 0.000000 1.726240 
# 
# From -- ./inp_files/249033.got.cif
#   From: 2010.06.25/outbox.cif.g09.slc.cpg/sg12_125_cif.got.tgz:249033.got - 2010.06.28 00:19:55.
