data_PCOD8107515
_publ_section_title
;
Structure prediction by ZEFSAII (Michael W. Deem and Ramdas Pophale) SiO2 
 PCOD8107515
Probable space group: C 2/M
;
_chemical_formula_sum "Si O2"
_cell_formula_units_Z 64
_cell_length_a 30.892313
_cell_length_b 8.769326
_cell_length_c 17.341601
_cell_angle_alpha 90.000000
_cell_angle_beta 136.865722
_cell_angle_gamma 90.000000
_cell_volume 3212.018729
_symmetry_space_group_name_H-M "C 2/M"
_symmetry_group_IT_number 12
_symmetry_cell_setting 'monoclinic'
loop_
_space_group_symop_operation_xyz
x,y,z
-x,y,-z
-x,-y,-z
x,-y,z
1/2+x,1/2+y,z
1/2-x,1/2+y,-z
1/2-x,1/2-y,-z
1/2+x,1/2-y,z
loop_
_atom_site_type_symbol
_atom_site_label
_atom_site_fract_x
_atom_site_fract_y
_atom_site_fract_z
Si Si1 0.891368 0.178578 0.543486
Si Si2 0.628736 0.679355 0.206322
Si Si3 0.189197 0.176476 0.019040
Si Si4 0.069497 0.819160 0.574283
Si Si5 0.247565 0.178212 0.580691
Si Si6 0.321248 0.677872 0.171257
Si Si7 0.951732 0.677586 0.764810
Si Si8 0.410167 0.177293 0.998645
O O1 0.906243 0.236505 0.477057
O O2 0.818566 0.216793 0.465219
O O3 0.936843 0.273254 0.658612
O O4 0.905851 0.000000 0.572929
O O5 0.636398 0.500000 0.215862
O O6 0.698321 0.752864 0.294451
O O7 0.592810 0.726976 0.236816
O O8 0.589717 0.732491 0.081394
O O9 0.261653 0.226042 0.123237
O O10 0.147329 0.275245 0.021936
O O11 0.182389 0.000000 0.032382
O O12 0.165661 0.208432 0.901665
O O13 0.117788 0.762239 0.702901
O O14 0.000000 0.749339 0.500000
O O15 0.066202 0.000000 0.572448
O O16 0.250000 0.250000 0.500000
O O17 0.258834 0.000000 0.586605
O O18 0.307233 0.500000 0.168460
O O19 0.937443 0.500000 0.758869
O O20 0.024645 0.717456 0.874310
O O21 0.404477 0.000000 0.971815
#
# Coordination Sequence:
#
# PCOD8107515 Si02
#       8
#     8   8   8   8   8   8   8   8
#     4  10  22  38  62  92 122 162 210 253 302 365
#     4  12  25  41  63  92 123 159 203 254 307 362
#     4  10  21  37  60  91 118 154 204 254 307 362
#     4   9  19  36  61  92 122 158 203 250 302 360
#     4  11  22  38  61  92 126 166 209 253 304 365
#     4   9  19  37  61  87 121 160 199 248 306 363
#     4  11  24  42  63  87 121 163 203 249 310 370
#     4  11  25  42  62  88 120 160 204 252 310 373
#
# _framework density 19.925163000000001
#
# number of rings (size 3 to 8) (size 9 to 14) (size 15 to 20)
#    0.000    1.625    1.250    3.000    3.500    4.500 
#    0.000    0.625    0.000    0.750    0.000    0.000 
#    0.000    0.000    0.000    0.000    0.000    0.000 
#
# Total GULP energy -396990.807917 kJ/mol
# GULP energy per Si atom -12405.962747 kJ/mol
# Density = 1.987981 g / cm^3
# Si number density = 19.925163 Si / 1000 Ang^3
#
#
#
# Elastic Constant Matrix: (Units=GPa)
#
#
# Indices 1 2 3 4 5 6 
#
# 1 110.8274 28.2367 53.0066 0.0000 -0.0013 0.0000
# 2 28.2367 70.8222 40.7413 0.0000 4.6106 0.0000
# 3 53.0066 40.7413 148.4837 0.0000 1.3922 0.0000
# 4 0.0000 0.0000 0.0000 32.3144 0.0000 -4.0363
# 5 -0.0013 4.6106 1.3922 0.0000 28.7556 0.0000
# 6 0.0000 0.0000 0.0000 -4.0363 0.0000 22.2993
#
#
#
# Elastic Compliance Matrix: (Units=1/GPa)
#
#
# Indices 1 2 3 4 5 6 
#
# 1 0.011276 -0.002630 -0.003309 0.000000 0.000582 0.000000
# 2 -0.002630 0.017556 -0.003854 0.000000 -0.002629 0.000000
# 3 -0.003309 -0.003854 0.008972 0.000000 0.000183 0.000000
# 4 0.000000 0.000000 0.000000 0.031662 0.000000 0.005731
# 5 0.000582 -0.002629 0.000183 0.000000 0.035188 0.000000
# 6 0.000000 0.000000 0.000000 0.005731 0.000000 0.045882
#
#
# Mechanical properties :
#
#
# Convention : Reuss Voigt Hill
#
# Bulk Modulus (GPa) = 54.88953 63.78918 59.33935
# Shear Modulus (GPa) = 28.37775 30.55043 29.46409
#
# Velocity S-wave (km/s) = 3.77797 3.91993 3.84961
# Velocity P-wave (km/s) = 6.82923 7.25064 7.04309
#
# Compressibility (1/GPa) = 0.01821841
#
# Stress axis : x y z
#
# Youngs Moduli (GPa) = 88.68543 56.95930 111.46125
#
# Poissons Ratio (x) = 0.14980 0.36884
# Poissons Ratio (y) = 0.23324 0.42954
# Poissons Ratio (z) = 0.29347 0.21950
#
# Static dielectric constant tensor:
#      x y z
#    x 3.715780 0.000000 0.134980 
#    y 0.000000 3.525250 0.000000 
#    z 0.134980 0.000000 3.917630 
# 
# 
# High freq. dielectric constant tensor:
#      x y z
#    x 1.781860 0.000000 0.001120 
#    y 0.000000 1.768950 0.000000 
#    z 0.001120 0.000000 1.792030 
# 
# From -- ./inp_files/295816.got.cif
#   From: 2010.06.25/outbox.cif.g09.slc.cpg/sg12_148_cif.got.tgz:295816.got - 2010.06.28 00:19:55.
