data_PCOD8107760
_publ_section_title
;
Structure prediction by ZEFSAII (Michael W. Deem and Ramdas Pophale) SiO2 
 PCOD8107760
Probable space group: C 2/M
;
_chemical_formula_sum "Si O2"
_cell_formula_units_Z 56
_cell_length_a 15.114659
_cell_length_b 8.982540
_cell_length_c 28.481789
_cell_angle_alpha 90.000000
_cell_angle_beta 48.810503
_cell_angle_gamma 90.000000
_cell_volume 2909.992382
_symmetry_space_group_name_H-M "C 2/M"
_symmetry_group_IT_number 12
_symmetry_cell_setting 'monoclinic'
loop_
_space_group_symop_operation_xyz
x,y,z
-x,y,-z
-x,-y,-z
x,-y,z
1/2+x,1/2+y,z
1/2-x,1/2+y,-z
1/2-x,1/2-y,-z
1/2+x,1/2-y,z
loop_
_atom_site_type_symbol
_atom_site_label
_atom_site_fract_x
_atom_site_fract_y
_atom_site_fract_z
Si Si1 0.384897 0.323253 0.092761
Si Si2 0.785315 0.676658 0.767728
Si Si3 0.554925 0.675493 0.431230
Si Si4 0.952096 0.669643 0.307718
Si Si5 0.136593 0.670007 0.559819
Si Si6 0.152147 0.176444 0.999914
Si Si7 0.271547 0.324936 0.315557
O O1 0.384811 0.500000 0.092683
O O2 0.298427 0.256025 0.162544
O O3 0.518255 0.272306 0.059014
O O4 0.334943 0.272007 0.059215
O O5 0.778716 0.500000 0.770995
O O6 0.743367 0.735028 0.731939
O O7 0.918028 0.731353 0.728118
O O8 0.500000 0.721300 0.500000
O O9 0.557192 0.500000 0.423659
O O10 0.479914 0.749395 0.416611
O O11 0.684964 0.740737 0.381657
O O12 0.956683 0.500000 0.287681
O O13 0.868086 0.678434 0.382520
O O14 0.901890 0.778723 0.285527
O O15 0.138084 0.500000 0.541876
O O16 0.250000 0.750000 0.500000
O O17 0.167551 0.000000 0.999871
O O18 0.250000 0.250000 0.000000
O O19 0.250098 0.500000 0.327000
#
# Coordination Sequence:
#
# PCOD8107760 Si02
#       7
#     8   8   8   8   8   8   8
#     4   8  16  32  54  78 109 152 191 219 265 333
#     4   9  18  36  57  77 109 149 186 227 275 329
#     4  11  23  38  56  79 107 140 178 226 283 338
#     4  10  21  38  56  77 107 142 180 224 277 334
#     4  11  22  37  56  80 108 140 181 227 280 338
#     4   9  17  31  54  84 113 146 188 228 267 318
#     4  11  22  37  57  82 107 140 184 229 278 333
#
# _framework density 19.244036999999999
#
# number of rings (size 3 to 8) (size 9 to 14) (size 15 to 20)
#    0.000    2.143    1.429    3.000    0.000    6.857 
#    0.000    1.429    0.000    3.429    0.000    0.000 
#    0.000    0.000    0.000    0.000    0.000    0.000 
#
# Total GULP energy -347113.019254 kJ/mol
# GULP energy per Si atom -12396.893545 kJ/mol
# Density = 1.920024 g / cm^3
# Si number density = 19.244037 Si / 1000 Ang^3
#
#
#
# Elastic Constant Matrix: (Units=GPa)
#
#
# Indices 1 2 3 4 5 6 
#
# 1 159.7661 41.0057 62.0212 0.0000 2.2943 0.0001
# 2 41.0057 52.5496 37.4049 0.0000 5.6197 0.0003
# 3 62.0212 37.4049 141.5334 0.0000 0.3332 -0.0001
# 4 0.0000 0.0000 0.0000 13.5898 0.0000 -2.8603
# 5 2.2943 5.6197 0.3332 0.0000 22.8683 0.0000
# 6 0.0001 0.0003 -0.0001 -2.8603 0.0000 37.5534
#
#
#
# Elastic Compliance Matrix: (Units=1/GPa)
#
#
# Indices 1 2 3 4 5 6 
#
# 1 0.008450 -0.004927 -0.002402 0.000000 0.000398 0.000000
# 2 -0.004927 0.027070 -0.004981 0.000000 -0.006086 0.000000
# 3 -0.002402 -0.004981 0.009431 0.000000 0.001328 0.000000
# 4 0.000000 0.000000 0.000000 0.074784 0.000000 0.005696
# 5 0.000398 -0.006086 0.001328 0.000000 0.045165 0.000000
# 6 0.000000 0.000000 0.000000 0.005696 0.000000 0.027063
#
#
# Mechanical properties :
#
#
# Convention : Reuss Voigt Hill
#
# Bulk Modulus (GPa) = 49.18200 70.52364 59.85282
# Shear Modulus (GPa) = 22.38538 29.03012 25.70775
#
# Velocity S-wave (km/s) = 3.41433 3.88819 3.65894
# Velocity P-wave (km/s) = 6.41529 7.54214 7.00142
#
# Compressibility (1/GPa) = 0.02033264
#
# Stress axis : x y z
#
# Youngs Moduli (GPa) = 118.33759 36.94065 106.03065
#
# Poissons Ratio (x) = 0.18200 0.25467
# Poissons Ratio (y) = 0.58304 0.52813
# Poissons Ratio (z) = 0.28423 0.18400
#
# Static dielectric constant tensor:
#      x y z
#    x 3.619040 0.000000 0.022400 
#    y 0.000000 3.212380 0.000000 
#    z 0.022400 0.000000 3.755220 
# 
# 
# High freq. dielectric constant tensor:
#      x y z
#    x 1.761090 0.000000 -0.002330 
#    y 0.000000 1.719430 0.000000 
#    z -0.002330 0.000000 1.747970 
# 
# From -- ./inp_files/374945.got.cif
#   From: 2010.06.25/outbox.cif.g09.slc.cpg/sg12_188_cif.got.tgz:374945.got - 2010.06.28 00:19:55.
