data_PCOD8107104
_publ_section_title
;
Structure prediction by ZEFSAII (Michael W. Deem and Ramdas Pophale) SiO2 
 PCOD8107104
Probable space group: C 2/M
;
_chemical_formula_sum "Si O2"
_cell_formula_units_Z 48
_cell_length_a 9.965617
_cell_length_b 9.145189
_cell_length_c 30.275459
_cell_angle_alpha 90.000000
_cell_angle_beta 60.374607
_cell_angle_gamma 90.000000
_cell_volume 2398.530634
_symmetry_space_group_name_H-M "C 2/M"
_symmetry_group_IT_number 12
_symmetry_cell_setting 'monoclinic'
loop_
_space_group_symop_operation_xyz
x,y,z
-x,y,-z
-x,-y,-z
x,-y,z
1/2+x,1/2+y,z
1/2-x,1/2+y,-z
1/2-x,1/2-y,-z
1/2+x,1/2-y,z
loop_
_atom_site_type_symbol
_atom_site_label
_atom_site_fract_x
_atom_site_fract_y
_atom_site_fract_z
Si Si1 0.143415 0.668721 0.392049
Si Si2 0.871494 0.170567 0.277659
Si Si3 0.317539 0.669256 0.108408
Si Si4 0.186229 0.328702 0.222751
Si Si5 0.866226 0.330367 0.948883
Si Si6 0.711337 0.169628 0.551230
O O1 0.173971 0.500000 0.399424
O O2 0.245019 0.719575 0.334001
O O3 0.181825 0.766312 0.427904
O O4 0.966748 0.694319 0.407020
O O5 0.812765 0.213624 0.238581
O O6 0.028029 0.253748 0.262158
O O7 0.905448 0.000000 0.275469
O O8 0.367794 0.500000 0.103866
O O9 0.247378 0.727925 0.165680
O O10 0.187036 0.692278 0.092796
O O11 0.465514 0.763498 0.071540
O O12 0.153926 0.500000 0.226830
O O13 0.871302 0.500000 0.960983
O O14 0.750000 0.250000 0.000000
O O15 0.750000 0.250000 0.500000
O O16 0.751027 0.000000 0.539043
#
# Coordination Sequence:
#
# PCOD8107104 Si02
#       6
#     8   8   8   8   8   8
#     4  10  22  39  57  82 116 149 185 231 278 329
#     4  10  21  37  58  84 113 147 187 229 276 331
#     4  10  22  39  58  83 115 148 186 233 281 333
#     4  10  21  38  59  84 115 149 186 231 281 332
#     4  11  23  38  58  84 113 148 190 234 283 338
#     4  11  23  39  60  85 114 149 189 233 282 335
#
# _framework density 20.012253000000001
#
# number of rings (size 3 to 8) (size 9 to 14) (size 15 to 20)
#    0.000    1.667    0.000    4.000    0.000   10.000 
#    0.000    0.000    0.000    0.000    0.000    0.000 
#    0.000    0.000    0.000    0.000    0.000    0.000 
#
# Total GULP energy -297762.599973 kJ/mol
# GULP energy per Si atom -12406.774999 kJ/mol
# Density = 1.996670 g / cm^3
# Si number density = 20.012253 Si / 1000 Ang^3
#
#
#
# Elastic Constant Matrix: (Units=GPa)
#
#
# Indices 1 2 3 4 5 6 
#
# 1 54.9087 23.0825 -8.4623 0.0000 -5.7278 0.0000
# 2 23.0825 67.2777 22.0018 0.0000 -2.9115 0.0000
# 3 -8.4623 22.0018 83.1388 0.0000 -0.8015 0.0000
# 4 0.0000 0.0000 0.0000 32.5043 0.0000 -3.2996
# 5 -5.7278 -2.9115 -0.8015 0.0000 41.4851 0.0000
# 6 0.0000 0.0000 0.0000 -3.2996 0.0000 39.7267
#
#
#
# Elastic Compliance Matrix: (Units=1/GPa)
#
#
# Indices 1 2 3 4 5 6 
#
# 1 0.023212 -0.009449 0.004889 0.000000 0.002636 0.000000
# 2 -0.009449 0.020165 -0.006298 0.000000 -0.000011 0.000000
# 3 0.004889 -0.006298 0.014197 0.000000 0.000507 0.000000
# 4 0.000000 0.000000 0.000000 0.031027 0.000000 0.002577
# 5 0.002636 -0.000011 0.000507 0.000000 0.024478 0.000000
# 6 0.000000 0.000000 0.000000 0.002577 0.000000 0.025386
#
#
# Mechanical properties :
#
#
# Convention : Reuss Voigt Hill
#
# Bulk Modulus (GPa) = 27.88784 30.95216 29.42000
# Shear Modulus (GPa) = 29.04702 33.99009 31.51855
#
# Velocity S-wave (km/s) = 3.81394 4.12571 3.97289
# Velocity P-wave (km/s) = 5.77585 6.18025 5.98147
#
# Compressibility (1/GPa) = 0.03585793
#
# Stress axis : x y z
#
# Youngs Moduli (GPa) = 43.08025 49.59147 70.43589
#
# Poissons Ratio (x) = 0.46857 -0.34433
# Poissons Ratio (y) = 0.40705 0.44362
# Poissons Ratio (z) = -0.21060 0.31234
#
# Static dielectric constant tensor:
#      x y z
#    x 3.681050 0.000000 0.065450 
#    y 0.000000 3.716160 0.000000 
#    z 0.065450 0.000000 4.015250 
# 
# 
# High freq. dielectric constant tensor:
#      x y z
#    x 1.789650 0.000000 0.001310 
#    y 0.000000 1.778480 0.000000 
#    z 0.001310 0.000000 1.796570 
# 
# From -- ./inp_files/334626.got.cif
#   From: 2010.06.25/outbox.cif.g09.slc.cpg/sg12_168_cif.got.tgz:334626.got - 2010.06.28 00:19:55.
