data_PCOD8107086
_publ_section_title
;
Structure prediction by ZEFSAII (Michael W. Deem and Ramdas Pophale) SiO2 
 PCOD8107086
Probable space group: C 2/M
;
_chemical_formula_sum "Si O2"
_cell_formula_units_Z 56
_cell_length_a 7.816976
_cell_length_b 18.064697
_cell_length_c 22.536255
_cell_angle_alpha 90.000000
_cell_angle_beta 123.577985
_cell_angle_gamma 90.000000
_cell_volume 2651.343322
_symmetry_space_group_name_H-M "C 2/M"
_symmetry_group_IT_number 12
_symmetry_cell_setting 'monoclinic'
loop_
_space_group_symop_operation_xyz
x,y,z
-x,y,-z
-x,-y,-z
x,-y,z
1/2+x,1/2+y,z
1/2-x,1/2+y,-z
1/2-x,1/2-y,-z
1/2+x,1/2-y,z
loop_
_atom_site_type_symbol
_atom_site_label
_atom_site_fract_x
_atom_site_fract_y
_atom_site_fract_z
Si Si1 0.917806 0.086304 0.918371
Si Si2 0.127594 0.320260 0.581252
Si Si3 0.687299 0.914868 0.071191
Si Si4 0.906802 0.306937 0.200271
Si Si5 0.986931 0.913127 0.354100
Si Si6 0.133163 0.671825 0.354179
Si Si7 0.287538 0.651055 0.206259
O O1 0.728999 0.138811 0.866082
O O2 0.094126 0.115264 0.908290
O O3 0.855714 0.000000 0.897317
O O4 0.000000 0.099878 0.000000
O O5 0.282208 0.384814 0.588803
O O6 0.270521 0.253570 0.631034
O O7 0.000000 0.293028 0.500000
O O8 0.961482 0.346624 0.599160
O O9 0.672124 0.904206 0.138788
O O10 0.679691 0.000000 0.051970
O O11 0.500000 0.875013 0.000000
O O12 0.863645 0.220343 0.181598
O O13 0.927171 0.330803 0.273143
O O14 0.137934 0.313686 0.224374
O O15 0.814597 0.883441 0.367595
O O16 0.951567 0.892674 0.277621
O O17 0.983069 0.000000 0.361295
#
# Coordination Sequence:
#
# PCOD8107086 Si02
#       7
#     8   8   8   8   8   8   8
#     4  10  22  39  60  91 130 167 212 269 327 389
#     4  12  24  43  76 104 135 184 232 277 345 418
#     4  10  21  37  58  83 118 165 208 254 318 386
#     4  11  22  38  64  91 123 165 216 269 322 388
#     4  11  26  44  67 102 141 178 225 287 349 406
#     4  11  23  43  70 102 136 180 234 282 332 414
#     4  11  22  39  62  89 125 164 213 273 329 392
#
# _framework density 21.121369999999999
#
# number of rings (size 3 to 8) (size 9 to 14) (size 15 to 20)
#    0.000    1.143    2.857    3.429    2.000    5.429 
#    0.000    3.571    0.000    0.000    0.000    0.000 
#    0.000    0.000    0.000    0.000    0.000    0.000 
#
# Total GULP energy -347006.467258 kJ/mol
# GULP energy per Si atom -12393.088116 kJ/mol
# Density = 2.107330 g / cm^3
# Si number density = 21.121370 Si / 1000 Ang^3
#
#
#
# Elastic Constant Matrix: (Units=GPa)
#
#
# Indices 1 2 3 4 5 6 
#
# 1 94.9969 38.3443 22.6087 0.0000 -3.7300 0.0000
# 2 38.3443 108.0260 21.6420 0.0000 6.4281 0.0000
# 3 22.6087 21.6420 106.5487 0.0000 -4.1010 0.0000
# 4 0.0000 0.0000 0.0000 22.4588 0.0000 0.1439
# 5 -3.7300 6.4281 -4.1010 0.0000 31.7514 0.0000
# 6 0.0000 0.0000 0.0000 0.1439 0.0000 26.4031
#
#
#
# Elastic Compliance Matrix: (Units=1/GPa)
#
#
# Indices 1 2 3 4 5 6 
#
# 1 0.012767 -0.004308 -0.001751 0.000000 0.002146 0.000000
# 2 -0.004308 0.011262 -0.001488 0.000000 -0.002978 0.000000
# 3 -0.001751 -0.001488 0.010113 0.000000 0.001402 0.000000
# 4 0.000000 0.000000 0.000000 0.044528 0.000000 -0.000243
# 5 0.002146 -0.002978 0.001402 0.000000 0.032531 0.000000
# 6 0.000000 0.000000 0.000000 -0.000243 0.000000 0.037876
#
#
# Mechanical properties :
#
#
# Convention : Reuss Voigt Hill
#
# Bulk Modulus (GPa) = 52.50345 52.75128 52.62737
# Shear Modulus (GPa) = 29.32217 31.25444 30.28831
#
# Velocity S-wave (km/s) = 3.72999 3.85093 3.79094
# Velocity P-wave (km/s) = 6.59260 6.69346 6.64322
#
# Compressibility (1/GPa) = 0.01904637
#
# Stress axis : x y z
#
# Youngs Moduli (GPa) = 78.32841 88.79708 98.88118
#
# Poissons Ratio (x) = 0.38258 0.17317
# Poissons Ratio (y) = 0.33747 0.14712
# Poissons Ratio (z) = 0.13717 0.13212
#
# Static dielectric constant tensor:
#      x y z
#    x 4.103370 0.000000 0.065160 
#    y 0.000000 3.655310 0.000000 
#    z 0.065160 0.000000 3.830660 
# 
# 
# High freq. dielectric constant tensor:
#      x y z
#    x 1.838790 0.000000 0.001090 
#    y 0.000000 1.808120 0.000000 
#    z 0.001090 0.000000 1.835970 
# 
# From -- ./inp_files/333385.got.cif
#   From: 2010.06.25/outbox.cif.g09.slc.cpg/sg12_167_cif.got.tgz:333385.got - 2010.06.28 00:19:55.
