data_PCOD8107314
_publ_section_title
;
Structure prediction by ZEFSAII (Michael W. Deem and Ramdas Pophale) SiO2 
 PCOD8107314
Probable space group: C 2/M
;
_chemical_formula_sum "Si O2"
_cell_formula_units_Z 48
_cell_length_a 31.036190
_cell_length_b 8.872293
_cell_length_c 8.896126
_cell_angle_alpha 90.000000
_cell_angle_beta 89.714256
_cell_angle_gamma 90.000000
_cell_volume 2449.626108
_symmetry_space_group_name_H-M "C 2/M"
_symmetry_group_IT_number 12
_symmetry_cell_setting 'monoclinic'
loop_
_space_group_symop_operation_xyz
x,y,z
-x,y,-z
-x,-y,-z
x,-y,z
1/2+x,1/2+y,z
1/2-x,1/2+y,-z
1/2-x,1/2-y,-z
1/2+x,1/2-y,z
loop_
_atom_site_type_symbol
_atom_site_label
_atom_site_fract_x
_atom_site_fract_y
_atom_site_fract_z
Si Si1 0.625457 0.175230 0.900456
Si Si2 0.709809 0.176813 0.081483
Si Si3 0.872473 0.822369 0.417433
Si Si4 0.208770 0.321302 0.423975
Si Si5 0.458161 0.321888 0.585500
Si Si6 0.041079 0.324983 0.093089
O O1 0.624045 0.280845 0.756398
O O2 0.627804 0.000000 0.852971
O O3 0.666346 0.224179 0.998116
O O4 0.583391 0.210158 0.997474
O O5 0.706758 0.234625 0.252253
O O6 0.716777 0.000000 0.077638
O O7 0.750000 0.250000 0.000000
O O8 0.833473 0.733215 0.491129
O O9 0.915884 0.767313 0.498043
O O10 0.864773 0.000000 0.434634
O O11 0.211784 0.500000 0.435966
O O12 0.250000 0.250000 0.500000
O O13 0.500000 0.254680 0.500000
O O14 0.460701 0.500000 0.588516
O O15 0.456380 0.265418 0.754139
O O16 0.036884 0.500000 0.133139
O O17 0.000000 0.268263 0.000000
#
# Coordination Sequence:
#
# PCOD8107314 Si02
#       6
#     8   8   8   8   8   8
#     4  10  21  38  58  82 113 148 186 232 287 341
#     4  10  22  38  57  81 110 145 184 227 276 331
#     4  11  23  38  58  86 116 150 194 238 284 341
#     4  11  23  40  61  86 117 152 190 235 287 341
#     4  10  22  39  58  83 117 155 194 237 287 344
#     4  10  21  37  59  87 115 146 190 240 289 343
#
# _framework density 19.594826999999999
#
# number of rings (size 3 to 8) (size 9 to 14) (size 15 to 20)
#    0.000    1.667    0.000    4.000    0.000    8.667 
#    0.000    0.000    0.000    0.000    0.000    0.000 
#    0.000    0.000    0.000    0.000    0.000    0.000 
#
# Total GULP energy -297730.361293 kJ/mol
# GULP energy per Si atom -12405.431721 kJ/mol
# Density = 1.955023 g / cm^3
# Si number density = 19.594827 Si / 1000 Ang^3
#
#
#
# Elastic Constant Matrix: (Units=GPa)
#
#
# Indices 1 2 3 4 5 6 
#
# 1 186.0189 36.8420 74.4845 0.0000 12.3817 0.0000
# 2 36.8420 21.0161 14.0228 0.0000 6.9421 0.0000
# 3 74.4845 14.0228 123.6201 0.0000 17.5812 0.0000
# 4 0.0000 0.0000 0.0000 38.4791 0.0000 -3.6303
# 5 12.3817 6.9421 17.5812 0.0000 39.7283 0.0000
# 6 0.0000 0.0000 0.0000 -3.6303 0.0000 28.9189
#
#
#
# Elastic Compliance Matrix: (Units=1/GPa)
#
#
# Indices 1 2 3 4 5 6 
#
# 1 0.010120 -0.015182 -0.004593 0.000000 0.001532 0.000000
# 2 -0.015182 0.076058 0.001854 0.000000 -0.009379 0.000000
# 3 -0.004593 0.001854 0.011194 0.000000 -0.003846 0.000000
# 4 0.000000 0.000000 0.000000 0.026300 0.000000 0.003302
# 5 0.001532 -0.009379 -0.003846 0.000000 0.028035 0.000000
# 6 0.000000 0.000000 0.000000 0.003302 0.000000 0.034994
#
#
# Mechanical properties :
#
#
# Convention : Reuss Voigt Hill
#
# Bulk Modulus (GPa) = 16.25253 64.59486 40.42369
# Shear Modulus (GPa) = 20.57183 35.11230 27.84207
#
# Velocity S-wave (km/s) = 3.24367 4.23770 3.77356
# Velocity P-wave (km/s) = 4.72661 7.54857 6.29769
#
# Compressibility (1/GPa) = 0.06152888
#
# Stress axis : x y z
#
# Youngs Moduli (GPa) = 98.81616 13.14792 89.33749
#
# Poissons Ratio (x) = 0.19961 0.41034
# Poissons Ratio (y) = 1.50018 -0.16560
# Poissons Ratio (z) = 0.45388 -0.02437
#
# Static dielectric constant tensor:
#      x y z
#    x 3.881920 0.000000 0.092170 
#    y 0.000000 3.474540 0.000000 
#    z 0.092170 0.000000 3.705040 
# 
# 
# High freq. dielectric constant tensor:
#      x y z
#    x 1.787050 0.000000 0.001230 
#    y 0.000000 1.756880 0.000000 
#    z 0.001230 0.000000 1.780700 
# 
# From -- ./inp_files/108652.got.cif
#   From: 2010.06.25/outbox.cif.g09.slc.cpg/sg12_55_cif.got.tgz:108652.got - 2010.06.28 00:19:55.
