data_PCOD8107971
_publ_section_title
;
Structure prediction by ZEFSAII (Michael W. Deem and Ramdas Pophale) SiO2 
 PCOD8107971
Probable space group: C 2/M
;
_chemical_formula_sum "Si O2"
_cell_formula_units_Z 48
_cell_length_a 19.661070
_cell_length_b 8.779750
_cell_length_c 22.165962
_cell_angle_alpha 90.000000
_cell_angle_beta 140.303909
_cell_angle_gamma 90.000000
_cell_volume 2443.898806
_symmetry_space_group_name_H-M "C 2/M"
_symmetry_group_IT_number 12
_symmetry_cell_setting 'monoclinic'
loop_
_space_group_symop_operation_xyz
x,y,z
-x,y,-z
-x,-y,-z
x,-y,z
1/2+x,1/2+y,z
1/2-x,1/2+y,-z
1/2-x,1/2-y,-z
1/2+x,1/2-y,z
loop_
_atom_site_type_symbol
_atom_site_label
_atom_site_fract_x
_atom_site_fract_y
_atom_site_fract_z
Si Si1 0.595230 0.323617 0.222960
Si Si2 0.762429 0.678917 0.073878
Si Si3 0.524632 0.674928 0.737846
Si Si4 0.833358 0.320477 0.379360
Si Si5 0.987439 0.680169 0.588603
Si Si6 0.444024 0.821375 0.023370
O O1 0.588129 0.500000 0.198282
O O2 0.564166 0.303460 0.271486
O O3 0.713735 0.254799 0.294545
O O4 0.514793 0.226440 0.128323
O O5 0.754178 0.500000 0.061179
O O6 0.873587 0.721840 0.179540
O O7 0.750000 0.750000 0.000000
O O8 0.668691 0.736732 0.053067
O O9 0.561195 0.500000 0.758536
O O10 0.472152 0.728984 0.639868
O O11 0.827202 0.500000 0.381734
O O12 0.894728 0.260693 0.480605
O O13 0.898347 0.277128 0.363353
O O14 0.980016 0.500000 0.595287
O O15 0.423262 0.000000 0.012596
O O16 0.500000 0.771619 0.000000
#
# Coordination Sequence:
#
# PCOD8107971 Si02
#       6
#     8   8   8   8   8   8
#     4  10  21  38  59  83 115 158 201 241 288 350
#     4  12  24  41  64  87 117 158 199 242 293 351
#     4  11  23  37  56  86 121 155 195 243 292 348
#     4   8  17  36  60  85 113 149 198 246 293 348
#     4   9  18  36  61  86 113 150 196 247 294 348
#     4  11  25  42  60  88 123 155 195 246 295 347
#
# _framework density 19.640747000000001
#
# number of rings (size 3 to 8) (size 9 to 14) (size 15 to 20)
#    0.000    1.833    1.667    3.500    2.333    2.667 
#    0.000    2.500    0.000    0.000    0.000    0.000 
#    0.000    0.000    0.000    0.000    0.000    0.000 
#
# Total GULP energy -297670.978814 kJ/mol
# GULP energy per Si atom -12402.957451 kJ/mol
# Density = 1.959604 g / cm^3
# Si number density = 19.640747 Si / 1000 Ang^3
#
#
#
# Elastic Constant Matrix: (Units=GPa)
#
#
# Indices 1 2 3 4 5 6 
#
# 1 87.4051 33.8432 12.3831 0.0000 0.6837 0.0000
# 2 33.8432 77.4044 5.2266 0.0000 -5.2392 0.0000
# 3 12.3831 5.2266 46.0278 0.0000 -2.2500 0.0000
# 4 0.0000 0.0000 0.0000 23.0815 0.0000 -3.6735
# 5 0.6837 -5.2392 -2.2500 0.0000 45.1073 0.0000
# 6 0.0000 0.0000 0.0000 -3.6735 0.0000 26.3958
#
#
#
# Elastic Compliance Matrix: (Units=1/GPa)
#
#
# Indices 1 2 3 4 5 6 
#
# 1 0.014262 -0.006093 -0.003198 0.000000 -0.001083 0.000000
# 2 -0.006093 0.015716 -0.000052 0.000000 0.001915 0.000000
# 3 -0.003198 -0.000052 0.022650 0.000000 0.001172 0.000000
# 4 0.000000 0.000000 0.000000 0.044306 0.000000 0.006166
# 5 -0.001083 0.001915 0.001172 0.000000 0.022467 0.000000
# 6 0.000000 0.000000 0.000000 0.006166 0.000000 0.038743
#
#
# Mechanical properties :
#
#
# Convention : Reuss Voigt Hill
#
# Bulk Modulus (GPa) = 29.46199 34.86036 32.16117
# Shear Modulus (GPa) = 26.57553 29.54253 28.05903
#
# Velocity S-wave (km/s) = 3.68242 3.88254 3.78380
# Velocity P-wave (km/s) = 5.75441 6.15519 5.95817
#
# Compressibility (1/GPa) = 0.03394204
#
# Stress axis : x y z
#
# Youngs Moduli (GPa) = 70.11767 63.62814 44.15099
#
# Poissons Ratio (x) = 0.38769 0.14119
# Poissons Ratio (y) = 0.42723 0.00229
# Poissons Ratio (z) = 0.22424 0.00330
#
# Static dielectric constant tensor:
#      x y z
#    x 3.939750 0.000000 0.173200 
#    y 0.000000 3.404060 0.000000 
#    z 0.173200 0.000000 3.777370 
# 
# 
# High freq. dielectric constant tensor:
#      x y z
#    x 1.777120 0.000000 0.000600 
#    y 0.000000 1.750380 0.000000 
#    z 0.000600 0.000000 1.767660 
# 
# From -- ./inp_files/320327.got.cif
#   From: 2010.06.25/outbox.cif.g09.slc.cpg/sg12_161_cif.got.tgz:320327.got - 2010.06.28 00:19:55.
