data_PCOD8107546
_publ_section_title
;
Structure prediction by ZEFSAII (Michael W. Deem and Ramdas Pophale) SiO2 
 PCOD8107546
Probable space group: C 2/M
;
_chemical_formula_sum "Si O2"
_cell_formula_units_Z 64
_cell_length_a 18.885767
_cell_length_b 8.942745
_cell_length_c 30.115893
_cell_angle_alpha 90.000000
_cell_angle_beta 140.741531
_cell_angle_gamma 90.000000
_cell_volume 3218.705703
_symmetry_space_group_name_H-M "C 2/M"
_symmetry_group_IT_number 12
_symmetry_cell_setting 'monoclinic'
loop_
_space_group_symop_operation_xyz
x,y,z
-x,y,-z
-x,-y,-z
x,-y,z
1/2+x,1/2+y,z
1/2-x,1/2+y,-z
1/2-x,1/2-y,-z
1/2+x,1/2-y,z
loop_
_atom_site_type_symbol
_atom_site_label
_atom_site_fract_x
_atom_site_fract_y
_atom_site_fract_z
Si Si1 0.944443 0.675363 0.335948
Si Si2 0.629960 0.323665 0.937743
Si Si3 0.543701 0.673194 0.070606
Si Si4 0.815262 0.832383 0.663981
Si Si5 0.583092 0.823421 0.577264
Si Si6 0.833896 0.167796 0.573061
Si Si7 0.780851 0.177360 0.192903
Si Si8 0.445105 0.322457 0.195668
O O1 0.936575 0.500000 0.323317
O O2 0.962454 0.713412 0.396329
O O3 0.833773 0.752427 0.262966
O O4 0.051443 0.743896 0.364004
O O5 0.646864 0.500000 0.947183
O O6 0.548996 0.272306 0.938665
O O7 0.578940 0.270283 0.866093
O O8 0.750000 0.250000 0.000000
O O9 0.573524 0.500000 0.093310
O O10 0.653432 0.771846 0.129227
O O11 0.500000 0.700503 0.000000
O O12 0.708439 0.752836 0.635107
O O13 0.780710 0.836726 0.595721
O O14 0.933919 0.752104 0.731998
O O15 0.827930 0.000000 0.689164
O O16 0.500000 0.752731 0.500000
O O17 0.593270 0.000000 0.573570
O O18 0.750000 0.250000 0.500000
O O19 0.856058 0.000000 0.566038
O O20 0.849265 0.237125 0.182865
O O21 0.786000 0.000000 0.198815
O O22 0.447336 0.500000 0.201240
#
# Coordination Sequence:
#
# PCOD8107546 Si02
#       8
#     8   8   8   8   8   8   8   8
#     4  11  22  36  58  87 116 149 191 239 294 347
#     4  10  21  37  61  87 116 150 190 231 276 334
#     4  10  22  39  60  90 123 152 184 233 293 343
#     4   9  17  32  55  79 108 145 190 238 276 324
#     4   9  18  32  53  82 110 142 190 239 280 335
#     4  11  21  36  59  84 113 148 190 240 289 341
#     4  11  22  38  59  84 116 154 196 239 281 336
#     4   9  18  34  56  81 107 148 197 233 270 327
#
# _framework density 19.883769999999998
#
# number of rings (size 3 to 8) (size 9 to 14) (size 15 to 20)
#    0.000    2.000    1.250    2.625    1.750    2.750 
#    0.000    0.625    0.000    8.250    0.000    0.000 
#    0.000    0.000    0.000    0.000    0.000    0.000 
#
# Total GULP energy -396741.047045 kJ/mol
# GULP energy per Si atom -12398.157720 kJ/mol
# Density = 1.983851 g / cm^3
# Si number density = 19.883770 Si / 1000 Ang^3
#
#
#
# Elastic Constant Matrix: (Units=GPa)
#
#
# Indices 1 2 3 4 5 6 
#
# 1 113.4763 29.2599 48.6445 0.0000 6.4073 0.0000
# 2 29.2599 60.1080 40.0063 -0.0001 1.0878 0.0001
# 3 48.6445 40.0063 132.4655 0.0000 2.8116 0.0001
# 4 0.0000 -0.0001 0.0000 31.5897 0.0000 3.9221
# 5 6.4073 1.0878 2.8116 0.0000 39.6982 0.0000
# 6 0.0000 0.0001 0.0001 3.9221 0.0000 19.2380
#
#
#
# Elastic Compliance Matrix: (Units=1/GPa)
#
#
# Indices 1 2 3 4 5 6 
#
# 1 0.011052 -0.003345 -0.003017 0.000000 -0.001478 0.000000
# 2 -0.003345 0.021835 -0.005373 0.000000 0.000322 0.000000
# 3 -0.003017 -0.005373 0.010282 0.000000 -0.000094 0.000000
# 4 0.000000 0.000000 0.000000 0.032478 0.000000 -0.006621
# 5 -0.001478 0.000322 -0.000094 0.000000 0.025426 0.000000
# 6 0.000000 0.000000 0.000000 -0.006621 0.000000 0.053330
#
#
# Mechanical properties :
#
#
# Convention : Reuss Voigt Hill
#
# Bulk Modulus (GPa) = 50.76432 60.20791 55.48612
# Shear Modulus (GPa) = 27.10912 30.64779 28.87845
#
# Velocity S-wave (km/s) = 3.69640 3.93026 3.81512
# Velocity P-wave (km/s) = 6.61844 7.13734 6.88278
#
# Compressibility (1/GPa) = 0.01969887
#
# Stress axis : x y z
#
# Youngs Moduli (GPa) = 90.48420 45.79713 97.26042
#
# Poissons Ratio (x) = 0.15320 0.29341
# Poissons Ratio (y) = 0.30269 0.52258
# Poissons Ratio (z) = 0.27297 0.24607
#
# Static dielectric constant tensor:
#      x y z
#    x 3.803550 0.000000 0.007080 
#    y 0.000000 3.258420 0.000000 
#    z 0.007080 0.000000 3.616660 
# 
# 
# High freq. dielectric constant tensor:
#      x y z
#    x 1.787190 0.000000 0.002760 
#    y 0.000000 1.733330 0.000000 
#    z 0.002760 0.000000 1.791220 
# 
# From -- ./inp_files/378530.got.cif
#   From: 2010.06.25/outbox.cif.g09.slc.cpg/sg12_190_cif.got.tgz:378530.got - 2010.06.28 00:19:55.
