data_PCOD8107746
_publ_section_title
;
Structure prediction by ZEFSAII (Michael W. Deem and Ramdas Pophale) SiO2 
 PCOD8107746
Probable space group: C 2/M
;
_chemical_formula_sum "Si O2"
_cell_formula_units_Z 56
_cell_length_a 23.557379
_cell_length_b 8.879417
_cell_length_c 14.899041
_cell_angle_alpha 90.000000
_cell_angle_beta 109.676755
_cell_angle_gamma 90.000000
_cell_volume 2934.536528
_symmetry_space_group_name_H-M "C 2/M"
_symmetry_group_IT_number 12
_symmetry_cell_setting 'monoclinic'
loop_
_space_group_symop_operation_xyz
x,y,z
-x,y,-z
-x,-y,-z
x,-y,z
1/2+x,1/2+y,z
1/2-x,1/2+y,-z
1/2-x,1/2-y,-z
1/2+x,1/2-y,z
loop_
_atom_site_type_symbol
_atom_site_label
_atom_site_fract_x
_atom_site_fract_y
_atom_site_fract_z
Si Si1 0.311804 0.822181 0.931870
Si Si2 0.236355 0.821135 0.587537
Si Si3 0.611358 0.823323 0.543882
Si Si4 0.175104 0.176754 0.879093
Si Si5 0.931612 0.177758 0.307350
Si Si6 0.948884 0.677120 0.677704
Si Si7 0.151238 0.678433 0.239463
O O1 0.241924 0.770999 0.885187
O O2 0.348516 0.765664 0.863629
O O3 0.315575 0.000000 0.943395
O O4 0.342671 0.750230 0.035316
O O5 0.250000 0.750000 0.500000
O O6 0.173249 0.764985 0.592516
O O7 0.287933 0.762364 0.681807
O O8 0.235681 0.000000 0.578686
O O9 0.566036 0.764725 0.596430
O O10 0.584905 0.784071 0.432726
O O11 0.622300 0.000000 0.560004
O O12 0.127693 0.229083 0.778787
O O13 0.171720 0.000000 0.890872
O O14 0.989792 0.229003 0.282122
O O15 0.932870 0.000000 0.324772
O O16 0.962868 0.500000 0.691730
O O17 0.907491 0.735474 0.738120
O O18 0.152264 0.500000 0.244216
#
# Coordination Sequence:
#
# PCOD8107746 Si02
#       7
#     8   8   8   8   8   8   8
#     4   9  17  33  60  84 102 135 178 218 267 330
#     4  11  20  34  55  81 114 148 181 222 270 323
#     4  11  22  37  56  81 110 146 186 230 278 322
#     4   9  19  36  55  80 112 137 168 223 282 325
#     4  11  23  38  56  79 107 145 186 227 276 328
#     4  10  21  38  55  75 109 149 185 226 271 322
#     4   9  18  35  56  79 111 147 180 219 274 324
#
# _framework density 19.083082000000001
#
# number of rings (size 3 to 8) (size 9 to 14) (size 15 to 20)
#    0.000    2.000    1.429    2.571    0.000    6.286 
#    0.000    5.714    0.000    4.286    0.000    0.000 
#    0.000    0.000    0.000    0.000    0.000    0.000 
#
# Total GULP energy -347246.309833 kJ/mol
# GULP energy per Si atom -12401.653923 kJ/mol
# Density = 1.903965 g / cm^3
# Si number density = 19.083082 Si / 1000 Ang^3
#
#
#
# Elastic Constant Matrix: (Units=GPa)
#
#
# Indices 1 2 3 4 5 6 
#
# 1 104.2519 25.3697 44.3137 0.0000 -18.9709 0.0000
# 2 25.3697 46.1583 32.2840 0.0000 -1.3279 0.0000
# 3 44.3137 32.2840 101.3321 0.0000 -27.8647 0.0000
# 4 0.0000 0.0000 0.0000 28.6821 0.0000 -0.5860
# 5 -18.9709 -1.3279 -27.8647 0.0000 32.8681 0.0000
# 6 0.0000 0.0000 0.0000 -0.5860 0.0000 33.0043
#
#
#
# Elastic Compliance Matrix: (Units=1/GPa)
#
#
# Indices 1 2 3 4 5 6 
#
# 1 0.012854 -0.005080 -0.002633 0.000000 0.004982 0.000000
# 2 -0.005080 0.031760 -0.010889 0.000000 -0.010880 0.000000
# 3 -0.002633 -0.010889 0.018191 0.000000 0.013462 0.000000
# 4 0.000000 0.000000 0.000000 0.034878 0.000000 0.000619
# 5 0.004982 -0.010880 0.013462 0.000000 0.044274 0.000000
# 6 0.000000 0.000000 0.000000 0.000619 0.000000 0.030310
#
#
# Mechanical properties :
#
#
# Convention : Reuss Voigt Hill
#
# Bulk Modulus (GPa) = 39.06076 50.63079 44.84578
# Shear Modulus (GPa) = 22.93550 28.89590 25.91570
#
# Velocity S-wave (km/s) = 3.47057 3.89551 3.68917
# Velocity P-wave (km/s) = 6.04756 6.84271 6.45739
#
# Compressibility (1/GPa) = 0.02560114
#
# Stress axis : x y z
#
# Youngs Moduli (GPa) = 77.79642 31.48664 54.97258
#
# Poissons Ratio (x) = 0.15996 0.14473
# Poissons Ratio (y) = 0.39522 0.59858
# Poissons Ratio (z) = 0.20482 0.34285
#
# Static dielectric constant tensor:
#      x y z
#    x 3.763290 0.000000 -0.085070 
#    y 0.000000 3.320160 0.000000 
#    z -0.085070 0.000000 3.572960 
# 
# 
# High freq. dielectric constant tensor:
#      x y z
#    x 1.745260 0.000000 -0.010720 
#    y 0.000000 1.726600 0.000000 
#    z -0.010720 0.000000 1.740060 
# 
# From -- ./inp_files/237884.got.cif
#   From: 2010.06.25/outbox.cif.g09.slc.cpg/sg12_119_cif.got.tgz:237884.got - 2010.06.28 00:19:55.
