data_PCOD8107102
_publ_section_title
;
Structure prediction by ZEFSAII (Michael W. Deem and Ramdas Pophale) SiO2 
 PCOD8107102
Probable space group: C 2/M
;
_chemical_formula_sum "Si O2"
_cell_formula_units_Z 48
_cell_length_a 20.476879
_cell_length_b 9.005299
_cell_length_c 26.591045
_cell_angle_alpha 90.000000
_cell_angle_beta 150.225966
_cell_angle_gamma 90.000000
_cell_volume 2434.933444
_symmetry_space_group_name_H-M "C 2/M"
_symmetry_group_IT_number 12
_symmetry_cell_setting 'monoclinic'
loop_
_space_group_symop_operation_xyz
x,y,z
-x,y,-z
-x,-y,-z
x,-y,z
1/2+x,1/2+y,z
1/2-x,1/2+y,-z
1/2-x,1/2-y,-z
1/2+x,1/2-y,z
loop_
_atom_site_type_symbol
_atom_site_label
_atom_site_fract_x
_atom_site_fract_y
_atom_site_fract_z
Si Si1 0.365273 0.170920 0.547593
Si Si2 0.364453 0.676675 0.887288
Si Si3 0.375700 0.328381 0.107118
Si Si4 0.353476 0.672452 0.766290
Si Si5 0.628830 0.673654 0.554212
Si Si6 0.117138 0.329324 0.784658
O O1 0.250000 0.250000 0.500000
O O2 0.387895 0.244422 0.509300
O O3 0.498031 0.189370 0.667105
O O4 0.326927 0.000000 0.514205
O O5 0.369298 0.500000 0.889963
O O6 0.342471 0.732725 0.815817
O O7 0.246789 0.733937 0.843887
O O8 0.500000 0.742200 0.000000
O O9 0.342128 0.500000 0.090738
O O10 0.497427 0.302745 0.151417
O O11 0.413152 0.264484 0.186304
O O12 0.250000 0.250000 0.000000
O O13 0.312710 0.500000 0.734711
O O14 0.257782 0.769222 0.668370
O O15 0.500000 0.710689 0.500000
O O16 0.645784 0.500000 0.555437
O O17 0.137763 0.500000 0.814345
#
# Coordination Sequence:
#
# PCOD8107102 Si02
#       6
#     8   8   8   8   8   8
#     4  11  23  39  61  87 117 154 196 243 294 349
#     4   9  17  33  58  84 109 140 183 232 279 333
#     4  11  23  38  59  86 116 151 190 235 286 343
#     4  10  21  38  61  86 112 150 199 243 286 341
#     4  11  24  40  59  86 121 158 196 242 295 351
#     4  10  21  37  58  84 113 146 185 233 287 340
#
# _framework density 19.713066000000001
#
# number of rings (size 3 to 8) (size 9 to 14) (size 15 to 20)
#    0.000    1.667    0.000    4.500    0.000   10.667 
#    0.000    0.833    0.000    2.000    0.000    0.000 
#    0.000    0.000    0.000    0.000    0.000    0.000 
#
# Total GULP energy -297725.150282 kJ/mol
# GULP energy per Si atom -12405.214595 kJ/mol
# Density = 1.966820 g / cm^3
# Si number density = 19.713066 Si / 1000 Ang^3
#
#
#
# Elastic Constant Matrix: (Units=GPa)
#
#
# Indices 1 2 3 4 5 6 
#
# 1 104.9303 52.9322 24.7967 0.0008 -8.3741 0.0000
# 2 52.9322 99.1274 51.8746 -0.0017 -1.9325 -0.0006
# 3 24.7967 51.8746 84.3975 -0.0038 0.2624 -0.0007
# 4 0.0008 -0.0017 -0.0038 29.4014 -0.0003 -0.0665
# 5 -8.3741 -1.9325 0.2624 -0.0003 41.7375 0.0000
# 6 0.0000 -0.0006 -0.0007 -0.0665 0.0000 31.6759
#
#
#
# Elastic Compliance Matrix: (Units=1/GPa)
#
#
# Indices 1 2 3 4 5 6 
#
# 1 0.013290 -0.007377 0.000622 -0.000001 0.002321 0.000000
# 2 -0.007377 0.018989 -0.009503 0.000000 -0.000541 0.000000
# 3 0.000622 -0.009503 0.017508 0.000002 -0.000425 0.000000
# 4 -0.000001 0.000000 0.000002 0.034012 0.000000 0.000071
# 5 0.002321 -0.000541 -0.000425 0.000000 0.024403 0.000000
# 6 0.000000 0.000000 0.000000 0.000071 0.000000 0.031570
#
#
# Mechanical properties :
#
#
# Convention : Reuss Voigt Hill
#
# Bulk Modulus (GPa) = 57.89534 60.85135 59.37335
# Shear Modulus (GPa) = 28.08304 31.15308 29.61806
#
# Velocity S-wave (km/s) = 3.77847 3.97964 3.88036
# Velocity P-wave (km/s) = 6.96194 7.21473 7.08946
#
# Compressibility (1/GPa) = 0.01727255
#
# Stress axis : x y z
#
# Youngs Moduli (GPa) = 75.24730 52.66090 57.11683
#
# Poissons Ratio (x) = 0.38847 -0.03554
# Poissons Ratio (y) = 0.55508 0.54277
# Poissons Ratio (z) = -0.04683 0.50042
#
# Static dielectric constant tensor:
#      x y z
#    x 5.198310 0.000160 -0.402210 
#    y 0.000160 3.964280 0.000030 
#    z -0.402210 0.000030 3.747450 
# 
# 
# High freq. dielectric constant tensor:
#      x y z
#    x 1.788430 0.000000 -0.000210 
#    y 0.000000 1.753790 0.000000 
#    z -0.000210 0.000000 1.785540 
# 
# From -- ./inp_files/365554.got.cif
#   From: 2010.06.25/outbox.cif.g09.slc.cpg/sg12_183_cif.got.tgz:365554.got - 2010.06.28 00:19:55.
