data_PCOD8107968
_publ_section_title
;
Structure prediction by ZEFSAII (Michael W. Deem and Ramdas Pophale) SiO2 
 PCOD8107968
Probable space group: C 2/M
;
_chemical_formula_sum "Si O2"
_cell_formula_units_Z 48
_cell_length_a 20.330269
_cell_length_b 8.849320
_cell_length_c 16.498360
_cell_angle_alpha 90.000000
_cell_angle_beta 62.363000
_cell_angle_gamma 90.000000
_cell_volume 2629.544754
_symmetry_space_group_name_H-M "C 2/M"
_symmetry_group_IT_number 12
_symmetry_cell_setting 'monoclinic'
loop_
_space_group_symop_operation_xyz
x,y,z
-x,y,-z
-x,-y,-z
x,-y,z
1/2+x,1/2+y,z
1/2-x,1/2+y,-z
1/2-x,1/2-y,-z
1/2+x,1/2-y,z
loop_
_atom_site_type_symbol
_atom_site_label
_atom_site_fract_x
_atom_site_fract_y
_atom_site_fract_z
Si Si1 0.420065 0.821976 0.577607
Si Si2 0.348804 0.678150 0.768401
Si Si3 0.084470 0.826172 0.963024
Si Si4 0.225831 0.325045 0.431194
Si Si5 0.169827 0.321996 0.056546
Si Si6 0.289607 0.673547 0.228102
O O1 0.500000 0.770672 0.500000
O O2 0.407315 0.735705 0.668805
O O3 0.356716 0.773522 0.549204
O O4 0.416257 0.000000 0.596571
O O5 0.354794 0.500000 0.774159
O O6 0.369861 0.755220 0.841286
O O7 0.264903 0.722442 0.793045
O O8 0.127127 0.804033 0.852756
O O9 0.090865 0.000000 0.988348
O O10 0.118821 0.716504 0.009616
O O11 0.000000 0.776680 0.000000
O O12 0.226455 0.500000 0.449283
O O13 0.250000 0.250000 0.500000
O O14 0.284315 0.282345 0.326181
O O15 0.179139 0.500000 0.059670
O O16 0.250000 0.250000 0.000000
O O17 0.262624 0.500000 0.233105
#
# Coordination Sequence:
#
# PCOD8107968 Si02
#       6
#     8   8   8   8   8   8
#     4   9  19  38  60  80 111 148 183 227 283 336
#     4  11  21  34  57  87 113 144 189 236 280 331
#     4  10  21  38  59  83 115 150 185 231 287 339
#     4   9  18  33  54  79 105 141 182 222 270 326
#     4  12  23  37  59  85 114 148 191 237 280 335
#     4   9  18  35  57  78 108 149 187 226 278 336
#
# _framework density 18.254111000000002
#
# number of rings (size 3 to 8) (size 9 to 14) (size 15 to 20)
#    0.000    2.000    1.667    4.000    0.000    3.333 
#    3.000    0.000    0.000    0.000    0.000    0.000 
#    0.000    0.000    0.000    0.000    0.000    0.000 
#
# Total GULP energy -297616.419018 kJ/mol
# GULP energy per Si atom -12400.684126 kJ/mol
# Density = 1.821256 g / cm^3
# Si number density = 18.254111 Si / 1000 Ang^3
#
#
#
# Elastic Constant Matrix: (Units=GPa)
#
#
# Indices 1 2 3 4 5 6 
#
# 1 108.2195 42.6743 85.0362 0.0000 -11.5162 0.0000
# 2 42.6743 100.8212 60.7526 0.0000 1.9203 0.0000
# 3 85.0362 60.7526 160.3450 0.0000 -0.8499 0.0000
# 4 0.0000 0.0000 0.0000 31.9049 0.0000 6.4103
# 5 -11.5162 1.9203 -0.8499 0.0000 36.6944 0.0000
# 6 0.0000 0.0000 0.0000 6.4103 0.0000 26.3027
#
#
#
# Elastic Compliance Matrix: (Units=1/GPa)
#
#
# Indices 1 2 3 4 5 6 
#
# 1 0.017185 -0.002463 -0.008152 0.000000 0.005333 0.000000
# 2 -0.002463 0.013229 -0.003714 0.000000 -0.001551 0.000000
# 3 -0.008152 -0.003714 0.011956 0.000000 -0.002087 0.000000
# 4 0.000000 0.000000 0.000000 0.032957 0.000000 -0.008032
# 5 0.005333 -0.001551 -0.002087 0.000000 0.028959 0.000000
# 6 0.000000 0.000000 0.000000 -0.008032 0.000000 0.039976
#
#
# Mechanical properties :
#
#
# Convention : Reuss Voigt Hill
#
# Bulk Modulus (GPa) = 72.93465 82.92355 77.92910
# Shear Modulus (GPa) = 28.17029 31.04191 29.60610
#
# Velocity S-wave (km/s) = 3.93266 4.12824 4.03163
# Velocity P-wave (km/s) = 7.78865 8.26130 8.02845
#
# Compressibility (1/GPa) = 0.01371090
#
# Stress axis : x y z
#
# Youngs Moduli (GPa) = 58.18936 75.59324 83.63845
#
# Poissons Ratio (x) = 0.18619 0.68186
# Poissons Ratio (y) = 0.14333 0.31065
# Poissons Ratio (z) = 0.47438 0.28076
#
# Static dielectric constant tensor:
#      x y z
#    x 3.373580 0.000000 -0.066960 
#    y 0.000000 3.299420 0.000000 
#    z -0.066960 0.000000 3.701760 
# 
# 
# High freq. dielectric constant tensor:
#      x y z
#    x 1.685290 0.000000 -0.003650 
#    y 0.000000 1.704950 0.000000 
#    z -0.003650 0.000000 1.722730 
# 
# From -- ./inp_files/229935.got.cif
#   From: 2010.06.25/outbox.cif.g09.slc.cpg/sg12_115_cif.got.tgz:229935.got - 2010.06.28 00:19:55.
