data_PCOD8107211
_publ_section_title
;
Structure prediction by ZEFSAII (Michael W. Deem and Ramdas Pophale) SiO2 
 PCOD8107211
Probable space group: C 2/M
;
_chemical_formula_sum "Si O2"
_cell_formula_units_Z 56
_cell_length_a 30.665142
_cell_length_b 8.994302
_cell_length_c 21.062499
_cell_angle_alpha 90.000000
_cell_angle_beta 27.254776
_cell_angle_gamma 90.000000
_cell_volume 2660.348477
_symmetry_space_group_name_H-M "C 2/M"
_symmetry_group_IT_number 12
_symmetry_cell_setting 'monoclinic'
loop_
_space_group_symop_operation_xyz
x,y,z
-x,y,-z
-x,-y,-z
x,-y,z
1/2+x,1/2+y,z
1/2-x,1/2+y,-z
1/2-x,1/2-y,-z
1/2+x,1/2-y,z
loop_
_atom_site_type_symbol
_atom_site_label
_atom_site_fract_x
_atom_site_fract_y
_atom_site_fract_z
Si Si1 0.125045 0.336969 0.622483
Si Si2 0.020932 0.829973 0.651448
Si Si3 0.607808 0.172390 0.876235
Si Si4 0.161443 0.162372 0.689945
Si Si5 0.578399 0.172747 0.451666
Si Si6 0.271711 0.825097 0.159065
Si Si7 0.310742 0.671262 0.975041
O O1 0.075047 0.500000 0.681620
O O2 0.097425 0.266347 0.726624
O O3 0.237135 0.359469 0.473516
O O4 0.096650 0.224397 0.604389
O O5 0.028984 0.727718 0.579665
O O6 0.042684 0.000000 0.604712
O O7 0.919087 0.811644 0.815048
O O8 0.674213 0.263825 0.742277
O O9 0.642078 0.209395 0.903317
O O10 0.622383 0.000000 0.842648
O O11 0.500000 0.222314 0.000000
O O12 0.112656 0.000000 0.759663
O O13 0.500000 0.200975 0.500000
O O14 0.673136 0.264867 0.314719
O O15 0.605696 0.000000 0.422517
O O16 0.295523 0.747358 0.062327
O O17 0.260489 0.000000 0.161762
O O18 0.279093 0.500000 0.021308
O O19 0.250000 0.750000 0.000000
#
# Coordination Sequence:
#
# PCOD8107211 Si02
#       7
#     8   8   8   8   8   8   8
#     4  10  21  37  60  87 119 159 199 249 308 370
#     4  11  24  40  62  93 126 160 206 261 314 373
#     4  10  23  41  60  87 123 167 213 255 307 373
#     4  10  21  37  58  87 120 156 202 254 306 358
#     4  11  24  42  66  95 127 166 212 264 323 389
#     4  11  24  42  67  96 131 173 216 267 323 383
#     4  11  25  44  66  94 130 168 211 264 321 385
#
# _framework density 21.049873999999999
#
# number of rings (size 3 to 8) (size 9 to 14) (size 15 to 20)
#    0.000    1.429    0.000    4.286    2.000   11.143 
#    0.000    0.000    0.000    0.000    0.000    0.000 
#    0.000    0.000    0.000    0.000    0.000    0.000 
#
# Total GULP energy -347247.856013 kJ/mol
# GULP energy per Si atom -12401.709143 kJ/mol
# Density = 2.100196 g / cm^3
# Si number density = 21.049874 Si / 1000 Ang^3
#
#
#
# Elastic Constant Matrix: (Units=GPa)
#
#
# Indices 1 2 3 4 5 6 
#
# 1 203.7256 79.2713 74.6014 0.0268 10.7699 -0.0085
# 2 79.2713 123.2226 55.6108 0.0187 7.3070 -0.0064
# 3 74.6014 55.6108 91.3960 0.0342 4.6952 -0.0117
# 4 0.0268 0.0187 0.0342 26.4989 -0.0072 8.5353
# 5 10.7699 7.3070 4.6952 -0.0072 38.7531 0.0008
# 6 -0.0085 -0.0064 -0.0117 8.5353 0.0008 37.8456
#
#
#
# Elastic Compliance Matrix: (Units=1/GPa)
#
#
# Indices 1 2 3 4 5 6 
#
# 1 0.007736 -0.002879 -0.004508 0.000000 -0.001061 0.000000
# 2 -0.002879 0.012324 -0.005102 0.000001 -0.000905 0.000000
# 3 -0.004508 -0.005102 0.017722 -0.000017 0.000068 0.000007
# 4 0.000000 0.000001 -0.000017 0.040694 0.000010 -0.009178
# 5 -0.001061 -0.000905 0.000068 0.000010 0.026262 -0.000003
# 6 0.000000 0.000000 0.000007 -0.009178 -0.000003 0.028493
#
#
# Mechanical properties :
#
#
# Convention : Reuss Voigt Hill
#
# Bulk Modulus (GPa) = 78.10455 93.03458 85.56956
# Shear Modulus (GPa) = 30.77394 34.54357 32.65875
#
# Velocity S-wave (km/s) = 3.82770 4.05536 3.94317
# Velocity P-wave (km/s) = 7.53128 8.13764 7.84032
#
# Compressibility (1/GPa) = 0.01280335
#
# Stress axis : x y z
#
# Youngs Moduli (GPa) = 129.27151 81.14354 56.42787
#
# Poissons Ratio (x) = 0.23363 0.25437
# Poissons Ratio (y) = 0.37220 0.28789
# Poissons Ratio (z) = 0.58273 0.41399
#
# Static dielectric constant tensor:
#      x y z
#    x 3.951570 0.000000 0.041770 
#    y 0.000000 4.203980 0.000020 
#    z 0.041770 0.000020 3.722320 
# 
# 
# High freq. dielectric constant tensor:
#      x y z
#    x 1.837120 0.000000 0.008300 
#    y 0.000000 1.843210 0.000000 
#    z 0.008300 0.000000 1.818440 
# 
# From -- ./inp_files/329556.got.cif
#   From: 2010.06.25/outbox.cif.g09.slc.cpg/sg12_165_cif.got.tgz:329556.got - 2010.06.28 00:19:55.
