data_PCOD8107190
_publ_section_title
;
Structure prediction by ZEFSAII (Michael W. Deem and Ramdas Pophale) SiO2 
 PCOD8107190
Probable space group: C 2/M
;
_chemical_formula_sum "Si O2"
_cell_formula_units_Z 64
_cell_length_a 18.403733
_cell_length_b 9.313883
_cell_length_c 31.842715
_cell_angle_alpha 90.000000
_cell_angle_beta 142.472355
_cell_angle_gamma 90.000000
_cell_volume 3324.810277
_symmetry_space_group_name_H-M "C 2/M"
_symmetry_group_IT_number 12
_symmetry_cell_setting 'monoclinic'
loop_
_space_group_symop_operation_xyz
x,y,z
-x,y,-z
-x,-y,-z
x,-y,z
1/2+x,1/2+y,z
1/2-x,1/2+y,-z
1/2-x,1/2-y,-z
1/2+x,1/2-y,z
loop_
_atom_site_type_symbol
_atom_site_label
_atom_site_fract_x
_atom_site_fract_y
_atom_site_fract_z
Si Si1 0.092468 0.666335 0.171252
Si Si2 0.217605 0.832415 0.812203
Si Si3 0.022603 0.337063 0.303295
Si Si4 0.369519 0.340450 0.944365
Si Si5 0.698689 0.167411 0.309607
Si Si6 0.129659 0.662861 0.444109
Si Si7 0.638259 0.340138 0.962095
Si Si8 0.445794 0.169211 0.430264
O O1 0.055121 0.500000 0.149952
O O2 0.205815 0.702005 0.194111
O O3 0.125890 0.705705 0.234173
O O4 0.983679 0.763182 0.106425
O O5 0.275269 0.762612 0.879559
O O6 0.087274 0.769382 0.747295
O O7 0.206483 0.000000 0.815386
O O8 0.980450 0.500000 0.274403
O O9 0.118394 0.287497 0.312504
O O10 0.078645 0.325157 0.374475
O O11 0.367005 0.500000 0.922141
O O12 0.500000 0.270288 0.000000
O O13 0.340524 0.353848 0.979238
O O14 0.820124 0.254978 0.366309
O O15 0.731648 0.000000 0.325983
O O16 0.160472 0.500000 0.470372
O O17 0.250000 0.750000 0.500000
O O18 0.035444 0.723842 0.434927
O O19 0.637946 0.500000 0.941860
O O20 0.750000 0.250000 0.000000
O O21 0.500000 0.212852 0.500000
O O22 0.423948 0.000000 0.416774
#
# Coordination Sequence:
#
# PCOD8107190 Si02
#       8
#     8   8   8   8   8   8   8   8
#     4  10  22  40  58  82 116 151 190 239 291 342
#     4  11  23  37  59  87 115 148 191 243 291 338
#     4  10  22  39  58  83 116 152 193 237 285 346
#     4  10  21  40  62  84 112 151 194 234 286 350
#     4  10  22  39  59  83 113 152 194 233 281 341
#     4  10  21  37  59  87 117 152 192 236 284 336
#     4  11  24  40  61  86 115 151 191 237 289 347
#     4  10  21  37  58  86 119 152 187 233 287 338
#
# _framework density 19.249220000000001
#
# number of rings (size 3 to 8) (size 9 to 14) (size 15 to 20)
#    0.000    1.750    1.250    2.250    1.750    4.000 
#    0.000    0.000    0.000    0.000    0.000    0.000 
#    0.000    0.000    0.000    0.000    0.000    0.000 
#
# Total GULP energy -396874.246597 kJ/mol
# GULP energy per Si atom -12402.320206 kJ/mol
# Density = 1.920541 g / cm^3
# Si number density = 19.249220 Si / 1000 Ang^3
#
#
#
# Elastic Constant Matrix: (Units=GPa)
#
#
# Indices 1 2 3 4 5 6 
#
# 1 146.9401 62.0767 60.3852 0.0000 6.7112 0.0000
# 2 62.0767 101.6936 64.7241 0.0000 17.2010 -0.0001
# 3 60.3852 64.7241 96.1308 0.0000 5.1579 0.0000
# 4 0.0000 0.0000 0.0000 18.9695 0.0000 12.4519
# 5 6.7112 17.2010 5.1579 0.0000 39.0504 0.0000
# 6 0.0000 -0.0001 0.0000 12.4519 0.0000 30.8336
#
#
#
# Elastic Compliance Matrix: (Units=1/GPa)
#
#
# Indices 1 2 3 4 5 6 
#
# 1 0.009897 -0.003752 -0.003714 0.000000 0.000443 0.000000
# 2 -0.003752 0.020200 -0.010878 0.000000 -0.006816 0.000000
# 3 -0.003714 -0.010878 0.019909 0.000000 0.002800 0.000000
# 4 0.000000 0.000000 0.000000 0.071731 0.000000 -0.028968
# 5 0.000443 -0.006816 0.002800 0.000000 0.028164 0.000000
# 6 0.000000 0.000000 0.000000 -0.028968 0.000000 0.044131
#
#
# Mechanical properties :
#
#
# Convention : Reuss Voigt Hill
#
# Bulk Modulus (GPa) = 75.08773 79.90406 77.49589
# Shear Modulus (GPa) = 21.26208 28.27595 24.76902
#
# Velocity S-wave (km/s) = 3.32711 3.83683 3.59103
# Velocity P-wave (km/s) = 7.33842 7.82488 7.58555
#
# Compressibility (1/GPa) = 0.01331776
#
# Stress axis : x y z
#
# Youngs Moduli (GPa) = 101.04285 49.50436 50.22770
#
# Poissons Ratio (x) = 0.18575 0.18655
# Poissons Ratio (y) = 0.37914 0.54637
# Poissons Ratio (z) = 0.37529 0.53851
#
# Static dielectric constant tensor:
#      x y z
#    x 3.771740 0.000000 -0.025540 
#    y 0.000000 3.698650 0.000000 
#    z -0.025540 0.000000 3.402680 
# 
# 
# High freq. dielectric constant tensor:
#      x y z
#    x 1.764910 0.000000 -0.002470 
#    y 0.000000 1.748860 0.000000 
#    z -0.002470 0.000000 1.755670 
# 
# From -- ./inp_files/378467.got.cif
#   From: 2010.06.25/outbox.cif.g09.slc.cpg/sg12_190_cif.got.tgz:378467.got - 2010.06.28 00:19:55.
