data_PCOD8107397
_publ_section_title
;
Structure prediction by ZEFSAII (Michael W. Deem and Ramdas Pophale) SiO2 
 PCOD8107397
Probable space group: C 2/M
;
_chemical_formula_sum "Si O2"
_cell_formula_units_Z 64
_cell_length_a 14.528842
_cell_length_b 17.991600
_cell_length_c 16.398316
_cell_angle_alpha 90.000000
_cell_angle_beta 131.678545
_cell_angle_gamma 90.000000
_cell_volume 3201.511561
_symmetry_space_group_name_H-M "C 2/M"
_symmetry_group_IT_number 12
_symmetry_cell_setting 'monoclinic'
loop_
_space_group_symop_operation_xyz
x,y,z
-x,y,-z
-x,-y,-z
x,-y,z
1/2+x,1/2+y,z
1/2-x,1/2+y,-z
1/2-x,1/2-y,-z
1/2+x,1/2-y,z
loop_
_atom_site_type_symbol
_atom_site_label
_atom_site_fract_x
_atom_site_fract_y
_atom_site_fract_z
Si Si1 0.238482 0.914371 0.829243
Si Si2 0.952765 0.828090 0.384156
Si Si3 0.801131 0.668414 0.019604
Si Si4 0.383779 0.915412 0.648354
Si Si5 0.242206 0.703434 0.714237
Si Si6 0.297772 0.325953 0.562264
Si Si7 0.165758 0.414516 0.793528
Si Si8 0.084364 0.665078 0.167177
O O1 0.144453 0.888117 0.704317
O O2 0.374308 0.897008 0.873883
O O3 0.221062 0.000000 0.837645
O O4 0.218260 0.871276 0.902232
O O5 0.888724 0.747224 0.358418
O O6 0.000000 0.855322 0.500000
O O7 0.059473 0.828774 0.379159
O O8 0.795449 0.619774 0.097335
O O9 0.940505 0.675639 0.071551
O O10 0.750000 0.750000 0.000000
O O11 0.281063 0.893779 0.521403
O O12 0.519919 0.908111 0.690808
O O13 0.373052 0.860019 0.717918
O O14 0.359817 0.000000 0.662766
O O15 0.279741 0.673319 0.648049
O O16 0.236725 0.630146 0.765762
O O17 0.348598 0.756871 0.812041
O O18 0.250000 0.250000 0.500000
O O19 0.208769 0.500000 0.816705
#
# Coordination Sequence:
#
# PCOD8107397 Si02
#       8
#     8   8   8   8   8   8   8   8
#     4  11  24  40  61  94 130 162 206 259 318 385
#     4  11  23  39  62  95 128 169 209 259 317 371
#     4  11  23  40  69  93 120 160 216 266 317 373
#     4  10  21  37  59  90 125 164 209 258 316 375
#     4  11  23  38  65  92 125 166 217 257 309 376
#     4  12  21  36  62  90 125 170 217 261 307 371
#     4  10  23  42  62  89 129 168 207 265 323 371
#     4  10  21  38  62  93 121 160 204 263 320 374
#
# _framework density 19.990556999999999
#
# number of rings (size 3 to 8) (size 9 to 14) (size 15 to 20)
#    0.000    1.250    2.500    4.125    3.500    3.250 
#    0.000    1.250    0.000    0.750    0.000    0.000 
#    0.000    0.000    0.000    0.000    0.000    0.000 
#
# Total GULP energy -396865.715374 kJ/mol
# GULP energy per Si atom -12402.053605 kJ/mol
# Density = 1.994506 g / cm^3
# Si number density = 19.990557 Si / 1000 Ang^3
#
#
#
# Elastic Constant Matrix: (Units=GPa)
#
#
# Indices 1 2 3 4 5 6 
#
# 1 112.8551 59.2186 45.0694 0.0000 -12.0109 0.0000
# 2 59.2186 151.8110 50.5832 0.0000 -2.6905 0.0000
# 3 45.0694 50.5832 104.3878 0.0000 -4.7689 0.0000
# 4 0.0000 0.0000 0.0000 29.6937 0.0000 -5.8581
# 5 -12.0109 -2.6905 -4.7689 0.0000 25.8243 0.0000
# 6 0.0000 0.0000 0.0000 -5.8581 0.0000 27.3996
#
#
#
# Elastic Compliance Matrix: (Units=1/GPa)
#
#
# Indices 1 2 3 4 5 6 
#
# 1 0.012716 -0.003719 -0.003465 0.000000 0.004887 0.000000
# 2 -0.003719 0.008944 -0.002788 0.000000 -0.001313 0.000000
# 3 -0.003465 -0.002788 0.012445 0.000000 0.000396 0.000000
# 4 0.000000 0.000000 0.000000 0.035160 0.000000 0.007517
# 5 0.004887 -0.001313 0.000396 0.000000 0.040933 0.000000
# 6 0.000000 0.000000 0.000000 0.007517 0.000000 0.038104
#
#
# Mechanical properties :
#
#
# Convention : Reuss Voigt Hill
#
# Bulk Modulus (GPa) = 70.61886 75.42180 73.02033
# Shear Modulus (GPa) = 28.90743 30.86238 29.88490
#
# Velocity S-wave (km/s) = 3.80683 3.93345 3.87065
# Velocity P-wave (km/s) = 7.39766 7.64460 7.52214
#
# Compressibility (1/GPa) = 0.01416052
#
# Stress axis : x y z
#
# Youngs Moduli (GPa) = 78.63882 111.81090 80.35586
#
# Poissons Ratio (x) = 0.41586 0.27841
# Poissons Ratio (y) = 0.29249 0.22403
# Poissons Ratio (z) = 0.27246 0.31173
#
# Static dielectric constant tensor:
#      x y z
#    x 3.649860 0.000000 0.004010 
#    y 0.000000 3.592140 0.000000 
#    z 0.004010 0.000000 3.813620 
# 
# 
# High freq. dielectric constant tensor:
#      x y z
#    x 1.783150 0.000000 -0.006430 
#    y 0.000000 1.776280 0.000000 
#    z -0.006430 0.000000 1.782180 
# 
# From -- ./inp_files/216836.got.cif
#   From: 2010.06.25/outbox.cif.g09.slc.cpg/sg12_109_cif.got.tgz:216836.got - 2010.06.28 00:19:55.
