data_PCOD8107417
_publ_section_title
;
Structure prediction by ZEFSAII (Michael W. Deem and Ramdas Pophale) SiO2 
 PCOD8107417
Probable space group: C 2/M
;
_chemical_formula_sum "Si O2"
_cell_formula_units_Z 40
_cell_length_a 12.008311
_cell_length_b 21.038760
_cell_length_c 10.151568
_cell_angle_alpha 90.000000
_cell_angle_beta 131.854618
_cell_angle_gamma 90.000000
_cell_volume 1910.285807
_symmetry_space_group_name_H-M "C 2/M"
_symmetry_group_IT_number 12
_symmetry_cell_setting 'monoclinic'
loop_
_space_group_symop_operation_xyz
x,y,z
-x,y,-z
-x,-y,-z
x,-y,z
1/2+x,1/2+y,z
1/2-x,1/2+y,-z
1/2-x,1/2-y,-z
1/2+x,1/2-y,z
loop_
_atom_site_type_symbol
_atom_site_label
_atom_site_fract_x
_atom_site_fract_y
_atom_site_fract_z
Si Si1 0.866750 0.669200 0.691711
Si Si2 0.558820 0.427024 0.901059
Si Si3 0.623607 0.427788 0.499044
Si Si4 0.163522 0.725696 0.615399
Si Si5 0.701889 0.820960 0.920698
O O1 0.784392 0.603166 0.652857
O O2 0.827564 0.687512 0.511971
O O3 0.793670 0.721936 0.729559
O O4 0.042130 0.663402 0.861481
O O5 0.620454 0.500000 0.947656
O O6 0.424339 0.419562 0.691188
O O7 0.500000 0.409230 0.000000
O O8 0.683996 0.376867 0.950901
O O9 0.500000 0.397936 0.500000
O O10 0.648219 0.500000 0.558074
O O11 0.185544 0.675742 0.750289
O O12 0.000000 0.758841 0.500000
O O13 0.750000 0.750000 0.000000
#
# Coordination Sequence:
#
# PCOD8107417 Si02
#       5
#     8   8   8   8   8
#     4  10  21  37  60  83 115 163 195 247 301 362
#     4  10  23  43  65  88 123 165 204 255 311 363
#     4  10  22  40  64  89 117 161 208 247 298 372
#     4   9  20  37  56  84 118 154 199 243 300 360
#     4  11  25  36  57  94 123 155 200 260 306 364
#
# _framework density 20.939274999999999
#
# number of rings (size 3 to 8) (size 9 to 14) (size 15 to 20)
#    0.000    2.000    0.000    1.800   14.000    0.800 
#    0.000    0.000    0.000   10.800    0.000    0.000 
#    0.000    0.000    0.000    0.000    0.000    0.000 
#
# Total GULP energy -247951.529669 kJ/mol
# GULP energy per Si atom -12397.576483 kJ/mol
# Density = 2.089162 g / cm^3
# Si number density = 20.939275 Si / 1000 Ang^3
#
#
#
# Elastic Constant Matrix: (Units=GPa)
#
#
# Indices 1 2 3 4 5 6 
#
# 1 101.3829 38.4644 26.6249 0.0000 25.3752 0.0000
# 2 38.4644 111.4209 35.2328 0.0000 36.3230 0.0000
# 3 26.6249 35.2328 59.6265 0.0000 28.8594 0.0000
# 4 0.0000 0.0000 0.0000 13.4864 0.0000 16.6469
# 5 25.3752 36.3230 28.8594 0.0000 46.3566 0.0000
# 6 0.0000 0.0000 0.0000 16.6469 0.0000 28.6588
#
#
#
# Elastic Compliance Matrix: (Units=1/GPa)
#
#
# Indices 1 2 3 4 5 6 
#
# 1 0.012237 -0.002366 -0.002464 0.000000 -0.003311 0.000000
# 2 -0.002366 0.013094 -0.003352 0.000000 -0.006878 0.000000
# 3 -0.002464 -0.003352 0.025659 0.000000 -0.012000 0.000000
# 4 0.000000 0.000000 0.000000 0.262007 0.000000 -0.152191
# 5 -0.003311 -0.006878 -0.012000 0.000000 0.036244 0.000000
# 6 0.000000 0.000000 0.000000 -0.152191 0.000000 0.123296
#
#
# Mechanical properties :
#
#
# Convention : Reuss Voigt Hill
#
# Bulk Modulus (GPa) = 28.87858 52.56384 40.72121
# Shear Modulus (GPa) = 9.99117 29.17421 19.58269
#
# Velocity S-wave (km/s) = 2.18675 3.73671 3.06144
# Velocity P-wave (km/s) = 4.49414 6.61626 5.65562
#
# Compressibility (1/GPa) = 0.03462774
#
# Stress axis : x y z
#
# Youngs Moduli (GPa) = 81.71994 76.37185 38.97204
#
# Poissons Ratio (x) = 0.18070 0.09601
# Poissons Ratio (y) = 0.19336 0.13061
# Poissons Ratio (z) = 0.20133 0.25596
#
# Static dielectric constant tensor:
#      x y z
#    x 4.054750 0.000000 0.010300 
#    y 0.000000 3.619620 0.000000 
#    z 0.010300 0.000000 3.657800 
# 
# 
# High freq. dielectric constant tensor:
#      x y z
#    x 1.834430 0.000000 -0.006930 
#    y 0.000000 1.807360 0.000000 
#    z -0.006930 0.000000 1.812120 
# 
# From -- ./inp_files/48485.got.cif
#   From: 2010.06.25/outbox.cif.g09.slc.cpg/sg12_25_cif.got.tgz:48485.got - 2010.06.28 00:19:55.
