data_PCOD8107264
_publ_section_title
;
Structure prediction by ZEFSAII (Michael W. Deem and Ramdas Pophale) SiO2 
 PCOD8107264
Probable space group: C 2/M
;
_chemical_formula_sum "Si O2"
_cell_formula_units_Z 64
_cell_length_a 12.142949
_cell_length_b 26.614225
_cell_length_c 10.064648
_cell_angle_alpha 90.000000
_cell_angle_beta 74.691812
_cell_angle_gamma 90.000000
_cell_volume 3137.239596
_symmetry_space_group_name_H-M "C 2/M"
_symmetry_group_IT_number 12
_symmetry_cell_setting 'monoclinic'
loop_
_space_group_symop_operation_xyz
x,y,z
-x,y,-z
-x,-y,-z
x,-y,z
1/2+x,1/2+y,z
1/2-x,1/2+y,-z
1/2-x,1/2-y,-z
1/2+x,1/2-y,z
loop_
_atom_site_type_symbol
_atom_site_label
_atom_site_fract_x
_atom_site_fract_y
_atom_site_fract_z
Si Si1 0.028388 0.911117 0.197072
Si Si2 0.219900 0.639320 0.500231
Si Si3 0.023919 0.295816 0.647174
Si Si4 0.327210 0.559020 0.098148
Si Si5 0.387389 0.114663 0.732291
Si Si6 0.948446 0.557474 0.151531
Si Si7 0.292006 0.555307 0.666732
Si Si8 0.451832 0.684294 0.366125
O O1 0.087818 0.942205 0.295559
O O2 0.904374 0.935443 0.206452
O O3 0.017060 0.853387 0.246309
O O4 0.106200 0.915099 0.042666
O O5 0.142988 0.673251 0.623710
O O6 0.141902 0.611655 0.414428
O O7 0.289704 0.596373 0.553327
O O8 0.316078 0.674521 0.403945
O O9 0.030607 0.239707 0.703098
O O10 0.000000 0.290474 0.500000
O O11 0.920997 0.326800 0.751861
O O12 0.300622 0.500000 0.080346
O O13 0.213245 0.591875 0.146873
O O14 0.500902 0.082994 0.731364
O O15 0.986750 0.500000 0.144755
O O16 0.811845 0.564257 0.196099
O O17 0.000000 0.582099 0.000000
O O18 0.280357 0.500000 0.606214
O O19 0.500000 0.679268 0.500000
#
# Coordination Sequence:
#
# PCOD8107264 Si02
#       8
#     8   8   8   8   8   8   8   8
#     4  11  22  41  60  88 123 160 215 252 289 360
#     4  11  21  39  59  92 122 159 197 248 304 369
#     4   9  21  38  64  89 119 156 202 250 307 363
#     4  11  23  40  65  88 119 169 207 247 302 358
#     4  11  21  39  62  93 123 152 206 250 298 372
#     4  10  21  37  59  84 118 165 206 244 298 363
#     4  11  22  36  57  88 125 157 195 252 308 358
#     4  11  21  40  64  89 117 162 205 249 307 356
#
# _framework density 20.400099000000001
#
# number of rings (size 3 to 8) (size 9 to 14) (size 15 to 20)
#    0.000    1.375    3.750    3.000    0.000    2.000 
#    0.000    2.500    2.750    0.000    0.000    0.000 
#    0.000    0.000    0.000    0.000    0.000    0.000 
#
# Total GULP energy -396673.481324 kJ/mol
# GULP energy per Si atom -12396.046291 kJ/mol
# Density = 2.035367 g / cm^3
# Si number density = 20.400099 Si / 1000 Ang^3
#
#
#
# Elastic Constant Matrix: (Units=GPa)
#
#
# Indices 1 2 3 4 5 6 
#
# 1 99.4003 53.8044 19.3721 0.0000 0.6731 0.0000
# 2 53.8044 160.0080 52.8926 0.0000 -14.7973 0.0000
# 3 19.3721 52.8926 51.2320 0.0000 -0.9683 0.0000
# 4 0.0000 0.0000 0.0000 29.3110 0.0000 -5.2025
# 5 0.6731 -14.7973 -0.9683 0.0000 35.2894 0.0000
# 6 0.0000 0.0000 0.0000 -5.2025 0.0000 30.8505
#
#
#
# Elastic Compliance Matrix: (Units=1/GPa)
#
#
# Indices 1 2 3 4 5 6 
#
# 1 0.012447 -0.004258 -0.000349 0.000000 -0.002032 0.000000
# 2 -0.004258 0.011456 -0.010130 0.000000 0.004607 0.000000
# 3 -0.000349 -0.010130 0.030045 0.000000 -0.003417 0.000000
# 4 0.000000 0.000000 0.000000 0.035170 0.000000 0.005931
# 5 -0.002032 0.004607 -0.003417 0.000000 0.030214 0.000000
# 6 0.000000 0.000000 0.000000 0.005931 0.000000 0.033415
#
#
# Mechanical properties :
#
#
# Convention : Reuss Voigt Hill
#
# Bulk Modulus (GPa) = 40.86023 62.53095 51.69559
# Shear Modulus (GPa) = 26.26338 31.39492 28.82915
#
# Velocity S-wave (km/s) = 3.59195 3.92721 3.76332
# Velocity P-wave (km/s) = 6.10538 7.16120 6.65427
#
# Compressibility (1/GPa) = 0.02447367
#
# Stress axis : x y z
#
# Youngs Moduli (GPa) = 80.34113 87.28817 33.28319
#
# Poissons Ratio (x) = 0.37168 0.01161
# Poissons Ratio (y) = 0.34210 0.33717
# Poissons Ratio (z) = 0.02803 0.88427
#
# Static dielectric constant tensor:
#      x y z
#    x 4.017790 0.000000 0.044550 
#    y 0.000000 3.874020 0.000000 
#    z 0.044550 0.000000 3.454280 
# 
# 
# High freq. dielectric constant tensor:
#      x y z
#    x 1.816770 0.000000 -0.000160 
#    y 0.000000 1.794620 0.000000 
#    z -0.000160 0.000000 1.763100 
# 
# From -- ./inp_files/135350.got.cif
#   From: 2010.06.25/outbox.cif.g09.slc.cpg/sg12_68_cif.got.tgz:135350.got - 2010.06.28 00:19:55.
