data_PCOD8107081
_publ_section_title
;
Structure prediction by ZEFSAII (Michael W. Deem and Ramdas Pophale) SiO2 
 PCOD8107081
Probable space group: C 2/M
;
_chemical_formula_sum "Si O2"
_cell_formula_units_Z 64
_cell_length_a 19.621260
_cell_length_b 8.978203
_cell_length_c 30.666769
_cell_angle_alpha 90.000000
_cell_angle_beta 142.460167
_cell_angle_gamma 90.000000
_cell_volume 3291.733455
_symmetry_space_group_name_H-M "C 2/M"
_symmetry_group_IT_number 12
_symmetry_cell_setting 'monoclinic'
loop_
_space_group_symop_operation_xyz
x,y,z
-x,y,-z
-x,-y,-z
x,-y,z
1/2+x,1/2+y,z
1/2-x,1/2+y,-z
1/2-x,1/2-y,-z
1/2+x,1/2-y,z
loop_
_atom_site_type_symbol
_atom_site_label
_atom_site_fract_x
_atom_site_fract_y
_atom_site_fract_z
Si Si1 0.480937 0.823707 0.920006
Si Si2 0.001387 0.328248 0.583490
Si Si3 0.674408 0.176242 0.081654
Si Si4 0.958261 0.330208 0.659875
Si Si5 0.713496 0.669138 0.557934
Si Si6 0.928223 0.823319 0.803363
Si Si7 0.283680 0.328653 0.339856
Si Si8 0.423686 0.323656 0.201935
O O1 0.377815 0.772499 0.898558
O O2 0.477056 0.736257 0.873096
O O3 0.477630 0.000000 0.909606
O O4 0.595925 0.773925 0.001820
O O5 0.020705 0.500000 0.581317
O O6 0.013230 0.301022 0.640984
O O7 0.879479 0.283528 0.504825
O O8 0.091599 0.228571 0.604834
O O9 0.798156 0.244568 0.137955
O O10 0.679407 0.000000 0.084684
O O11 0.975876 0.500000 0.684416
O O12 0.826314 0.296006 0.588553
O O13 0.015907 0.221713 0.723138
O O14 0.671610 0.500000 0.528801
O O15 0.744465 0.694458 0.623982
O O16 0.803218 0.763392 0.733237
O O17 0.008543 0.763343 0.805490
O O18 0.923664 0.000000 0.802170
O O19 0.275763 0.500000 0.321745
O O20 0.418629 0.500000 0.197852
#
# Coordination Sequence:
#
# PCOD8107081 Si02
#       8
#     8   8   8   8   8   8   8   8
#     4   9  18  36  62  86 114 151 192 234 277 336
#     4  11  24  38  58  88 119 147 184 239 297 342
#     4   8  17  36  60  87 114 147 194 237 274 331
#     4  10  22  40  58  83 117 151 190 237 284 337
#     4  10  21  40  62  82 110 150 197 237 276 340
#     4  11  23  37  55  84 120 150 187 241 292 337
#     4  11  23  40  61  82 111 153 197 236 280 342
#     4  10  21  37  58  83 114 153 194 237 284 335
#
# _framework density 19.442643
#
# number of rings (size 3 to 8) (size 9 to 14) (size 15 to 20)
#    0.000    2.000    1.250    2.625    1.750    5.000 
#    0.000    1.875    0.000    0.000    0.000    0.000 
#    0.000    0.000    0.000    0.000    0.000    0.000 
#
# Total GULP energy -396899.013670 kJ/mol
# GULP energy per Si atom -12403.094177 kJ/mol
# Density = 1.939839 g / cm^3
# Si number density = 19.442643 Si / 1000 Ang^3
#
#
#
# Elastic Constant Matrix: (Units=GPa)
#
#
# Indices 1 2 3 4 5 6 
#
# 1 60.5233 27.2897 27.5173 0.0000 7.7024 0.0000
# 2 27.2897 55.6175 28.6296 0.0001 -4.8525 -0.0002
# 3 27.5173 28.6296 96.1270 0.0000 2.2106 0.0000
# 4 0.0000 0.0001 0.0000 32.7341 0.0000 -3.5666
# 5 7.7024 -4.8525 2.2106 0.0000 32.9618 0.0000
# 6 0.0000 -0.0002 0.0000 -3.5666 0.0000 24.5130
#
#
#
# Elastic Compliance Matrix: (Units=1/GPa)
#
#
# Indices 1 2 3 4 5 6 
#
# 1 0.023685 -0.010403 -0.003525 0.000000 -0.006830 0.000000
# 2 -0.010403 0.026229 -0.004986 0.000000 0.006627 0.000000
# 3 -0.003525 -0.004986 0.012915 0.000000 -0.000777 0.000000
# 4 0.000000 0.000000 0.000000 0.031041 0.000000 0.004516
# 5 -0.006830 0.006627 -0.000777 0.000000 0.032962 0.000000
# 6 0.000000 0.000000 0.000000 0.004516 0.000000 0.041452
#
#
# Mechanical properties :
#
#
# Convention : Reuss Voigt Hill
#
# Bulk Modulus (GPa) = 39.99820 42.12676 41.06248
# Shear Modulus (GPa) = 23.31599 26.63053 24.97326
#
# Velocity S-wave (km/s) = 3.46673 3.70496 3.58782
# Velocity P-wave (km/s) = 6.05321 6.32586 6.19104
#
# Compressibility (1/GPa) = 0.02500112
#
# Stress axis : x y z
#
# Youngs Moduli (GPa) = 42.22115 38.12541 77.43044
#
# Poissons Ratio (x) = 0.39661 0.27291
# Poissons Ratio (y) = 0.43922 0.38610
# Poissons Ratio (z) = 0.14881 0.19011
#
# Static dielectric constant tensor:
#      x y z
#    x 3.798080 0.000000 0.164930 
#    y 0.000000 3.351000 0.000000 
#    z 0.164930 0.000000 3.553380 
# 
# 
# High freq. dielectric constant tensor:
#      x y z
#    x 1.768500 0.000000 0.002400 
#    y 0.000000 1.741470 0.000000 
#    z 0.002400 0.000000 1.760810 
# 
# From -- ./inp_files/378351.got.cif
#   From: 2010.06.25/outbox.cif.g09.slc.cpg/sg12_190_cif.got.tgz:378351.got - 2010.06.28 00:19:55.
