data_PCOD8107405
_publ_section_title
;
Structure prediction by ZEFSAII (Michael W. Deem and Ramdas Pophale) SiO2 
 PCOD8107405
Probable space group: C 2/M
;
_chemical_formula_sum "Si O2"
_cell_formula_units_Z 64
_cell_length_a 9.338329
_cell_length_b 24.426476
_cell_length_c 16.289646
_cell_angle_alpha 90.000000
_cell_angle_beta 53.940027
_cell_angle_gamma 90.000000
_cell_volume 3003.783565
_symmetry_space_group_name_H-M "C 2/M"
_symmetry_group_IT_number 12
_symmetry_cell_setting 'monoclinic'
loop_
_space_group_symop_operation_xyz
x,y,z
-x,y,-z
-x,-y,-z
x,-y,z
1/2+x,1/2+y,z
1/2-x,1/2+y,-z
1/2-x,1/2-y,-z
1/2+x,1/2-y,z
loop_
_atom_site_type_symbol
_atom_site_label
_atom_site_fract_x
_atom_site_fract_y
_atom_site_fract_z
Si Si1 0.482770 0.437680 0.594637
Si Si2 0.702033 0.062782 0.221253
Si Si3 0.380167 0.938055 0.217417
Si Si4 0.695789 0.902199 0.409849
Si Si5 0.195362 0.240136 0.262809
Si Si6 0.009157 0.663423 0.902843
Si Si7 0.187191 0.168189 0.898612
Si Si8 0.791981 0.777869 0.399442
O O1 0.500000 0.407968 0.500000
O O2 0.427572 0.500000 0.596804
O O3 0.314087 0.412506 0.698921
O O4 0.661529 0.435884 0.586314
O O5 0.497462 0.066218 0.261141
O O6 0.723321 0.084217 0.305848
O O7 0.816320 0.103956 0.125598
O O8 0.772090 0.000000 0.189265
O O9 0.466556 0.901860 0.116208
O O10 0.373507 0.000000 0.186325
O O11 0.500000 0.921964 0.500000
O O12 0.722145 0.839408 0.424542
O O13 0.323919 0.191365 0.195548
O O14 0.262898 0.296203 0.198033
O O15 0.187490 0.246226 0.363631
O O16 0.997377 0.224035 0.303893
O O17 0.828615 0.682299 0.921141
O O18 0.000000 0.680325 0.000000
O O19 0.000000 0.185364 0.000000
O O20 0.750000 0.750000 0.500000
#
# Coordination Sequence:
#
# PCOD8107405 Si02
#       8
#     8   8   8   8   8   8   8   8
#     4  10  21  37  59  91 128 170 216 267 325 388
#     4  10  22  42  67  95 131 175 221 275 333 395
#     4   9  20  41  64  91 132 173 217 275 336 394
#     4  12  24  39  64  93 132 171 225 270 327 393
#     4  12  24  46  68  96 137 170 222 276 333 396
#     4  11  25  41  67  98 127 173 226 275 335 393
#     4  11  25  43  68  96 134 175 224 282 340 395
#     4  12  27  44  68  98 132 175 215 269 332 400
#
# _framework density 21.306460999999999
#
# number of rings (size 3 to 8) (size 9 to 14) (size 15 to 20)
#    0.000    1.125    2.500    3.375    1.750    6.500 
#    0.000    0.000    0.000    0.000    0.000    0.000 
#    0.000    0.000    0.000    0.000    0.000    0.000 
#
# Total GULP energy -396839.485853 kJ/mol
# GULP energy per Si atom -12401.233933 kJ/mol
# Density = 2.125797 g / cm^3
# Si number density = 21.306461 Si / 1000 Ang^3
#
#
#
# Elastic Constant Matrix: (Units=GPa)
#
#
# Indices 1 2 3 4 5 6 
#
# 1 111.6161 18.7838 38.7419 0.0000 -2.9679 0.0000
# 2 18.7838 88.1312 20.4121 0.0000 6.4304 0.0000
# 3 38.7419 20.4121 87.7069 0.0000 3.0601 0.0000
# 4 0.0000 0.0000 0.0000 59.2202 0.0000 -0.0340
# 5 -2.9679 6.4304 3.0601 0.0000 48.5963 0.0000
# 6 0.0000 0.0000 0.0000 -0.0340 0.0000 33.0841
#
#
#
# Elastic Compliance Matrix: (Units=1/GPa)
#
#
# Indices 1 2 3 4 5 6 
#
# 1 0.010771 -0.001338 -0.004485 0.000000 0.001117 0.000000
# 2 -0.001338 0.012257 -0.002207 0.000000 -0.001565 0.000000
# 3 -0.004485 -0.002207 0.013926 0.000000 -0.000859 0.000000
# 4 0.000000 0.000000 0.000000 0.016886 0.000000 0.000017
# 5 0.001117 -0.001565 -0.000859 0.000000 0.020907 0.000000
# 6 0.000000 0.000000 0.000000 0.000017 0.000000 0.030226
#
#
# Mechanical properties :
#
#
# Convention : Reuss Voigt Hill
#
# Bulk Modulus (GPa) = 47.86132 49.25886 48.56009
# Shear Modulus (GPa) = 39.06261 42.14789 40.60525
#
# Velocity S-wave (km/s) = 4.28643 4.45249 4.37025
# Velocity P-wave (km/s) = 6.85639 7.04289 6.95026
#
# Compressibility (1/GPa) = 0.02089370
#
# Stress axis : x y z
#
# Youngs Moduli (GPa) = 92.84123 81.58419 71.80589
#
# Poissons Ratio (x) = 0.10919 0.32207
# Poissons Ratio (y) = 0.12426 0.15847
# Poissons Ratio (z) = 0.41642 0.18005
#
# Static dielectric constant tensor:
#      x y z
#    x 5.121630 0.000000 0.490300 
#    y 0.000000 3.908110 0.000000 
#    z 0.490300 0.000000 3.941830 
# 
# 
# High freq. dielectric constant tensor:
#      x y z
#    x 1.848040 0.000000 -0.001130 
#    y 0.000000 1.841610 0.000000 
#    z -0.001130 0.000000 1.826900 
# 
# From -- ./inp_files/201297.got.cif
#   From: 2010.06.25/outbox.cif.g09.slc.cpg/sg12_101_cif.got.tgz:201297.got - 2010.06.28 00:19:55.
