data_PCOD8107993
_publ_section_title
;
Structure prediction by ZEFSAII (Michael W. Deem and Ramdas Pophale) SiO2 
 PCOD8107993
Probable space group: C 2/M
;
_chemical_formula_sum "Si O2"
_cell_formula_units_Z 48
_cell_length_a 19.641088
_cell_length_b 8.770619
_cell_length_c 14.402554
_cell_angle_alpha 90.000000
_cell_angle_beta 80.379252
_cell_angle_gamma 90.000000
_cell_volume 2446.154251
_symmetry_space_group_name_H-M "C 2/M"
_symmetry_group_IT_number 12
_symmetry_cell_setting 'monoclinic'
loop_
_space_group_symop_operation_xyz
x,y,z
-x,y,-z
-x,-y,-z
x,-y,z
1/2+x,1/2+y,z
1/2-x,1/2+y,-z
1/2-x,1/2-y,-z
1/2+x,1/2-y,z
loop_
_atom_site_type_symbol
_atom_site_label
_atom_site_fract_x
_atom_site_fract_y
_atom_site_fract_z
Si Si1 0.782539 0.677056 0.738304
Si Si2 0.952681 0.319270 0.373957
Si Si3 0.420866 0.179363 0.023254
Si Si4 0.810549 0.820885 0.926102
Si Si5 0.903018 0.320490 0.580652
Si Si6 0.374821 0.323597 0.222909
O O1 0.796357 0.500000 0.759138
O O2 0.802035 0.778005 0.821507
O O3 0.831212 0.733515 0.642638
O O4 0.703718 0.704159 0.725909
O O5 0.945467 0.500000 0.359319
O O6 0.909037 0.260700 0.473497
O O7 0.926232 0.232155 0.290159
O O8 0.032095 0.268160 0.371281
O O9 0.386776 0.229073 0.127189
O O10 0.411974 0.000000 0.014219
O O11 0.500000 0.230369 0.000000
O O12 0.383718 0.259913 0.945490
O O13 0.807308 0.000000 0.939441
O O14 0.750000 0.750000 0.000000
O O15 0.907581 0.500000 0.572515
O O16 0.388683 0.500000 0.198089
#
# Coordination Sequence:
#
# PCOD8107993 Si02
#       6
#     8   8   8   8   8   8
#     4  10  21  38  59  84 116 157 199 239 287 348
#     4   9  18  36  61  85 112 150 196 245 288 343
#     4  11  25  43  63  86 115 156 201 243 293 351
#     4  12  24  40  62  88 120 157 196 242 291 348
#     4   8  17  36  61  85 110 149 199 241 288 346
#     4  11  23  37  56  85 121 155 189 241 298 346
#
# _framework density 19.622637999999998
#
# number of rings (size 3 to 8) (size 9 to 14) (size 15 to 20)
#    0.000    1.833    1.667    3.500    2.333    2.667 
#    0.000    2.500    0.000    0.000    0.000    0.000 
#    0.000    0.000    0.000    0.000    0.000    0.000 
#
# Total GULP energy -297641.646920 kJ/mol
# GULP energy per Si atom -12401.735288 kJ/mol
# Density = 1.957798 g / cm^3
# Si number density = 19.622638 Si / 1000 Ang^3
#
#
#
# Elastic Constant Matrix: (Units=GPa)
#
#
# Indices 1 2 3 4 5 6 
#
# 1 81.7701 26.2231 3.8727 0.0000 -6.5300 0.0000
# 2 26.2231 69.8877 4.6257 0.0000 1.6616 0.0000
# 3 3.8727 4.6257 42.2785 0.0000 2.0838 0.0000
# 4 0.0000 0.0000 0.0000 27.2908 0.0000 3.2276
# 5 -6.5300 1.6616 2.0838 0.0000 43.2145 0.0000
# 6 0.0000 0.0000 0.0000 3.2276 0.0000 26.4489
#
#
#
# Elastic Compliance Matrix: (Units=1/GPa)
#
#
# Indices 1 2 3 4 5 6 
#
# 1 0.014164 -0.005316 -0.000833 0.000000 0.002385 0.000000
# 2 -0.005316 0.016418 -0.001242 0.000000 -0.001375 0.000000
# 3 -0.000833 -0.001242 0.023926 0.000000 -0.001232 0.000000
# 4 0.000000 0.000000 0.000000 0.037179 0.000000 -0.004537
# 5 0.002385 -0.001375 -0.001232 0.000000 0.023613 0.000000
# 6 0.000000 0.000000 0.000000 -0.004537 0.000000 0.038362
#
#
# Mechanical properties :
#
#
# Convention : Reuss Voigt Hill
#
# Bulk Modulus (GPa) = 25.17259 29.26437 27.21848
# Shear Modulus (GPa) = 27.51990 30.00515 28.76252
#
# Velocity S-wave (km/s) = 3.74900 3.91462 3.83271
# Velocity P-wave (km/s) = 5.62105 5.94797 5.78682
#
# Compressibility (1/GPa) = 0.03972574
#
# Stress axis : x y z
#
# Youngs Moduli (GPa) = 70.60051 60.90771 41.79630
#
# Poissons Ratio (x) = 0.32380 0.03483
# Poissons Ratio (y) = 0.37533 0.05189
# Poissons Ratio (z) = 0.05883 0.07562
#
# Static dielectric constant tensor:
#      x y z
#    x 3.761590 0.000000 -0.031760 
#    y 0.000000 3.418570 0.000000 
#    z -0.031760 0.000000 3.706830 
# 
# 
# High freq. dielectric constant tensor:
#      x y z
#    x 1.775950 0.000000 -0.001240 
#    y 0.000000 1.749720 0.000000 
#    z -0.001240 0.000000 1.767670 
# 
# From -- ./inp_files/221523.got.cif
#   From: 2010.06.25/outbox.cif.g09.slc.cpg/sg12_111_cif.got.tgz:221523.got - 2010.06.28 00:19:55.
