data_PCOD8107449
_publ_section_title
;
Structure prediction by ZEFSAII (Michael W. Deem and Ramdas Pophale) SiO2 
 PCOD8107449
Probable space group: C 2/M
;
_chemical_formula_sum "Si O2"
_cell_formula_units_Z 56
_cell_length_a 10.768690
_cell_length_b 28.125697
_cell_length_c 9.300354
_cell_angle_alpha 90.000000
_cell_angle_beta 67.873863
_cell_angle_gamma 90.000000
_cell_volume 2609.420041
_symmetry_space_group_name_H-M "C 2/M"
_symmetry_group_IT_number 12
_symmetry_cell_setting 'monoclinic'
loop_
_space_group_symop_operation_xyz
x,y,z
-x,y,-z
-x,-y,-z
x,-y,z
1/2+x,1/2+y,z
1/2-x,1/2+y,-z
1/2-x,1/2-y,-z
1/2+x,1/2-y,z
loop_
_atom_site_type_symbol
_atom_site_label
_atom_site_fract_x
_atom_site_fract_y
_atom_site_fract_z
Si Si1 0.323990 0.553347 0.393130
Si Si2 0.965822 0.141831 0.251694
Si Si3 0.824932 0.449235 0.840839
Si Si4 0.567394 0.100131 0.621398
Si Si5 0.792426 0.855328 0.041171
Si Si6 0.016774 0.312644 0.161236
Si Si7 0.905114 0.237434 0.410231
O O1 0.363988 0.500000 0.431209
O O2 0.452352 0.589112 0.329086
O O3 0.263662 0.548240 0.262512
O O4 0.215943 0.579039 0.542987
O O5 0.874823 0.143591 0.150756
O O6 0.916066 0.180739 0.387181
O O7 0.117534 0.154479 0.138515
O O8 0.813850 0.500000 0.927204
O O9 0.773829 0.406745 0.963402
O O10 0.979223 0.441304 0.731013
O O11 0.500000 0.115794 0.500000
O O12 0.568818 0.146613 0.721344
O O13 0.676582 0.816590 0.117919
O O14 0.962213 0.262293 0.241413
O O15 0.000000 0.316448 0.000000
O O16 0.750000 0.250000 0.500000
O O17 0.000000 0.254347 0.500000
#
# Coordination Sequence:
#
# PCOD8107449 Si02
#       7
#     8   8   8   8   8   8   8
#     4   9  16  29  54  87 119 157 205 253 302 359
#     4  10  21  37  60  87 124 160 206 252 308 367
#     4   8  14  26  50  85 117 153 203 255 302 352
#     4   9  16  31  55  85 122 159 202 257 306 360
#     4   9  20  37  57  86 123 164 197 258 309 366
#     4  11  24  39  64  91 123 161 207 255 316 375
#     4  12  27  45  68  96 125 165 208 262 314 377
#
# _framework density 21.460706999999999
#
# number of rings (size 3 to 8) (size 9 to 14) (size 15 to 20)
#    0.000    2.286    0.000    3.429    4.000    2.857 
#    0.000    2.857    0.000   11.143    0.000    0.000 
#    0.000    0.000    0.000    0.000    0.000    0.000 
#
# Total GULP energy -347060.884507 kJ/mol
# GULP energy per Si atom -12395.031590 kJ/mol
# Density = 2.141186 g / cm^3
# Si number density = 21.460707 Si / 1000 Ang^3
#
#
#
# Elastic Constant Matrix: (Units=GPa)
#
#
# Indices 1 2 3 4 5 6 
#
# 1 74.9774 28.8693 39.2101 0.0000 -28.9623 0.0000
# 2 28.8693 132.0919 45.1413 0.0000 -16.4522 0.0000
# 3 39.2101 45.1413 92.9753 0.0000 -19.3183 0.0000
# 4 0.0000 0.0000 0.0000 21.9106 0.0000 -9.0405
# 5 -28.9623 -16.4522 -19.3183 0.0000 37.9267 0.0000
# 6 0.0000 0.0000 0.0000 -9.0405 0.0000 5.7737
#
#
#
# Elastic Compliance Matrix: (Units=1/GPa)
#
#
# Indices 1 2 3 4 5 6 
#
# 1 0.022032 -0.001113 -0.005990 0.000000 0.013291 0.000000
# 2 -0.001113 0.009256 -0.003765 0.000000 0.001247 0.000000
# 3 -0.005990 -0.003765 0.015456 0.000000 0.001665 0.000000
# 4 0.000000 0.000000 0.000000 0.128953 0.000000 0.201916
# 5 0.013291 0.001247 0.001665 0.000000 0.037905 0.000000
# 6 0.000000 0.000000 0.000000 0.201916 0.000000 0.489364
#
#
# Mechanical properties :
#
#
# Convention : Reuss Voigt Hill
#
# Bulk Modulus (GPa) = 39.98730 58.49843 49.24286
# Shear Modulus (GPa) = 6.82093 25.57712 16.19902
#
# Velocity S-wave (km/s) = 1.78472 3.45601 2.75038
# Velocity P-wave (km/s) = 4.78751 6.57593 5.75166
#
# Compressibility (1/GPa) = 0.02500794
#
# Stress axis : x y z
#
# Youngs Moduli (GPa) = 45.38789 108.03958 64.70104
#
# Poissons Ratio (x) = 0.12024 0.38754
# Poissons Ratio (y) = 0.05051 0.24363
# Poissons Ratio (z) = 0.27186 0.40681
#
# Static dielectric constant tensor:
#      x y z
#    x 3.822870 0.000000 -0.390460 
#    y 0.000000 4.140670 0.000000 
#    z -0.390460 0.000000 3.793950 
# 
# 
# High freq. dielectric constant tensor:
#      x y z
#    x 1.818870 0.000000 -0.026380 
#    y 0.000000 1.849920 0.000000 
#    z -0.026380 0.000000 1.826960 
# 
# From -- ./inp_files/53166.got.cif
#   From: 2010.06.25/outbox.cif.g09.slc.cpg/sg12_27_cif.got.tgz:53166.got - 2010.06.28 00:19:55.
