data_PCOD8107448
_publ_section_title
;
Structure prediction by ZEFSAII (Michael W. Deem and Ramdas Pophale) SiO2 
 PCOD8107448
Probable space group: C 2/M
;
_chemical_formula_sum "Si O2"
_cell_formula_units_Z 56
_cell_length_a 12.723519
_cell_length_b 26.951617
_cell_length_c 8.692499
_cell_angle_alpha 90.000000
_cell_angle_beta 69.192713
_cell_angle_gamma 90.000000
_cell_volume 2786.418631
_symmetry_space_group_name_H-M "C 2/M"
_symmetry_group_IT_number 12
_symmetry_cell_setting 'monoclinic'
loop_
_space_group_symop_operation_xyz
x,y,z
-x,y,-z
-x,-y,-z
x,-y,z
1/2+x,1/2+y,z
1/2-x,1/2+y,-z
1/2-x,1/2-y,-z
1/2+x,1/2-y,z
loop_
_atom_site_type_symbol
_atom_site_label
_atom_site_fract_x
_atom_site_fract_y
_atom_site_fract_z
Si Si1 0.177620 0.943709 0.801891
Si Si2 0.478983 0.186898 0.830916
Si Si3 0.742623 0.864382 0.005197
Si Si4 0.609384 0.945422 0.508756
Si Si5 0.696746 0.869427 0.679861
Si Si6 0.054840 0.797340 0.137020
Si Si7 0.924348 0.123278 0.400471
O O1 0.186001 0.907638 0.946400
O O2 0.302008 0.947004 0.673822
O O3 0.095456 0.919817 0.715931
O O4 0.135340 0.000000 0.865944
O O5 0.373627 0.150307 0.846900
O O6 0.597191 0.169921 0.693985
O O7 0.447713 0.242058 0.790688
O O8 0.500000 0.186968 0.000000
O O9 0.716498 0.881720 0.846909
O O10 0.816956 0.814728 0.950601
O O11 0.500000 0.916685 0.500000
O O12 0.657817 0.921941 0.636505
O O13 0.572479 0.000000 0.580394
O O14 0.809195 0.853626 0.529862
O O15 0.989234 0.831531 0.290234
O O16 0.000000 0.799455 0.000000
O O17 0.000000 0.100856 0.500000
#
# Coordination Sequence:
#
# PCOD8107448 Si02
#       7
#     8   8   8   8   8   8   8
#     4  10  22  38  60  88 117 156 201 243 296 354
#     4   9  21  37  59  90 117 154 200 239 295 356
#     4  11  20  38  62  86 122 154 195 249 290 353
#     4   9  18  35  58  84 118 157 194 238 299 354
#     4  10  21  37  60  87 121 152 195 247 295 347
#     4  11  21  39  62  84 116 162 198 241 296 347
#     4  11  22  40  60  82 120 158 195 248 296 349
#
# _framework density 20.097480000000001
#
# number of rings (size 3 to 8) (size 9 to 14) (size 15 to 20)
#    0.000    1.857    2.857    1.286    0.000    1.429 
#    0.000    5.000    0.000    5.143    0.000    0.000 
#    0.000    0.000    0.000    0.000    0.000    0.000 
#
# Total GULP energy -347043.306632 kJ/mol
# GULP energy per Si atom -12394.403808 kJ/mol
# Density = 2.005174 g / cm^3
# Si number density = 20.097480 Si / 1000 Ang^3
#
#
#
# Elastic Constant Matrix: (Units=GPa)
#
#
# Indices 1 2 3 4 5 6 
#
# 1 109.9292 37.2876 41.5685 0.0000 -6.7493 0.0000
# 2 37.2876 108.9279 36.4678 0.0000 2.1936 0.0000
# 3 41.5685 36.4678 60.7462 0.0000 7.9918 0.0000
# 4 0.0000 0.0000 0.0000 27.5673 0.0000 -8.8243
# 5 -6.7493 2.1936 7.9918 0.0000 33.2802 0.0000
# 6 0.0000 0.0000 0.0000 -8.8243 0.0000 27.3748
#
#
#
# Elastic Compliance Matrix: (Units=1/GPa)
#
#
# Indices 1 2 3 4 5 6 
#
# 1 0.013268 -0.001734 -0.008682 0.000000 0.004890 0.000000
# 2 -0.001734 0.011744 -0.005902 0.000000 0.000292 0.000000
# 3 -0.008682 -0.005902 0.026979 0.000000 -0.007850 0.000000
# 4 0.000000 0.000000 0.000000 0.040449 0.000000 0.013039
# 5 0.004890 0.000292 -0.007850 0.000000 0.032905 0.000000
# 6 0.000000 0.000000 0.000000 0.013039 0.000000 0.040733
#
#
# Mechanical properties :
#
#
# Convention : Reuss Voigt Hill
#
# Bulk Modulus (GPa) = 51.66513 56.69458 54.17985
# Shear Modulus (GPa) = 24.37060 28.59641 26.48350
#
# Velocity S-wave (km/s) = 3.48605 3.77621 3.63402
# Velocity P-wave (km/s) = 6.47815 6.87634 6.68021
#
# Compressibility (1/GPa) = 0.01935541
#
# Stress axis : x y z
#
# Youngs Moduli (GPa) = 75.36947 85.14984 37.06593
#
# Poissons Ratio (x) = 0.14763 0.32180
# Poissons Ratio (y) = 0.13067 0.21877
# Poissons Ratio (z) = 0.65434 0.50258
#
# Static dielectric constant tensor:
#      x y z
#    x 3.999320 0.000000 -0.093600 
#    y 0.000000 3.773540 0.000000 
#    z -0.093600 0.000000 3.547420 
# 
# 
# High freq. dielectric constant tensor:
#      x y z
#    x 1.803460 0.000000 -0.005050 
#    y 0.000000 1.771770 0.000000 
#    z -0.005050 0.000000 1.773380 
# 
# From -- ./inp_files/53149.got.cif
#   From: 2010.06.25/outbox.cif.g09.slc.cpg/sg12_27_cif.got.tgz:53149.got - 2010.06.28 00:19:55.
