data_PCOD8107635
_publ_section_title
;
Structure prediction by ZEFSAII (Michael W. Deem and Ramdas Pophale) SiO2 
 PCOD8107635
Probable space group: C 2/M
;
_chemical_formula_sum "Si O2"
_cell_formula_units_Z 64
_cell_length_a 22.610583
_cell_length_b 8.920703
_cell_length_c 16.651764
_cell_angle_alpha 90.000000
_cell_angle_beta 94.909705
_cell_angle_gamma 90.000000
_cell_volume 3346.375332
_symmetry_space_group_name_H-M "C 2/M"
_symmetry_group_IT_number 12
_symmetry_cell_setting 'monoclinic'
loop_
_space_group_symop_operation_xyz
x,y,z
-x,y,-z
-x,-y,-z
x,-y,z
1/2+x,1/2+y,z
1/2-x,1/2+y,-z
1/2-x,1/2-y,-z
1/2+x,1/2-y,z
loop_
_atom_site_type_symbol
_atom_site_label
_atom_site_fract_x
_atom_site_fract_y
_atom_site_fract_z
Si Si1 0.222841 0.675896 0.115474
Si Si2 0.327008 0.323130 0.736937
Si Si3 0.490052 0.167037 0.366867
Si Si4 0.158941 0.823949 0.964030
Si Si5 0.964035 0.174202 0.776341
Si Si6 0.698674 0.673889 0.445028
Si Si7 0.906147 0.666966 0.493739
Si Si8 0.465436 0.175866 0.075859
O O1 0.210687 0.500000 0.114009
O O2 0.214498 0.740633 0.203455
O O3 0.289603 0.713781 0.094443
O O4 0.174625 0.750679 0.051237
O O5 0.317996 0.500000 0.744476
O O6 0.395549 0.279289 0.758160
O O7 0.306955 0.264737 0.646790
O O8 0.500247 0.292096 0.300951
O O9 0.428265 0.200117 0.405609
O O10 0.540539 0.175383 0.438547
O O11 0.488625 0.000000 0.328014
O O12 0.097334 0.759651 0.924153
O O13 0.152467 0.000000 0.977128
O O14 0.991629 0.275803 0.848089
O O15 0.971156 0.000000 0.798545
O O16 0.711172 0.500000 0.443223
O O17 0.750000 0.750000 0.500000
O O18 0.639312 0.704858 0.487524
O O19 0.877364 0.500000 0.493660
O O20 0.452835 0.000000 0.078169
O O21 0.500000 0.223165 0.000000
#
# Coordination Sequence:
#
# PCOD8107635 Si02
#       8
#     8   8   8   8   8   8   8   8
#     4  10  21  37  62  91 116 151 196 238 283 339
#     4  10  22  39  59  85 116 150 193 239 288 344
#     4   9  18  34  58  86 114 147 188 232 284 342
#     4  10  21  39  61  87 120 155 193 236 287 341
#     4  11  22  37  58  86 118 152 192 238 291 345
#     4  11  23  40  59  84 115 152 195 241 294 349
#     4   9  18  35  59  85 113 147 187 234 287 342
#     4  11  24  40  59  87 119 154 196 238 287 342
#
# _framework density 19.125171000000002
#
# number of rings (size 3 to 8) (size 9 to 14) (size 15 to 20)
#    0.000    1.875    1.250    3.375    0.000    7.000 
#    2.250    1.250    0.000    0.000    0.000    0.000 
#    0.000    0.000    0.000    0.000    0.000    0.000 
#
# Total GULP energy -396846.724257 kJ/mol
# GULP energy per Si atom -12401.460133 kJ/mol
# Density = 1.908164 g / cm^3
# Si number density = 19.125171 Si / 1000 Ang^3
#
#
#
# Elastic Constant Matrix: (Units=GPa)
#
#
# Indices 1 2 3 4 5 6 
#
# 1 97.9455 46.4108 68.1692 0.0000 1.7735 0.0000
# 2 46.4108 62.0494 40.7176 0.0000 -3.0880 0.0000
# 3 68.1692 40.7176 117.8225 0.0000 -8.3109 0.0000
# 4 0.0000 0.0000 0.0000 33.8231 0.0000 -3.5433
# 5 1.7735 -3.0880 -8.3109 0.0000 30.1976 0.0000
# 6 0.0000 0.0000 0.0000 -3.5433 0.0000 31.3595
#
#
#
# Elastic Compliance Matrix: (Units=1/GPa)
#
#
# Indices 1 2 3 4 5 6 
#
# 1 0.021687 -0.010352 -0.009316 0.000000 -0.004896 0.000000
# 2 -0.010352 0.025785 -0.002746 0.000000 0.002489 0.000000
# 3 -0.009316 -0.002746 0.015139 0.000000 0.004433 0.000000
# 4 0.000000 0.000000 0.000000 0.029920 0.000000 0.003381
# 5 -0.004896 0.002489 0.004433 0.000000 0.034877 0.000000
# 6 0.000000 0.000000 0.000000 0.003381 0.000000 0.032270
#
#
# Mechanical properties :
#
#
# Convention : Reuss Voigt Hill
#
# Bulk Modulus (GPa) = 56.23047 65.37917 60.80482
# Shear Modulus (GPa) = 23.76057 27.24402 25.50230
#
# Velocity S-wave (km/s) = 3.52855 3.77836 3.65559
# Velocity P-wave (km/s) = 6.78720 7.30026 7.04840
#
# Compressibility (1/GPa) = 0.01778395
#
# Stress axis : x y z
#
# Youngs Moduli (GPa) = 46.11025 38.78248 66.05589
#
# Poissons Ratio (x) = 0.40147 0.61535
# Poissons Ratio (y) = 0.47733 0.18138
# Poissons Ratio (z) = 0.42954 0.10649
#
# Static dielectric constant tensor:
#      x y z
#    x 2.656150 0.000000 1.125080 
#    y 0.000000 3.275540 0.000000 
#    z 1.125080 0.000000 1.555620 
# 
# 
# High freq. dielectric constant tensor:
#      x y z
#    x 1.741340 0.000000 -0.010000 
#    y 0.000000 1.747230 0.000000 
#    z -0.010000 0.000000 1.746930 
# 
# From -- ./inp_files/238572.got.cif
#   From: 2010.06.25/outbox.cif.g09.slc.cpg/sg12_120_cif.got.tgz:238572.got - 2010.06.28 00:19:55.
