data_PCOD8107044
_publ_section_title
;
Structure prediction by ZEFSAII (Michael W. Deem and Ramdas Pophale) SiO2 
 PCOD8107044
Probable space group: C 2/M
;
_chemical_formula_sum "Si O2"
_cell_formula_units_Z 56
_cell_length_a 21.650184
_cell_length_b 15.013138
_cell_length_c 23.669777
_cell_angle_alpha 90.000000
_cell_angle_beta 22.108399
_cell_angle_gamma 90.000000
_cell_volume 2895.548114
_symmetry_space_group_name_H-M "C 2/M"
_symmetry_group_IT_number 12
_symmetry_cell_setting 'monoclinic'
loop_
_space_group_symop_operation_xyz
x,y,z
-x,y,-z
-x,-y,-z
x,-y,z
1/2+x,1/2+y,z
1/2-x,1/2+y,-z
1/2-x,1/2-y,-z
1/2+x,1/2-y,z
loop_
_atom_site_type_symbol
_atom_site_label
_atom_site_fract_x
_atom_site_fract_y
_atom_site_fract_z
Si Si1 0.326125 0.601559 0.676886
Si Si2 0.542138 0.660897 0.137342
Si Si3 0.775567 0.343814 0.032341
Si Si4 0.747471 0.249479 0.435164
Si Si5 0.874508 0.761472 0.733089
Si Si6 0.615809 0.902378 0.752278
Si Si7 0.124694 0.102356 0.945004
O O1 0.500000 0.609333 0.500000
O O2 0.295448 0.500000 0.724101
O O3 0.311430 0.670753 0.739713
O O4 0.187516 0.633968 0.750491
O O5 0.663831 0.610199 0.077981
O O6 0.355635 0.667465 0.318572
O O7 0.615233 0.759596 0.078239
O O8 0.537350 0.616346 0.079779
O O9 0.653398 0.313555 0.185045
O O10 0.918795 0.412736 0.927135
O O11 0.750000 0.250000 0.500000
O O12 0.565017 0.237610 0.565468
O O13 0.823194 0.343190 0.351400
O O14 0.778762 0.668111 0.810056
O O15 0.690405 0.000000 0.677509
O O16 0.184923 0.000000 0.889418
O O17 0.000000 0.124658 0.000000
#
# Coordination Sequence:
#
# PCOD8107044 Si02
#       7
#     8   8   8   8   8   8   8
#     4  10  21  37  57  89 126 160 196 240 301 372
#     4   9  19  38  60  81 115 156 196 245 299 354
#     4   9  19  35  57  85 114 153 196 239 294 358
#     4  11  21  38  61  89 121 157 198 246 303 368
#     4  11  22  36  64  91 120 160 198 249 305 359
#     4  10  22  38  58  86 123 159 195 242 298 365
#     4  10  24  43  62  87 119 159 211 261 303 353
#
# _framework density 19.340035
#
# number of rings (size 3 to 8) (size 9 to 14) (size 15 to 20)
#    0.000    2.000    2.857    0.000    8.000    1.143 
#    0.000    2.857    0.000    2.143    0.000    0.000 
#    0.000    0.000    0.000    0.000    0.000    0.000 
#
# Total GULP energy -347041.016399 kJ/mol
# GULP energy per Si atom -12394.322014 kJ/mol
# Density = 1.929602 g / cm^3
# Si number density = 19.340035 Si / 1000 Ang^3
#
#
#
# Elastic Constant Matrix: (Units=GPa)
#
#
# Indices 1 2 3 4 5 6 
#
# 1 155.5235 44.2020 59.6104 -0.0032 -10.5306 0.0081
# 2 44.2020 77.3228 30.6212 0.1079 2.2310 -0.1525
# 3 59.6104 30.6212 120.3824 -0.0156 -7.0193 -0.0918
# 4 -0.0032 0.1079 -0.0156 19.0771 0.0000 4.8855
# 5 -10.5306 2.2310 -7.0193 0.0000 26.9320 0.0572
# 6 0.0081 -0.1525 -0.0918 4.8855 0.0572 -38.9340
#
#
#
# Elastic Compliance Matrix: (Units=1/GPa)
#
#
# Indices 1 2 3 4 5 6 
#
# 1 0.009011 -0.003936 -0.003286 0.000013 0.002993 0.000031
# 2 -0.003936 0.016228 -0.002383 -0.000076 -0.003504 -0.000073
# 3 -0.003286 -0.002383 0.010639 0.000024 0.001685 -0.000011
# 4 0.000013 -0.000076 0.000024 0.050787 0.000004 0.006373
# 5 0.002993 -0.003504 0.001685 0.000004 0.039030 0.000068
# 6 0.000031 -0.000073 -0.000011 0.006373 0.000068 -0.024884
#
#
# Mechanical properties :
#
#
# Convention : Reuss Voigt Hill
#
# Bulk Modulus (GPa) = 60.00126 69.12178 64.56152
# Shear Modulus (GPa) = 39.81651 16.00136 27.90893
#
# Velocity S-wave (km/s) = 4.54228 2.87952 3.80289
# Velocity P-wave (km/s) = 7.65516 6.84641 7.26205
#
# Compressibility (1/GPa) = 0.01666632
#
# Stress axis : x y z
#
# Youngs Moduli (GPa) = 110.97849 61.62319 93.99758
#
# Poissons Ratio (x) = 0.24255 0.30890
# Poissons Ratio (y) = 0.43681 0.22401
# Poissons Ratio (z) = 0.36470 0.14686
#
# Static dielectric constant tensor:
#      x y z
#    x 3.775470 -0.000130 -0.216170 
#    y -0.000130 3.423990 0.000140 
#    z -0.216170 0.000140 3.719930 
# 
# 
# High freq. dielectric constant tensor:
#      x y z
#    x 1.764830 0.000000 -0.010420 
#    y 0.000000 1.733360 0.000010 
#    z -0.010420 0.000010 1.754480 
# 
# From -- ./inp_files/347788.got.cif
#   From: 2010.06.25/outbox.cif.g09.slc.cpg/sg12_174_cif.got.tgz:347788.got - 2010.06.28 00:19:55.
