data_PCOD8107728
_publ_section_title
;
Structure prediction by ZEFSAII (Michael W. Deem and Ramdas Pophale) SiO2 
 PCOD8107728
Probable space group: C 2/M
;
_chemical_formula_sum "Si O2"
_cell_formula_units_Z 64
_cell_length_a 11.751490
_cell_length_b 17.135326
_cell_length_c 15.418953
_cell_angle_alpha 90.000000
_cell_angle_beta 93.402221
_cell_angle_gamma 90.000000
_cell_volume 3099.374704
_symmetry_space_group_name_H-M "C 2/M"
_symmetry_group_IT_number 12
_symmetry_cell_setting 'monoclinic'
loop_
_space_group_symop_operation_xyz
x,y,z
-x,y,-z
-x,-y,-z
x,-y,z
1/2+x,1/2+y,z
1/2-x,1/2+y,-z
1/2-x,1/2-y,-z
1/2+x,1/2-y,z
loop_
_atom_site_type_symbol
_atom_site_label
_atom_site_fract_x
_atom_site_fract_y
_atom_site_fract_z
Si Si1 0.740149 0.090980 0.848325
Si Si2 0.122345 0.087422 0.743762
Si Si3 0.143962 0.672579 0.257054
Si Si4 0.508422 0.634905 0.096807
Si Si5 0.034852 0.850630 0.410569
Si Si6 0.471246 0.814149 0.094561
Si Si7 0.746456 0.335553 0.323707
Si Si8 0.507946 0.176091 0.592898
O O1 0.859375 0.132002 0.874335
O O2 0.645346 0.141802 0.891181
O O3 0.720797 0.098946 0.744813
O O4 0.735699 0.000000 0.875494
O O5 0.250332 0.116982 0.755198
O O6 0.063517 0.087371 0.835583
O O7 0.054998 0.138251 0.670618
O O8 0.122581 0.000000 0.708527
O O9 0.185591 0.760959 0.275862
O O10 0.069263 0.665325 0.167196
O O11 0.067465 0.638348 0.333348
O O12 0.454133 0.721203 0.095274
O O13 0.500000 0.598083 0.000000
O O14 0.160087 0.878692 0.386297
O O15 0.000000 0.892481 0.500000
O O16 0.048955 0.759272 0.428007
O O17 0.500000 0.843620 0.000000
O O18 0.860864 0.310735 0.376840
O O19 0.500000 0.129282 0.500000
#
# Coordination Sequence:
#
# PCOD8107728 Si02
#       8
#     8   8   8   8   8   8   8   8
#     4  12  25  43  67  96 133 174 217 267 324 387
#     4  12  25  41  60  89 132 170 208 260 324 385
#     4  11  22  40  64  90 127 165 215 262 318 383
#     4  11  25  44  70  96 126 167 222 268 320 382
#     4  10  22  36  62  95 123 158 209 266 319 380
#     4  11  25  43  70  97 128 169 217 267 322 385
#     4  11  20  40  67  89 125 167 210 265 315 382
#     4  10  21  37  66  96 120 158 213 271 319 372
#
# _framework density 20.649327
#
# number of rings (size 3 to 8) (size 9 to 14) (size 15 to 20)
#    0.000    1.000    5.000    1.875    3.500    4.500 
#    0.000    0.000    0.000    0.750    0.000    0.000 
#    0.000    0.000    0.000    0.000    0.000    0.000 
#
# Total GULP energy -396687.024008 kJ/mol
# GULP energy per Si atom -12396.469500 kJ/mol
# Density = 2.060233 g / cm^3
# Si number density = 20.649327 Si / 1000 Ang^3
#
#
#
# Elastic Constant Matrix: (Units=GPa)
#
#
# Indices 1 2 3 4 5 6 
#
# 1 142.1124 27.8617 66.1595 0.0000 -19.3275 0.0000
# 2 27.8617 63.8851 13.1560 0.0000 -12.9687 0.0000
# 3 66.1595 13.1560 169.2156 0.0000 -14.7352 0.0000
# 4 0.0000 0.0000 0.0000 6.3373 0.0000 -0.9751
# 5 -19.3275 -12.9687 -14.7352 0.0000 31.7378 0.0000
# 6 0.0000 0.0000 0.0000 -0.9751 0.0000 6.8726
#
#
#
# Elastic Compliance Matrix: (Units=1/GPa)
#
#
# Indices 1 2 3 4 5 6 
#
# 1 0.009526 -0.002853 -0.003230 0.000000 0.003136 0.000000
# 2 -0.002853 0.018015 0.000213 0.000000 0.005723 0.000000
# 3 -0.003230 0.000213 0.007287 0.000000 0.001503 0.000000
# 4 0.000000 0.000000 0.000000 0.161319 0.000000 0.022887
# 5 0.003136 0.005723 0.001503 0.000000 0.036454 0.000000
# 6 0.000000 0.000000 0.000000 0.022887 0.000000 0.148753
#
#
# Mechanical properties :
#
#
# Convention : Reuss Voigt Hill
#
# Bulk Modulus (GPa) = 43.31018 65.50749 54.40884
# Shear Modulus (GPa) = 12.47538 26.85857 19.66698
#
# Velocity S-wave (km/s) = 2.46062 3.61043 3.08949
# Velocity P-wave (km/s) = 5.39375 7.01234 6.25562
#
# Compressibility (1/GPa) = 0.02308926
#
# Stress axis : x y z
#
# Youngs Moduli (GPa) = 104.97593 55.50881 137.23713
#
# Poissons Ratio (x) = 0.15836 0.44322
# Poissons Ratio (y) = 0.29948 -0.02925
# Poissons Ratio (z) = 0.33903 -0.01183
#
# Static dielectric constant tensor:
#      x y z
#    x 3.884310 0.000000 -0.251730 
#    y 0.000000 3.339790 0.000000 
#    z -0.251730 0.000000 4.227950 
# 
# 
# High freq. dielectric constant tensor:
#      x y z
#    x 1.820760 0.000000 -0.008720 
#    y 0.000000 1.767990 0.000000 
#    z -0.008720 0.000000 1.826710 
# 
# From -- ./inp_files/206710.got.cif
#   From: 2010.06.25/outbox.cif.g09.slc.cpg/sg12_104_cif.got.tgz:206710.got - 2010.06.28 00:19:55.
