data_PCOD8107077
_publ_section_title
;
Structure prediction by ZEFSAII (Michael W. Deem and Ramdas Pophale) SiO2 
 PCOD8107077
Probable space group: C 2/M
;
_chemical_formula_sum "Si O2"
_cell_formula_units_Z 64
_cell_length_a 14.692851
_cell_length_b 9.096805
_cell_length_c 33.947296
_cell_angle_alpha 90.000000
_cell_angle_beta 49.722109
_cell_angle_gamma 90.000000
_cell_volume 3461.608309
_symmetry_space_group_name_H-M "C 2/M"
_symmetry_group_IT_number 12
_symmetry_cell_setting 'monoclinic'
loop_
_space_group_symop_operation_xyz
x,y,z
-x,y,-z
-x,-y,-z
x,-y,z
1/2+x,1/2+y,z
1/2-x,1/2+y,-z
1/2-x,1/2-y,-z
1/2+x,1/2-y,z
loop_
_atom_site_type_symbol
_atom_site_label
_atom_site_fract_x
_atom_site_fract_y
_atom_site_fract_z
Si Si1 0.151679 0.326248 0.500084
Si Si2 0.063308 0.829827 0.865836
Si Si3 0.644637 0.665977 0.133778
Si Si4 0.775292 0.170149 0.762236
Si Si5 0.381561 0.173384 0.579324
Si Si6 0.083245 0.330730 0.941321
Si Si7 0.725275 0.831776 0.687038
Si Si8 0.953293 0.326698 0.764848
O O1 0.167394 0.500000 0.500483
O O2 0.250000 0.250000 0.500000
O O3 0.166627 0.277692 0.450232
O O4 0.017807 0.275784 0.549612
O O5 0.159459 0.745019 0.812911
O O6 0.054648 0.767920 0.911864
O O7 0.934410 0.805362 0.882534
O O8 0.100586 0.000000 0.856858
O O9 0.625073 0.500000 0.155272
O O10 0.780705 0.691339 0.083110
O O11 0.611754 0.779450 0.177059
O O12 0.782394 0.190739 0.713665
O O13 0.894509 0.245897 0.744429
O O14 0.771053 0.000000 0.775694
O O15 0.296144 0.237453 0.636000
O O16 0.377197 0.000000 0.582949
O O17 0.056295 0.500000 0.938233
O O18 0.000000 0.275541 0.000000
O O19 0.589847 0.776331 0.727261
O O20 0.731059 0.000000 0.671839
O O21 0.939154 0.500000 0.764200
#
# Coordination Sequence:
#
# PCOD8107077 Si02
#       8
#     8   8   8   8   8   8   8   8
#     4   9  19  37  60  86 114 151 195 238 285 340
#     4  11  22  36  58  86 112 144 190 236 280 337
#     4  10  21  37  58  83 113 148 186 229 281 341
#     4  11  22  38  57  81 113 151 189 232 286 342
#     4   9  20  38  58  82 117 154 191 235 286 338
#     4  10  22  40  60  83 114 152 190 234 289 343
#     4  10  23  39  56  83 120 152 190 236 285 340
#     4  11  22  37  57  84 113 148 191 235 281 337
#
# _framework density 18.488515
#
# number of rings (size 3 to 8) (size 9 to 14) (size 15 to 20)
#    0.000    1.875    2.500    1.875    0.000    5.250 
#    0.000    6.250    0.000    0.000    0.000    0.000 
#    0.000    0.000    0.000    0.000    0.000    0.000 
#
# Total GULP energy -396860.638183 kJ/mol
# GULP energy per Si atom -12401.894943 kJ/mol
# Density = 1.844643 g / cm^3
# Si number density = 18.488515 Si / 1000 Ang^3
#
#
#
# Elastic Constant Matrix: (Units=GPa)
#
#
# Indices 1 2 3 4 5 6 
#
# 1 110.5605 36.0852 10.7550 0.0000 3.5347 -0.0001
# 2 36.0852 72.6387 26.8594 -0.0003 3.2909 -0.0004
# 3 10.7550 26.8594 76.4968 0.0000 -0.5044 0.0000
# 4 0.0000 -0.0003 0.0000 33.6647 0.0000 2.1785
# 5 3.5347 3.2909 -0.5044 0.0000 21.5487 -0.0001
# 6 -0.0001 -0.0004 0.0000 2.1785 -0.0001 32.8105
#
#
#
# Elastic Compliance Matrix: (Units=1/GPa)
#
#
# Indices 1 2 3 4 5 6 
#
# 1 0.010825 -0.005482 0.000397 0.000000 -0.000929 0.000000
# 2 -0.005482 0.018738 -0.005822 0.000000 -0.002099 0.000000
# 3 0.000397 -0.005822 0.015069 0.000000 0.001177 0.000000
# 4 0.000000 0.000000 0.000000 0.029833 0.000000 -0.001981
# 5 -0.000929 -0.002099 0.001177 0.000000 0.046907 0.000000
# 6 0.000000 0.000000 0.000000 -0.001981 0.000000 0.030610
#
#
# Mechanical properties :
#
#
# Convention : Reuss Voigt Hill
#
# Bulk Modulus (GPa) = 43.82795 45.23279 44.53037
# Shear Modulus (GPa) = 27.56294 30.00455 28.78374
#
# Velocity S-wave (km/s) = 3.86529 4.03286 3.94997
# Velocity P-wave (km/s) = 6.60891 6.79733 6.70378
#
# Compressibility (1/GPa) = 0.02281649
#
# Stress axis : x y z
#
# Youngs Moduli (GPa) = 92.37633 53.36668 66.36254
#
# Poissons Ratio (x) = 0.29258 -0.02634
# Poissons Ratio (y) = 0.50644 0.38639
# Poissons Ratio (z) = -0.03666 0.31072
#
# Static dielectric constant tensor:
#      x y z
#    x 3.724260 0.000000 -0.039360 
#    y 0.000000 3.416100 0.000000 
#    z -0.039360 0.000000 3.374060 
# 
# 
# High freq. dielectric constant tensor:
#      x y z
#    x 1.732800 0.000000 -0.000910 
#    y 0.000000 1.719040 0.000000 
#    z -0.000910 0.000000 1.712230 
# 
# From -- ./inp_files/375411.got.cif
#   From: 2010.06.25/outbox.cif.g09.slc.cpg/sg12_188_cif.got.tgz:375411.got - 2010.06.28 00:19:55.
