data_PCOD8107739
_publ_section_title
;
Structure prediction by ZEFSAII (Michael W. Deem and Ramdas Pophale) SiO2 
 PCOD8107739
Probable space group: C 2/M
;
_chemical_formula_sum "Si O2"
_cell_formula_units_Z 64
_cell_length_a 9.247918
_cell_length_b 23.537035
_cell_length_c 15.263154
_cell_angle_alpha 90.000000
_cell_angle_beta 88.603485
_cell_angle_gamma 90.000000
_cell_volume 3321.322087
_symmetry_space_group_name_H-M "C 2/M"
_symmetry_group_IT_number 12
_symmetry_cell_setting 'monoclinic'
loop_
_space_group_symop_operation_xyz
x,y,z
-x,y,-z
-x,-y,-z
x,-y,z
1/2+x,1/2+y,z
1/2-x,1/2+y,-z
1/2-x,1/2-y,-z
1/2+x,1/2-y,z
loop_
_atom_site_type_symbol
_atom_site_label
_atom_site_fract_x
_atom_site_fract_y
_atom_site_fract_z
Si Si1 0.230849 0.737135 0.099933
Si Si2 0.916946 0.567093 0.417150
Si Si3 0.586524 0.566452 0.410837
Si Si4 0.098435 0.434403 0.079265
Si Si5 0.586866 0.875046 0.262598
Si Si6 0.532440 0.759672 0.785746
Si Si7 0.114370 0.120082 0.921245
Si Si8 0.923095 0.865518 0.265201
O O1 0.315011 0.775482 0.170724
O O2 0.287270 0.673266 0.111539
O O3 0.065408 0.747267 0.125718
O O4 0.250000 0.750000 0.000000
O O5 0.924409 0.500000 0.420615
O O6 0.750915 0.587291 0.421091
O O7 0.000000 0.593216 0.500000
O O8 0.995411 0.586359 0.328338
O O9 0.500000 0.580251 0.500000
O O10 0.577149 0.500000 0.387168
O O11 0.518827 0.602178 0.333714
O O12 0.066508 0.500000 0.099209
O O13 0.058342 0.398131 0.165246
O O14 0.269264 0.427526 0.051509
O O15 0.000000 0.412471 0.000000
O O16 0.527628 0.810546 0.272882
O O17 0.754277 0.877170 0.287641
O O18 0.540559 0.701796 0.729288
O O19 0.033589 0.106735 0.830647
O O20 0.000000 0.131597 0.000000
#
# Coordination Sequence:
#
# PCOD8107739 Si02
#       8
#     8   8   8   8   8   8   8   8
#     4  11  21  34  56  82 113 156 207 258 301 347
#     4  10  22  40  65  95 119 148 196 247 297 359
#     4  10  22  41  68  97 121 154 196 243 299 359
#     4  10  22  38  55  81 116 158 206 251 301 361
#     4  11  22  39  60  84 120 165 198 248 307 359
#     4  11  21  37  54  88 118 157 204 253 304 361
#     4  10  21  38  53  83 118 158 205 248 295 360
#     4  10  22  39  57  89 123 157 200 250 303 354
#
# _framework density 19.269435999999999
#
# number of rings (size 3 to 8) (size 9 to 14) (size 15 to 20)
#    0.000    1.625    3.750    3.000    3.500    4.750 
#    0.000    1.875    0.000    3.000    0.000    0.000 
#    0.000    0.000    0.000    0.000    0.000    0.000 
#
# Total GULP energy -396672.573437 kJ/mol
# GULP energy per Si atom -12396.017920 kJ/mol
# Density = 1.922558 g / cm^3
# Si number density = 19.269436 Si / 1000 Ang^3
#
#
#
# Elastic Constant Matrix: (Units=GPa)
#
#
# Indices 1 2 3 4 5 6 
#
# 1 106.0605 38.1297 61.4907 0.0000 8.6285 0.0000
# 2 38.1297 47.6106 30.9803 0.0000 17.2324 0.0000
# 3 61.4907 30.9803 111.4691 0.0000 16.2331 0.0000
# 4 0.0000 0.0000 0.0000 28.7987 0.0000 -1.7833
# 5 8.6285 17.2324 16.2331 0.0000 40.2314 0.0000
# 6 0.0000 0.0000 0.0000 -1.7833 0.0000 30.4627
#
#
#
# Elastic Compliance Matrix: (Units=1/GPa)
#
#
# Indices 1 2 3 4 5 6 
#
# 1 0.016876 -0.010278 -0.006977 0.000000 0.003598 0.000000
# 2 -0.010278 0.035055 -0.002345 0.000000 -0.011865 0.000000
# 3 -0.006977 -0.002345 0.013926 0.000000 -0.003118 0.000000
# 4 0.000000 0.000000 0.000000 0.034850 0.000000 0.002040
# 5 0.003598 -0.011865 -0.003118 0.000000 0.030425 0.000000
# 6 0.000000 0.000000 0.000000 0.002040 0.000000 0.032946
#
#
# Mechanical properties :
#
#
# Convention : Reuss Voigt Hill
#
# Bulk Modulus (GPa) = 37.51373 58.48239 47.99806
# Shear Modulus (GPa) = 23.56676 28.86788 26.21732
#
# Velocity S-wave (km/s) = 3.50095 3.87475 3.69259
# Velocity P-wave (km/s) = 5.98770 7.10169 6.56835
#
# Compressibility (1/GPa) = 0.02665690
#
# Stress axis : x y z
#
# Youngs Moduli (GPa) = 59.25677 28.52639 71.80962
#
# Poissons Ratio (x) = 0.29318 0.50100
# Poissons Ratio (y) = 0.60902 0.16843
# Poissons Ratio (z) = 0.41342 0.06691
#
# Static dielectric constant tensor:
#      x y z
#    x 3.698040 0.000000 0.003850 
#    y 0.000000 3.568330 0.000000 
#    z 0.003850 0.000000 3.430820 
# 
# 
# High freq. dielectric constant tensor:
#      x y z
#    x 1.763900 0.000000 0.004370 
#    y 0.000000 1.737740 0.000000 
#    z 0.004370 0.000000 1.743730 
# 
# From -- ./inp_files/198884.got.cif
#   From: 2010.06.25/outbox.cif.g09.slc.cpg/sg12_100_cif.got.tgz:198884.got - 2010.06.28 00:19:55.
