data_PCOD8107659
_publ_section_title
;
Structure prediction by ZEFSAII (Michael W. Deem and Ramdas Pophale) SiO2 
 PCOD8107659
Probable space group: C 2/M
;
_chemical_formula_sum "Si O2"
_cell_formula_units_Z 64
_cell_length_a 18.337608
_cell_length_b 14.158245
_cell_length_c 11.979363
_cell_angle_alpha 90.000000
_cell_angle_beta 89.992645
_cell_angle_gamma 90.000000
_cell_volume 3110.182186
_symmetry_space_group_name_H-M "C 2/M"
_symmetry_group_IT_number 12
_symmetry_cell_setting 'monoclinic'
loop_
_space_group_symop_operation_xyz
x,y,z
-x,y,-z
-x,-y,-z
x,-y,z
1/2+x,1/2+y,z
1/2-x,1/2+y,-z
1/2-x,1/2-y,-z
1/2+x,1/2-y,z
loop_
_atom_site_type_symbol
_atom_site_label
_atom_site_fract_x
_atom_site_fract_y
_atom_site_fract_z
Si Si1 0.692829 0.894098 0.760564
Si Si2 0.192472 0.394102 0.238795
Si Si3 0.858421 0.889104 0.774757
Si Si4 0.417116 0.761331 0.629024
Si Si5 0.630608 0.895894 0.999610
Si Si6 0.416671 0.761284 0.371698
Si Si7 0.858069 0.889068 0.225774
Si Si8 0.918113 0.806377 0.000257
O O1 0.775999 0.864152 0.738454
O O2 0.682361 0.887150 0.892857
O O3 0.636688 0.829689 0.694627
O O4 0.679152 0.000000 0.717239
O O5 0.178910 0.500000 0.282243
O O6 0.135974 0.329798 0.304202
O O7 0.275533 0.363857 0.261291
O O8 0.182315 0.387375 0.106427
O O9 0.910137 0.843649 0.680373
O O10 0.873497 0.000000 0.781087
O O11 0.874709 0.842412 0.893449
O O12 0.393913 0.759276 0.500457
O O13 0.500251 0.796452 0.643346
O O14 0.574866 0.808157 0.999678
O O15 0.591018 0.000000 0.999477
O O16 0.409502 0.656251 0.320583
O O17 0.874958 0.842459 0.107260
O O18 0.872947 0.000000 0.219613
O O19 0.000000 0.847305 0.000000
#
# Coordination Sequence:
#
# PCOD8107659 Si02
#       8
#     8   8   8   8   8   8   8   8
#     4  10  22  41  66  95 126 162 205 257 316 374
#     4  10  22  41  66  95 126 162 205 257 316 374
#     4  11  24  41  64  94 127 166 211 258 308 368
#     4  11  25  43  63  90 125 167 212 260 317 374
#     4  10  21  37  62  97 131 161 197 247 311 378
#     4  11  25  43  63  90 125 167 212 260 317 374
#     4  11  24  41  64  94 127 166 211 258 308 368
#     4  12  24  38  63  98 133 170 206 250 313 378
#
# _framework density 20.577573999999998
#
# number of rings (size 3 to 8) (size 9 to 14) (size 15 to 20)
#    0.000    1.250    2.500    2.625    0.000    9.250 
#    0.000    7.500    0.000    0.000    0.000    0.000 
#    0.000    0.000    0.000    0.000    0.000    0.000 
#
# Total GULP energy -396810.975872 kJ/mol
# GULP energy per Si atom -12400.342996 kJ/mol
# Density = 2.053074 g / cm^3
# Si number density = 20.577574 Si / 1000 Ang^3
#
#
#
# Elastic Constant Matrix: (Units=GPa)
#
#
# Indices 1 2 3 4 5 6 
#
# 1 98.5972 55.3615 47.1830 0.0000 0.8409 0.0000
# 2 55.3615 135.0277 56.8885 0.0000 0.6486 0.0000
# 3 47.1830 56.8885 141.1790 0.0000 1.1822 0.0000
# 4 0.0000 0.0000 0.0000 -1.7312 0.0000 0.2286
# 5 0.8409 0.6486 1.1822 0.0000 22.3690 0.0000
# 6 0.0000 0.0000 0.0000 0.2286 0.0000 24.1197
#
#
#
# Elastic Compliance Matrix: (Units=1/GPa)
#
#
# Indices 1 2 3 4 5 6 
#
# 1 0.014077 -0.004564 -0.002864 0.000000 -0.000246 0.000000
# 2 -0.004564 0.010400 -0.002665 0.000000 0.000011 0.000000
# 3 -0.002864 -0.002665 0.009117 0.000000 -0.000297 0.000000
# 4 0.000000 0.000000 0.000000 -0.576902 0.000000 0.005467
# 5 -0.000246 0.000011 -0.000297 0.000000 0.044729 0.000000
# 6 0.000000 0.000000 0.000000 0.005467 0.000000 0.041408
#
#
# Mechanical properties :
#
#
# Convention : Reuss Voigt Hill
#
# Bulk Modulus (GPa) = 74.58268 77.07444 75.82856
# Shear Modulus (GPa) = -11.56030 23.30956 5.87463
#
# Velocity S-wave (km/s) = -2.37278 3.36931 1.69147
# Velocity P-wave (km/s) = 5.36810 7.25763 6.38317
#
# Compressibility (1/GPa) = 0.01340794
#
# Stress axis : x y z
#
# Youngs Moduli (GPa) = 71.03566 96.15268 109.68772
#
# Poissons Ratio (x) = 0.43885 0.31410
# Poissons Ratio (y) = 0.32422 0.29237
# Poissons Ratio (z) = 0.20342 0.25629
#
# Static dielectric constant tensor:
#      x y z
#    x 3.646160 0.000000 0.001700 
#    y 0.000000 4.059690 0.000000 
#    z 0.001700 0.000000 3.738250 
# 
# 
# High freq. dielectric constant tensor:
#      x y z
#    x 1.804900 0.000000 0.000030 
#    y 0.000000 1.819100 0.000000 
#    z 0.000030 0.000000 1.802530 
# 
# From -- ./inp_files/156617.got.cif
#   From: 2010.06.25/outbox.cif.g09.slc.cpg/sg12_79_cif.got.tgz:156617.got - 2010.06.28 00:19:55.
