data_PCOD8107996
_publ_section_title
;
Structure prediction by ZEFSAII (Michael W. Deem and Ramdas Pophale) SiO2 
 PCOD8107996
Probable space group: C 2/M
;
_chemical_formula_sum "Si O2"
_cell_formula_units_Z 64
_cell_length_a 15.857476
_cell_length_b 27.355562
_cell_length_c 12.403422
_cell_angle_alpha 90.000000
_cell_angle_beta 36.729329
_cell_angle_gamma 90.000000
_cell_volume 3217.719483
_symmetry_space_group_name_H-M "C 2/M"
_symmetry_group_IT_number 12
_symmetry_cell_setting 'monoclinic'
loop_
_space_group_symop_operation_xyz
x,y,z
-x,y,-z
-x,-y,-z
x,-y,z
1/2+x,1/2+y,z
1/2-x,1/2+y,-z
1/2-x,1/2-y,-z
1/2+x,1/2-y,z
loop_
_atom_site_type_symbol
_atom_site_label
_atom_site_fract_x
_atom_site_fract_y
_atom_site_fract_z
Si Si1 0.508787 0.686611 0.704045
Si Si2 0.043962 0.653618 0.722096
Si Si3 0.026594 0.942935 0.096181
Si Si4 0.731886 0.615641 0.032725
Si Si5 0.160868 0.055765 0.316513
Si Si6 0.406351 0.771305 0.506062
Si Si7 0.596133 0.244157 0.805921
Si Si8 0.697331 0.594705 0.504660
O O1 0.354315 0.665985 0.884773
O O2 0.491559 0.725947 0.627927
O O3 0.577475 0.715996 0.732076
O O4 0.613844 0.643763 0.560071
O O5 0.113491 0.688011 0.562508
O O6 0.049738 0.688378 0.822458
O O7 0.144543 0.606577 0.621141
O O8 0.891625 0.631882 0.848508
O O9 0.889840 0.933127 0.311942
O O10 0.166594 0.918232 0.004485
O O11 0.057691 0.000000 0.061559
O O12 0.000000 0.923907 0.000000
O O13 0.723614 0.589792 0.158179
O O14 0.227675 0.063166 0.365972
O O15 0.000000 0.069659 0.500000
O O16 0.181934 0.000000 0.257010
O O17 0.500000 0.798179 0.500000
O O18 0.255284 0.747531 0.687075
O O19 0.500000 0.262729 0.000000
#
# Coordination Sequence:
#
# PCOD8107996 Si02
#       8
#     8   8   8   8   8   8   8   8
#     4  10  21  38  59  84 117 163 215 244 312 366
#     4  11  25  43  56  93 130 167 216 264 321 369
#     4  10  22  43  69  95 122 161 210 258 316 390
#     4  11  25  38  66  95 126 164 209 267 310 395
#     4  11  22  39  66  98 126 158 204 268 326 380
#     4  11  24  39  60  85 128 171 213 272 310 370
#     4  11  24  40  61  84 129 170 212 272 308 369
#     4  11  21  40  67  90 126 167 209 260 318 382
#
# _framework density 19.889862000000001
#
# number of rings (size 3 to 8) (size 9 to 14) (size 15 to 20)
#    0.000    1.250    5.000    1.500    7.000    4.000 
#    0.000    3.125    0.000    1.500    0.000    0.000 
#    0.000    0.000    0.000    0.000    0.000    0.000 
#
# Total GULP energy -396540.131836 kJ/mol
# GULP energy per Si atom -12391.879120 kJ/mol
# Density = 1.984459 g / cm^3
# Si number density = 19.889862 Si / 1000 Ang^3
#
#
#
# Elastic Constant Matrix: (Units=GPa)
#
#
# Indices 1 2 3 4 5 6 
#
# 1 111.1640 27.0072 56.3797 -0.0001 -13.0040 0.0000
# 2 27.0072 65.7820 30.3008 -0.0001 -8.8657 0.0000
# 3 56.3797 30.3008 79.2112 -0.0003 -14.8446 0.0001
# 4 -0.0001 -0.0001 -0.0003 25.1454 0.0001 -11.0082
# 5 -13.0040 -8.8657 -14.8446 0.0001 47.9778 0.0000
# 6 0.0000 0.0000 0.0001 -11.0082 0.0000 20.4907
#
#
#
# Elastic Compliance Matrix: (Units=1/GPa)
#
#
# Indices 1 2 3 4 5 6 
#
# 1 0.014207 -0.001387 -0.009456 0.000000 0.000669 0.000000
# 2 -0.001387 0.018666 -0.005920 0.000000 0.001241 0.000000
# 3 -0.009456 -0.005920 0.022223 0.000000 0.003219 0.000000
# 4 0.000000 0.000000 0.000000 0.051998 0.000000 0.027935
# 5 0.000669 0.001241 0.003219 0.000000 0.022250 0.000000
# 6 0.000000 0.000000 0.000000 0.027935 0.000000 0.063810
#
#
# Mechanical properties :
#
#
# Convention : Reuss Voigt Hill
#
# Bulk Modulus (GPa) = 46.36366 53.72585 50.04475
# Shear Modulus (GPa) = 21.37952 28.22075 24.80013
#
# Velocity S-wave (km/s) = 3.28212 3.77085 3.53494
# Velocity P-wave (km/s) = 6.14197 6.78450 6.47121
#
# Compressibility (1/GPa) = 0.02156862
#
# Stress axis : x y z
#
# Youngs Moduli (GPa) = 70.38907 53.57476 44.99854
#
# Poissons Ratio (x) = 0.07430 0.42551
# Poissons Ratio (y) = 0.09762 0.26641
# Poissons Ratio (z) = 0.66560 0.31718
#
# Static dielectric constant tensor:
#      x y z
#    x 3.885370 0.000000 0.191040 
#    y 0.000000 3.659870 0.000000 
#    z 0.191040 0.000000 3.671610 
# 
# 
# High freq. dielectric constant tensor:
#      x y z
#    x 1.781120 0.000000 0.002190 
#    y 0.000000 1.776250 0.000000 
#    z 0.002190 0.000000 1.763710 
# 
# From -- ./inp_files/149731.got.cif
#   From: 2010.06.25/outbox.cif.g09.slc.cpg/sg12_75_cif.got.tgz:149731.got - 2010.06.28 00:19:55.
