data_PCOD8107902
_publ_section_title
;
Structure prediction by ZEFSAII (Michael W. Deem and Ramdas Pophale) SiO2 
 PCOD8107902
Probable space group: C 2/M
;
_chemical_formula_sum "Si O2"
_cell_formula_units_Z 56
_cell_length_a 13.962272
_cell_length_b 21.051913
_cell_length_c 9.668344
_cell_angle_alpha 90.000000
_cell_angle_beta 117.227963
_cell_angle_gamma 90.000000
_cell_volume 2526.945523
_symmetry_space_group_name_H-M "C 2/M"
_symmetry_group_IT_number 12
_symmetry_cell_setting 'monoclinic'
loop_
_space_group_symop_operation_xyz
x,y,z
-x,y,-z
-x,-y,-z
x,-y,z
1/2+x,1/2+y,z
1/2-x,1/2+y,-z
1/2-x,1/2-y,-z
1/2+x,1/2-y,z
loop_
_atom_site_type_symbol
_atom_site_label
_atom_site_fract_x
_atom_site_fract_y
_atom_site_fract_z
Si Si1 0.399661 0.353070 0.832368
Si Si2 0.491010 0.426505 0.331726
Si Si3 0.236721 0.879601 0.812809
Si Si4 0.732038 0.760617 0.826929
Si Si5 0.702263 0.069382 0.669167
Si Si6 0.901989 0.372010 0.171738
Si Si7 0.377864 0.074133 0.671880
O O1 0.434804 0.374878 0.700887
O O2 0.340173 0.284775 0.815427
O O3 0.305435 0.400684 0.813477
O O4 0.500000 0.358974 0.000000
O O5 0.500000 0.411512 0.500000
O O6 0.524155 0.500000 0.321396
O O7 0.368617 0.415562 0.200732
O O8 0.203907 0.807914 0.744079
O O9 0.278242 0.918794 0.709486
O O10 0.328489 0.878530 0.989236
O O11 0.630597 0.809569 0.756951
O O12 0.750000 0.750000 0.000000
O O13 0.611767 0.069735 0.728821
O O14 0.660219 0.102425 0.501118
O O15 0.734849 0.000000 0.643227
O O16 0.026690 0.378783 0.210995
O O17 0.412826 0.000000 0.689976
#
# Coordination Sequence:
#
# PCOD8107902 Si02
#       7
#     8   8   8   8   8   8   8
#     4  11  22  38  65  93 118 158 211 256 302 370
#     4  11  24  42  62  89 130 170 203 254 320 368
#     4  11  23  40  62  87 120 160 205 250 294 361
#     4   9  21  41  62  90 122 156 200 256 316 358
#     4  10  21  38  58  86 125 157 191 247 307 361
#     4  10  21  38  61  87 115 154 203 249 296 358
#     4  11  23  38  59  89 124 159 192 240 311 367
#
# _framework density 22.161142000000002
#
# number of rings (size 3 to 8) (size 9 to 14) (size 15 to 20)
#    0.000    1.571    0.000    5.571    0.000   12.000 
#    0.000    9.286    0.000    1.714    0.000    0.000 
#    0.000    0.000    0.000    0.000    0.000    0.000 
#
# Total GULP energy -346877.617235 kJ/mol
# GULP energy per Si atom -12388.486330 kJ/mol
# Density = 2.211070 g / cm^3
# Si number density = 22.161142 Si / 1000 Ang^3
#
#
#
# Elastic Constant Matrix: (Units=GPa)
#
#
# Indices 1 2 3 4 5 6 
#
# 1 94.3031 35.8400 1.3167 0.0000 -12.2967 0.0000
# 2 35.8400 94.1349 33.8461 0.0000 -3.4066 0.0000
# 3 1.3167 33.8461 44.5791 0.0000 -7.3746 0.0000
# 4 0.0000 0.0000 0.0000 23.7945 0.0000 -13.7221
# 5 -12.2967 -3.4066 -7.3746 0.0000 41.1438 0.0000
# 6 0.0000 0.0000 0.0000 -13.7221 0.0000 21.0420
#
#
#
# Elastic Compliance Matrix: (Units=1/GPa)
#
#
# Indices 1 2 3 4 5 6 
#
# 1 0.013858 -0.007202 0.005818 0.000000 0.004588 0.000000
# 2 -0.007202 0.018380 -0.014270 0.000000 -0.003188 0.000000
# 3 0.005818 -0.014270 0.034201 0.000000 0.006687 0.000000
# 4 0.000000 0.000000 0.000000 0.067359 0.000000 0.043927
# 5 0.004588 -0.003188 0.006687 0.000000 0.026611 0.000000
# 6 0.000000 0.000000 0.000000 0.043927 0.000000 0.076170
#
#
# Mechanical properties :
#
#
# Convention : Reuss Voigt Hill
#
# Bulk Modulus (GPa) = 28.46474 41.66918 35.06696
# Shear Modulus (GPa) = 17.88287 27.99701 22.93994
#
# Velocity S-wave (km/s) = 2.84376 3.55820 3.22085
# Velocity P-wave (km/s) = 4.86364 5.97701 5.44884
#
# Compressibility (1/GPa) = 0.03513118
#
# Stress axis : x y z
#
# Youngs Moduli (GPa) = 72.15899 54.40599 29.23932
#
# Poissons Ratio (x) = 0.39183 -0.17011
# Poissons Ratio (y) = 0.51969 0.41724
# Poissons Ratio (z) = -0.41980 0.77636
#
# Static dielectric constant tensor:
#      x y z
#    x 4.205050 0.000000 -0.131960 
#    y 0.000000 4.381930 0.000000 
#    z -0.131960 0.000000 3.799060 
# 
# 
# High freq. dielectric constant tensor:
#      x y z
#    x 1.885470 0.000000 -0.005900 
#    y 0.000000 1.862950 0.000000 
#    z -0.005900 0.000000 1.860340 
# 
# From -- ./inp_files/65959.got.cif
#   From: 2010.06.25/outbox.cif.g09.slc.cpg/sg12_33_cif.got.tgz:65959.got - 2010.06.28 00:19:55.
