data_PCOD8107184
_publ_section_title
;
Structure prediction by ZEFSAII (Michael W. Deem and Ramdas Pophale) SiO2 
 PCOD8107184
Probable space group: C 2/M
;
_chemical_formula_sum "Si O2"
_cell_formula_units_Z 48
_cell_length_a 26.270164
_cell_length_b 18.327910
_cell_length_c 10.108614
_cell_angle_alpha 90.000000
_cell_angle_beta 151.614369
_cell_angle_gamma 90.000000
_cell_volume 2313.821211
_symmetry_space_group_name_H-M "C 2/M"
_symmetry_group_IT_number 12
_symmetry_cell_setting 'monoclinic'
loop_
_space_group_symop_operation_xyz
x,y,z
-x,y,-z
-x,-y,-z
x,-y,z
1/2+x,1/2+y,z
1/2-x,1/2+y,-z
1/2-x,1/2-y,-z
1/2+x,1/2-y,z
loop_
_atom_site_type_symbol
_atom_site_label
_atom_site_fract_x
_atom_site_fract_y
_atom_site_fract_z
Si Si1 0.502408 0.914501 0.858783
Si Si2 0.912578 0.152330 0.199724
Si Si3 0.182940 0.294341 0.951623
Si Si4 0.904424 0.818771 0.885784
Si Si5 0.200594 0.670403 0.271810
Si Si6 0.185673 0.413408 0.759214
O O1 0.399676 0.885710 0.544054
O O2 0.494491 0.000000 0.846660
O O3 0.500000 0.880330 0.000000
O O4 0.614472 0.893143 0.047234
O O5 0.913420 0.239711 0.229911
O O6 0.000000 0.117161 0.500000
O O7 0.939568 0.143248 0.104994
O O8 0.801748 0.111499 0.975138
O O9 0.150936 0.372174 0.815208
O O10 0.250000 0.250000 0.000000
O O11 0.248749 0.307500 0.238220
O O12 0.867047 0.735462 0.815509
O O13 0.798255 0.858965 0.584980
O O14 0.000000 0.825515 0.000000
O O15 0.182715 0.500000 0.777758
#
# Coordination Sequence:
#
# PCOD8107184 Si02
#       6
#     8   8   8   8   8   8
#     4  10  21  37  59  83 114 154 193 244 300 354
#     4  10  22  38  62  90 120 159 197 249 302 355
#     4   9  21  36  58  84 119 152 197 242 301 347
#     4  10  22  36  60  89 118 151 198 245 298 354
#     4  10  21  37  58  86 117 152 191 248 296 354
#     4  10  22  39  61  88 119 158 206 248 295 363
#
# _framework density 20.744904999999999
#
# number of rings (size 3 to 8) (size 9 to 14) (size 15 to 20)
#    0.000    2.167    0.000    1.500    9.333    5.000 
#    0.000    1.667    0.000    1.000    0.000    0.000 
#    0.000    0.000    0.000    0.000    0.000    0.000 
#
# Total GULP energy -297370.326918 kJ/mol
# GULP energy per Si atom -12390.430288 kJ/mol
# Density = 2.069769 g / cm^3
# Si number density = 20.744905 Si / 1000 Ang^3
#
#
#
# Elastic Constant Matrix: (Units=GPa)
#
#
# Indices 1 2 3 4 5 6 
#
# 1 120.7474 29.1128 74.1734 0.0000 -13.1540 0.0000
# 2 29.1128 52.3994 31.8741 0.0000 -11.2246 0.0000
# 3 74.1734 31.8741 193.3158 0.0000 -8.9609 0.0000
# 4 0.0000 0.0000 0.0000 22.4146 0.0000 -1.1120
# 5 -13.1540 -11.2246 -8.9609 0.0000 33.2821 0.0000
# 6 0.0000 0.0000 0.0000 -1.1120 0.0000 22.1352
#
#
#
# Elastic Compliance Matrix: (Units=1/GPa)
#
#
# Indices 1 2 3 4 5 6 
#
# 1 0.011767 -0.003723 -0.003791 0.000000 0.002374 0.000000
# 2 -0.003723 0.023775 -0.002216 0.000000 0.005950 0.000000
# 3 -0.003791 -0.002216 0.006976 0.000000 -0.000367 0.000000
# 4 0.000000 0.000000 0.000000 0.044725 0.000000 0.002247
# 5 0.002374 0.005950 -0.000367 0.000000 0.032892 0.000000
# 6 0.000000 0.000000 0.000000 0.002247 0.000000 0.045290
#
#
# Mechanical properties :
#
#
# Convention : Reuss Voigt Hill
#
# Bulk Modulus (GPa) = 43.36831 70.75370 57.06101
# Shear Modulus (GPa) = 25.96453 30.98653 28.47553
#
# Velocity S-wave (km/s) = 3.54165 3.86903 3.70895
# Velocity P-wave (km/s) = 6.13802 7.35797 6.77551
#
# Compressibility (1/GPa) = 0.02305831
#
# Stress axis : x y z
#
# Youngs Moduli (GPa) = 84.98564 42.06079 143.35459
#
# Poissons Ratio (x) = 0.15659 0.54344
# Poissons Ratio (y) = 0.31640 0.31764
# Poissons Ratio (z) = 0.32217 0.09320
#
# Static dielectric constant tensor:
#      x y z
#    x 3.857170 0.000000 -0.402540 
#    y 0.000000 3.669080 0.000000 
#    z -0.402540 0.000000 4.095830 
# 
# 
# High freq. dielectric constant tensor:
#      x y z
#    x 1.813270 0.000000 -0.016900 
#    y 0.000000 1.780690 0.000000 
#    z -0.016900 0.000000 1.823590 
# 
# From -- ./inp_files/106585.got.cif
#   From: 2010.06.25/outbox.cif.g09.slc.cpg/sg12_54_cif.got.tgz:106585.got - 2010.06.28 00:19:55.
