data_PCOD8107171
_publ_section_title
;
Structure prediction by ZEFSAII (Michael W. Deem and Ramdas Pophale) SiO2 
 PCOD8107171
Probable space group: C 2/M
;
_chemical_formula_sum "Si O2"
_cell_formula_units_Z 64
_cell_length_a 30.038343
_cell_length_b 8.949290
_cell_length_c 17.254460
_cell_angle_alpha 90.000000
_cell_angle_beta 137.052352
_cell_angle_gamma 90.000000
_cell_volume 3160.263733
_symmetry_space_group_name_H-M "C 2/M"
_symmetry_group_IT_number 12
_symmetry_cell_setting 'monoclinic'
loop_
_space_group_symop_operation_xyz
x,y,z
-x,y,-z
-x,-y,-z
x,-y,z
1/2+x,1/2+y,z
1/2-x,1/2+y,-z
1/2-x,1/2-y,-z
1/2+x,1/2-y,z
loop_
_atom_site_type_symbol
_atom_site_label
_atom_site_fract_x
_atom_site_fract_y
_atom_site_fract_z
Si Si1 0.862017 0.832497 0.417539
Si Si2 0.848179 0.823283 0.965450
Si Si3 0.339347 0.169829 0.680783
Si Si4 0.491310 0.668529 0.402404
Si Si5 0.292452 0.169801 0.458827
Si Si6 0.301126 0.826504 0.204871
Si Si7 0.115770 0.672158 0.832156
Si Si8 0.573966 0.676774 0.087191
O O1 0.936332 0.834324 0.540856
O O2 0.825524 0.708172 0.420615
O O3 0.852195 0.777128 0.316686
O O4 0.832995 0.000000 0.389610
O O5 0.772412 0.772139 0.869009
O O6 0.886841 0.761528 0.938651
O O7 0.852803 0.000000 0.974210
O O8 0.882104 0.762377 0.085565
O O9 0.345383 0.189036 0.595481
O O10 0.266004 0.214528 0.607720
O O11 0.390728 0.274257 0.789207
O O12 0.351557 0.000000 0.722508
O O13 0.500000 0.732295 0.500000
O O14 0.461501 0.500000 0.366400
O O15 0.447611 0.777400 0.295946
O O16 0.265567 0.000000 0.422070
O O17 0.319073 0.802022 0.137051
O O18 0.310454 0.000000 0.239001
O O19 0.107580 0.500000 0.843416
O O20 0.573333 0.500000 0.082615
O O21 0.500000 0.739159 0.000000
#
# Coordination Sequence:
#
# PCOD8107171 Si02
#       8
#     8   8   8   8   8   8   8   8
#     4  11  22  35  58  88 116 154 200 239 282 343
#     4  10  22  40  60  83 114 153 194 239 293 353
#     4  10  21  38  61  87 115 151 194 241 295 349
#     4  10  21  39  58  79 113 156 195 233 282 339
#     4  10  21  37  58  87 122 154 187 237 296 349
#     4  10  21  37  58  85 118 155 194 241 298 347
#     4  11  23  37  58  87 117 152 196 246 293 343
#     4  10  22  40  62  86 115 155 199 243 297 355
#
# _framework density 20.251474000000002
#
# number of rings (size 3 to 8) (size 9 to 14) (size 15 to 20)
#    0.000    1.750    1.250    2.625    0.000    6.500 
#    0.000    3.750    0.000    0.000    0.000    0.000 
#    0.000    0.000    0.000    0.000    0.000    0.000 
#
# Total GULP energy -396779.841727 kJ/mol
# GULP energy per Si atom -12399.370054 kJ/mol
# Density = 2.020538 g / cm^3
# Si number density = 20.251474 Si / 1000 Ang^3
#
#
#
# Elastic Constant Matrix: (Units=GPa)
#
#
# Indices 1 2 3 4 5 6 
#
# 1 59.2151 20.6667 24.5387 0.0000 -2.1137 0.0000
# 2 20.6667 26.9632 18.3587 0.0000 -3.5290 0.0000
# 3 24.5387 18.3587 100.2406 0.0000 0.4007 0.0000
# 4 0.0000 0.0000 0.0000 33.3951 0.0000 -3.5790
# 5 -2.1137 -3.5290 0.4007 0.0000 27.4915 0.0000
# 6 0.0000 0.0000 0.0000 -3.5790 0.0000 25.3541
#
#
#
# Elastic Compliance Matrix: (Units=1/GPa)
#
#
# Indices 1 2 3 4 5 6 
#
# 1 0.023740 -0.016302 -0.002825 0.000000 -0.000226 0.000000
# 2 -0.016302 0.054431 -0.006001 0.000000 0.005821 0.000000
# 3 -0.002825 -0.006001 0.011771 0.000000 -0.001159 0.000000
# 4 0.000000 0.000000 0.000000 0.030405 0.000000 0.004292
# 5 -0.000226 0.005821 -0.001159 0.000000 0.037122 0.000000
# 6 0.000000 0.000000 0.000000 0.004292 0.000000 0.040047
#
#
# Mechanical properties :
#
#
# Convention : Reuss Voigt Hill
#
# Bulk Modulus (GPa) = 25.19831 34.83855 30.01843
# Shear Modulus (GPa) = 19.15702 25.43845 22.29774
#
# Velocity S-wave (km/s) = 3.07898 3.54804 3.32180
# Velocity P-wave (km/s) = 5.01097 5.83310 5.43760
#
# Compressibility (1/GPa) = 0.03968521
#
# Stress axis : x y z
#
# Youngs Moduli (GPa) = 42.12335 18.37184 84.95258
#
# Poissons Ratio (x) = 0.29950 0.23998
# Poissons Ratio (y) = 0.68671 0.50983
# Poissons Ratio (z) = 0.11899 0.11026
#
# Static dielectric constant tensor:
#      x y z
#    x 3.797370 0.000000 -0.012960 
#    y 0.000000 3.558810 0.000000 
#    z -0.012960 0.000000 3.632480 
# 
# 
# High freq. dielectric constant tensor:
#      x y z
#    x 1.790600 0.000000 -0.005000 
#    y 0.000000 1.787820 0.000000 
#    z -0.005000 0.000000 1.788760 
# 
# From -- ./inp_files/295836.got.cif
#   From: 2010.06.25/outbox.cif.g09.slc.cpg/sg12_148_cif.got.tgz:295836.got - 2010.06.28 00:19:55.
