data_PCOD8107488
_publ_section_title
;
Structure prediction by ZEFSAII (Michael W. Deem and Ramdas Pophale) SiO2 
 PCOD8107488
Probable space group: C 2/M
;
_chemical_formula_sum "Si O2"
_cell_formula_units_Z 56
_cell_length_a 21.476908
_cell_length_b 14.011236
_cell_length_c 18.273722
_cell_angle_alpha 90.000000
_cell_angle_beta 150.819526
_cell_angle_gamma 90.000000
_cell_volume 2681.051756
_symmetry_space_group_name_H-M "C 2/M"
_symmetry_group_IT_number 12
_symmetry_cell_setting 'monoclinic'
loop_
_space_group_symop_operation_xyz
x,y,z
-x,y,-z
-x,-y,-z
x,-y,z
1/2+x,1/2+y,z
1/2-x,1/2+y,-z
1/2-x,1/2-y,-z
1/2+x,1/2-y,z
loop_
_atom_site_type_symbol
_atom_site_label
_atom_site_fract_x
_atom_site_fract_y
_atom_site_fract_z
Si Si1 0.129360 0.739629 0.599784
Si Si2 0.819641 0.891035 0.233405
Si Si3 0.655336 0.390407 0.365378
Si Si4 0.937870 0.611663 0.704832
Si Si5 0.633750 0.389247 0.173673
Si Si6 0.524954 0.892471 0.946970
Si Si7 0.502061 0.274237 0.322699
O O1 0.147315 0.843576 0.654975
O O2 0.249873 0.671992 0.740946
O O3 0.111780 0.759326 0.496130
O O4 0.000000 0.691231 0.500000
O O5 0.879287 0.827283 0.229793
O O6 0.871391 0.000000 0.285108
O O7 0.669245 0.889027 0.068139
O O8 0.635209 0.500000 0.363329
O O9 0.798643 0.361033 0.532841
O O10 0.624800 0.368190 0.250085
O O11 0.554515 0.334986 0.309883
O O12 0.972822 0.500000 0.734294
O O13 0.033968 0.670969 0.750119
O O14 0.944316 0.649080 0.795898
O O15 0.663653 0.500000 0.188273
O O16 0.500000 0.358150 0.000000
O O17 0.476094 0.000000 0.908496
O O18 0.500000 0.838746 0.000000
#
# Coordination Sequence:
#
# PCOD8107488 Si02
#       7
#     8   8   8   8   8   8   8
#     4  10  23  39  60  91 124 166 210 253 313 378
#     4  10  23  41  59  88 127 162 204 259 312 369
#     4  10  21  37  62  89 120 162 202 252 308 363
#     4  10  21  37  60  89 121 160 205 256 305 360
#     4  10  22  42  66  93 124 159 208 263 311 367
#     4   9  20  38  60  88 122 160 203 246 305 374
#     4  11  22  37  60  88 123 158 206 252 307 375
#
# _framework density 20.887325000000001
#
# number of rings (size 3 to 8) (size 9 to 14) (size 15 to 20)
#    0.000    2.000    1.429    0.857    2.000    5.714 
#    0.000    3.571    0.000    6.857    0.000    0.000 
#    0.000    0.000    0.000    0.000    0.000    0.000 
#
# Total GULP energy -347084.126697 kJ/mol
# GULP energy per Si atom -12395.861668 kJ/mol
# Density = 2.083978 g / cm^3
# Si number density = 20.887325 Si / 1000 Ang^3
#
#
#
# Elastic Constant Matrix: (Units=GPa)
#
#
# Indices 1 2 3 4 5 6 
#
# 1 120.2603 67.0477 59.9563 0.0001 -15.0771 0.0001
# 2 67.0477 94.7640 37.9775 0.0001 3.1176 0.0001
# 3 59.9563 37.9775 129.3588 0.0002 -14.8634 0.0002
# 4 0.0001 0.0001 0.0002 21.0071 0.0001 4.2518
# 5 -15.0771 3.1176 -14.8634 0.0001 41.0058 0.0001
# 6 0.0001 0.0001 0.0002 4.2518 0.0001 37.0615
#
#
#
# Elastic Compliance Matrix: (Units=1/GPa)
#
#
# Indices 1 2 3 4 5 6 
#
# 1 0.016917 -0.010498 -0.004124 0.000000 0.005523 0.000000
# 2 -0.010498 0.018681 -0.001279 0.000000 -0.005744 0.000000
# 3 -0.004124 -0.001279 0.010283 0.000000 0.002308 0.000000
# 4 0.000000 0.000000 0.000000 0.048735 0.000000 -0.005591
# 5 0.005523 -0.005744 0.002308 0.000000 0.027691 0.000000
# 6 0.000000 0.000000 0.000000 -0.005591 0.000000 0.027624
#
#
# Mechanical properties :
#
#
# Convention : Reuss Voigt Hill
#
# Bulk Modulus (GPa) = 71.02744 74.92734 72.97739
# Shear Modulus (GPa) = 26.82057 31.77498 29.29777
#
# Velocity S-wave (km/s) = 3.58727 3.90456 3.74927
# Velocity P-wave (km/s) = 7.15799 7.50183 7.33193
#
# Compressibility (1/GPa) = 0.01407906
#
# Stress axis : x y z
#
# Youngs Moduli (GPa) = 59.11367 53.52897 97.25230
#
# Poissons Ratio (x) = 0.56194 0.40107
# Poissons Ratio (y) = 0.62056 0.12438
# Poissons Ratio (z) = 0.24379 0.06846
#
# Static dielectric constant tensor:
#      x y z
#    x 3.843080 0.000000 -0.169500 
#    y 0.000000 3.963600 0.000000 
#    z -0.169500 0.000000 3.816480 
# 
# 
# High freq. dielectric constant tensor:
#      x y z
#    x 1.816310 0.000000 -0.014370 
#    y 0.000000 1.822120 0.000000 
#    z -0.014370 0.000000 1.814910 
# 
# From -- ./inp_files/284600.got.cif
#   From: 2010.06.25/outbox.cif.g09.slc.cpg/sg12_143_cif.got.tgz:284600.got - 2010.06.28 00:19:55.
