data_PCOD8107584
_publ_section_title
;
Structure prediction by ZEFSAII (Michael W. Deem and Ramdas Pophale) SiO2 
 PCOD8107584
Probable space group: C 2/M
;
_chemical_formula_sum "Si O2"
_cell_formula_units_Z 56
_cell_length_a 23.485231
_cell_length_b 8.791227
_cell_length_c 15.292896
_cell_angle_alpha 90.000000
_cell_angle_beta 61.096497
_cell_angle_gamma 90.000000
_cell_volume 2764.126792
_symmetry_space_group_name_H-M "C 2/M"
_symmetry_group_IT_number 12
_symmetry_cell_setting 'monoclinic'
loop_
_space_group_symop_operation_xyz
x,y,z
-x,y,-z
-x,-y,-z
x,-y,z
1/2+x,1/2+y,z
1/2-x,1/2+y,-z
1/2-x,1/2-y,-z
1/2+x,1/2-y,z
loop_
_atom_site_type_symbol
_atom_site_label
_atom_site_fract_x
_atom_site_fract_y
_atom_site_fract_z
Si Si1 0.446938 0.320251 0.468592
Si Si2 0.664040 0.675289 0.003814
Si Si3 0.569670 0.179394 0.702158
Si Si4 0.324903 0.173695 0.644094
Si Si5 0.016857 0.177359 0.086554
Si Si6 0.290896 0.675213 0.393639
Si Si7 0.784259 0.174964 0.843814
O O1 0.500000 0.261737 0.500000
O O2 0.450965 0.500000 0.456149
O O3 0.461473 0.248916 0.362960
O O4 0.374651 0.273514 0.550840
O O5 0.675247 0.500000 0.970932
O O6 0.590904 0.726954 0.043754
O O7 0.680240 0.708195 0.091990
O O8 0.709405 0.773147 0.905980
O O9 0.525919 0.222594 0.817003
O O10 0.641591 0.239431 0.668657
O O11 0.572709 0.000000 0.688465
O O12 0.251637 0.191455 0.662573
O O13 0.324609 0.229323 0.743658
O O14 0.348654 0.000000 0.621660
O O15 0.005477 0.000000 0.116494
O O16 0.000000 0.216670 0.000000
O O17 0.305171 0.500000 0.405805
O O18 0.250000 0.750000 0.500000
O O19 0.786609 0.000000 0.814323
#
# Coordination Sequence:
#
# PCOD8107584 Si02
#       7
#     8   8   8   8   8   8   8
#     4  11  25  44  67  94 128 169 214 260 311 376
#     4   9  20  40  62  87 120 160 209 258 311 371
#     4  12  26  43  65  95 130 168 209 261 320 379
#     4  11  24  40  63  94 126 161 207 257 311 374
#     4  10  23  43  66  90 122 167 216 262 312 374
#     4  11  23  41  65  91 123 163 207 256 309 365
#     4  10  21  37  61  91 123 160 203 255 313 373
#
# _framework density 20.259563
#
# number of rings (size 3 to 8) (size 9 to 14) (size 15 to 20)
#    0.000    1.429    1.429    3.000    4.000    4.286 
#    0.000    0.000    0.000    0.000    0.000    0.000 
#    0.000    0.000    0.000    0.000    0.000    0.000 
#
# Total GULP energy -347351.678748 kJ/mol
# GULP energy per Si atom -12405.417098 kJ/mol
# Density = 2.021345 g / cm^3
# Si number density = 20.259563 Si / 1000 Ang^3
#
#
#
# Elastic Constant Matrix: (Units=GPa)
#
#
# Indices 1 2 3 4 5 6 
#
# 1 118.9200 45.7935 45.2576 0.0000 -7.2856 0.0000
# 2 45.7935 102.6923 43.9646 0.0000 6.1502 0.0000
# 3 45.2576 43.9646 111.1071 0.0000 0.6828 0.0000
# 4 0.0000 0.0000 0.0000 36.5102 0.0000 -7.3172
# 5 -7.2856 6.1502 0.6828 0.0000 18.9099 0.0000
# 6 0.0000 0.0000 0.0000 -7.3172 0.0000 21.9393
#
#
#
# Elastic Compliance Matrix: (Units=1/GPa)
#
#
# Indices 1 2 3 4 5 6 
#
# 1 0.011560 -0.004188 -0.003088 0.000000 0.005927 0.000000
# 2 -0.004188 0.013498 -0.003599 0.000000 -0.005874 0.000000
# 3 -0.003088 -0.003599 0.011685 0.000000 -0.000441 0.000000
# 4 0.000000 0.000000 0.000000 0.029352 0.000000 0.009789
# 5 0.005927 -0.005874 -0.000441 0.000000 0.057092 0.000000
# 6 0.000000 0.000000 0.000000 0.009789 0.000000 0.048845
#
#
# Mechanical properties :
#
#
# Convention : Reuss Voigt Hill
#
# Bulk Modulus (GPa) = 66.69829 66.97231 66.83530
# Shear Modulus (GPa) = 25.15344 28.65212 26.90278
#
# Velocity S-wave (km/s) = 3.52740 3.76473 3.64800
# Velocity P-wave (km/s) = 7.04155 7.21294 7.12776
#
# Compressibility (1/GPa) = 0.01499289
#
# Stress axis : x y z
#
# Youngs Moduli (GPa) = 86.50466 74.08530 85.57924
#
# Poissons Ratio (x) = 0.31026 0.26428
# Poissons Ratio (y) = 0.36227 0.30801
# Poissons Ratio (z) = 0.26713 0.26664
#
# Static dielectric constant tensor:
#      x y z
#    x 3.980030 0.000000 0.040700 
#    y 0.000000 3.715780 0.000000 
#    z 0.040700 0.000000 3.642970 
# 
# 
# High freq. dielectric constant tensor:
#      x y z
#    x 1.800100 0.000000 0.002690 
#    y 0.000000 1.795790 0.000000 
#    z 0.002690 0.000000 1.797610 
# 
# From -- ./inp_files/238372.got.cif
#   From: 2010.06.25/outbox.cif.g09.slc.cpg/sg12_120_cif.got.tgz:238372.got - 2010.06.28 00:19:55.
