data_PCOD8107751
_publ_section_title
;
Structure prediction by ZEFSAII (Michael W. Deem and Ramdas Pophale) SiO2 
 PCOD8107751
Probable space group: C 2/M
;
_chemical_formula_sum "Si O2"
_cell_formula_units_Z 56
_cell_length_a 22.670699
_cell_length_b 26.059029
_cell_length_c 6.796420
_cell_angle_alpha 90.000000
_cell_angle_beta 132.400160
_cell_angle_gamma 90.000000
_cell_volume 2965.012151
_symmetry_space_group_name_H-M "C 2/M"
_symmetry_group_IT_number 12
_symmetry_cell_setting 'monoclinic'
loop_
_space_group_symop_operation_xyz
x,y,z
-x,y,-z
-x,-y,-z
x,-y,z
1/2+x,1/2+y,z
1/2-x,1/2+y,-z
1/2-x,1/2-y,-z
1/2+x,1/2-y,z
loop_
_atom_site_type_symbol
_atom_site_label
_atom_site_fract_x
_atom_site_fract_y
_atom_site_fract_z
Si Si1 0.209883 0.941609 0.645974
Si Si2 0.278076 0.864343 0.054177
Si Si3 0.582595 0.790875 0.765971
Si Si4 0.174267 0.778237 0.728399
Si Si5 0.409407 0.722797 0.858042
Si Si6 0.312580 0.625423 0.785404
Si Si7 0.587540 0.441797 0.696584
O O1 0.276171 0.921170 0.953932
O O2 0.212654 0.903740 0.467571
O O3 0.123627 0.939690 0.557401
O O4 0.232128 0.000000 0.636195
O O5 0.195390 0.838274 0.783061
O O6 0.354753 0.834723 0.148280
O O7 0.269036 0.862174 0.272371
O O8 0.500000 0.813511 0.500000
O O9 0.598193 0.737101 0.688001
O O10 0.584670 0.775155 0.999809
O O11 0.150148 0.761968 0.453798
O O12 0.250000 0.750000 0.000000
O O13 0.365869 0.675925 0.870656
O O14 0.500000 0.706741 0.000000
O O15 0.360613 0.586855 0.027906
O O16 0.500000 0.416574 0.500000
O O17 0.582446 0.500000 0.760817
#
# Coordination Sequence:
#
# PCOD8107751 Si02
#       7
#     8   8   8   8   8   8   8
#     4  10  21  38  58  83 115 152 199 247 293 345
#     4  10  22  39  61  85 113 156 198 243 295 352
#     4  11  23  41  60  86 124 152 194 249 300 357
#     4  10  21  38  55  82 116 155 197 235 287 347
#     4  12  24  35  57  89 122 164 198 238 296 350
#     4  11  22  34  56  83 114 155 200 237 285 349
#     4   9  20  35  51  76 113 155 196 241 286 334
#
# _framework density 18.886937
#
# number of rings (size 3 to 8) (size 9 to 14) (size 15 to 20)
#    0.000    1.571    4.286    0.429    2.000    5.714 
#    0.000    2.143    0.000    0.429    0.000    1.000 
#    0.000    0.000    0.000    0.000    0.000    0.000 
#
# Total GULP energy -346884.066312 kJ/mol
# GULP energy per Si atom -12388.716654 kJ/mol
# Density = 1.884395 g / cm^3
# Si number density = 18.886937 Si / 1000 Ang^3
#
#
#
# Elastic Constant Matrix: (Units=GPa)
#
#
# Indices 1 2 3 4 5 6 
#
# 1 93.5963 40.1475 38.4107 0.0000 -6.9677 0.0000
# 2 40.1475 75.1957 29.4226 0.0000 -1.4568 0.0000
# 3 38.4107 29.4226 98.8937 0.0000 -15.0086 0.0000
# 4 0.0000 0.0000 0.0000 26.1793 0.0000 -8.0461
# 5 -6.9677 -1.4568 -15.0086 0.0000 28.8036 0.0000
# 6 0.0000 0.0000 0.0000 -8.0461 0.0000 27.0784
#
#
#
# Elastic Compliance Matrix: (Units=1/GPa)
#
#
# Indices 1 2 3 4 5 6 
#
# 1 0.015143 -0.006609 -0.003703 0.000000 0.001399 0.000000
# 2 -0.006609 0.018013 -0.003145 0.000000 -0.002327 0.000000
# 3 -0.003703 -0.003145 0.013384 0.000000 0.005919 0.000000
# 4 0.000000 0.000000 0.000000 0.042037 0.000000 0.012491
# 5 0.001399 -0.002327 0.005919 0.000000 0.038023 0.000000
# 6 0.000000 0.000000 0.000000 0.012491 0.000000 0.040641
#
#
# Mechanical properties :
#
#
# Convention : Reuss Voigt Hill
#
# Bulk Modulus (GPa) = 50.95371 53.73858 52.34614
# Shear Modulus (GPa) = 24.91315 27.05927 25.98621
#
# Velocity S-wave (km/s) = 3.63584 3.78921 3.71331
# Velocity P-wave (km/s) = 6.68301 6.90352 6.79416
#
# Compressibility (1/GPa) = 0.01962566
#
# Stress axis : x y z
#
# Youngs Moduli (GPa) = 66.03802 55.51619 74.71499
#
# Poissons Ratio (x) = 0.36690 0.27666
# Poissons Ratio (y) = 0.43644 0.23500
# Poissons Ratio (z) = 0.24453 0.17461
#
# Static dielectric constant tensor:
#      x y z
#    x 3.715460 0.000000 -0.231360 
#    y 0.000000 3.572290 0.000000 
#    z -0.231360 0.000000 3.450790 
# 
# 
# High freq. dielectric constant tensor:
#      x y z
#    x 1.729090 0.000000 -0.022330 
#    y 0.000000 1.726300 0.000000 
#    z -0.022330 0.000000 1.727170 
# 
# From -- ./inp_files/22289.got.cif
#   From: 2010.06.25/outbox.cif.g09.slc.cpg/sg12_12_cif.got.tgz:22289.got - 2010.06.28 00:19:55.
