data_PCOD8107939
_publ_section_title
;
Structure prediction by ZEFSAII (Michael W. Deem and Ramdas Pophale) SiO2 
 PCOD8107939
Probable space group: C 2/M
;
_chemical_formula_sum "Si O2"
_cell_formula_units_Z 56
_cell_length_a 14.395636
_cell_length_b 8.859129
_cell_length_c 26.712725
_cell_angle_alpha 90.000000
_cell_angle_beta 120.513112
_cell_angle_gamma 90.000000
_cell_volume 2934.958098
_symmetry_space_group_name_H-M "C 2/M"
_symmetry_group_IT_number 12
_symmetry_cell_setting 'monoclinic'
loop_
_space_group_symop_operation_xyz
x,y,z
-x,y,-z
-x,-y,-z
x,-y,z
1/2+x,1/2+y,z
1/2-x,1/2+y,-z
1/2-x,1/2-y,-z
1/2+x,1/2-y,z
loop_
_atom_site_type_symbol
_atom_site_label
_atom_site_fract_x
_atom_site_fract_y
_atom_site_fract_z
Si Si1 0.605968 0.173409 0.923279
Si Si2 0.704357 0.823110 0.345324
Si Si3 0.887444 0.823318 0.866716
Si Si4 0.004644 0.176265 0.345520
Si Si5 0.234817 0.175298 0.749057
Si Si6 0.938409 0.180170 0.434849
Si Si7 0.184253 0.327193 0.054794
O O1 0.490339 0.233050 0.873771
O O2 0.693403 0.276571 0.920083
O O3 0.621385 0.000000 0.910981
O O4 0.615113 0.190432 0.985538
O O5 0.600966 0.751686 0.342258
O O6 0.708077 0.782451 0.287655
O O7 0.814500 0.762547 0.401377
O O8 0.696435 0.000000 0.350721
O O9 0.783943 0.778011 0.805922
O O10 0.869415 0.780217 0.919266
O O11 0.909441 0.000000 0.868677
O O12 0.891979 0.212985 0.287505
O O13 0.998854 0.237087 0.401139
O O14 0.026778 0.000000 0.351927
O O15 0.253185 0.000000 0.766823
O O16 0.000000 0.246698 0.500000
O O17 0.938457 0.000000 0.434846
O O18 0.183428 0.500000 0.073403
#
# Coordination Sequence:
#
# PCOD8107939 Si02
#       7
#     8   8   8   8   8   8   8
#     4  10  21  38  59  82 109 141 176 216 264 318
#     4   9  18  33  54  76 100 136 175 213 259 307
#     4  12  24  36  55  82 109 140 178 220 269 320
#     4   9  18  33  54  76 100 136 175 213 259 307
#     4   9  20  38  53  69 100 139 178 217 260 313
#     4   8  15  30  51  76 107 140 172 204 247 310
#     4  10  21  38  59  82 109 141 176 216 264 318
#
# _framework density 19.080341000000001
#
# number of rings (size 3 to 8) (size 9 to 14) (size 15 to 20)
#    0.000    2.429    0.000    4.286    0.000    6.286 
#    0.000    5.000    0.000    0.857    0.000    0.000 
#    0.000    0.000    0.000    0.000    0.000    0.000 
#
# Total GULP energy -347214.120799 kJ/mol
# GULP energy per Si atom -12400.504314 kJ/mol
# Density = 1.903691 g / cm^3
# Si number density = 19.080341 Si / 1000 Ang^3
#
#
#
# Elastic Constant Matrix: (Units=GPa)
#
#
# Indices 1 2 3 4 5 6 
#
# 1 114.4362 26.2096 32.6774 0.0000 -0.6615 0.0000
# 2 26.2096 57.4588 32.8301 0.0000 1.2972 0.0000
# 3 32.6774 32.8301 48.5672 0.0000 11.4026 0.0000
# 4 0.0000 0.0000 0.0000 20.5818 0.0000 -1.8335
# 5 -0.6615 1.2972 11.4026 0.0000 13.1726 0.0000
# 6 0.0000 0.0000 0.0000 -1.8335 0.0000 36.8644
#
#
#
# Elastic Compliance Matrix: (Units=1/GPa)
#
#
# Indices 1 2 3 4 5 6 
#
# 1 0.011655 0.000360 -0.010310 0.000000 0.009474 0.000000
# 2 0.000360 0.031908 -0.026454 0.000000 0.019776 0.000000
# 3 -0.010310 -0.026454 0.056377 0.000000 -0.046714 0.000000
# 4 0.000000 0.000000 0.000000 0.048803 0.000000 0.002427
# 5 0.009474 0.019776 -0.046714 0.000000 0.114881 0.000000
# 6 0.000000 0.000000 0.000000 0.002427 0.000000 0.027247
#
#
# Mechanical properties :
#
#
# Convention : Reuss Voigt Hill
#
# Bulk Modulus (GPa) = 36.85657 44.87737 40.86697
# Shear Modulus (GPa) = 13.41484 22.70676 18.06080
#
# Velocity S-wave (km/s) = 2.65443 3.45347 3.07997
# Velocity P-wave (km/s) = 5.36219 6.28277 5.84065
#
# Compressibility (1/GPa) = 0.02713221
#
# Stress axis : x y z
#
# Youngs Moduli (GPa) = 85.80292 31.33998 17.73785
#
# Poissons Ratio (x) = -0.01130 0.18287
# Poissons Ratio (y) = -0.03093 0.46925
# Poissons Ratio (z) = 0.88459 0.82908
#
# Static dielectric constant tensor:
#      x y z
#    x 4.394340 0.000000 0.056270 
#    y 0.000000 3.268780 0.000000 
#    z 0.056270 0.000000 3.565870 
# 
# 
# High freq. dielectric constant tensor:
#      x y z
#    x 1.749350 0.000000 0.005510 
#    y 0.000000 1.725160 0.000000 
#    z 0.005510 0.000000 1.738810 
# 
# From -- ./inp_files/339045.got.cif
#   From: 2010.06.25/outbox.cif.g09.slc.cpg/sg12_170_cif.got.tgz:339045.got - 2010.06.28 00:19:55.
