data_PCOD8107934
_publ_section_title
;
Structure prediction by ZEFSAII (Michael W. Deem and Ramdas Pophale) SiO2 
 PCOD8107934
Probable space group: C 2/M
;
_chemical_formula_sum "Si O2"
_cell_formula_units_Z 56
_cell_length_a 29.406791
_cell_length_b 8.975152
_cell_length_c 20.154839
_cell_angle_alpha 90.000000
_cell_angle_beta 147.562539
_cell_angle_gamma 90.000000
_cell_volume 2853.253231
_symmetry_space_group_name_H-M "C 2/M"
_symmetry_group_IT_number 12
_symmetry_cell_setting 'monoclinic'
loop_
_space_group_symop_operation_xyz
x,y,z
-x,y,-z
-x,-y,-z
x,-y,z
1/2+x,1/2+y,z
1/2-x,1/2+y,-z
1/2-x,1/2-y,-z
1/2+x,1/2-y,z
loop_
_atom_site_type_symbol
_atom_site_label
_atom_site_fract_x
_atom_site_fract_y
_atom_site_fract_z
Si Si1 0.174592 0.674226 0.868427
Si Si2 0.290747 0.172413 0.236573
Si Si3 0.157592 0.823998 0.568857
Si Si4 0.046835 0.326403 0.205693
Si Si5 0.178998 0.827170 0.282624
Si Si6 0.895786 0.831259 0.951334
Si Si7 0.490023 0.825812 0.688572
O O1 0.190727 0.500000 0.892906
O O2 0.173999 0.724259 0.790912
O O3 0.086401 0.721199 0.792934
O O4 0.250000 0.750000 0.000000
O O5 0.336349 0.272298 0.347652
O O6 0.189797 0.198025 0.112976
O O7 0.311254 0.000000 0.277750
O O8 0.231441 0.753827 0.614921
O O9 0.067795 0.771173 0.430734
O O10 0.164994 0.000000 0.574508
O O11 0.063419 0.500000 0.216416
O O12 0.130600 0.238753 0.286288
O O13 0.030015 0.283575 0.260691
O O14 0.966055 0.282640 0.062373
O O15 0.120521 0.801787 0.146277
O O16 0.198412 0.000000 0.318241
O O17 0.928467 0.000000 0.002530
O O18 0.475109 0.000000 0.655769
#
# Coordination Sequence:
#
# PCOD8107934 Si02
#       7
#     8   8   8   8   8   8   8
#     4  10  21  38  62  89 117 152 190 228 276 332
#     4   9  19  37  60  84 114 153 189 227 281 338
#     4  11  23  39  60  85 110 142 189 239 283 329
#     4  11  22  34  53  82 114 149 189 234 281 327
#     4  10  21  38  59  81 111 150 187 228 281 341
#     4   9  18  33  54  81 112 146 184 227 280 338
#     4  10  23  41  57  79 115 154 189 228 278 336
#
# _framework density 19.626719999999999
#
# number of rings (size 3 to 8) (size 9 to 14) (size 15 to 20)
#    0.000    2.000    0.000    4.286    0.000    8.000 
#    0.000    2.857    0.000    0.000    0.000    0.000 
#    0.000    0.000    0.000    0.000    0.000    0.000 
#
# Total GULP energy -347349.361984 kJ/mol
# GULP energy per Si atom -12405.334357 kJ/mol
# Density = 1.958205 g / cm^3
# Si number density = 19.626720 Si / 1000 Ang^3
#
#
#
# Elastic Constant Matrix: (Units=GPa)
#
#
# Indices 1 2 3 4 5 6 
#
# 1 161.6113 64.6569 60.4861 0.0000 6.6694 0.0000
# 2 64.6569 103.8150 64.0075 0.0000 4.5720 0.0000
# 3 60.4861 64.0075 117.3300 0.0000 7.7659 0.0000
# 4 0.0000 0.0000 0.0000 37.0039 0.0000 0.3485
# 5 6.6694 4.5720 7.7659 0.0000 11.5577 0.0000
# 6 0.0000 0.0000 0.0000 0.3485 0.0000 29.3403
#
#
#
# Elastic Compliance Matrix: (Units=1/GPa)
#
#
# Indices 1 2 3 4 5 6 
#
# 1 0.008672 -0.003976 -0.002171 0.000000 -0.001973 0.000000
# 2 -0.003976 0.016339 -0.006895 0.000000 0.000463 0.000000
# 3 -0.002171 -0.006895 0.013752 0.000000 -0.005260 0.000000
# 4 0.000000 0.000000 0.000000 0.027027 0.000000 -0.000321
# 5 -0.001973 0.000463 -0.005260 0.000000 0.091011 0.000000
# 6 0.000000 0.000000 0.000000 -0.000321 0.000000 0.034087
#
#
# Mechanical properties :
#
#
# Convention : Reuss Voigt Hill
#
# Bulk Modulus (GPa) = 78.86507 84.56193 81.71350
# Shear Modulus (GPa) = 22.60416 28.48744 25.54580
#
# Velocity S-wave (km/s) = 3.39736 3.81394 3.61166
# Velocity P-wave (km/s) = 7.46050 7.91034 7.68871
#
# Compressibility (1/GPa) = 0.01267988
#
# Stress axis : x y z
#
# Youngs Moduli (GPa) = 115.30965 61.20300 72.71776
#
# Poissons Ratio (x) = 0.24331 0.15790
# Poissons Ratio (y) = 0.45842 0.50137
# Poissons Ratio (z) = 0.25038 0.42198
#
# Static dielectric constant tensor:
#      x y z
#    x 3.827240 0.000000 0.031440 
#    y 0.000000 3.507830 0.000000 
#    z 0.031440 0.000000 3.434160 
# 
# 
# High freq. dielectric constant tensor:
#      x y z
#    x 1.776810 0.000000 0.003800 
#    y 0.000000 1.761260 0.000000 
#    z 0.003800 0.000000 1.760750 
# 
# From -- ./inp_files/281674.got.cif
#   From: 2010.06.25/outbox.cif.g09.slc.cpg/sg12_141_cif.got.tgz:281674.got - 2010.06.28 00:19:55.
