data_PCOD8107803
_publ_section_title
;
Structure prediction by ZEFSAII (Michael W. Deem and Ramdas Pophale) SiO2 
 PCOD8107803
Probable space group: C 2/M
;
_chemical_formula_sum "Si O2"
_cell_formula_units_Z 64
_cell_length_a 25.294461
_cell_length_b 8.880166
_cell_length_c 16.505805
_cell_angle_alpha 90.000000
_cell_angle_beta 118.894238
_cell_angle_gamma 90.000000
_cell_volume 3245.980335
_symmetry_space_group_name_H-M "C 2/M"
_symmetry_group_IT_number 12
_symmetry_cell_setting 'monoclinic'
loop_
_space_group_symop_operation_xyz
x,y,z
-x,y,-z
-x,-y,-z
x,-y,z
1/2+x,1/2+y,z
1/2-x,1/2+y,-z
1/2-x,1/2-y,-z
1/2+x,1/2-y,z
loop_
_atom_site_type_symbol
_atom_site_label
_atom_site_fract_x
_atom_site_fract_y
_atom_site_fract_z
Si Si1 0.697418 0.173499 0.011433
Si Si2 0.690927 0.161918 0.447077
Si Si3 0.091046 0.321129 0.490036
Si Si4 0.898256 0.328439 0.194117
Si Si5 0.388130 0.831887 0.755243
Si Si6 0.022358 0.177207 0.306162
Si Si7 0.304873 0.679142 0.817721
Si Si8 0.669627 0.176684 0.696037
O O1 0.635135 0.184509 0.916013
O O2 0.714342 0.000000 0.041305
O O3 0.750000 0.250000 0.000000
O O4 0.687412 0.262832 0.086161
O O5 0.750000 0.250000 0.500000
O O6 0.638220 0.238239 0.458445
O O7 0.673156 0.150274 0.340926
O O8 0.702501 0.000000 0.495733
O O9 0.078267 0.500000 0.482292
O O10 0.032341 0.241097 0.406570
O O11 0.118708 0.259133 0.595188
O O12 0.920821 0.500000 0.225915
O O13 0.851181 0.279958 0.229424
O O14 0.953490 0.213636 0.234223
O O15 0.438645 0.750903 0.737986
O O16 0.364391 0.738532 0.814630
O O17 0.411396 0.000000 0.797315
O O18 0.033878 0.000000 0.313934
O O19 0.306866 0.500000 0.818555
O O20 0.238876 0.735223 0.734429
O O21 0.670584 0.000000 0.682216
#
# Coordination Sequence:
#
# PCOD8107803 Si02
#       8
#     8   8   8   8   8   8   8   8
#     4  11  22  39  63  91 122 154 191 235 291 351
#     4   9  17  28  46  73 107 146 190 234 283 339
#     4   9  18  34  54  77 110 154 198 237 280 342
#     4  10  21  40  62  84 114 156 198 237 286 350
#     4  10  21  38  57  81 113 154 196 236 289 350
#     4  11  23  39  58  83 115 154 199 247 294 339
#     4  11  21  37  61  92 124 152 190 242 294 348
#     4   9  18  34  58  87 117 154 198 237 285 346
#
# _framework density 19.716692999999999
#
# number of rings (size 3 to 8) (size 9 to 14) (size 15 to 20)
#    0.000    2.000    1.250    3.750    0.000    5.000 
#    0.000    5.000    0.000    3.750    0.000    0.000 
#    0.000    0.000    0.000    0.000    0.000    0.000 
#
# Total GULP energy -396442.709526 kJ/mol
# GULP energy per Si atom -12388.834673 kJ/mol
# Density = 1.967182 g / cm^3
# Si number density = 19.716693 Si / 1000 Ang^3
#
#
#
# Elastic Constant Matrix: (Units=GPa)
#
#
# Indices 1 2 3 4 5 6 
#
# 1 53.6567 25.0485 27.1404 0.0000 1.8890 0.0000
# 2 25.0485 93.7731 30.0780 0.0000 1.8805 0.0000
# 3 27.1404 30.0780 97.4625 0.0000 -5.6418 0.0000
# 4 0.0000 0.0000 0.0000 29.7269 0.0000 0.3400
# 5 1.8890 1.8805 -5.6418 0.0000 31.1523 0.0000
# 6 0.0000 0.0000 0.0000 0.3400 0.0000 33.0107
#
#
#
# Elastic Compliance Matrix: (Units=1/GPa)
#
#
# Indices 1 2 3 4 5 6 
#
# 1 0.023495 -0.004546 -0.005261 0.000000 -0.002103 0.000000
# 2 -0.004546 0.012775 -0.002734 0.000000 -0.000991 0.000000
# 3 -0.005261 -0.002734 0.012731 0.000000 0.002790 0.000000
# 4 0.000000 0.000000 0.000000 0.033644 0.000000 -0.000347
# 5 -0.002103 -0.000991 0.002790 0.000000 0.032793 0.000000
# 6 0.000000 0.000000 0.000000 -0.000347 0.000000 0.030297
#
#
# Mechanical properties :
#
#
# Convention : Reuss Voigt Hill
#
# Bulk Modulus (GPa) = 41.81001 45.49180 43.65090
# Shear Modulus (GPa) = 27.96595 29.61966 28.79281
#
# Velocity S-wave (km/s) = 3.77024 3.88011 3.82557
# Velocity P-wave (km/s) = 6.34069 6.57240 6.45759
#
# Compressibility (1/GPa) = 0.02391772
#
# Stress axis : x y z
#
# Youngs Moduli (GPa) = 42.56315 78.27686 78.55035
#
# Poissons Ratio (x) = 0.35585 0.41328
# Poissons Ratio (y) = 0.19349 0.21475
# Poissons Ratio (z) = 0.22394 0.21401
#
# Static dielectric constant tensor:
#      x y z
#    x 3.396740 0.000000 0.062810 
#    y 0.000000 3.752120 0.000000 
#    z 0.062810 0.000000 3.650460 
# 
# 
# High freq. dielectric constant tensor:
#      x y z
#    x 1.762970 0.000000 -0.001890 
#    y 0.000000 1.753740 0.000000 
#    z -0.001890 0.000000 1.768990 
# 
# From -- ./inp_files/244163.got.cif
#   From: 2010.06.25/outbox.cif.g09.slc.cpg/sg12_123_cif.got.tgz:244163.got - 2010.06.28 00:19:55.
