data_PCOD8107401
_publ_section_title
;
Structure prediction by ZEFSAII (Michael W. Deem and Ramdas Pophale) SiO2 
 PCOD8107401
Probable space group: C 2/M
;
_chemical_formula_sum "Si O2"
_cell_formula_units_Z 64
_cell_length_a 29.745774
_cell_length_b 9.175869
_cell_length_c 22.290155
_cell_angle_alpha 90.000000
_cell_angle_beta 32.084546
_cell_angle_gamma 90.000000
_cell_volume 3231.611644
_symmetry_space_group_name_H-M "C 2/M"
_symmetry_group_IT_number 12
_symmetry_cell_setting 'monoclinic'
loop_
_space_group_symop_operation_xyz
x,y,z
-x,y,-z
-x,-y,-z
x,-y,z
1/2+x,1/2+y,z
1/2-x,1/2+y,-z
1/2-x,1/2-y,-z
1/2+x,1/2-y,z
loop_
_atom_site_type_symbol
_atom_site_label
_atom_site_fract_x
_atom_site_fract_y
_atom_site_fract_z
Si Si1 0.252193 0.171546 0.238553
Si Si2 0.565510 0.669177 0.771850
Si Si3 0.727721 0.331296 0.661735
Si Si4 0.454946 0.832716 0.714719
Si Si5 0.877902 0.664986 0.409150
Si Si6 0.421189 0.669783 0.630951
Si Si7 0.879938 0.833408 0.011447
Si Si8 0.670182 0.666997 0.065028
O O1 0.248326 0.231128 0.309903
O O2 0.165187 0.214822 0.304270
O O3 0.332865 0.238474 0.114081
O O4 0.264112 0.000000 0.227381
O O5 0.554584 0.500000 0.769653
O O6 0.631325 0.698020 0.751064
O O7 0.598559 0.737383 0.673435
O O8 0.474513 0.731289 0.895461
O O9 0.742144 0.500000 0.662841
O O10 0.787707 0.287270 0.538128
O O11 0.555135 0.819789 0.612024
O O12 0.427673 0.764210 0.683063
O O13 0.413360 0.745130 0.816422
O O14 0.423972 0.000000 0.750778
O O15 0.875072 0.500000 0.388630
O O16 0.500000 0.709856 0.500000
O O17 0.421933 0.500000 0.647498
O O18 0.883969 0.000000 0.029797
O O19 0.827977 0.822797 0.008610
O O20 0.671483 0.500000 0.085447
O O21 0.750000 0.750000 0.000000
#
# Coordination Sequence:
#
# PCOD8107401 Si02
#       8
#     8   8   8   8   8   8   8   8
#     4  11  24  40  60  87 117 154 199 247 298 350
#     4  10  21  39  63  89 116 155 202 243 294 355
#     4  10  22  40  62  87 118 156 198 245 297 357
#     4  11  22  35  56  87 120 154 191 234 293 356
#     4  10  21  37  59  91 125 154 190 243 302 353
#     4  10  22  40  60  84 116 156 202 248 295 351
#     4  10  22  40  60  83 116 157 197 241 293 350
#     4  11  22  37  58  84 115 152 195 240 291 347
#
# _framework density 19.804359999999999
#
# number of rings (size 3 to 8) (size 9 to 14) (size 15 to 20)
#    0.000    1.625    1.250    3.000    0.000    6.750 
#    0.000    2.500    0.000    0.000    0.000    0.000 
#    0.000    0.000    0.000    0.000    0.000    0.000 
#
# Total GULP energy -396945.874031 kJ/mol
# GULP energy per Si atom -12404.558563 kJ/mol
# Density = 1.975928 g / cm^3
# Si number density = 19.804360 Si / 1000 Ang^3
#
#
#
# Elastic Constant Matrix: (Units=GPa)
#
#
# Indices 1 2 3 4 5 6 
#
# 1 73.7154 38.1480 25.2014 0.0039 -0.3567 -0.0030
# 2 38.1480 81.6619 37.3283 0.0173 4.6392 -0.0060
# 3 25.2014 37.3283 112.9496 0.0223 -5.6394 -0.0072
# 4 0.0039 0.0173 0.0223 33.7171 -0.0084 6.4219
# 5 -0.3567 4.6392 -5.6394 -0.0084 33.4763 -0.0020
# 6 -0.0030 -0.0060 -0.0072 6.4219 -0.0020 33.1478
#
#
#
# Elastic Compliance Matrix: (Units=1/GPa)
#
#
# Indices 1 2 3 4 5 6 
#
# 1 0.018130 -0.007897 -0.001383 0.000003 0.001055 -0.000001
# 2 -0.007897 0.018135 -0.004398 -0.000007 -0.003338 0.000003
# 3 -0.001383 -0.004398 0.010735 -0.000005 0.002403 0.000002
# 4 0.000003 -0.000007 -0.000005 0.030795 0.000008 -0.005966
# 5 0.001055 -0.003338 0.002403 0.000008 0.030751 0.000000
# 6 -0.000001 0.000003 0.000002 -0.005966 0.000000 0.031324
#
#
# Mechanical properties :
#
#
# Convention : Reuss Voigt Hill
#
# Bulk Modulus (GPa) = 50.90418 52.18693 51.54555
# Shear Modulus (GPa) = 28.77299 31.24485 30.00892
#
# Velocity S-wave (km/s) = 3.81578 3.97631 3.89687
# Velocity P-wave (km/s) = 6.72108 6.89128 6.80671
#
# Compressibility (1/GPa) = 0.01964475
#
# Stress axis : x y z
#
# Youngs Moduli (GPa) = 55.15587 55.14258 93.14954
#
# Poissons Ratio (x) = 0.43549 0.12879
# Poissons Ratio (y) = 0.43559 0.40966
# Poissons Ratio (z) = 0.07626 0.24251
#
# Static dielectric constant tensor:
#      x y z
#    x 3.538850 -0.000020 -0.168540 
#    y -0.000020 3.638430 0.000040 
#    z -0.168540 0.000040 3.927450 
# 
# 
# High freq. dielectric constant tensor:
#      x y z
#    x 1.775170 0.000000 -0.008620 
#    y 0.000000 1.770980 0.000000 
#    z -0.008620 0.000000 1.784270 
# 
# From -- ./inp_files/353319.got.cif
#   From: 2010.06.25/outbox.cif.g09.slc.cpg/sg12_177_cif.got.tgz:353319.got - 2010.06.28 00:19:55.
