data_PCOD8107773
_publ_section_title
;
Structure prediction by ZEFSAII (Michael W. Deem and Ramdas Pophale) SiO2 
 PCOD8107773
Probable space group: C 2/M
;
_chemical_formula_sum "Si O2"
_cell_formula_units_Z 40
_cell_length_a 18.205492
_cell_length_b 8.960559
_cell_length_c 26.188551
_cell_angle_alpha 90.000000
_cell_angle_beta 150.048876
_cell_angle_gamma 90.000000
_cell_volume 2132.930410
_symmetry_space_group_name_H-M "C 2/M"
_symmetry_group_IT_number 12
_symmetry_cell_setting 'monoclinic'
loop_
_space_group_symop_operation_xyz
x,y,z
-x,y,-z
-x,-y,-z
x,-y,z
1/2+x,1/2+y,z
1/2-x,1/2+y,-z
1/2-x,1/2-y,-z
1/2+x,1/2-y,z
loop_
_atom_site_type_symbol
_atom_site_label
_atom_site_fract_x
_atom_site_fract_y
_atom_site_fract_z
Si Si1 0.091871 0.822707 0.408590
Si Si2 0.092980 0.175886 0.206258
Si Si3 0.561298 0.674140 0.784532
Si Si4 0.338073 0.825389 0.007779
Si Si5 0.931094 0.672967 0.403687
O O1 0.250000 0.750000 0.500000
O O2 0.995277 0.758945 0.302971
O O3 0.014747 0.775096 0.414082
O O4 0.107554 0.000000 0.416756
O O5 0.261547 0.222198 0.302111
O O6 0.032026 0.239124 0.223734
O O7 0.000208 0.251315 0.103766
O O8 0.070304 0.000000 0.188802
O O9 0.528778 0.500000 0.764289
O O10 0.737492 0.704886 0.896774
O O11 0.354828 0.000000 0.028060
O O12 0.250000 0.750000 0.000000
O O13 0.949496 0.500000 0.399693
O O14 0.000000 0.705010 0.500000
#
# Coordination Sequence:
#
# PCOD8107773 Si02
#       5
#     8   8   8   8   8
#     4  11  22  37  56  78 105 136 175 218 261 311
#     4   9  17  32  54  77 102 134 173 213 255 303
#     4   8  16  32  53  75 101 137 173 206 251 308
#     4   9  16  29  50  75 103 135 172 209 251 303
#     4  10  21  38  57  76 104 141 175 211 262 318
#
# _framework density 18.753540999999998
#
# number of rings (size 3 to 8) (size 9 to 14) (size 15 to 20)
#    0.000    2.600    0.000    3.600    0.000    4.400 
#    0.000   15.000    0.000    6.000    0.000    0.000 
#    0.000    0.000    0.000    0.000    0.000    0.000 
#
# Total GULP energy -247878.496880 kJ/mol
# GULP energy per Si atom -12393.924844 kJ/mol
# Density = 1.871086 g / cm^3
# Si number density = 18.753541 Si / 1000 Ang^3
#
#
#
# Elastic Constant Matrix: (Units=GPa)
#
#
# Indices 1 2 3 4 5 6 
#
# 1 85.7189 35.1851 67.6230 0.0000 3.5430 0.0000
# 2 35.1851 60.9210 60.7436 0.0000 3.1141 0.0000
# 3 67.6230 60.7436 199.2132 0.0003 5.2182 -0.0001
# 4 0.0000 0.0000 0.0003 33.4871 0.0000 2.6756
# 5 3.5430 3.1141 5.2182 0.0000 30.1746 0.0000
# 6 0.0000 0.0000 -0.0001 2.6756 0.0000 23.7172
#
#
#
# Elastic Compliance Matrix: (Units=1/GPa)
#
#
# Indices 1 2 3 4 5 6 
#
# 1 0.017328 -0.005927 -0.004056 0.000000 -0.000722 0.000000
# 2 -0.005927 0.025656 -0.005786 0.000000 -0.000951 0.000000
# 3 -0.004056 -0.005786 0.008170 0.000000 -0.000339 0.000000
# 4 0.000000 0.000000 0.000000 0.030134 0.000000 -0.003399
# 5 -0.000722 -0.000951 -0.000339 0.000000 0.033382 0.000000
# 6 0.000000 0.000000 0.000000 -0.003399 0.000000 0.042547
#
#
# Mechanical properties :
#
#
# Convention : Reuss Voigt Hill
#
# Bulk Modulus (GPa) = 50.97949 74.77295 62.87622
# Shear Modulus (GPa) = 25.60251 29.62922 27.61587
#
# Velocity S-wave (km/s) = 3.69888 3.97914 3.84157
# Velocity P-wave (km/s) = 6.74428 7.81469 7.29913
#
# Compressibility (1/GPa) = 0.01961573
#
# Stress axis : x y z
#
# Youngs Moduli (GPa) = 57.70844 38.97774 122.40347
#
# Poissons Ratio (x) = 0.23102 0.49647
# Poissons Ratio (y) = 0.34204 0.70823
# Poissons Ratio (z) = 0.23406 0.22553
#
# Static dielectric constant tensor:
#      x y z
#    x 3.332140 0.000000 -0.081290 
#    y 0.000000 3.495720 0.000000 
#    z -0.081290 0.000000 4.159410 
# 
# 
# High freq. dielectric constant tensor:
#      x y z
#    x 1.696910 0.000000 -0.000760 
#    y 0.000000 1.711250 0.000000 
#    z -0.000760 0.000000 1.756810 
# 
# From -- ./inp_files/211247.got.cif
#   From: 2010.06.25/outbox.cif.g09.slc.cpg/sg12_106_cif.got.tgz:211247.got - 2010.06.28 00:19:55.
