data_PCOD8107571
_publ_section_title
;
Structure prediction by ZEFSAII (Michael W. Deem and Ramdas Pophale) SiO2 
 PCOD8107571
Probable space group: C 2/M
;
_chemical_formula_sum "Si O2"
_cell_formula_units_Z 64
_cell_length_a 13.929863
_cell_length_b 17.752237
_cell_length_c 20.982386
_cell_angle_alpha 90.000000
_cell_angle_beta 36.086268
_cell_angle_gamma 90.000000
_cell_volume 3056.131824
_symmetry_space_group_name_H-M "C 2/M"
_symmetry_group_IT_number 12
_symmetry_cell_setting 'monoclinic'
loop_
_space_group_symop_operation_xyz
x,y,z
-x,y,-z
-x,-y,-z
x,-y,z
1/2+x,1/2+y,z
1/2-x,1/2+y,-z
1/2-x,1/2-y,-z
1/2+x,1/2-y,z
loop_
_atom_site_type_symbol
_atom_site_label
_atom_site_fract_x
_atom_site_fract_y
_atom_site_fract_z
Si Si1 0.790757 0.088863 0.957911
Si Si2 0.936787 0.658787 0.151906
Si Si3 0.168512 0.411210 0.667482
Si Si4 0.642212 0.082200 0.245924
Si Si5 0.043492 0.179039 0.905678
Si Si6 0.689033 0.588356 0.198493
Si Si7 0.631740 0.410132 0.558825
Si Si8 0.919848 0.416803 0.483689
O O1 0.915569 0.121447 0.942966
O O2 0.849517 0.108429 0.854434
O O3 0.781446 0.000000 0.973588
O O4 0.614039 0.123188 0.065516
O O5 0.818800 0.633996 0.273374
O O6 0.854440 0.629657 0.130733
O O7 0.949102 0.748734 0.144014
O O8 0.183678 0.500000 0.673302
O O9 0.316561 0.385274 0.540680
O O10 0.992360 0.390726 0.732661
O O11 0.558419 0.073352 0.358016
O O12 0.781554 0.142451 0.179770
O O13 0.712669 0.000000 0.187521
O O14 0.000000 0.204993 0.000000
O O15 0.716328 0.500000 0.191955
O O16 0.544781 0.617129 0.323018
O O17 0.648240 0.500000 0.552787
O O18 0.762234 0.374880 0.538925
O O19 0.864467 0.500000 0.537795
O O20 0.000000 0.371271 0.500000
#
# Coordination Sequence:
#
# PCOD8107571 Si02
#       8
#     8   8   8   8   8   8   8   8
#     4  11  24  41  64  91 116 148 199 255 301 347
#     4  12  24  40  60  82 118 165 203 240 296 356
#     4   9  18  36  64  91 118 154 199 249 293 343
#     4   9  19  36  60  90 116 146 191 244 299 351
#     4  12  26  41  60  86 119 157 194 243 300 366
#     4  10  21  37  61  90 122 156 199 249 290 346
#     4   8  16  31  54  90 122 151 194 243 297 344
#     4   8  14  26  53  85 117 149 182 234 293 345
#
# _framework density 20.941503999999998
#
# number of rings (size 3 to 8) (size 9 to 14) (size 15 to 20)
#    0.000    2.125    0.000    5.250    1.750    4.500 
#    0.000    1.875    2.750    2.250    0.000    0.000 
#    0.000    0.000    0.000    0.000    0.000    0.000 
#
# Total GULP energy -396629.832111 kJ/mol
# GULP energy per Si atom -12394.682253 kJ/mol
# Density = 2.089384 g / cm^3
# Si number density = 20.941504 Si / 1000 Ang^3
#
#
#
# Elastic Constant Matrix: (Units=GPa)
#
#
# Indices 1 2 3 4 5 6 
#
# 1 78.2645 19.3215 18.9052 -0.0032 17.7875 0.0008
# 2 19.3215 61.8562 22.7782 -0.0080 8.6054 0.0036
# 3 18.9052 22.7782 82.7694 -0.0107 0.6023 0.0055
# 4 -0.0032 -0.0080 -0.0107 2.7790 0.0072 1.6937
# 5 17.7875 8.6054 0.6023 0.0072 18.2031 -0.0026
# 6 0.0008 0.0036 0.0055 1.6937 -0.0026 15.2414
#
#
#
# Elastic Compliance Matrix: (Units=1/GPa)
#
#
# Indices 1 2 3 4 5 6 
#
# 1 0.017810 -0.002045 -0.003386 0.000048 -0.016325 -0.000007
# 2 -0.002045 0.019587 -0.004872 0.000060 -0.007100 -0.000011
# 3 -0.003386 -0.004872 0.014158 0.000027 0.005144 -0.000006
# 4 0.000048 0.000060 0.000027 0.385984 -0.000234 -0.042892
# 5 -0.016325 -0.007100 0.005144 -0.000234 0.074074 0.000039
# 6 -0.000007 -0.000011 -0.000006 -0.042892 0.000039 0.070377
#
#
# Mechanical properties :
#
#
# Convention : Reuss Voigt Hill
#
# Bulk Modulus (GPa) = 32.31055 38.32221 35.31638
# Shear Modulus (GPa) = 8.15776 18.03704 13.09740
#
# Velocity S-wave (km/s) = 1.97584 2.93799 2.50357
# Velocity P-wave (km/s) = 4.54618 5.46337 5.02574
#
# Compressibility (1/GPa) = 0.03094964
#
# Stress axis : x y z
#
# Youngs Moduli (GPa) = 56.14735 51.05417 70.62901
#
# Poissons Ratio (x) = 0.10441 0.23918
# Poissons Ratio (y) = 0.11483 0.34408
# Poissons Ratio (z) = 0.19014 0.24871
#
# Static dielectric constant tensor:
#      x y z
#    x 4.003150 0.000000 0.084900 
#    y 0.000000 3.424380 0.000030 
#    z 0.084900 0.000030 4.435340 
# 
# 
# High freq. dielectric constant tensor:
#      x y z
#    x 1.836190 0.000000 0.004680 
#    y 0.000000 1.775460 0.000000 
#    z 0.004680 0.000000 1.823200 
# 
# From -- ./inp_files/340799.got.cif
#   From: 2010.06.25/outbox.cif.g09.slc.cpg/sg12_171_cif.got.tgz:340799.got - 2010.06.28 00:19:55.
