data_PCOD8107639
_publ_section_title
;
Structure prediction by ZEFSAII (Michael W. Deem and Ramdas Pophale) SiO2 
 PCOD8107639
Probable space group: C 2/M
;
_chemical_formula_sum "Si O2"
_cell_formula_units_Z 56
_cell_length_a 18.212194
_cell_length_b 25.031312
_cell_length_c 9.124171
_cell_angle_alpha 90.000000
_cell_angle_beta 43.654590
_cell_angle_gamma 90.000000
_cell_volume 2871.329025
_symmetry_space_group_name_H-M "C 2/M"
_symmetry_group_IT_number 12
_symmetry_cell_setting 'monoclinic'
loop_
_space_group_symop_operation_xyz
x,y,z
-x,y,-z
-x,-y,-z
x,-y,z
1/2+x,1/2+y,z
1/2-x,1/2+y,-z
1/2-x,1/2-y,-z
1/2+x,1/2-y,z
loop_
_atom_site_type_symbol
_atom_site_label
_atom_site_fract_x
_atom_site_fract_y
_atom_site_fract_z
Si Si1 0.614192 0.439324 0.571246
Si Si2 0.396102 0.712791 0.055990
Si Si3 0.741974 0.905292 0.896597
Si Si4 0.749230 0.876093 0.403254
Si Si5 0.376579 0.169568 0.145764
Si Si6 0.556420 0.352977 0.274037
Si Si7 0.880739 0.560377 0.650552
O O1 0.575254 0.500000 0.653059
O O2 0.692075 0.439650 0.317538
O O3 0.675188 0.419580 0.628114
O O4 0.510621 0.402491 0.696750
O O5 0.316472 0.666982 0.219014
O O6 0.342662 0.771054 0.142654
O O7 0.500000 0.712758 0.000000
O O8 0.438210 0.699270 0.833653
O O9 0.655058 0.869676 0.939186
O O10 0.823383 0.869525 0.869891
O O11 0.680134 0.940433 0.105415
O O12 0.684089 0.844052 0.618293
O O13 0.673741 0.904544 0.395917
O O14 0.500000 0.163515 0.000000
O O15 0.500000 0.331665 0.500000
O O16 0.884590 0.500000 0.585889
O O17 0.000000 0.582708 0.500000
#
# Coordination Sequence:
#
# PCOD8107639 Si02
#       7
#     8   8   8   8   8   8   8
#     4  10  21  37  62  91 121 160 198 236 296 363
#     4  11  21  40  61  88 118 158 195 246 303 350
#     4  10  21  39  59  84 121 157 197 247 291 356
#     4  11  21  40  61  86 121 154 200 248 289 359
#     4  10  23  40  62  84 114 159 207 246 293 345
#     4  10  21  38  58  87 125 154 190 248 291 365
#     4  11  23  38  59  86 120 155 197 249 302 344
#
# _framework density 19.503163000000001
#
# number of rings (size 3 to 8) (size 9 to 14) (size 15 to 20)
#    0.000    1.571    2.857    2.143    0.000    3.714 
#    0.000    1.429    0.000    6.857    0.000    0.000 
#    0.000    0.000    0.000    0.000    0.000    0.000 
#
# Total GULP energy -347190.859051 kJ/mol
# GULP energy per Si atom -12399.673538 kJ/mol
# Density = 1.945877 g / cm^3
# Si number density = 19.503163 Si / 1000 Ang^3
#
#
#
# Elastic Constant Matrix: (Units=GPa)
#
#
# Indices 1 2 3 4 5 6 
#
# 1 78.8197 34.9357 18.1256 0.0000 9.7700 0.0000
# 2 34.9357 110.3928 31.7512 0.0000 16.1203 0.0000
# 3 18.1256 31.7512 83.7170 0.0000 10.7300 0.0000
# 4 0.0000 0.0000 0.0000 36.8678 0.0000 -11.4695
# 5 9.7700 16.1203 10.7300 0.0000 28.2076 0.0000
# 6 0.0000 0.0000 0.0000 -11.4695 0.0000 30.8799
#
#
#
# Elastic Compliance Matrix: (Units=1/GPa)
#
#
# Indices 1 2 3 4 5 6 
#
# 1 0.015093 -0.004014 -0.001440 0.000000 -0.002386 0.000000
# 2 -0.004014 0.011827 -0.003079 0.000000 -0.004198 0.000000
# 3 -0.001440 -0.003079 0.013808 0.000000 -0.002994 0.000000
# 4 0.000000 0.000000 0.000000 0.030668 0.000000 0.011391
# 5 -0.002386 -0.004198 -0.002994 0.000000 0.039816 0.000000
# 6 0.000000 0.000000 0.000000 0.011391 0.000000 0.036614
#
#
# Mechanical properties :
#
#
# Convention : Reuss Voigt Hill
#
# Bulk Modulus (GPa) = 42.25808 49.17273 45.71540
# Shear Modulus (GPa) = 28.93871 31.73218 30.33544
#
# Velocity S-wave (km/s) = 3.85619 4.03802 3.94815
# Velocity P-wave (km/s) = 6.44525 6.85625 6.65393
#
# Compressibility (1/GPa) = 0.02366412
#
# Stress axis : x y z
#
# Youngs Moduli (GPa) = 66.25523 84.54992 72.42114
#
# Poissons Ratio (x) = 0.33938 0.10426
# Poissons Ratio (y) = 0.26595 0.22296
# Poissons Ratio (z) = 0.09538 0.26030
#
# Static dielectric constant tensor:
#      x y z
#    x 3.708400 0.000000 -0.005240 
#    y 0.000000 4.501260 0.000000 
#    z -0.005240 0.000000 4.031960 
# 
# 
# High freq. dielectric constant tensor:
#      x y z
#    x 1.773460 0.000000 0.002050 
#    y 0.000000 1.752470 0.000000 
#    z 0.002050 0.000000 1.768660 
# 
# From -- ./inp_files/79066.got.cif
#   From: 2010.06.25/outbox.cif.g09.slc.cpg/sg12_40_cif.got.tgz:79066.got - 2010.06.28 00:19:55.
