data_PCOD8107819
_publ_section_title
;
Structure prediction by ZEFSAII (Michael W. Deem and Ramdas Pophale) SiO2 
 PCOD8107819
Probable space group: C 2/M
;
_chemical_formula_sum "Si O2"
_cell_formula_units_Z 56
_cell_length_a 25.964530
_cell_length_b 14.498034
_cell_length_c 8.933776
_cell_angle_alpha 90.000000
_cell_angle_beta 117.050016
_cell_angle_gamma 90.000000
_cell_volume 2995.105644
_symmetry_space_group_name_H-M "C 2/M"
_symmetry_group_IT_number 12
_symmetry_cell_setting 'monoclinic'
loop_
_space_group_symop_operation_xyz
x,y,z
-x,y,-z
-x,-y,-z
x,-y,z
1/2+x,1/2+y,z
1/2-x,1/2+y,-z
1/2-x,1/2-y,-z
1/2+x,1/2-y,z
loop_
_atom_site_type_symbol
_atom_site_label
_atom_site_fract_x
_atom_site_fract_y
_atom_site_fract_z
Si Si1 0.529854 0.395920 0.897769
Si Si2 0.272653 0.796215 0.679955
Si Si3 0.552561 0.603800 0.475317
Si Si4 0.341039 0.265567 0.324977
Si Si5 0.129557 0.754089 0.977085
Si Si6 0.151707 0.603002 0.429683
Si Si7 0.435521 0.105917 0.930881
O O1 0.552119 0.500000 0.958187
O O2 0.472893 0.399444 0.722008
O O3 0.585941 0.340781 0.915240
O O4 0.500000 0.347699 0.000000
O O5 0.250000 0.750000 0.500000
O O6 0.219074 0.819154 0.719151
O O7 0.304014 0.886263 0.653481
O O8 0.318230 0.732214 0.833830
O O9 0.500000 0.647432 0.500000
O O10 0.568317 0.500000 0.554705
O O11 0.607858 0.668315 0.555362
O O12 0.344555 0.241179 0.154709
O O13 0.340768 0.171664 0.421195
O O14 0.095411 0.662453 0.978075
O O15 0.158484 0.500000 0.503243
O O16 0.089912 0.619526 0.269955
O O17 0.432674 0.000000 0.978695
O O18 0.500000 0.142949 0.000000
#
# Coordination Sequence:
#
# PCOD8107819 Si02
#       7
#     8   8   8   8   8   8   8
#     4  10  22  37  57  87 119 150 191 234 283 344
#     4   9  21  39  57  80 108 148 195 233 278 340
#     4  10  21  38  57  85 122 152 184 231 289 351
#     4  11  22  35  59  86 114 151 190 232 291 340
#     4  11  21  35  59  82 117 149 185 239 289 333
#     4   9  20  38  57  79 111 146 189 236 276 332
#     4   9  19  35  55  79 107 147 190 229 276 332
#
# _framework density 18.697171000000001
#
# number of rings (size 3 to 8) (size 9 to 14) (size 15 to 20)
#    0.000    2.143    1.429    0.857    8.000    1.143 
#    0.000    2.857    0.000    8.143    0.000    0.000 
#    0.000    0.000    0.000    0.000    0.000    0.000 
#
# Total GULP energy -346904.187180 kJ/mol
# GULP energy per Si atom -12389.435256 kJ/mol
# Density = 1.865461 g / cm^3
# Si number density = 18.697171 Si / 1000 Ang^3
#
#
#
# Elastic Constant Matrix: (Units=GPa)
#
#
# Indices 1 2 3 4 5 6 
#
# 1 136.1923 44.2757 56.3816 0.0000 -2.2188 0.0000
# 2 44.2757 84.1290 35.7533 0.0000 1.7635 0.0000
# 3 56.3816 35.7533 104.1406 0.0000 -2.5006 0.0000
# 4 0.0000 0.0000 0.0000 21.0230 0.0000 -4.1161
# 5 -2.2188 1.7635 -2.5006 0.0000 40.5124 0.0000
# 6 0.0000 0.0000 0.0000 -4.1161 0.0000 18.8527
#
#
#
# Elastic Compliance Matrix: (Units=1/GPa)
#
#
# Indices 1 2 3 4 5 6 
#
# 1 0.010315 -0.003594 -0.004340 0.000000 0.000453 0.000000
# 2 -0.003594 0.015202 -0.003299 0.000000 -0.001062 0.000000
# 3 -0.004340 -0.003299 0.013102 0.000000 0.000715 0.000000
# 4 0.000000 0.000000 0.000000 0.049691 0.000000 0.010849
# 5 0.000453 -0.001062 0.000715 0.000000 0.024799 0.000000
# 6 0.000000 0.000000 0.000000 0.010849 0.000000 0.055411
#
#
# Mechanical properties :
#
#
# Convention : Reuss Voigt Hill
#
# Bulk Modulus (GPa) = 61.90547 66.36478 64.13513
# Shear Modulus (GPa) = 25.46218 28.61438 27.03828
#
# Velocity S-wave (km/s) = 3.69429 3.91629 3.80691
# Velocity P-wave (km/s) = 7.16788 7.48475 7.32802
#
# Compressibility (1/GPa) = 0.01615366
#
# Stress axis : x y z
#
# Youngs Moduli (GPa) = 96.94757 65.78027 76.32590
#
# Poissons Ratio (x) = 0.23640 0.33124
# Poissons Ratio (y) = 0.34840 0.25180
# Poissons Ratio (z) = 0.42073 0.21701
#
# Static dielectric constant tensor:
#      x y z
#    x 4.004810 0.000000 0.465020 
#    y 0.000000 3.362420 0.000000 
#    z 0.465020 0.000000 4.149010 
# 
# 
# High freq. dielectric constant tensor:
#      x y z
#    x 1.732950 0.000000 0.002770 
#    y 0.000000 1.709830 0.000000 
#    z 0.002770 0.000000 1.733310 
# 
# From -- ./inp_files/96475.got.cif
#   From: 2010.06.25/outbox.cif.g09.slc.cpg/sg12_49_cif.got.tgz:96475.got - 2010.06.28 00:19:55.
