data_PCOD8107413
_publ_section_title
;
Structure prediction by ZEFSAII (Michael W. Deem and Ramdas Pophale) SiO2 
 PCOD8107413
Probable space group: C 2/M
;
_chemical_formula_sum "Si O2"
_cell_formula_units_Z 40
_cell_length_a 10.870332
_cell_length_b 14.515709
_cell_length_c 11.378470
_cell_angle_alpha 90.000000
_cell_angle_beta 109.840409
_cell_angle_gamma 90.000000
_cell_volume 1688.842414
_symmetry_space_group_name_H-M "C 2/M"
_symmetry_group_IT_number 12
_symmetry_cell_setting 'monoclinic'
loop_
_space_group_symop_operation_xyz
x,y,z
-x,y,-z
-x,-y,-z
x,-y,z
1/2+x,1/2+y,z
1/2-x,1/2+y,-z
1/2-x,1/2-y,-z
1/2+x,1/2-y,z
loop_
_atom_site_type_symbol
_atom_site_label
_atom_site_fract_x
_atom_site_fract_y
_atom_site_fract_z
Si Si1 0.094754 0.107446 0.241516
Si Si2 0.706515 0.605210 0.523027
Si Si3 0.852742 0.753299 0.926611
Si Si4 0.499328 0.899000 0.361894
Si Si5 0.131039 0.791274 0.711481
O O1 0.194374 0.134869 0.381370
O O2 0.137214 0.144777 0.127639
O O3 0.954563 0.149851 0.226157
O O4 0.081918 0.000000 0.224291
O O5 0.658405 0.500000 0.520783
O O6 0.850297 0.619022 0.621951
O O7 0.614014 0.670582 0.573128
O O8 0.781810 0.694035 0.801244
O O9 0.750000 0.750000 0.000000
O O10 0.000000 0.714799 0.000000
O O11 0.500000 0.905296 0.500000
O O12 0.408713 0.816385 0.286690
O O13 0.450971 0.000000 0.297111
#
# Coordination Sequence:
#
# PCOD8107413 Si02
#       5
#     8   8   8   8   8
#     4  11  24  44  73 108 144 186 236 294 360 431
#     4  10  22  40  66 107 148 181 227 289 361 436
#     4  12  27  50  71 100 138 191 251 303 345 415
#     4  10  21  37  59  96 142 185 228 279 345 423
#     4  12  23  41  73 101 144 186 238 293 362 417
#
# _framework density 23.684864000000001
#
# number of rings (size 3 to 8) (size 9 to 14) (size 15 to 20)
#    0.000    1.000    2.000    4.800    0.000    6.800 
#    0.000    0.000    0.000    4.200    0.000    0.000 
#    0.000    0.000    0.000    0.000    0.000    0.000 
#
# Total GULP energy -247791.082887 kJ/mol
# GULP energy per Si atom -12389.554144 kJ/mol
# Density = 2.363096 g / cm^3
# Si number density = 23.684864 Si / 1000 Ang^3
#
#
#
# Elastic Constant Matrix: (Units=GPa)
#
#
# Indices 1 2 3 4 5 6 
#
# 1 127.5083 60.8929 59.3253 0.0000 2.3100 0.0000
# 2 60.8929 106.4036 61.0171 0.0000 -15.6614 0.0000
# 3 59.3253 61.0171 104.8850 0.0000 1.2502 0.0000
# 4 0.0000 0.0000 0.0000 30.4353 0.0000 -8.3241
# 5 2.3100 -15.6614 1.2502 0.0000 55.1037 0.0000
# 6 0.0000 0.0000 0.0000 -8.3241 0.0000 36.1816
#
#
#
# Elastic Compliance Matrix: (Units=1/GPa)
#
#
# Indices 1 2 3 4 5 6 
#
# 1 0.012051 -0.004901 -0.003943 0.000000 -0.001809 0.000000
# 2 -0.004901 0.017138 -0.007260 0.000000 0.005241 0.000000
# 3 -0.003943 -0.007260 0.016015 0.000000 -0.002261 0.000000
# 4 0.000000 0.000000 0.000000 0.035063 0.000000 0.008067
# 5 -0.001809 0.005241 -0.002261 0.000000 0.019764 0.000000
# 6 0.000000 0.000000 0.000000 0.008067 0.000000 0.029494
#
#
# Mechanical properties :
#
#
# Convention : Reuss Voigt Hill
#
# Bulk Modulus (GPa) = 76.95676 77.91862 77.43769
# Shear Modulus (GPa) = 30.10845 34.84823 32.47834
#
# Velocity S-wave (km/s) = 3.56927 3.83995 3.70708
# Velocity P-wave (km/s) = 7.03909 7.25464 7.14768
#
# Compressibility (1/GPa) = 0.01299431
#
# Stress axis : x y z
#
# Youngs Moduli (GPa) = 82.98223 58.35002 62.44076
#
# Poissons Ratio (x) = 0.28600 0.24622
# Poissons Ratio (y) = 0.40673 0.45333
# Poissons Ratio (z) = 0.32721 0.42363
#
# Static dielectric constant tensor:
#      x y z
#    x 5.195290 0.000000 0.301030 
#    y 0.000000 4.449500 0.000000 
#    z 0.301030 0.000000 4.348840 
# 
# 
# High freq. dielectric constant tensor:
#      x y z
#    x 1.958520 0.000000 0.002870 
#    y 0.000000 1.924040 0.000000 
#    z 0.002870 0.000000 1.923470 
# 
# From -- ./inp_files/129821.got.cif
#   From: 2010.06.25/outbox.cif.g09.slc.cpg/sg12_65_cif.got.tgz:129821.got - 2010.06.28 00:19:55.
