data_PCOD8107043
_publ_section_title
;
Structure prediction by ZEFSAII (Michael W. Deem and Ramdas Pophale) SiO2 
 PCOD8107043
Probable space group: C 2/M
;
_chemical_formula_sum "Si O2"
_cell_formula_units_Z 48
_cell_length_a 13.771282
_cell_length_b 23.987785
_cell_length_c 16.600751
_cell_angle_alpha 90.000000
_cell_angle_beta 154.274914
_cell_angle_gamma 90.000000
_cell_volume 2380.321294
_symmetry_space_group_name_H-M "C 2/M"
_symmetry_group_IT_number 12
_symmetry_cell_setting 'monoclinic'
loop_
_space_group_symop_operation_xyz
x,y,z
-x,y,-z
-x,-y,-z
x,-y,z
1/2+x,1/2+y,z
1/2-x,1/2+y,-z
1/2-x,1/2-y,-z
1/2+x,1/2-y,z
loop_
_atom_site_type_symbol
_atom_site_label
_atom_site_fract_x
_atom_site_fract_y
_atom_site_fract_z
Si Si1 0.657646 0.616635 0.688529
Si Si2 0.412400 0.062273 0.523666
Si Si3 0.573088 0.852101 0.909231
Si Si4 0.576973 0.712039 0.731791
Si Si5 0.906001 0.671256 0.613728
Si Si6 0.596863 0.561663 0.816081
O O1 0.500000 0.593173 0.500000
O O2 0.606899 0.681813 0.668333
O O3 0.601396 0.582275 0.726857
O O4 0.916770 0.615286 0.856616
O O5 0.500000 0.074665 0.500000
O O6 0.494382 0.113241 0.641601
O O7 0.146169 0.062630 0.326624
O O8 0.496100 0.000000 0.614517
O O9 0.422508 0.831885 0.722875
O O10 0.709792 0.800800 0.051367
O O11 0.751840 0.898657 0.015150
O O12 0.348228 0.686991 0.601130
O O13 0.566243 0.777953 0.706564
O O14 0.697777 0.500000 0.893447
#
# Coordination Sequence:
#
# PCOD8107043 Si02
#       6
#     8   8   8   8   8   8
#     4  11  20  37  59  90 125 160 195 239 303 363
#     4  10  21  41  64  87 119 159 206 259 303 344
#     4  11  21  38  62  87 129 157 192 247 303 357
#     4  10  21  37  57  89 124 155 196 243 295 354
#     4  11  21  39  62  87 117 159 202 244 298 363
#     4  10  21  38  59  86 122 159 200 249 298 353
#
# _framework density 20.165344000000001
#
# number of rings (size 3 to 8) (size 9 to 14) (size 15 to 20)
#    0.000    1.500    5.000    2.500    0.000    3.000 
#    0.000    2.500    0.000    3.000    0.000    0.000 
#    0.000    0.000    0.000    0.000    0.000    0.000 
#
# Total GULP energy -297404.399827 kJ/mol
# GULP energy per Si atom -12391.849993 kJ/mol
# Density = 2.011945 g / cm^3
# Si number density = 20.165344 Si / 1000 Ang^3
#
#
#
# Elastic Constant Matrix: (Units=GPa)
#
#
# Indices 1 2 3 4 5 6 
#
# 1 73.3538 16.0226 25.2273 0.0002 11.2063 0.0007
# 2 16.0226 130.5145 25.3523 -0.0001 7.0693 -0.0001
# 3 25.2273 25.3523 82.2296 0.0005 2.9023 -0.0006
# 4 0.0002 -0.0001 0.0005 16.3882 0.0007 -7.3633
# 5 11.2063 7.0693 2.9023 0.0007 25.1886 0.0000
# 6 0.0007 -0.0001 -0.0006 -7.3633 0.0000 13.2433
#
#
#
# Elastic Compliance Matrix: (Units=1/GPa)
#
#
# Indices 1 2 3 4 5 6 
#
# 1 0.016366 -0.000771 -0.004552 0.000000 -0.006540 -0.000001
# 2 -0.000771 0.008289 -0.002258 0.000000 -0.001723 0.000000
# 3 -0.004552 -0.002258 0.014218 0.000000 0.001021 0.000001
# 4 0.000000 0.000000 0.000000 0.081339 -0.000002 0.045225
# 5 -0.006540 -0.001723 0.001021 -0.000002 0.042976 -0.000001
# 6 -0.000001 0.000000 0.000001 0.045225 -0.000001 0.100655
#
#
# Mechanical properties :
#
#
# Convention : Reuss Voigt Hill
#
# Bulk Modulus (GPa) = 42.17685 46.58916 44.38300
# Shear Modulus (GPa) = 17.42715 25.59705 21.51210
#
# Velocity S-wave (km/s) = 2.94294 3.56667 3.26971
# Velocity P-wave (km/s) = 5.70165 6.33366 6.02594
#
# Compressibility (1/GPa) = 0.02370969
#
# Stress axis : x y z
#
# Youngs Moduli (GPa) = 61.10351 120.64789 70.33371
#
# Poissons Ratio (x) = 0.09297 0.32019
# Poissons Ratio (y) = 0.04708 0.15883
# Poissons Ratio (z) = 0.27817 0.27245
#
# Static dielectric constant tensor:
#      x y z
#    x 3.489190 0.000000 0.160660 
#    y 0.000000 4.013340 0.000000 
#    z 0.160660 0.000000 3.583900 
# 
# 
# High freq. dielectric constant tensor:
#      x y z
#    x 1.771160 0.000000 0.012430 
#    y 0.000000 1.792420 0.000000 
#    z 0.012430 0.000000 1.781120 
# 
# From -- ./inp_files/209473.got.cif
#   From: 2010.06.25/outbox.cif.g09.slc.cpg/sg12_105_cif.got.tgz:209473.got - 2010.06.28 00:19:55.
