data_PCOD8107076
_publ_section_title
;
Structure prediction by ZEFSAII (Michael W. Deem and Ramdas Pophale) SiO2 
 PCOD8107076
Probable space group: C 2/M
;
_chemical_formula_sum "Si O2"
_cell_formula_units_Z 56
_cell_length_a 18.761621
_cell_length_b 8.828889
_cell_length_c 19.363458
_cell_angle_alpha 90.000000
_cell_angle_beta 62.758403
_cell_angle_gamma 90.000000
_cell_volume 2851.689697
_symmetry_space_group_name_H-M "C 2/M"
_symmetry_group_IT_number 12
_symmetry_cell_setting 'monoclinic'
loop_
_space_group_symop_operation_xyz
x,y,z
-x,y,-z
-x,-y,-z
x,-y,z
1/2+x,1/2+y,z
1/2-x,1/2+y,-z
1/2-x,1/2-y,-z
1/2+x,1/2-y,z
loop_
_atom_site_type_symbol
_atom_site_label
_atom_site_fract_x
_atom_site_fract_y
_atom_site_fract_z
Si Si1 0.014345 0.677457 0.646212
Si Si2 0.436509 0.174011 0.930101
Si Si3 0.114808 0.673768 0.896386
Si Si4 0.165909 0.822047 0.517014
Si Si5 0.905599 0.823811 0.804306
Si Si6 0.128456 0.672771 0.391958
Si Si7 0.730500 0.173389 0.216046
O O1 0.030376 0.500000 0.644604
O O2 0.098141 0.761696 0.598883
O O3 0.975862 0.732016 0.734905
O O4 0.954496 0.714940 0.609437
O O5 0.529018 0.210875 0.902505
O O6 0.404420 0.284311 0.885421
O O7 0.425847 0.000000 0.912112
O O8 0.385539 0.206957 0.021618
O O9 0.138318 0.500000 0.872213
O O10 0.176796 0.783045 0.830423
O O11 0.250000 0.750000 0.500000
O O12 0.141141 0.783477 0.450029
O O13 0.173244 0.000000 0.522419
O O14 0.819134 0.780754 0.812743
O O15 0.921077 0.000000 0.786411
O O16 0.124958 0.500000 0.420660
O O17 0.202545 0.696224 0.307172
O O18 0.716294 0.000000 0.200019
#
# Coordination Sequence:
#
# PCOD8107076 Si02
#       7
#     8   8   8   8   8   8   8
#     4  10  21  40  63  84 112 148 183 226 279 332
#     4   9  19  37  57  79 111 149 187 228 280 335
#     4   9  19  36  58  81 108 146 189 232 277 332
#     4  12  25  39  58  85 116 149 187 230 274 324
#     4  11  22  36  57  85 114 145 186 231 273 327
#     4   9  20  39  60  82 111 147 184 225 278 335
#     4  10  21  37  58  83 113 147 183 229 280 329
#
# _framework density 19.637481000000001
#
# number of rings (size 3 to 8) (size 9 to 14) (size 15 to 20)
#    0.000    2.000    0.000    5.571    0.000    8.000 
#    0.000    4.286    0.000    0.000    0.000    0.000 
#    0.000    0.000    0.000    0.000    0.000    0.000 
#
# Total GULP energy -347325.111773 kJ/mol
# GULP energy per Si atom -12404.468278 kJ/mol
# Density = 1.959279 g / cm^3
# Si number density = 19.637481 Si / 1000 Ang^3
#
#
#
# Elastic Constant Matrix: (Units=GPa)
#
#
# Indices 1 2 3 4 5 6 
#
# 1 32.7256 17.4183 6.4695 0.0001 -13.1599 0.0000
# 2 17.4183 99.5481 19.2329 0.0002 -6.0688 0.0004
# 3 6.4695 19.2329 45.2207 0.0000 -16.8392 0.0000
# 4 0.0001 0.0002 0.0000 35.4264 0.0000 -3.9068
# 5 -13.1599 -6.0688 -16.8392 0.0000 38.8108 0.0000
# 6 0.0000 0.0004 0.0000 -3.9068 0.0000 33.2679
#
#
#
# Elastic Compliance Matrix: (Units=1/GPa)
#
#
# Indices 1 2 3 4 5 6 
#
# 1 0.038797 -0.006384 0.002018 0.000000 0.013032 0.000000
# 2 -0.006384 0.012000 -0.005126 0.000000 -0.002512 0.000000
# 3 0.002018 -0.005126 0.028579 0.000000 0.012282 0.000000
# 4 0.000000 0.000000 0.000000 0.028598 0.000000 0.003358
# 5 0.013032 -0.002512 0.012282 0.000000 0.035121 0.000000
# 6 0.000000 0.000000 0.000000 0.003358 0.000000 0.030453
#
#
# Mechanical properties :
#
#
# Convention : Reuss Voigt Hill
#
# Bulk Modulus (GPa) = 16.55868 29.30396 22.93132
# Shear Modulus (GPa) = 23.51153 30.45928 26.98540
#
# Velocity S-wave (km/s) = 3.46392 3.94265 3.71101
# Velocity P-wave (km/s) = 4.94458 5.97334 5.48314
#
# Compressibility (1/GPa) = 0.06039129
#
# Stress axis : x y z
#
# Youngs Moduli (GPa) = 25.77547 83.33665 34.99088
#
# Poissons Ratio (x) = 0.53199 -0.07060
# Poissons Ratio (y) = 0.16454 0.17935
# Poissons Ratio (z) = -0.05200 0.42716
#
# Static dielectric constant tensor:
#      x y z
#    x 3.470470 0.000000 -0.070350 
#    y 0.000000 3.505940 0.000000 
#    z -0.070350 0.000000 3.601030 
# 
# 
# High freq. dielectric constant tensor:
#      x y z
#    x 1.758000 0.000000 -0.005730 
#    y 0.000000 1.766160 0.000000 
#    z -0.005730 0.000000 1.772550 
# 
# From -- ./inp_files/313770.got.cif
#   From: 2010.06.25/outbox.cif.g09.slc.cpg/sg12_157_cif.got.tgz:313770.got - 2010.06.28 00:19:55.
