data_PCOD8107629
_publ_section_title
;
Structure prediction by ZEFSAII (Michael W. Deem and Ramdas Pophale) SiO2 
 PCOD8107629
Probable space group: C 2/M
;
_chemical_formula_sum "Si O2"
_cell_formula_units_Z 56
_cell_length_a 14.375822
_cell_length_b 16.518868
_cell_length_c 19.528705
_cell_angle_alpha 90.000000
_cell_angle_beta 35.130231
_cell_angle_gamma 90.000000
_cell_volume 2668.603717
_symmetry_space_group_name_H-M "C 2/M"
_symmetry_group_IT_number 12
_symmetry_cell_setting 'monoclinic'
loop_
_space_group_symop_operation_xyz
x,y,z
-x,y,-z
-x,-y,-z
x,-y,z
1/2+x,1/2+y,z
1/2-x,1/2+y,-z
1/2-x,1/2-y,-z
1/2+x,1/2-y,z
loop_
_atom_site_type_symbol
_atom_site_label
_atom_site_fract_x
_atom_site_fract_y
_atom_site_fract_z
Si Si1 0.838216 0.663691 0.443617
Si Si2 0.465005 0.407952 0.320480
Si Si3 0.234592 0.092180 0.935156
Si Si4 0.576960 0.851035 0.763227
Si Si5 0.666545 0.905498 0.278250
Si Si6 0.453768 0.667777 0.184913
Si Si7 0.103414 0.092511 0.375558
O O1 0.750000 0.750000 0.500000
O O2 0.724998 0.597827 0.548382
O O3 0.863420 0.642112 0.349975
O O4 0.010663 0.653747 0.378242
O O5 0.515550 0.500000 0.276157
O O6 0.512437 0.357594 0.224977
O O7 0.559197 0.367931 0.328686
O O8 0.400178 0.110331 0.876033
O O9 0.250368 0.108520 0.845171
O O10 0.182844 0.000000 0.980823
O O11 0.095776 0.151018 0.045800
O O12 0.581251 0.762261 0.792504
O O13 0.704722 0.902394 0.729998
O O14 0.791574 0.880211 0.262002
O O15 0.618154 0.000000 0.316150
O O16 0.000000 0.133897 0.500000
O O17 0.046253 0.000000 0.404833
#
# Coordination Sequence:
#
# PCOD8107629 Si02
#       7
#     8   8   8   8   8   8   8
#     4  11  22  40  60  90 126 159 201 254 306 367
#     4  11  23  39  61  88 126 166 202 250 311 370
#     4  10  22  43  67  88 119 163 217 261 302 366
#     4  11  23  38  64  92 123 161 210 259 313 363
#     4  10  23  41  66  92 121 166 214 251 301 375
#     4  12  24  39  62  92 131 162 201 260 319 370
#     4  10  21  37  62  89 119 161 211 254 303 371
#
# _framework density 20.984757999999999
#
# number of rings (size 3 to 8) (size 9 to 14) (size 15 to 20)
#    0.000    1.286    2.857    3.000    2.000    2.857 
#    0.000    3.571    0.000    2.571    0.000    0.000 
#    0.000    0.000    0.000    0.000    0.000    0.000 
#
# Total GULP energy -347224.440571 kJ/mol
# GULP energy per Si atom -12400.872878 kJ/mol
# Density = 2.093700 g / cm^3
# Si number density = 20.984758 Si / 1000 Ang^3
#
#
#
# Elastic Constant Matrix: (Units=GPa)
#
#
# Indices 1 2 3 4 5 6 
#
# 1 125.4019 11.6510 22.4745 -0.0002 -8.7198 0.0001
# 2 11.6510 56.7918 10.4387 -0.0003 7.5328 0.0002
# 3 22.4745 10.4387 60.3242 -0.0007 -7.3322 0.0009
# 4 -0.0002 -0.0003 -0.0007 14.9502 0.0011 1.9054
# 5 -8.7198 7.5328 -7.3322 0.0011 26.1655 -0.0006
# 6 0.0001 0.0002 0.0009 1.9054 -0.0006 25.4371
#
#
#
# Elastic Compliance Matrix: (Units=1/GPa)
#
#
# Indices 1 2 3 4 5 6 
#
# 1 0.008792 -0.001667 -0.002663 0.000000 0.002664 0.000000
# 2 -0.001667 0.019577 -0.003643 0.000001 -0.007212 0.000000
# 3 -0.002663 -0.003643 0.018862 0.000000 0.005447 -0.000001
# 4 0.000000 0.000001 0.000000 0.067533 -0.000003 -0.005059
# 5 0.002664 -0.007212 0.005447 -0.000003 0.042709 0.000001
# 6 0.000000 0.000000 -0.000001 -0.005059 0.000001 0.039692
#
#
# Mechanical properties :
#
#
# Convention : Reuss Voigt Hill
#
# Bulk Modulus (GPa) = 31.96649 36.84960 34.40804
# Shear Modulus (GPa) = 22.36752 26.50748 24.43750
#
# Velocity S-wave (km/s) = 3.26834 3.55798 3.41623
# Velocity P-wave (km/s) = 5.43222 5.87173 5.65625
#
# Compressibility (1/GPa) = 0.03128276
#
# Stress axis : x y z
#
# Youngs Moduli (GPa) = 113.74237 51.08161 53.01743
#
# Poissons Ratio (x) = 0.08518 0.14120
# Poissons Ratio (y) = 0.18966 0.19314
# Poissons Ratio (z) = 0.30292 0.18609
#
# Static dielectric constant tensor:
#      x y z
#    x 3.976290 0.000000 -0.133610 
#    y 0.000000 3.671570 0.000000 
#    z -0.133610 0.000000 3.839120 
# 
# 
# High freq. dielectric constant tensor:
#      x y z
#    x 1.829610 0.000000 -0.006380 
#    y 0.000000 1.815940 0.000000 
#    z -0.006380 0.000000 1.815470 
# 
# From -- ./inp_files/293917.got.cif
#   From: 2010.06.25/outbox.cif.g09.slc.cpg/sg12_147_cif.got.tgz:293917.got - 2010.06.28 00:19:55.
