data_PCOD8107454
_publ_section_title
;
Structure prediction by ZEFSAII (Michael W. Deem and Ramdas Pophale) SiO2 
 PCOD8107454
Probable space group: C 2/M
;
_chemical_formula_sum "Si O2"
_cell_formula_units_Z 56
_cell_length_a 23.274900
_cell_length_b 8.840116
_cell_length_c 14.163632
_cell_angle_alpha 90.000000
_cell_angle_beta 96.711721
_cell_angle_gamma 90.000000
_cell_volume 2894.235410
_symmetry_space_group_name_H-M "C 2/M"
_symmetry_group_IT_number 12
_symmetry_cell_setting 'monoclinic'
loop_
_space_group_symop_operation_xyz
x,y,z
-x,y,-z
-x,-y,-z
x,-y,z
1/2+x,1/2+y,z
1/2-x,1/2+y,-z
1/2-x,1/2-y,-z
1/2+x,1/2-y,z
loop_
_atom_site_type_symbol
_atom_site_label
_atom_site_fract_x
_atom_site_fract_y
_atom_site_fract_z
Si Si1 0.783853 0.673783 0.318581
Si Si2 0.368952 0.325235 0.466156
Si Si3 0.083354 0.677802 0.343270
Si Si4 0.961346 0.174563 0.322097
Si Si5 0.837515 0.178005 0.787820
Si Si6 0.124931 0.672840 0.822602
Si Si7 0.190368 0.677113 0.020347
O O1 0.789734 0.500000 0.351060
O O2 0.808347 0.777602 0.407219
O O3 0.717794 0.719399 0.287143
O O4 0.818157 0.704641 0.228502
O O5 0.365905 0.500000 0.494859
O O6 0.378031 0.226911 0.560750
O O7 0.420835 0.292879 0.403796
O O8 0.087798 0.500000 0.330295
O O9 0.105912 0.759046 0.253152
O O10 0.017534 0.724826 0.347789
O O11 0.927821 0.220928 0.220165
O O12 0.979426 0.000000 0.319294
O O13 0.833231 0.254895 0.888067
O O14 0.842587 0.000000 0.804338
O O15 0.104599 0.500000 0.806798
O O16 0.140995 0.710601 0.933159
O O17 0.201415 0.500000 0.033883
O O18 0.250000 0.750000 0.000000
#
# Coordination Sequence:
#
# PCOD8107454 Si02
#       7
#     8   8   8   8   8   8   8
#     4   9  18  35  57  84 116 151 189 233 288 342
#     4  10  21  37  60  88 115 148 192 241 287 338
#     4  12  25  40  58  82 114 157 196 236 289 348
#     4  10  21  38  61  88 115 148 192 242 288 337
#     4  11  23  40  59  84 119 156 193 241 291 344
#     4   9  18  35  58  87 118 149 188 236 285 336
#     4  11  21  36  60  90 121 154 193 236 285 343
#
# _framework density 19.348806
#
# number of rings (size 3 to 8) (size 9 to 14) (size 15 to 20)
#    0.000    1.714    1.429    3.429    0.000    6.286 
#    0.000    0.714    0.000    4.286    0.000    0.000 
#    0.000    0.000    0.000    0.000    0.000    0.000 
#
# Total GULP energy -347343.130365 kJ/mol
# GULP energy per Si atom -12405.111799 kJ/mol
# Density = 1.930477 g / cm^3
# Si number density = 19.348806 Si / 1000 Ang^3
#
#
#
# Elastic Constant Matrix: (Units=GPa)
#
#
# Indices 1 2 3 4 5 6 
#
# 1 34.5996 22.1710 19.9279 0.0000 1.8475 0.0000
# 2 22.1710 87.4338 50.1275 0.0000 6.1602 0.0000
# 3 19.9279 50.1275 103.8313 0.0000 1.4294 0.0000
# 4 0.0000 0.0000 0.0000 36.7323 0.0000 2.4900
# 5 1.8475 6.1602 1.4294 0.0000 20.8771 0.0000
# 6 0.0000 0.0000 0.0000 2.4900 0.0000 33.2118
#
#
#
# Elastic Compliance Matrix: (Units=1/GPa)
#
#
# Indices 1 2 3 4 5 6 
#
# 1 0.035370 -0.006947 -0.003423 0.000000 -0.000846 0.000000
# 2 -0.006947 0.017546 -0.007081 0.000000 -0.004078 0.000000
# 3 -0.003423 -0.007081 0.013687 0.000000 0.001455 0.000000
# 4 0.000000 0.000000 0.000000 0.027363 0.000000 -0.002052
# 5 -0.000846 -0.004078 0.001455 0.000000 0.049078 0.000000
# 6 0.000000 0.000000 0.000000 -0.002052 0.000000 0.030264
#
#
# Mechanical properties :
#
#
# Convention : Reuss Voigt Hill
#
# Bulk Modulus (GPa) = 31.54546 45.59085 38.56816
# Shear Modulus (GPa) = 22.85435 27.07346 24.96391
#
# Velocity S-wave (km/s) = 3.44055 3.74469 3.59584
# Velocity P-wave (km/s) = 5.66764 6.50467 6.10053
#
# Compressibility (1/GPa) = 0.03170028
#
# Stress axis : x y z
#
# Youngs Moduli (GPa) = 28.27234 56.99309 73.06378
#
# Poissons Ratio (x) = 0.39593 0.25010
# Poissons Ratio (y) = 0.19641 0.51739
# Poissons Ratio (z) = 0.09678 0.40359
#
# Static dielectric constant tensor:
#      x y z
#    x 3.424070 0.000000 0.146480 
#    y 0.000000 3.587560 0.000000 
#    z 0.146480 0.000000 3.456540 
# 
# 
# High freq. dielectric constant tensor:
#      x y z
#    x 1.744580 0.000000 0.008310 
#    y 0.000000 1.761530 0.000000 
#    z 0.008310 0.000000 1.754650 
# 
# From -- ./inp_files/230990.got.cif
#   From: 2010.06.25/outbox.cif.g09.slc.cpg/sg12_116_cif.got.tgz:230990.got - 2010.06.28 00:19:55.
