data_PCOD8107362
_publ_section_title
;
Structure prediction by ZEFSAII (Michael W. Deem and Ramdas Pophale) SiO2 
 PCOD8107362
Probable space group: C 2/M
;
_chemical_formula_sum "Si O2"
_cell_formula_units_Z 32
_cell_length_a 15.240064
_cell_length_b 18.330407
_cell_length_c 9.741324
_cell_angle_alpha 90.000000
_cell_angle_beta 140.034388
_cell_angle_gamma 90.000000
_cell_volume 1747.968315
_symmetry_space_group_name_H-M "C 2/M"
_symmetry_group_IT_number 12
_symmetry_cell_setting 'monoclinic'
loop_
_space_group_symop_operation_xyz
x,y,z
-x,y,-z
-x,-y,-z
x,-y,z
1/2+x,1/2+y,z
1/2-x,1/2+y,-z
1/2-x,1/2-y,-z
1/2+x,1/2-y,z
loop_
_atom_site_type_symbol
_atom_site_label
_atom_site_fract_x
_atom_site_fract_y
_atom_site_fract_z
Si Si1 0.222074 0.726967 0.618781
Si Si2 0.089155 0.915489 0.866266
Si Si3 0.844696 0.420699 0.356293
Si Si4 0.000000 0.175376 0.000000
Si Si5 0.500000 0.327462 0.500000
O O1 0.250000 0.750000 0.500000
O O2 0.172194 0.642987 0.553025
O O3 0.369998 0.727703 0.869651
O O4 0.115524 0.777222 0.570193
O O5 0.074673 0.877509 0.701307
O O6 0.048118 0.000000 0.802948
O O7 0.245451 0.906109 0.106443
O O8 0.984963 0.877085 0.848794
O O9 0.806741 0.500000 0.375100
O O10 0.000000 0.420971 0.500000
#
# Coordination Sequence:
#
# PCOD8107362 Si02
#       5
#     8   8   8   4   4
#     4  11  22  38  56  89 120 149 194 240 296 345
#     4  10  21  37  59  89 119 154 197 241 292 349
#     4   9  19  37  61  84 113 154 200 240 282 343
#     4  10  21  38  62  84 117 156 202 240 285 346
#     4  12  23  38  61  88 124 156 188 246 301 350
#
# _framework density 18.306968000000001
#
# number of rings (size 3 to 8) (size 9 to 14) (size 15 to 20)
#    0.000    1.750    3.750    0.750    0.000    7.000 
#    0.000    0.000    0.000    0.000    0.000    7.875 
#    0.000    0.000    0.000    0.000    0.000    0.000 
#
# Total GULP energy -198266.544939 kJ/mol
# GULP energy per Si atom -12391.659059 kJ/mol
# Density = 1.826530 g / cm^3
# Si number density = 18.306968 Si / 1000 Ang^3
#
#
#
# Elastic Constant Matrix: (Units=GPa)
#
#
# Indices 1 2 3 4 5 6 
#
# 1 117.5339 67.9413 53.7872 0.0000 -3.5164 0.0000
# 2 67.9413 139.2632 67.6634 0.0000 -10.9806 0.0000
# 3 53.7872 67.6634 79.8457 0.0000 1.5144 0.0000
# 4 0.0000 0.0000 0.0000 19.3120 0.0000 1.8612
# 5 -3.5164 -10.9806 1.5144 0.0000 42.2086 0.0000
# 6 0.0000 0.0000 0.0000 1.8612 0.0000 21.5215
#
#
#
# Elastic Compliance Matrix: (Units=1/GPa)
#
#
# Indices 1 2 3 4 5 6 
#
# 1 0.013305 -0.003573 -0.005942 0.000000 0.000392 0.000000
# 2 -0.003573 0.013721 -0.009290 0.000000 0.003605 0.000000
# 3 -0.005942 -0.009290 0.024471 0.000000 -0.003790 0.000000
# 4 0.000000 0.000000 0.000000 0.052216 0.000000 -0.004516
# 5 0.000392 0.003605 -0.003790 0.000000 0.024798 0.000000
# 6 0.000000 0.000000 0.000000 -0.004516 0.000000 0.046856
#
#
# Mechanical properties :
#
#
# Convention : Reuss Voigt Hill
#
# Bulk Modulus (GPa) = 72.00431 79.49185 75.74808
# Shear Modulus (GPa) = 22.97733 26.42517 24.70125
#
# Velocity S-wave (km/s) = 3.54660 3.80340 3.67724
# Velocity P-wave (km/s) = 7.49588 7.92488 7.71336
#
# Compressibility (1/GPa) = 0.01388806
#
# Stress axis : x y z
#
# Youngs Moduli (GPa) = 75.16250 72.87898 40.86439
#
# Poissons Ratio (x) = 0.26037 0.24283
# Poissons Ratio (y) = 0.26853 0.37961
# Poissons Ratio (z) = 0.44664 0.67701
#
# Static dielectric constant tensor:
#      x y z
#    x 1.662390 0.000000 -5.540740 
#    y 0.000000 3.927610 0.000000 
#    z -5.540740 0.000000 -15.032780 
# 
# 
# High freq. dielectric constant tensor:
#      x y z
#    x 1.706030 0.000000 0.019600 
#    y 0.000000 1.724070 0.000000 
#    z 0.019600 0.000000 1.703440 
# 
# From -- ./inp_files/46457.got.cif
#   From: 2010.06.25/outbox.cif.g09.slc.cpg/sg12_24_cif.got.tgz:46457.got - 2010.06.28 00:19:55.
