data_PCOD8107818
_publ_section_title
;
Structure prediction by ZEFSAII (Michael W. Deem and Ramdas Pophale) SiO2 
 PCOD8107818
Probable space group: C 2/M
;
_chemical_formula_sum "Si O2"
_cell_formula_units_Z 40
_cell_length_a 9.497059
_cell_length_b 16.832009
_cell_length_c 17.695652
_cell_angle_alpha 90.000000
_cell_angle_beta 44.095677
_cell_angle_gamma 90.000000
_cell_volume 1968.396870
_symmetry_space_group_name_H-M "C 2/M"
_symmetry_group_IT_number 12
_symmetry_cell_setting 'monoclinic'
loop_
_space_group_symop_operation_xyz
x,y,z
-x,y,-z
-x,-y,-z
x,-y,z
1/2+x,1/2+y,z
1/2-x,1/2+y,-z
1/2-x,1/2-y,-z
1/2+x,1/2-y,z
loop_
_atom_site_type_symbol
_atom_site_label
_atom_site_fract_x
_atom_site_fract_y
_atom_site_fract_z
Si Si1 0.125016 0.743318 0.150852
Si Si2 0.365098 0.410947 0.368258
Si Si3 0.000000 0.304791 0.500000
Si Si4 0.000000 0.139429 0.000000
Si Si5 0.040534 0.913306 0.144159
Si Si6 0.174203 0.211018 0.293490
O O1 0.309817 0.692372 0.048121
O O2 0.175303 0.834873 0.107183
O O3 0.106203 0.735652 0.248553
O O4 0.917788 0.708069 0.196637
O O5 0.340986 0.500000 0.408486
O O6 0.365558 0.408915 0.275918
O O7 0.574529 0.376227 0.321999
O O8 0.174826 0.359271 0.469382
O O9 0.905309 0.249416 0.599781
O O10 0.947299 0.088006 0.095028
O O11 0.152468 0.000000 0.110391
#
# Coordination Sequence:
#
# PCOD8107818 Si02
#       6
#     8   8   4   4   8   8
#     4  11  22  40  63  88 119 160 202 248 296 358
#     4  10  22  39  59  88 125 159 197 245 300 356
#     4  12  19  38  67  90 114 164 206 240 289 364
#     4  12  21  38  65  88 114 160 210 246 291 356
#     4  10  21  38  57  85 121 154 195 246 298 352
#     4  11  22  39  63  89 121 158 203 246 296 356
#
# _framework density 20.321104999999999
#
# number of rings (size 3 to 8) (size 9 to 14) (size 15 to 20)
#    0.000    1.200    6.000    1.800    0.000    0.000 
#    0.000    3.000    0.000    0.000    0.000    0.000 
#    0.000    0.000    0.000    0.000    0.000    0.000 
#
# Total GULP energy -247829.026303 kJ/mol
# GULP energy per Si atom -12391.451315 kJ/mol
# Density = 2.027485 g / cm^3
# Si number density = 20.321105 Si / 1000 Ang^3
#
#
#
# Elastic Constant Matrix: (Units=GPa)
#
#
# Indices 1 2 3 4 5 6 
#
# 1 103.3592 46.3047 34.7905 0.0010 -16.7736 -0.0019
# 2 46.3047 118.5671 48.6968 0.0016 -10.4713 -0.0018
# 3 34.7905 48.6968 73.8296 0.0014 -8.2373 -0.0010
# 4 0.0010 0.0016 0.0014 11.6755 -0.0003 -1.4083
# 5 -16.7736 -10.4713 -8.2373 -0.0003 32.8075 0.0019
# 6 -0.0019 -0.0018 -0.0010 -1.4083 0.0019 19.0657
#
#
#
# Elastic Compliance Matrix: (Units=1/GPa)
#
#
# Indices 1 2 3 4 5 6 
#
# 1 0.013081 -0.003256 -0.003484 0.000000 0.004774 0.000000
# 2 -0.003256 0.012486 -0.006628 -0.000001 0.000656 0.000000
# 3 -0.003484 -0.006628 0.019674 -0.000001 0.001043 0.000000
# 4 0.000000 -0.000001 -0.000001 0.086419 0.000000 0.006384
# 5 0.004774 0.000656 0.001043 0.000000 0.033393 -0.000003
# 6 0.000000 0.000000 0.000000 0.006384 -0.000003 0.052922
#
#
# Mechanical properties :
#
#
# Convention : Reuss Voigt Hill
#
# Bulk Modulus (GPa) = 54.03744 61.70441 57.87092
# Shear Modulus (GPa) = 19.92990 23.77401 21.85195
#
# Velocity S-wave (km/s) = 3.13509 3.42412 3.28278
# Velocity P-wave (km/s) = 6.30512 6.78700 6.55049
#
# Compressibility (1/GPa) = 0.01850569
#
# Stress axis : x y z
#
# Youngs Moduli (GPa) = 76.44575 80.09123 50.82761
#
# Poissons Ratio (x) = 0.26079 0.17707
# Poissons Ratio (y) = 0.24892 0.33687
# Poissons Ratio (z) = 0.26632 0.53083
#
# Static dielectric constant tensor:
#      x y z
#    x 3.679460 0.000000 0.141570 
#    y 0.000000 3.851920 0.000000 
#    z 0.141570 0.000000 3.727630 
# 
# 
# High freq. dielectric constant tensor:
#      x y z
#    x 1.776910 0.000000 0.020730 
#    y 0.000000 1.788790 0.000000 
#    z 0.020730 0.000000 1.797140 
# 
# From -- ./inp_files/256400.got.cif
#   From: 2010.06.25/outbox.cif.g09.slc.cpg/sg12_129_cif.got.tgz:256400.got - 2010.06.28 00:19:55.
