data_PCOD8107987
_publ_section_title
;
Structure prediction by ZEFSAII (Michael W. Deem and Ramdas Pophale) SiO2 
 PCOD8107987
Probable space group: C 2/M
;
_chemical_formula_sum "Si O2"
_cell_formula_units_Z 40
_cell_length_a 10.105260
_cell_length_b 8.945126
_cell_length_c 22.144240
_cell_angle_alpha 90.000000
_cell_angle_beta 83.774559
_cell_angle_gamma 90.000000
_cell_volume 1989.876301
_symmetry_space_group_name_H-M "C 2/M"
_symmetry_group_IT_number 12
_symmetry_cell_setting 'monoclinic'
loop_
_space_group_symop_operation_xyz
x,y,z
-x,y,-z
-x,-y,-z
x,-y,z
1/2+x,1/2+y,z
1/2-x,1/2+y,-z
1/2-x,1/2-y,-z
1/2+x,1/2-y,z
loop_
_atom_site_type_symbol
_atom_site_label
_atom_site_fract_x
_atom_site_fract_y
_atom_site_fract_z
Si Si1 0.249229 0.325750 0.935462
Si Si2 0.862484 0.824511 0.533135
Si Si3 0.202127 0.173718 0.328350
Si Si4 0.949551 0.174550 0.260057
Si Si5 0.501158 0.825862 0.133852
O O1 0.277517 0.500000 0.941990
O O2 0.362773 0.258853 0.887279
O O3 0.105701 0.296193 0.913325
O O4 0.250000 0.250000 0.000000
O O5 0.750000 0.750000 0.500000
O O6 0.852167 0.779397 0.603583
O O7 0.000000 0.762094 0.500000
O O8 0.851577 0.000000 0.524737
O O9 0.330192 0.273987 0.308879
O O10 0.088677 0.209819 0.285346
O O11 0.242725 0.000000 0.324212
O O12 0.940304 0.266114 0.198833
O O13 0.934297 0.000000 0.246834
O O14 0.533032 0.000000 0.138759
#
# Coordination Sequence:
#
# PCOD8107987 Si02
#       5
#     8   8   8   8   8
#     4  11  24  41  62  89 120 155 196 240 288 343
#     4  10  21  38  59  84 116 152 191 238 289 342
#     4  10  22  39  58  84 118 152 190 239 290 341
#     4  11  23  39  61  87 115 152 196 238 286 345
#     4  11  24  41  61  88 121 154 192 240 291 343
#
# _framework density 20.101752000000001
#
# number of rings (size 3 to 8) (size 9 to 14) (size 15 to 20)
#    0.000    1.400    0.000    4.800    0.000   14.800 
#    0.000    0.000    0.000    0.000    0.000    0.000 
#    0.000    0.000    0.000    0.000    0.000    0.000 
#
# Total GULP energy -248142.245243 kJ/mol
# GULP energy per Si atom -12407.112262 kJ/mol
# Density = 2.005600 g / cm^3
# Si number density = 20.101752 Si / 1000 Ang^3
#
#
#
# Elastic Constant Matrix: (Units=GPa)
#
#
# Indices 1 2 3 4 5 6 
#
# 1 92.6315 49.2925 19.3855 0.0000 -9.4964 0.0000
# 2 49.2925 84.8155 38.2938 0.0000 6.4310 0.0000
# 3 19.3855 38.2938 107.4951 0.0000 -0.6166 0.0000
# 4 0.0000 0.0000 0.0000 36.6461 0.0000 -4.3910
# 5 -9.4964 6.4310 -0.6166 0.0000 40.2013 0.0000
# 6 0.0000 0.0000 0.0000 -4.3910 0.0000 38.4111
#
#
#
# Elastic Compliance Matrix: (Units=1/GPa)
#
#
# Indices 1 2 3 4 5 6 
#
# 1 0.016837 -0.010558 0.000757 0.000000 0.005678 0.000000
# 2 -0.010558 0.020891 -0.005572 0.000000 -0.005921 0.000000
# 3 0.000757 -0.005572 0.011158 0.000000 0.001241 0.000000
# 4 0.000000 0.000000 0.000000 0.027667 0.000000 0.003163
# 5 0.005678 -0.005921 0.001241 0.000000 0.027182 0.000000
# 6 0.000000 0.000000 0.000000 0.003163 0.000000 0.026396
#
#
# Mechanical properties :
#
#
# Convention : Reuss Voigt Hill
#
# Bulk Modulus (GPa) = 55.12316 55.43174 55.27745
# Shear Modulus (GPa) = 29.95379 34.91640 32.43510
#
# Velocity S-wave (km/s) = 3.86438 4.17223 4.02125
# Velocity P-wave (km/s) = 6.88425 7.13060 7.00851
#
# Compressibility (1/GPa) = 0.01814119
#
# Stress axis : x y z
#
# Youngs Moduli (GPa) = 59.39220 47.86767 89.61926
#
# Poissons Ratio (x) = 0.50537 -0.06786
# Poissons Ratio (y) = 0.62705 0.49937
# Poissons Ratio (z) = -0.04497 0.26672
#
# Static dielectric constant tensor:
#      x y z
#    x 3.847690 0.000000 -0.081040 
#    y 0.000000 3.682850 0.000000 
#    z -0.081040 0.000000 3.767870 
# 
# 
# High freq. dielectric constant tensor:
#      x y z
#    x 1.798070 0.000000 -0.001510 
#    y 0.000000 1.789180 0.000000 
#    z -0.001510 0.000000 1.802440 
# 
# From -- ./inp_files/303455.got.cif
#   From: 2010.06.25/outbox.cif.g09.slc.cpg/sg12_152_cif.got.tgz:303455.got - 2010.06.28 00:19:55.
