data_PCOD8107238
_publ_section_title
;
Structure prediction by ZEFSAII (Michael W. Deem and Ramdas Pophale) SiO2 
 PCOD8107238
Probable space group: C 2/M
;
_chemical_formula_sum "Si O2"
_cell_formula_units_Z 64
_cell_length_a 14.550536
_cell_length_b 8.908874
_cell_length_c 23.982581
_cell_angle_alpha 90.000000
_cell_angle_beta 90.247848
_cell_angle_gamma 90.000000
_cell_volume 3108.806312
_symmetry_space_group_name_H-M "C 2/M"
_symmetry_group_IT_number 12
_symmetry_cell_setting 'monoclinic'
loop_
_space_group_symop_operation_xyz
x,y,z
-x,y,-z
-x,-y,-z
x,-y,z
1/2+x,1/2+y,z
1/2-x,1/2+y,-z
1/2-x,1/2-y,-z
1/2+x,1/2-y,z
loop_
_atom_site_type_symbol
_atom_site_label
_atom_site_fract_x
_atom_site_fract_y
_atom_site_fract_z
Si Si1 0.893992 0.673661 0.506795
Si Si2 0.245246 0.173486 0.413943
Si Si3 0.601315 0.664794 0.880923
Si Si4 0.364726 0.174780 0.792521
Si Si5 0.716933 0.322870 0.701332
Si Si6 0.075531 0.676008 0.772668
Si Si7 0.105332 0.163717 0.099925
Si Si8 0.847458 0.677354 0.007452
O O1 0.889531 0.500000 0.525338
O O2 0.845947 0.774198 0.553744
O O3 0.838400 0.698666 0.449384
O O4 0.000000 0.725245 0.500000
O O5 0.252516 0.273759 0.359429
O O6 0.233123 0.000000 0.397861
O O7 0.649701 0.500000 0.887162
O O8 0.631072 0.745936 0.824010
O O9 0.493811 0.638163 0.875053
O O10 0.617343 0.772878 0.932721
O O11 0.296030 0.229669 0.744435
O O12 0.467573 0.214343 0.772324
O O13 0.336864 0.253023 0.851450
O O14 0.355301 0.000000 0.804332
O O15 0.702090 0.500000 0.702708
O O16 0.621003 0.241753 0.716678
O O17 0.092627 0.500000 0.776499
O O18 0.150490 0.000000 0.086700
O O19 0.092500 0.260286 0.043582
O O20 0.846407 0.500000 0.004046
O O21 0.750000 0.750000 0.000000
#
# Coordination Sequence:
#
# PCOD8107238 Si02
#       8
#     8   8   8   8   8   8   8   8
#     4   9  19  38  63  88 120 162 200 238 289 345
#     4  10  21  37  58  89 123 155 199 246 288 341
#     4  10  21  39  60  82 110 143 181 230 289 355
#     4   9  21  40  60  82 112 154 198 238 289 354
#     4  11  23  39  60  85 120 161 198 243 295 346
#     4  10  21  39  61  85 113 150 198 245 291 349
#     4  10  21  38  60  83 109 141 181 232 290 351
#     4  12  25  38  55  80 110 143 183 232 286 351
#
# _framework density 20.586680000000001
#
# number of rings (size 3 to 8) (size 9 to 14) (size 15 to 20)
#    0.000    1.875    0.000    3.375    1.750    6.250 
#    0.000    5.000    0.000    0.000    0.000    0.000 
#    0.000    0.000    0.000    0.000    0.000    0.000 
#
# Total GULP energy -396772.000229 kJ/mol
# GULP energy per Si atom -12399.125007 kJ/mol
# Density = 2.053982 g / cm^3
# Si number density = 20.586680 Si / 1000 Ang^3
#
#
#
# Elastic Constant Matrix: (Units=GPa)
#
#
# Indices 1 2 3 4 5 6 
#
# 1 70.8343 26.6053 20.2070 0.0000 -4.2093 0.0000
# 2 26.6053 118.6188 34.9526 0.0000 -3.6661 0.0000
# 3 20.2070 34.9526 95.8463 0.0000 -6.0867 0.0000
# 4 0.0000 0.0000 0.0000 40.3299 0.0000 -3.6578
# 5 -4.2093 -3.6661 -6.0867 0.0000 25.0572 0.0000
# 6 0.0000 0.0000 0.0000 -3.6578 0.0000 28.7628
#
#
#
# Elastic Compliance Matrix: (Units=1/GPa)
#
#
# Indices 1 2 3 4 5 6 
#
# 1 0.015926 -0.002870 -0.002202 0.000000 0.001721 0.000000
# 2 -0.002870 0.009970 -0.003015 0.000000 0.000244 0.000000
# 3 -0.002202 -0.003015 0.012133 0.000000 0.002136 0.000000
# 4 0.000000 0.000000 0.000000 0.025085 0.000000 0.003190
# 5 0.001721 0.000244 0.002136 0.000000 0.040752 0.000000
# 6 0.000000 0.000000 0.000000 0.003190 0.000000 0.035173
#
#
# Mechanical properties :
#
#
# Convention : Reuss Voigt Hill
#
# Bulk Modulus (GPa) = 45.75683 49.86993 47.81338
# Shear Modulus (GPa) = 30.76966 32.39893 31.58429
#
# Velocity S-wave (km/s) = 3.87025 3.97139 3.92115
# Velocity P-wave (km/s) = 6.49973 6.73099 6.61637
#
# Compressibility (1/GPa) = 0.02185466
#
# Stress axis : x y z
#
# Youngs Moduli (GPa) = 62.79123 100.29950 82.42135
#
# Poissons Ratio (x) = 0.28787 0.18146
# Poissons Ratio (y) = 0.18022 0.24852
# Poissons Ratio (z) = 0.13825 0.30243
#
# Static dielectric constant tensor:
#      x y z
#    x 3.729890 0.000000 -0.090750 
#    y 0.000000 4.136790 0.000000 
#    z -0.090750 0.000000 3.394520 
# 
# 
# High freq. dielectric constant tensor:
#      x y z
#    x 1.804400 0.000000 -0.006070 
#    y 0.000000 1.815890 0.000000 
#    z -0.006070 0.000000 1.801390 
# 
# From -- ./inp_files/338938.got.cif
#   From: 2010.06.25/outbox.cif.g09.slc.cpg/sg12_170_cif.got.tgz:338938.got - 2010.06.28 00:19:55.
