data_PCOD8107482
_publ_section_title
;
Structure prediction by ZEFSAII (Michael W. Deem and Ramdas Pophale) SiO2 
 PCOD8107482
Probable space group: C 2/M
;
_chemical_formula_sum "Si O2"
_cell_formula_units_Z 56
_cell_length_a 9.565527
_cell_length_b 13.193303
_cell_length_c 26.696727
_cell_angle_alpha 90.000000
_cell_angle_beta 58.446870
_cell_angle_gamma 90.000000
_cell_volume 2871.039731
_symmetry_space_group_name_H-M "C 2/M"
_symmetry_group_IT_number 12
_symmetry_cell_setting 'monoclinic'
loop_
_space_group_symop_operation_xyz
x,y,z
-x,y,-z
-x,-y,-z
x,-y,z
1/2+x,1/2+y,z
1/2-x,1/2+y,-z
1/2-x,1/2-y,-z
1/2+x,1/2-y,z
loop_
_atom_site_type_symbol
_atom_site_label
_atom_site_fract_x
_atom_site_fract_y
_atom_site_fract_z
Si Si1 0.740912 0.231897 0.820347
Si Si2 0.557786 0.756187 0.625140
Si Si3 0.875493 0.754536 0.900989
Si Si4 0.892885 0.880461 0.569387
Si Si5 0.183676 0.612406 0.271163
Si Si6 0.653608 0.382688 0.003138
Si Si7 0.490634 0.610988 0.277251
O O1 0.752855 0.232915 0.877831
O O2 0.549258 0.225827 0.844182
O O3 0.827172 0.331189 0.780087
O O4 0.828148 0.137600 0.776865
O O5 0.724600 0.821183 0.586154
O O6 0.496943 0.684813 0.590700
O O7 0.416371 0.835995 0.665068
O O8 0.585301 0.684705 0.667455
O O9 0.878396 0.858566 0.932336
O O10 0.817318 0.668828 0.950833
O O11 0.000000 0.882359 0.500000
O O12 0.861773 0.000000 0.591915
O O13 0.113471 0.500000 0.276256
O O14 0.373521 0.612038 0.251076
O O15 0.681010 0.500000 0.991293
O O16 0.500000 0.342828 0.000000
O O17 0.500768 0.500000 0.299804
#
# Coordination Sequence:
#
# PCOD8107482 Si02
#       7
#     8   8   8   8   8   8   8
#     4  11  22  37  58  86 118 149 185 241 298 352
#     4  11  21  42  63  90 127 168 207 259 313 368
#     4  11  22  39  58  84 115 146 187 241 289 349
#     4  11  24  41  64  95 129 169 216 264 315 369
#     4  10  21  37  61  89 117 158 203 241 299 370
#     4  10  22  39  61  83 107 150 195 233 291 356
#     4  10  21  37  60  89 119 156 200 246 304 363
#
# _framework density 19.505130999999999
#
# number of rings (size 3 to 8) (size 9 to 14) (size 15 to 20)
#    0.000    1.429    4.286    1.286    0.000    2.286 
#    0.000    2.143    0.000    3.429    0.000    0.000 
#    0.000    0.000    0.000    0.000    0.000    0.000 
#
# Total GULP energy -347061.353448 kJ/mol
# GULP energy per Si atom -12395.048337 kJ/mol
# Density = 1.946074 g / cm^3
# Si number density = 19.505131 Si / 1000 Ang^3
#
#
#
# Elastic Constant Matrix: (Units=GPa)
#
#
# Indices 1 2 3 4 5 6 
#
# 1 67.6049 35.6619 23.5156 0.0000 -1.7516 0.0000
# 2 35.6619 119.4761 37.5775 0.0000 -5.5195 0.0000
# 3 23.5156 37.5775 91.4932 0.0000 -5.5460 0.0000
# 4 0.0000 0.0000 0.0000 21.7372 0.0000 1.2935
# 5 -1.7516 -5.5195 -5.5460 0.0000 40.9441 0.0000
# 6 0.0000 0.0000 0.0000 1.2935 0.0000 29.1429
#
#
#
# Elastic Compliance Matrix: (Units=1/GPa)
#
#
# Indices 1 2 3 4 5 6 
#
# 1 0.018163 -0.004546 -0.002814 0.000000 -0.000217 0.000000
# 2 -0.004546 0.010773 -0.003206 0.000000 0.000824 0.000000
# 3 -0.002814 -0.003206 0.013044 0.000000 0.001214 0.000000
# 4 0.000000 0.000000 0.000000 0.046126 0.000000 -0.002047
# 5 -0.000217 0.000824 0.001214 0.000000 0.024690 0.000000
# 6 0.000000 0.000000 0.000000 -0.002047 0.000000 0.034405
#
#
# Mechanical properties :
#
#
# Convention : Reuss Voigt Hill
#
# Bulk Modulus (GPa) = 47.96998 52.45379 50.21189
# Shear Modulus (GPa) = 28.52525 30.48611 29.50568
#
# Velocity S-wave (km/s) = 3.82835 3.95774 3.89358
# Velocity P-wave (km/s) = 6.64745 6.91633 6.78322
#
# Compressibility (1/GPa) = 0.02084637
#
# Stress axis : x y z
#
# Youngs Moduli (GPa) = 55.05591 92.82108 76.66609
#
# Poissons Ratio (x) = 0.42200 0.21576
# Poissons Ratio (y) = 0.25031 0.24582
# Poissons Ratio (z) = 0.15494 0.29762
#
# Static dielectric constant tensor:
#      x y z
#    x 3.548270 0.000000 -0.015310 
#    y 0.000000 3.751530 0.000000 
#    z -0.015310 0.000000 3.482020 
# 
# 
# High freq. dielectric constant tensor:
#      x y z
#    x 1.758270 0.000000 -0.003280 
#    y 0.000000 1.762340 0.000000 
#    z -0.003280 0.000000 1.764010 
# 
# From -- ./inp_files/300126.got.cif
#   From: 2010.06.25/outbox.cif.g09.slc.cpg/sg12_151_cif.got.tgz:300126.got - 2010.06.28 00:19:55.
