data_PCOD8107653
_publ_section_title
;
Structure prediction by ZEFSAII (Michael W. Deem and Ramdas Pophale) SiO2 
 PCOD8107653
Probable space group: C 2/M
;
_chemical_formula_sum "Si O2"
_cell_formula_units_Z 52
_cell_length_a 31.254254
_cell_length_b 13.674754
_cell_length_c 9.788793
_cell_angle_alpha 90.000000
_cell_angle_beta 36.589058
_cell_angle_gamma 90.000000
_cell_volume 2493.768851
_symmetry_space_group_name_H-M "C 2/M"
_symmetry_group_IT_number 12
_symmetry_cell_setting 'monoclinic'
loop_
_space_group_symop_operation_xyz
x,y,z
-x,y,-z
-x,-y,-z
x,-y,z
1/2+x,1/2+y,z
1/2-x,1/2+y,-z
1/2-x,1/2-y,-z
1/2+x,1/2-y,z
loop_
_atom_site_type_symbol
_atom_site_label
_atom_site_fract_x
_atom_site_fract_y
_atom_site_fract_z
Si Si1 0.330325 0.108280 0.913065
Si Si2 0.000000 0.209403 0.000000
Si Si3 0.746986 0.109551 0.611461
Si Si4 0.347634 0.784736 0.350814
Si Si5 0.010125 0.885555 0.685404
Si Si6 0.736743 0.112660 0.203309
Si Si7 0.107024 0.192774 0.210569
O O1 0.282814 0.128884 0.902705
O O2 0.392051 0.189870 0.769334
O O3 0.366411 0.000000 0.815786
O O4 0.272143 0.114552 0.181412
O O5 0.066510 0.279173 0.866623
O O6 0.020393 0.142991 0.817131
O O7 0.676856 0.144100 0.707954
O O8 0.815675 0.176724 0.404342
O O9 0.768032 0.000000 0.512454
O O10 0.320663 0.827339 0.562735
O O11 0.081289 0.859685 0.415844
O O12 0.944164 0.827851 0.786520
O O13 0.995060 0.000000 0.712979
O O14 0.734844 0.000000 0.252465
O O15 0.815055 0.155252 0.031592
#
# Coordination Sequence:
#
# PCOD8107653 Si02
#       7
#     8   4   8   8   8   8   8
#     4  10  21  37  62  95 124 157 209 268 318 374
#     4  12  27  42  63  94 136 174 213 268 329 390
#     4  10  22  41  65  93 125 168 217 266 320 383
#     4  11  24  43  63  94 131 170 218 265 329 387
#     4  11  25  42  62  93 131 171 212 260 329 393
#     4  11  22  38  66  97 125 163 218 270 321 381
#     4  11  21  42  65  91 128 171 210 266 321 391
#
# _framework density 20.851972
#
# number of rings (size 3 to 8) (size 9 to 14) (size 15 to 20)
#    0.000    1.231    1.538    4.846    4.308    1.231 
#    0.000    3.077    0.000   11.077    0.000    0.000 
#    0.000    0.000    0.000    0.000    0.000    0.000 
#
# Total GULP energy -322515.517682 kJ/mol
# GULP energy per Si atom -12404.442988 kJ/mol
# Density = 2.080451 g / cm^3
# Si number density = 20.851972 Si / 1000 Ang^3
#
#
#
# Elastic Constant Matrix: (Units=GPa)
#
#
# Indices 1 2 3 4 5 6 
#
# 1 91.7810 35.7424 32.2556 0.0000 2.2242 0.0000
# 2 35.7424 138.7546 21.1290 0.0000 -10.5355 0.0000
# 3 32.2556 21.1290 79.1052 0.0000 -3.7819 0.0000
# 4 0.0000 0.0000 0.0000 26.5036 0.0000 -2.4946
# 5 2.2242 -10.5355 -3.7819 0.0000 44.5459 0.0000
# 6 0.0000 0.0000 0.0000 -2.4946 0.0000 20.2537
#
#
#
# Elastic Compliance Matrix: (Units=1/GPa)
#
#
# Indices 1 2 3 4 5 6 
#
# 1 0.013821 -0.002946 -0.004935 0.000000 -0.001806 0.000000
# 2 -0.002946 0.008258 -0.000908 0.000000 0.002023 0.000000
# 3 -0.004935 -0.000908 0.014958 0.000000 0.001302 0.000000
# 4 0.000000 0.000000 0.000000 0.038173 0.000000 0.004702
# 5 -0.001806 0.002023 0.001302 0.000000 0.023128 0.000000
# 6 0.000000 0.000000 0.000000 0.004702 0.000000 0.049953
#
#
# Mechanical properties :
#
#
# Convention : Reuss Voigt Hill
#
# Bulk Modulus (GPa) = 51.38822 54.21052 52.79937
# Shear Modulus (GPa) = 29.00999 32.96155 30.98577
#
# Velocity S-wave (km/s) = 3.73397 3.98017 3.85903
# Velocity P-wave (km/s) = 6.57935 6.86852 6.72549
#
# Compressibility (1/GPa) = 0.01945971
#
# Stress axis : x y z
#
# Youngs Moduli (GPa) = 72.35461 121.10029 66.85222
#
# Poissons Ratio (x) = 0.35674 0.32992
# Poissons Ratio (y) = 0.21314 0.06068
# Poissons Ratio (z) = 0.35707 0.10993
#
# Static dielectric constant tensor:
#      x y z
#    x 3.775030 0.000000 0.204040 
#    y 0.000000 4.098800 0.000000 
#    z 0.204040 0.000000 3.697310 
# 
# 
# High freq. dielectric constant tensor:
#      x y z
#    x 1.821710 0.000000 0.020810 
#    y 0.000000 1.828130 0.000000 
#    z 0.020810 0.000000 1.809500 
# 
# From -- ./inp_files/111896.got.cif
#   From: 2010.06.25/outbox.cif.g09.slc.cpg/sg12_56_cif.got.tgz:111896.got - 2010.06.28 00:19:55.
