data_PCOD8107132
_publ_section_title
;
Structure prediction by ZEFSAII (Michael W. Deem and Ramdas Pophale) SiO2 
 PCOD8107132
Probable space group: C 2/M
;
_chemical_formula_sum "Si O2"
_cell_formula_units_Z 56
_cell_length_a 23.676617
_cell_length_b 9.110553
_cell_length_c 14.329171
_cell_angle_alpha 90.000000
_cell_angle_beta 64.761847
_cell_angle_gamma 90.000000
_cell_volume 2795.856182
_symmetry_space_group_name_H-M "C 2/M"
_symmetry_group_IT_number 12
_symmetry_cell_setting 'monoclinic'
loop_
_space_group_symop_operation_xyz
x,y,z
-x,y,-z
-x,-y,-z
x,-y,z
1/2+x,1/2+y,z
1/2-x,1/2+y,-z
1/2-x,1/2-y,-z
1/2+x,1/2-y,z
loop_
_atom_site_type_symbol
_atom_site_label
_atom_site_fract_x
_atom_site_fract_y
_atom_site_fract_z
Si Si1 0.959212 0.665560 0.837595
Si Si2 0.310964 0.329807 0.686920
Si Si3 0.924758 0.169705 0.298530
Si Si4 0.811071 0.829983 0.250984
Si Si5 0.845798 0.829413 0.867153
Si Si6 0.935992 0.825706 0.502360
Si Si7 0.850864 0.665711 0.040288
O O1 0.965183 0.500000 0.794714
O O2 0.915281 0.762025 0.798790
O O3 0.027037 0.738195 0.798314
O O4 0.925138 0.664608 0.963336
O O5 0.303627 0.500000 0.665508
O O6 0.255607 0.240187 0.677001
O O7 0.304796 0.306146 0.803058
O O8 0.376907 0.268194 0.603359
O O9 0.855206 0.195106 0.309050
O O10 0.927895 0.228279 0.401995
O O11 0.943859 0.000000 0.278558
O O12 0.842192 0.752571 0.140890
O O13 0.802346 0.000000 0.233619
O O14 0.853047 0.000000 0.886301
O O15 0.815214 0.744380 0.977658
O O16 0.000000 0.759610 0.500000
O O17 0.938088 0.000000 0.506012
O O18 0.824357 0.500000 0.069329
#
# Coordination Sequence:
#
# PCOD8107132 Si02
#       7
#     8   8   8   8   8   8   8
#     4   9  19  34  56  85 114 147 188 238 290 334
#     4  10  21  37  60  86 115 153 193 234 282 340
#     4  10  21  37  58  84 116 152 194 238 281 338
#     4  11  24  38  54  81 117 158 196 234 282 336
#     4   9  17  33  58  85 112 145 188 238 286 332
#     4   9  18  36  64  92 112 140 185 236 288 343
#     4   9  20  37  57  84 115 151 195 237 286 342
#
# _framework density 20.029644000000001
#
# number of rings (size 3 to 8) (size 9 to 14) (size 15 to 20)
#    0.857    1.571    0.000    2.143    0.000    6.286 
#    0.000    3.571    0.000    1.714    0.000    0.000 
#    0.000    0.000    0.000    0.000    0.000    0.000 
#
# Total GULP energy -347069.834373 kJ/mol
# GULP energy per Si atom -12395.351228 kJ/mol
# Density = 1.998406 g / cm^3
# Si number density = 20.029644 Si / 1000 Ang^3
#
#
#
# Elastic Constant Matrix: (Units=GPa)
#
#
# Indices 1 2 3 4 5 6 
#
# 1 121.6871 52.9365 47.4501 0.0000 7.8741 0.0000
# 2 52.9365 101.0625 31.7891 0.0000 8.4688 0.0000
# 3 47.4501 31.7891 92.4649 0.0000 5.5882 0.0000
# 4 0.0000 0.0000 0.0000 19.2989 0.0000 -6.8474
# 5 7.8741 8.4688 5.5882 0.0000 17.5520 0.0000
# 6 0.0000 0.0000 0.0000 -6.8474 0.0000 30.4265
#
#
#
# Elastic Compliance Matrix: (Units=1/GPa)
#
#
# Indices 1 2 3 4 5 6 
#
# 1 0.012176 -0.004823 -0.004487 0.000000 -0.001707 0.000000
# 2 -0.004823 0.013321 -0.001883 0.000000 -0.003664 0.000000
# 3 -0.004487 -0.001883 0.013855 0.000000 -0.001490 0.000000
# 4 0.000000 0.000000 0.000000 0.056313 0.000000 0.012673
# 5 -0.001707 -0.003664 -0.001490 0.000000 0.059981 0.000000
# 6 0.000000 0.000000 0.000000 0.012673 0.000000 0.035718
#
#
# Mechanical properties :
#
#
# Convention : Reuss Voigt Hill
#
# Bulk Modulus (GPa) = 58.94507 64.39619 61.67063
# Shear Modulus (GPa) = 22.78882 25.65809 24.22345
#
# Velocity S-wave (km/s) = 3.37672 3.58300 3.48139
# Velocity P-wave (km/s) = 6.68549 7.02406 6.85686
#
# Compressibility (1/GPa) = 0.01696495
#
# Stress axis : x y z
#
# Youngs Moduli (GPa) = 82.12758 75.07114 72.17683
#
# Poissons Ratio (x) = 0.36211 0.32386
# Poissons Ratio (y) = 0.39614 0.13590
# Poissons Ratio (z) = 0.36851 0.14135
#
# Static dielectric constant tensor:
#      x y z
#    x 3.551860 0.000000 -0.063650 
#    y 0.000000 3.495640 0.000000 
#    z -0.063650 0.000000 3.470380 
# 
# 
# High freq. dielectric constant tensor:
#      x y z
#    x 1.776720 0.000000 -0.008630 
#    y 0.000000 1.770520 0.000000 
#    z -0.008630 0.000000 1.768960 
# 
# From -- ./inp_files/237301.got.cif
#   From: 2010.06.25/outbox.cif.g09.slc.cpg/sg12_119_cif.got.tgz:237301.got - 2010.06.28 00:19:55.
