data_PCOD8107431
_publ_section_title
;
Structure prediction by ZEFSAII (Michael W. Deem and Ramdas Pophale) SiO2 
 PCOD8107431
Probable space group: C 2/M
;
_chemical_formula_sum "Si O2"
_cell_formula_units_Z 56
_cell_length_a 14.111302
_cell_length_b 18.150310
_cell_length_c 19.798121
_cell_angle_alpha 90.000000
_cell_angle_beta 148.346417
_cell_angle_gamma 90.000000
_cell_volume 2661.057219
_symmetry_space_group_name_H-M "C 2/M"
_symmetry_group_IT_number 12
_symmetry_cell_setting 'monoclinic'
loop_
_space_group_symop_operation_xyz
x,y,z
-x,y,-z
-x,-y,-z
x,-y,z
1/2+x,1/2+y,z
1/2-x,1/2+y,-z
1/2-x,1/2-y,-z
1/2+x,1/2-y,z
loop_
_atom_site_type_symbol
_atom_site_label
_atom_site_fract_x
_atom_site_fract_y
_atom_site_fract_z
Si Si1 0.175089 0.672296 0.768882
Si Si2 0.609798 0.084148 0.224232
Si Si3 0.703513 0.831342 0.154185
Si Si4 0.979415 0.916622 0.702552
Si Si5 0.602198 0.583659 0.203023
Si Si6 0.678888 0.084857 0.416125
Si Si7 0.751771 0.669630 0.033610
O O1 0.210049 0.755463 0.765861
O O2 0.260171 0.620973 0.763826
O O3 0.271887 0.669829 0.900026
O O4 0.969638 0.644977 0.651272
O O5 0.720905 0.113279 0.227883
O O6 0.719628 0.092755 0.360935
O O7 0.433325 0.132905 0.120021
O O8 0.555391 0.000000 0.178548
O O9 0.843427 0.864118 0.183758
O O10 0.500000 0.824094 0.000000
O O11 0.843574 0.909433 0.684818
O O12 0.862249 0.895231 0.565938
O O13 0.051517 0.000000 0.741235
O O14 0.584694 0.500000 0.168053
O O15 0.409022 0.620478 0.089078
O O16 0.616241 0.000000 0.393928
O O17 0.750000 0.750000 0.000000
#
# Coordination Sequence:
#
# PCOD8107431 Si02
#       7
#     8   8   8   8   8   8   8
#     4  11  23  38  60  87 119 158 194 239 297 353
#     4  10  21  37  60  86 115 155 199 247 298 350
#     4  12  24  39  60  89 124 158 195 243 301 360
#     4  10  23  42  63  86 117 158 201 247 295 350
#     4  11  22  36  58  88 119 155 199 245 296 353
#     4   9  21  43  64  85 115 154 203 250 294 348
#     4  11  21  37  59  85 120 157 196 244 298 354
#
# _framework density 21.044267000000001
#
# number of rings (size 3 to 8) (size 9 to 14) (size 15 to 20)
#    0.000    1.429    0.000    6.000    0.000    7.429 
#    0.000    5.714    0.000    0.000    0.000    0.000 
#    0.000    0.000    0.000    0.000    0.000    0.000 
#
# Total GULP energy -347068.054540 kJ/mol
# GULP energy per Si atom -12395.287662 kJ/mol
# Density = 2.099637 g / cm^3
# Si number density = 21.044267 Si / 1000 Ang^3
#
#
#
# Elastic Constant Matrix: (Units=GPa)
#
#
# Indices 1 2 3 4 5 6 
#
# 1 117.5562 53.3434 22.1023 -0.0010 -2.5800 -0.0007
# 2 53.3434 150.6529 40.2092 0.0056 1.6322 0.0021
# 3 22.1023 40.2092 70.9547 0.0118 -0.2491 0.0063
# 4 -0.0010 0.0056 0.0118 26.2424 0.0084 6.6904
# 5 -2.5800 1.6322 -0.2491 0.0084 18.7760 0.0052
# 6 -0.0007 0.0021 0.0063 6.6904 0.0052 48.7521
#
#
#
# Elastic Compliance Matrix: (Units=1/GPa)
#
#
# Indices 1 2 3 4 5 6 
#
# 1 0.010295 -0.003310 -0.001325 0.000001 0.001685 0.000000
# 2 -0.003310 0.008895 -0.004014 0.000000 -0.001281 0.000000
# 3 -0.001325 -0.004014 0.016782 -0.000007 0.000389 -0.000001
# 4 0.000001 0.000000 -0.000007 0.039488 -0.000016 -0.005419
# 5 0.001685 -0.001281 0.000389 -0.000016 0.053608 -0.000003
# 6 0.000000 0.000000 -0.000001 -0.005419 -0.000003 0.021256
#
#
# Mechanical properties :
#
#
# Convention : Reuss Voigt Hill
#
# Bulk Modulus (GPa) = 53.55126 63.38595 58.46861
# Shear Modulus (GPa) = 28.76112 33.65470 31.20791
#
# Velocity S-wave (km/s) = 3.70090 4.00338 3.85511
# Velocity P-wave (km/s) = 6.61547 7.18019 6.90360
#
# Compressibility (1/GPa) = 0.01867370
#
# Stress axis : x y z
#
# Youngs Moduli (GPa) = 97.13901 112.42374 59.58594
#
# Poissons Ratio (x) = 0.37208 0.07897
# Poissons Ratio (y) = 0.32149 0.23919
# Poissons Ratio (z) = 0.12874 0.45129
#
# Static dielectric constant tensor:
#      x y z
#    x 4.216530 -0.000030 -0.128440 
#    y -0.000030 3.938100 -0.000030 
#    z -0.128440 -0.000030 3.687270 
# 
# 
# High freq. dielectric constant tensor:
#      x y z
#    x 1.842420 0.000000 -0.014380 
#    y 0.000000 1.836430 0.000000 
#    z -0.014380 0.000000 1.806190 
# 
# From -- ./inp_files/311663.got.cif
#   From: 2010.06.25/outbox.cif.g09.slc.cpg/sg12_156_cif.got.tgz:311663.got - 2010.06.28 00:19:55.
