data_PCOD8107455
_publ_section_title
;
Structure prediction by ZEFSAII (Michael W. Deem and Ramdas Pophale) SiO2 
 PCOD8107455
Probable space group: C 2/M
;
_chemical_formula_sum "Si O2"
_cell_formula_units_Z 56
_cell_length_a 19.629143
_cell_length_b 9.088612
_cell_length_c 25.205076
_cell_angle_alpha 90.000000
_cell_angle_beta 139.704159
_cell_angle_gamma 90.000000
_cell_volume 2908.123775
_symmetry_space_group_name_H-M "C 2/M"
_symmetry_group_IT_number 12
_symmetry_cell_setting 'monoclinic'
loop_
_space_group_symop_operation_xyz
x,y,z
-x,y,-z
-x,-y,-z
x,-y,z
1/2+x,1/2+y,z
1/2-x,1/2+y,-z
1/2-x,1/2-y,-z
1/2+x,1/2-y,z
loop_
_atom_site_type_symbol
_atom_site_label
_atom_site_fract_x
_atom_site_fract_y
_atom_site_fract_z
Si Si1 0.001211 0.830928 0.251043
Si Si2 0.574460 0.825809 0.495781
Si Si3 0.137292 0.174250 0.931206
Si Si4 0.790747 0.667727 0.646718
Si Si5 0.712372 0.833589 0.231258
Si Si6 0.559443 0.330880 0.666890
Si Si7 0.518960 0.326088 0.070127
O O1 0.106414 0.735656 0.319235
O O2 0.925261 0.775050 0.158738
O O3 0.939590 0.811355 0.269385
O O4 0.033361 0.000000 0.259605
O O5 0.500000 0.772853 0.500000
O O6 0.689742 0.759930 0.570206
O O7 0.528952 0.768527 0.413122
O O8 0.583621 0.000000 0.499594
O O9 0.071423 0.229541 0.943276
O O10 0.154019 0.000000 0.941501
O O11 0.250000 0.250000 0.000000
O O12 0.775980 0.500000 0.618814
O O13 0.809596 0.676993 0.720061
O O14 0.828589 0.774839 0.287804
O O15 0.632740 0.728276 0.154449
O O16 0.698665 0.000000 0.202186
O O17 0.539442 0.500000 0.638584
O O18 0.521440 0.500000 0.072117
O O19 0.500000 0.263622 0.000000
#
# Coordination Sequence:
#
# PCOD8107455 Si02
#       7
#     8   8   8   8   8   8   8
#     4  10  22  41  62  85 118 158 195 238 293 350
#     4  11  23  38  60  90 120 153 195 241 293 347
#     4  10  22  39  59  84 117 154 192 236 287 345
#     4  11  22  38  63  88 116 155 196 241 291 345
#     4  10  21  37  60  88 115 152 197 240 288 341
#     4  10  22  40  61  87 119 154 195 242 293 346
#     4  10  22  39  59  86 118 154 194 239 292 344
#
# _framework density 19.256401
#
# number of rings (size 3 to 8) (size 9 to 14) (size 15 to 20)
#    0.000    1.714    2.857    0.857    2.000    4.286 
#    0.000    0.000    0.000    0.000    0.000    0.000 
#    0.000    0.000    0.000    0.000    0.000    0.000 
#
# Total GULP energy -347318.147451 kJ/mol
# GULP energy per Si atom -12404.219552 kJ/mol
# Density = 1.921257 g / cm^3
# Si number density = 19.256401 Si / 1000 Ang^3
#
#
#
# Elastic Constant Matrix: (Units=GPa)
#
#
# Indices 1 2 3 4 5 6 
#
# 1 47.5471 24.8361 23.0754 0.0000 -9.2637 0.0000
# 2 24.8361 51.0556 36.2694 0.0000 2.7093 0.0000
# 3 23.0754 36.2694 114.0185 0.0000 2.3250 0.0000
# 4 0.0000 0.0000 0.0000 18.2619 0.0000 -2.3562
# 5 -9.2637 2.7093 2.3250 0.0000 33.4656 0.0000
# 6 0.0000 0.0000 0.0000 -2.3562 0.0000 20.5498
#
#
#
# Elastic Compliance Matrix: (Units=1/GPa)
#
#
# Indices 1 2 3 4 5 6 
#
# 1 0.031491 -0.014442 -0.001984 0.000000 0.010024 0.000000
# 2 -0.014442 0.032002 -0.007133 0.000000 -0.006093 0.000000
# 3 -0.001984 -0.007133 0.011457 0.000000 -0.000768 0.000000
# 4 0.000000 0.000000 0.000000 0.055581 0.000000 0.006373
# 5 0.010024 -0.006093 -0.000768 0.000000 0.033203 0.000000
# 6 0.000000 0.000000 0.000000 0.006373 0.000000 0.049393
#
#
# Mechanical properties :
#
#
# Convention : Reuss Voigt Hill
#
# Bulk Modulus (GPa) = 35.92823 42.33144 39.12984
# Shear Modulus (GPa) = 18.55144 23.01815 20.78480
#
# Velocity S-wave (km/s) = 3.10722 3.46114 3.28894
# Velocity P-wave (km/s) = 5.61884 6.16469 5.89808
#
# Compressibility (1/GPa) = 0.02783326
#
# Stress axis : x y z
#
# Youngs Moduli (GPa) = 31.75507 31.24797 87.28563
#
# Poissons Ratio (x) = 0.45127 0.17316
# Poissons Ratio (y) = 0.45859 0.62260
# Poissons Ratio (z) = 0.06300 0.22289
#
# Static dielectric constant tensor:
#      x y z
#    x 3.689060 0.000000 -0.082200 
#    y 0.000000 3.475970 0.000000 
#    z -0.082200 0.000000 3.518220 
# 
# 
# High freq. dielectric constant tensor:
#      x y z
#    x 1.756960 0.000000 0.001230 
#    y 0.000000 1.743280 0.000000 
#    z 0.001230 0.000000 1.755770 
# 
# From -- ./inp_files/230943.got.cif
#   From: 2010.06.25/outbox.cif.g09.slc.cpg/sg12_116_cif.got.tgz:230943.got - 2010.06.28 00:19:55.
