data_PCOD8107458
_publ_section_title
;
Structure prediction by ZEFSAII (Michael W. Deem and Ramdas Pophale) SiO2 
 PCOD8107458
Probable space group: C 2/M
;
_chemical_formula_sum "Si O2"
_cell_formula_units_Z 56
_cell_length_a 29.102232
_cell_length_b 18.144953
_cell_length_c 9.185059
_cell_angle_alpha 90.000000
_cell_angle_beta 35.281027
_cell_angle_gamma 90.000000
_cell_volume 2801.442796
_symmetry_space_group_name_H-M "C 2/M"
_symmetry_group_IT_number 12
_symmetry_cell_setting 'monoclinic'
loop_
_space_group_symop_operation_xyz
x,y,z
-x,y,-z
-x,-y,-z
x,-y,z
1/2+x,1/2+y,z
1/2-x,1/2+y,-z
1/2-x,1/2-y,-z
1/2+x,1/2-y,z
loop_
_atom_site_type_symbol
_atom_site_label
_atom_site_fract_x
_atom_site_fract_y
_atom_site_fract_z
Si Si1 0.540454 0.830598 0.255453
Si Si2 0.192717 0.083978 0.776912
Si Si3 0.818526 0.804154 0.659161
Si Si4 0.160857 0.779621 0.064044
Si Si5 0.634197 0.916190 0.782058
Si Si6 0.590013 0.415236 0.768857
Si Si7 0.432920 0.810263 0.268517
O O1 0.500000 0.870256 0.500000
O O2 0.579766 0.752759 0.204609
O O3 0.464490 0.820607 0.348829
O O4 0.607768 0.877884 0.000843
O O5 0.272126 0.095764 0.477244
O O6 0.119542 0.095446 0.857261
O O7 0.191792 0.000000 0.844904
O O8 0.188075 0.145539 0.913527
O O9 0.851638 0.804312 0.737559
O O10 0.848947 0.878164 0.503360
O O11 0.854031 0.737342 0.473538
O O12 0.724281 0.788277 0.895430
O O13 0.587519 0.886108 0.761573
O O14 0.609447 0.000000 0.859720
O O15 0.589765 0.500000 0.722068
O O16 0.500000 0.383242 0.000000
O O17 0.500000 0.768089 0.000000
#
# Coordination Sequence:
#
# PCOD8107458 Si02
#       7
#     8   8   8   8   8   8   8
#     4  11  23  38  58  89 126 151 197 248 300 350
#     4  10  22  41  63  89 119 156 206 248 292 356
#     4  11  22  39  60  87 122 156 202 244 299 354
#     4  11  24  38  61  90 122 159 198 247 298 358
#     4  10  22  41  64  88 118 160 203 245 295 359
#     4  10  23  40  61  89 121 157 200 248 299 354
#     4  10  21  37  60  88 117 154 198 244 295 350
#
# _framework density 19.989699000000002
#
# number of rings (size 3 to 8) (size 9 to 14) (size 15 to 20)
#    0.000    1.571    2.857    1.286    6.000    4.571 
#    0.000    0.000    0.000    3.857    0.000    0.000 
#    0.000    0.000    0.000    0.000    0.000    0.000 
#
# Total GULP energy -347057.606420 kJ/mol
# GULP energy per Si atom -12394.914515 kJ/mol
# Density = 1.994420 g / cm^3
# Si number density = 19.989699 Si / 1000 Ang^3
#
#
#
# Elastic Constant Matrix: (Units=GPa)
#
#
# Indices 1 2 3 4 5 6 
#
# 1 102.1281 35.9471 29.3240 0.0000 5.7113 0.0000
# 2 35.9471 102.0601 37.3057 0.0000 12.5118 0.0000
# 3 29.3240 37.3057 80.6272 0.0000 10.5663 0.0000
# 4 0.0000 0.0000 0.0000 26.8836 0.0000 1.8579
# 5 5.7113 12.5118 10.5663 0.0000 35.9517 0.0000
# 6 0.0000 0.0000 0.0000 1.8579 0.0000 10.7636
#
#
#
# Elastic Compliance Matrix: (Units=1/GPa)
#
#
# Indices 1 2 3 4 5 6 
#
# 1 0.011688 -0.003089 -0.002828 0.000000 0.000049 0.000000
# 2 -0.003089 0.012847 -0.004472 0.000000 -0.002666 0.000000
# 3 -0.002828 -0.004472 0.015848 0.000000 -0.002652 0.000000
# 4 0.000000 0.000000 0.000000 0.037647 0.000000 -0.006498
# 5 0.000049 -0.002666 -0.002652 0.000000 0.029515 0.000000
# 6 0.000000 0.000000 0.000000 -0.006498 0.000000 0.094028
#
#
# Mechanical properties :
#
#
# Convention : Reuss Voigt Hill
#
# Bulk Modulus (GPa) = 51.00470 54.44099 52.72285
# Shear Modulus (GPa) = 21.84499 26.86901 24.35700
#
# Velocity S-wave (km/s) = 3.30936 3.67023 3.49446
# Velocity P-wave (km/s) = 6.33825 6.72714 6.53559
#
# Compressibility (1/GPa) = 0.01960603
#
# Stress axis : x y z
#
# Youngs Moduli (GPa) = 85.55638 77.83616 63.09976
#
# Poissons Ratio (x) = 0.24044 0.17846
# Poissons Ratio (y) = 0.26429 0.28215
# Poissons Ratio (z) = 0.24197 0.34805
#
# Static dielectric constant tensor:
#      x y z
#    x 3.672550 0.000000 -0.162640 
#    y 0.000000 3.549330 0.000000 
#    z -0.162640 0.000000 3.854840 
# 
# 
# High freq. dielectric constant tensor:
#      x y z
#    x 1.785800 0.000000 -0.007380 
#    y 0.000000 1.765750 0.000000 
#    z -0.007380 0.000000 1.790430 
# 
# From -- ./inp_files/75988.got.cif
#   From: 2010.06.25/outbox.cif.g09.slc.cpg/sg12_38_cif.got.tgz:75988.got - 2010.06.28 00:19:55.
