data_PCOD8107539
_publ_section_title
;
Structure prediction by ZEFSAII (Michael W. Deem and Ramdas Pophale) SiO2 
 PCOD8107539
Probable space group: C 2/M
;
_chemical_formula_sum "Si O2"
_cell_formula_units_Z 48
_cell_length_a 22.073425
_cell_length_b 15.274156
_cell_length_c 18.123010
_cell_angle_alpha 90.000000
_cell_angle_beta 156.471556
_cell_angle_gamma 90.000000
_cell_volume 2439.228429
_symmetry_space_group_name_H-M "C 2/M"
_symmetry_group_IT_number 12
_symmetry_cell_setting 'monoclinic'
loop_
_space_group_symop_operation_xyz
x,y,z
-x,y,-z
-x,-y,-z
x,-y,z
1/2+x,1/2+y,z
1/2-x,1/2+y,-z
1/2-x,1/2-y,-z
1/2+x,1/2-y,z
loop_
_atom_site_type_symbol
_atom_site_label
_atom_site_fract_x
_atom_site_fract_y
_atom_site_fract_z
Si Si1 0.282301 0.184433 0.934209
Si Si2 0.261255 0.901441 0.411615
Si Si3 0.277308 0.354857 0.467588
Si Si4 0.716421 0.500000 0.794850
Si Si5 0.471638 0.259068 0.883924
Si Si6 0.375875 0.500000 0.467636
Si Si7 0.519987 0.220629 0.710150
O O1 0.109666 0.220655 0.749950
O O2 0.293512 0.087995 0.911775
O O3 0.366846 0.256287 0.977628
O O4 0.358606 0.176689 0.099921
O O5 0.264156 0.904531 0.503887
O O6 0.110137 0.853225 0.213690
O O7 0.415323 0.853746 0.554248
O O8 0.258723 0.000000 0.377935
O O9 0.126639 0.316744 0.263288
O O10 0.352385 0.415832 0.490977
O O11 0.400034 0.279068 0.623339
O O12 0.544530 0.500000 0.627117
O O13 0.735274 0.500000 0.727258
O O14 0.500000 0.235815 0.000000
#
# Coordination Sequence:
#
# PCOD8107539 Si02
#       7
#     8   8   8   4   8   4   8
#     4  11  21  38  59  89 123 155 196 249 293 353
#     4  11  22  40  63  85 116 158 203 251 293 350
#     4  11  19  40  60  84 118 159 200 236 302 354
#     4  11  24  35  55  91 131 156 191 238 308 359
#     4  11  23  39  60  88 120 157 198 246 300 355
#     4  11  22  37  57  89 122 166 189 236 300 379
#     4  10  21  37  61  84 117 158 204 242 291 350
#
# _framework density 19.678353999999999
#
# number of rings (size 3 to 8) (size 9 to 14) (size 15 to 20)
#    0.000    1.167    5.833    2.000    1.167    1.000 
#    0.000    2.500    0.000    1.000    0.000    0.000 
#    0.000    0.000    0.000    0.000    0.000    0.000 
#
# Total GULP energy -297609.674219 kJ/mol
# GULP energy per Si atom -12400.403092 kJ/mol
# Density = 1.963357 g / cm^3
# Si number density = 19.678354 Si / 1000 Ang^3
#
#
#
# Elastic Constant Matrix: (Units=GPa)
#
#
# Indices 1 2 3 4 5 6 
#
# 1 58.2425 5.3127 27.0700 -0.0032 -1.4934 0.0012
# 2 5.3127 104.6148 32.7658 -0.0117 4.3231 0.0053
# 3 27.0700 32.7658 83.0798 -0.0115 11.2407 0.0049
# 4 -0.0032 -0.0117 -0.0115 2.7941 -0.0023 31.3296
# 5 -1.4934 4.3231 11.2407 -0.0023 34.0866 0.0009
# 6 0.0012 0.0053 0.0049 31.3296 0.0009 -13.8164
#
#
#
# Elastic Compliance Matrix: (Units=1/GPa)
#
#
# Indices 1 2 3 4 5 6 
#
# 1 0.020708 0.001215 -0.007671 0.000000 0.003283 0.000000
# 2 0.001215 0.010977 -0.004756 0.000000 0.000230 0.000003
# 3 -0.007671 -0.004756 0.017141 0.000000 -0.005385 0.000003
# 4 0.000000 0.000000 0.000000 0.013543 0.000000 0.030711
# 5 0.003283 0.000230 -0.005385 0.000000 0.031228 0.000001
# 6 0.000000 0.000003 0.000003 0.030711 0.000001 -0.002739
#
#
# Mechanical properties :
#
#
# Convention : Reuss Voigt Hill
#
# Bulk Modulus (GPa) = 37.87570 41.80380 39.83975
# Shear Modulus (GPa) = 40.95579 16.66543 28.81061
#
# Velocity S-wave (km/s) = 4.56703 2.91330 3.83048
# Velocity P-wave (km/s) = 6.86291 5.71017 6.31291
#
# Compressibility (1/GPa) = 0.02640215
#
# Stress axis : x y z
#
# Youngs Moduli (GPa) = 48.29017 91.09626 58.34134
#
# Poissons Ratio (x) = -0.11070 0.44752
# Poissons Ratio (y) = -0.05868 0.27749
# Poissons Ratio (z) = 0.37042 0.43329
#
# Static dielectric constant tensor:
#      x y z
#    x 3.530990 0.000000 0.125870 
#    y 0.000000 3.584110 0.000000 
#    z 0.125870 0.000000 3.645790 
# 
# 
# High freq. dielectric constant tensor:
#      x y z
#    x 1.754990 0.000000 0.011110 
#    y 0.000000 1.760880 0.000000 
#    z 0.011110 0.000000 1.770480 
# 
# From -- ./inp_files/111523.got.cif
#   From: 2010.06.25/outbox.cif.g09.slc.cpg/sg12_56_cif.got.tgz:111523.got - 2010.06.28 00:19:55.
