data_PCOD8107234
_publ_section_title
;
Structure prediction by ZEFSAII (Michael W. Deem and Ramdas Pophale) SiO2 
 PCOD8107234
Probable space group: C 2/M
;
_chemical_formula_sum "Si O2"
_cell_formula_units_Z 40
_cell_length_a 29.736178
_cell_length_b 8.863105
_cell_length_c 14.838309
_cell_angle_alpha 90.000000
_cell_angle_beta 30.420515
_cell_angle_gamma 90.000000
_cell_volume 1980.158182
_symmetry_space_group_name_H-M "C 2/M"
_symmetry_group_IT_number 12
_symmetry_cell_setting 'monoclinic'
loop_
_space_group_symop_operation_xyz
x,y,z
-x,y,-z
-x,-y,-z
x,-y,z
1/2+x,1/2+y,z
1/2-x,1/2+y,-z
1/2-x,1/2-y,-z
1/2+x,1/2-y,z
loop_
_atom_site_type_symbol
_atom_site_label
_atom_site_fract_x
_atom_site_fract_y
_atom_site_fract_z
Si Si1 0.750313 0.325264 0.096049
Si Si2 0.725237 0.821616 0.448744
Si Si3 0.967846 0.677779 0.281442
Si Si4 0.641893 0.678746 0.936182
Si Si5 0.552002 0.326102 0.498448
O O1 0.774778 0.500000 0.043580
O O2 0.824195 0.244392 0.028129
O O3 0.656117 0.301797 0.306055
O O4 0.750000 0.250000 0.000000
O O5 0.750000 0.750000 0.500000
O O6 0.627573 0.765975 0.588912
O O7 0.795648 0.764641 0.252889
O O8 0.728282 0.000000 0.452410
O O9 0.978427 0.500000 0.253943
O O10 0.980840 0.724569 0.362592
O O11 0.042768 0.758220 0.090896
O O12 0.640547 0.500000 0.944748
O O13 0.500000 0.270184 0.500000
O O14 0.528435 0.500000 0.559817
#
# Coordination Sequence:
#
# PCOD8107234 Si02
#       5
#     8   8   8   8   8
#     4  11  22  36  59  91 128 170 212 258 312 372
#     4  10  24  44  67  93 126 165 210 264 321 379
#     4  11  23  41  64  94 126 163 211 262 316 373
#     4  11  23  42  64  91 128 168 210 260 316 378
#     4  10  21  37  58  88 125 166 209 255 309 372
#
# _framework density 20.200406000000001
#
# number of rings (size 3 to 8) (size 9 to 14) (size 15 to 20)
#    0.000    1.400    2.000    3.000    0.000    6.800 
#    0.000    4.000    0.000    0.000    0.000    0.000 
#    0.000    0.000    0.000    0.000    0.000    0.000 
#
# Total GULP energy -248126.539808 kJ/mol
# GULP energy per Si atom -12406.326990 kJ/mol
# Density = 2.015443 g / cm^3
# Si number density = 20.200406 Si / 1000 Ang^3
#
#
#
# Elastic Constant Matrix: (Units=GPa)
#
#
# Indices 1 2 3 4 5 6 
#
# 1 133.3114 40.9935 71.6513 0.0000 3.2774 0.0000
# 2 40.9935 79.8037 56.7208 0.0000 -0.0546 0.0000
# 3 71.6513 56.7208 155.3270 0.0000 -7.3435 0.0000
# 4 0.0000 0.0000 0.0000 34.8105 0.0000 1.7858
# 5 3.2774 -0.0546 -7.3435 0.0000 32.2914 0.0000
# 6 0.0000 0.0000 0.0000 1.7858 0.0000 38.6604
#
#
#
# Elastic Compliance Matrix: (Units=1/GPa)
#
#
# Indices 1 2 3 4 5 6 
#
# 1 0.010482 -0.002542 -0.004000 0.000000 -0.001978 0.000000
# 2 -0.002542 0.017602 -0.005298 0.000000 -0.000917 0.000000
# 3 -0.004000 -0.005298 0.010348 0.000000 0.002750 0.000000
# 4 0.000000 0.000000 0.000000 0.028795 0.000000 -0.001330
# 5 -0.001978 -0.000917 0.002750 0.000000 0.031793 0.000000
# 6 0.000000 0.000000 0.000000 -0.001330 0.000000 0.025928
#
#
# Mechanical properties :
#
#
# Convention : Reuss Voigt Hill
#
# Bulk Modulus (GPa) = 67.79710 78.57481 73.18595
# Shear Modulus (GPa) = 32.56364 34.42422 33.49393
#
# Velocity S-wave (km/s) = 4.01936 4.13260 4.07637
# Velocity P-wave (km/s) = 7.42802 7.85832 7.64620
#
# Compressibility (1/GPa) = 0.01474989
#
# Stress axis : x y z
#
# Youngs Moduli (GPa) = 95.40475 56.81228 96.63619
#
# Poissons Ratio (x) = 0.14444 0.38657
# Poissons Ratio (y) = 0.24256 0.51200
# Poissons Ratio (z) = 0.38164 0.30100
#
# Static dielectric constant tensor:
#      x y z
#    x 3.624850 0.000000 -0.156000 
#    y 0.000000 3.990620 0.000000 
#    z -0.156000 0.000000 4.035810 
# 
# 
# High freq. dielectric constant tensor:
#      x y z
#    x 1.787050 0.000000 -0.007500 
#    y 0.000000 1.788990 0.000000 
#    z -0.007500 0.000000 1.806900 
# 
# From -- ./inp_files/211180.got.cif
#   From: 2010.06.25/outbox.cif.g09.slc.cpg/sg12_106_cif.got.tgz:211180.got - 2010.06.28 00:19:55.
