data_PCOD8107053
_publ_section_title
;
Structure prediction by ZEFSAII (Michael W. Deem and Ramdas Pophale) SiO2 
 PCOD8107053
Probable space group: C 2/M
;
_chemical_formula_sum "Si O2"
_cell_formula_units_Z 64
_cell_length_a 20.015181
_cell_length_b 8.655664
_cell_length_c 31.121401
_cell_angle_alpha 90.000000
_cell_angle_beta 143.535364
_cell_angle_gamma 90.000000
_cell_volume 3204.381084
_symmetry_space_group_name_H-M "C 2/M"
_symmetry_group_IT_number 12
_symmetry_cell_setting 'monoclinic'
loop_
_space_group_symop_operation_xyz
x,y,z
-x,y,-z
-x,-y,-z
x,-y,z
1/2+x,1/2+y,z
1/2-x,1/2+y,-z
1/2-x,1/2-y,-z
1/2+x,1/2-y,z
loop_
_atom_site_type_symbol
_atom_site_label
_atom_site_fract_x
_atom_site_fract_y
_atom_site_fract_z
Si Si1 0.455312 0.819224 0.916079
Si Si2 0.987244 0.182355 0.597075
Si Si3 0.665329 0.318294 0.069586
Si Si4 0.948720 0.182986 0.672522
Si Si5 0.699129 0.817527 0.558388
Si Si6 0.929136 0.681087 0.803851
Si Si7 0.308711 0.317595 0.355450
Si Si8 0.400649 0.317596 0.171495
O O1 0.353588 0.766806 0.894515
O O2 0.420819 0.780262 0.849796
O O3 0.478241 0.000000 0.934527
O O4 0.567350 0.726012 0.985745
O O5 0.995316 0.237359 0.650567
O O6 0.879413 0.260270 0.520278
O O7 0.101470 0.237387 0.633465
O O8 0.970706 0.000000 0.585106
O O9 0.664540 0.500000 0.076975
O O10 0.781461 0.266096 0.108564
O O11 0.823867 0.250356 0.615037
O O12 0.030605 0.246878 0.751869
O O13 0.944276 0.000000 0.673253
O O14 0.654070 0.757496 0.580610
O O15 0.699487 0.000000 0.558896
O O16 0.947791 0.500000 0.805655
O O17 0.814047 0.740125 0.722516
O O18 0.032575 0.774402 0.837152
O O19 0.311076 0.500000 0.361848
O O20 0.381892 0.500000 0.163899
#
# Coordination Sequence:
#
# PCOD8107053 Si02
#       8
#     8   8   8   8   8   8   8   8
#     4  10  21  40  66  93 121 158 199 239 290 350
#     4  10  21  37  58  82 109 149 196 238 288 350
#     4  11  23  40  62  92 127 158 193 242 291 344
#     4   9  20  37  58  83 112 148 193 242 291 344
#     4  11  21  37  57  82 115 149 188 240 293 345
#     4  10  22  39  61  89 119 153 198 249 294 346
#     4  10  21  37  58  83 113 150 191 237 289 346
#     4  11  22  39  63  87 118 160 200 242 295 354
#
# _framework density 19.972655
#
# number of rings (size 3 to 8) (size 9 to 14) (size 15 to 20)
#    0.000    1.750    1.250    3.750    1.750    3.500 
#    0.000    1.875    0.000    0.000    0.000    0.000 
#    0.000    0.000    0.000    0.000    0.000    0.000 
#
# Total GULP energy -396946.849934 kJ/mol
# GULP energy per Si atom -12404.589060 kJ/mol
# Density = 1.992720 g / cm^3
# Si number density = 19.972655 Si / 1000 Ang^3
#
#
#
# Elastic Constant Matrix: (Units=GPa)
#
#
# Indices 1 2 3 4 5 6 
#
# 1 88.4353 17.2348 7.8934 0.0002 2.1015 -0.0005
# 2 17.2348 42.9609 9.8703 0.0008 1.6921 -0.0015
# 3 7.8934 9.8703 52.4257 0.0000 2.0457 -0.0001
# 4 0.0002 0.0008 0.0000 26.4237 -0.0001 3.1078
# 5 2.1015 1.6921 2.0457 -0.0001 42.6645 0.0001
# 6 -0.0005 -0.0015 -0.0001 3.1078 0.0001 29.0216
#
#
#
# Elastic Compliance Matrix: (Units=1/GPa)
#
#
# Indices 1 2 3 4 5 6 
#
# 1 0.012319 -0.004708 -0.000954 0.000000 -0.000374 0.000000
# 2 -0.004708 0.026153 -0.004191 -0.000001 -0.000604 0.000001
# 3 -0.000954 -0.004191 0.020036 0.000000 -0.000747 0.000000
# 4 0.000000 -0.000001 0.000000 0.038328 0.000000 -0.004104
# 5 -0.000374 -0.000604 -0.000747 0.000000 0.023517 0.000000
# 6 0.000000 0.000001 0.000000 -0.004104 0.000000 0.034897
#
#
# Mechanical properties :
#
#
# Convention : Reuss Voigt Hill
#
# Bulk Modulus (GPa) = 25.77216 28.20210 26.98713
# Shear Modulus (GPa) = 26.61130 29.54352 28.07741
#
# Velocity S-wave (km/s) = 3.65415 3.85021 3.75346
# Velocity P-wave (km/s) = 5.54396 5.82379 5.68559
#
# Compressibility (1/GPa) = 0.03880156
#
# Stress axis : x y z
#
# Youngs Moduli (GPa) = 81.17334 38.23717 49.90894
#
# Poissons Ratio (x) = 0.18003 0.04760
# Poissons Ratio (y) = 0.38219 0.20918
# Poissons Ratio (z) = 0.07742 0.16026
#
# Static dielectric constant tensor:
#      x y z
#    x 3.782890 0.000000 0.000240 
#    y 0.000000 3.448810 0.000000 
#    z 0.000240 0.000000 3.657340 
# 
# 
# High freq. dielectric constant tensor:
#      x y z
#    x 1.792590 0.000000 0.000600 
#    y 0.000000 1.766030 0.000000 
#    z 0.000600 0.000000 1.782750 
# 
# From -- ./inp_files/378350.got.cif
#   From: 2010.06.25/outbox.cif.g09.slc.cpg/sg12_190_cif.got.tgz:378350.got - 2010.06.28 00:19:55.
