data_PCOD8107418
_publ_section_title
;
Structure prediction by ZEFSAII (Michael W. Deem and Ramdas Pophale) SiO2 
 PCOD8107418
Probable space group: C 2/M
;
_chemical_formula_sum "Si O2"
_cell_formula_units_Z 56
_cell_length_a 21.939789
_cell_length_b 15.153722
_cell_length_c 8.734108
_cell_angle_alpha 90.000000
_cell_angle_beta 94.808332
_cell_angle_gamma 90.000000
_cell_volume 2893.604713
_symmetry_space_group_name_H-M "C 2/M"
_symmetry_group_IT_number 12
_symmetry_cell_setting 'monoclinic'
loop_
_space_group_symop_operation_xyz
x,y,z
-x,y,-z
-x,-y,-z
x,-y,z
1/2+x,1/2+y,z
1/2-x,1/2+y,-z
1/2-x,1/2-y,-z
1/2+x,1/2-y,z
loop_
_atom_site_type_symbol
_atom_site_label
_atom_site_fract_x
_atom_site_fract_y
_atom_site_fract_z
Si Si1 0.660658 0.674083 0.231166
Si Si2 0.870015 0.698941 0.515994
Si Si3 0.866910 0.313800 0.016733
Si Si4 0.708847 0.100609 0.745164
Si Si5 0.541278 0.242572 0.722444
Si Si6 0.440599 0.101238 0.774524
Si Si7 0.028734 0.099963 0.171106
O O1 0.656466 0.717271 0.398577
O O2 0.669177 0.750637 0.107173
O O3 0.718295 0.609849 0.237127
O O4 0.600951 0.616901 0.180570
O O5 0.818636 0.662801 0.391769
O O6 0.930952 0.730841 0.440415
O O7 0.889099 0.621647 0.636718
O O8 0.913816 0.376895 0.935924
O O9 0.817891 0.373704 0.094924
O O10 0.904108 0.252876 0.143101
O O11 0.691469 0.000000 0.705819
O O12 0.500124 0.158969 0.755652
O O13 0.502525 0.332798 0.716598
O O14 0.460434 0.000000 0.770633
O O15 0.015900 0.000000 0.222118
O O16 0.000000 0.118618 0.000000
#
# Coordination Sequence:
#
# PCOD8107418 Si02
#       7
#     8   8   8   8   8   8   8
#     4  11  21  40  61  85 111 159 197 241 291 350
#     4  10  23  37  60  79 122 156 198 231 299 344
#     4  10  21  37  60  83 118 153 196 237 303 341
#     4  11  23  39  58  86 116 153 202 247 287 347
#     4  11  20  38  57  86 120 158 186 244 291 354
#     4  11  21  34  58  89 120 158 197 236 287 350
#     4  11  21  37  63  90 116 150 194 246 298 346
#
# _framework density 19.353023
#
# number of rings (size 3 to 8) (size 9 to 14) (size 15 to 20)
#    0.000    1.286    4.286    3.000    0.000    4.571 
#    0.000    2.143    0.000    0.000    0.000    0.000 
#    0.000    0.000    0.000    0.000    0.000    0.000 
#
# Total GULP energy -347315.471874 kJ/mol
# GULP energy per Si atom -12404.123996 kJ/mol
# Density = 1.930897 g / cm^3
# Si number density = 19.353023 Si / 1000 Ang^3
#
#
#
# Elastic Constant Matrix: (Units=GPa)
#
#
# Indices 1 2 3 4 5 6 
#
# 1 105.4039 27.0197 28.5132 0.0000 -11.1257 0.0000
# 2 27.0197 108.3016 23.6859 0.0000 -12.4658 0.0000
# 3 28.5132 23.6859 89.9941 0.0000 -15.1148 0.0000
# 4 0.0000 0.0000 0.0000 15.1918 0.0000 6.4340
# 5 -11.1257 -12.4658 -15.1148 0.0000 30.3867 0.0000
# 6 0.0000 0.0000 0.0000 6.4340 0.0000 17.5096
#
#
#
# Elastic Compliance Matrix: (Units=1/GPa)
#
#
# Indices 1 2 3 4 5 6 
#
# 1 0.010891 -0.001925 -0.002626 0.000000 0.001891 0.000000
# 2 -0.001925 0.010392 -0.001667 0.000000 0.002729 0.000000
# 3 -0.002626 -0.001667 0.013210 0.000000 0.004925 0.000000
# 4 0.000000 0.000000 0.000000 0.077957 0.000000 -0.028646
# 5 0.001891 0.002729 0.004925 0.000000 0.037171 0.000000
# 6 0.000000 0.000000 0.000000 -0.028646 0.000000 0.067638
#
#
# Mechanical properties :
#
#
# Convention : Reuss Voigt Hill
#
# Bulk Modulus (GPa) = 45.33744 51.34857 48.34301
# Shear Modulus (GPa) = 21.09279 27.58301 24.33790
#
# Velocity S-wave (km/s) = 3.30494 3.77935 3.55008
# Velocity P-wave (km/s) = 6.16773 6.75536 6.46822
#
# Compressibility (1/GPa) = 0.02205682
#
# Stress axis : x y z
#
# Youngs Moduli (GPa) = 91.81992 96.22363 75.70090
#
# Poissons Ratio (x) = 0.18523 0.19881
# Poissons Ratio (y) = 0.17676 0.12619
# Poissons Ratio (z) = 0.24114 0.16040
#
# Static dielectric constant tensor:
#      x y z
#    x 3.454270 0.000000 -0.045740 
#    y 0.000000 3.389120 0.000000 
#    z -0.045740 0.000000 3.648690 
# 
# 
# High freq. dielectric constant tensor:
#      x y z
#    x 1.754010 0.000000 0.002540 
#    y 0.000000 1.744070 0.000000 
#    z 0.002540 0.000000 1.762460 
# 
# From -- ./inp_files/86340.got.cif
#   From: 2010.06.25/outbox.cif.g09.slc.cpg/sg12_44_cif.got.tgz:86340.got - 2010.06.28 00:19:55.
