data_PCOD8107335
_publ_section_title
;
Structure prediction by ZEFSAII (Michael W. Deem and Ramdas Pophale) SiO2 
 PCOD8107335
Probable space group: C 2/M
;
_chemical_formula_sum "Si O2"
_cell_formula_units_Z 48
_cell_length_a 9.636927
_cell_length_b 9.897777
_cell_length_c 28.396056
_cell_angle_alpha 90.000000
_cell_angle_beta 115.764175
_cell_angle_gamma 90.000000
_cell_volume 2439.280423
_symmetry_space_group_name_H-M "C 2/M"
_symmetry_group_IT_number 12
_symmetry_cell_setting 'monoclinic'
loop_
_space_group_symop_operation_xyz
x,y,z
-x,y,-z
-x,-y,-z
x,-y,z
1/2+x,1/2+y,z
1/2-x,1/2+y,-z
1/2-x,1/2-y,-z
1/2+x,1/2-y,z
loop_
_atom_site_type_symbol
_atom_site_label
_atom_site_fract_x
_atom_site_fract_y
_atom_site_fract_z
Si Si1 0.654616 0.500000 0.552666
Si Si2 0.975355 0.500000 0.551487
Si Si3 0.081345 0.655025 0.148001
Si Si4 0.391665 0.153221 0.028437
Si Si5 0.484178 0.343926 0.315142
Si Si6 0.935919 0.844021 0.202234
Si Si7 0.673200 0.238781 0.620061
O O1 0.500000 0.500000 0.500000
O O2 0.794518 0.500000 0.536442
O O3 0.659858 0.371162 0.586792
O O4 0.000000 0.500000 0.500000
O O5 0.049751 0.632812 0.583772
O O6 0.048239 0.500000 0.157840
O O7 0.259426 0.673379 0.160785
O O8 0.983673 0.698712 0.088290
O O9 0.041789 0.752290 0.185127
O O10 0.331634 0.000000 0.024773
O O11 0.500000 0.167966 0.000000
O O12 0.250000 0.250000 0.000000
O O13 0.441171 0.500000 0.310953
O O14 0.459960 0.289998 0.258790
O O15 0.364496 0.266857 0.330965
O O16 0.656828 0.321453 0.358723
O O17 0.988875 0.000000 0.205277
#
# Coordination Sequence:
#
# PCOD8107335 Si02
#       7
#     4   4   8   8   8   8   8
#     4  12  28  44  68  96 122 166 206 244 306 362
#     4  12  28  44  66  96 128 162 202 250 302 363
#     4  10  21  39  59  89 125 158 206 257 303 361
#     4  10  21  37  59  87 121 164 207 254 305 361
#     4  11  23  41  66  93 123 158 204 253 303 365
#     4  10  22  40  62  89 120 162 202 251 310 363
#     4  12  24  44  66  93 126 159 203 252 302 362
#
# _framework density 19.677935000000002
#
# number of rings (size 3 to 8) (size 9 to 14) (size 15 to 20)
#    0.000    1.167    3.333    2.500    2.333    4.333 
#    3.000    0.000    0.000    0.000    0.000    0.000 
#    0.000    0.000    0.000    0.000    0.000    0.000 
#
# Total GULP energy -297733.531083 kJ/mol
# GULP energy per Si atom -12405.563795 kJ/mol
# Density = 1.963315 g / cm^3
# Si number density = 19.677935 Si / 1000 Ang^3
#
#
#
# Elastic Constant Matrix: (Units=GPa)
#
#
# Indices 1 2 3 4 5 6 
#
# 1 68.9409 21.1788 12.2889 0.0000 -2.3152 0.0000
# 2 21.1788 83.2233 30.3594 0.0000 -9.4513 0.0000
# 3 12.2889 30.3594 100.7953 0.0000 -7.1746 0.0000
# 4 0.0000 0.0000 0.0000 40.2017 0.0000 -0.9673
# 5 -2.3152 -9.4513 -7.1746 0.0000 43.4360 0.0000
# 6 0.0000 0.0000 0.0000 -0.9673 0.0000 24.2121
#
#
#
# Elastic Compliance Matrix: (Units=1/GPa)
#
#
# Indices 1 2 3 4 5 6 
#
# 1 0.015793 -0.003736 -0.000808 0.000000 -0.000105 0.000000
# 2 -0.003736 0.014613 -0.003778 0.000000 0.002356 0.000000
# 3 -0.000808 -0.003778 0.011228 0.000000 0.000989 0.000000
# 4 0.000000 0.000000 0.000000 0.024898 0.000000 0.000995
# 5 -0.000105 0.002356 0.000989 0.000000 0.023693 0.000000
# 6 0.000000 0.000000 0.000000 0.000995 0.000000 0.041341
#
#
# Mechanical properties :
#
#
# Convention : Reuss Voigt Hill
#
# Bulk Modulus (GPa) = 40.01617 42.29042 41.15329
# Shear Modulus (GPa) = 31.94057 34.17879 33.05968
#
# Velocity S-wave (km/s) = 4.03323 4.17215 4.10327
# Velocity P-wave (km/s) = 6.48605 6.68932 6.58847
#
# Compressibility (1/GPa) = 0.02498990
#
# Stress axis : x y z
#
# Youngs Moduli (GPa) = 63.31739 68.43452 89.06369
#
# Poissons Ratio (x) = 0.25570 0.07193
# Poissons Ratio (y) = 0.23658 0.33648
# Poissons Ratio (z) = 0.05113 0.25855
#
# Static dielectric constant tensor:
#      x y z
#    x 3.582120 0.000000 0.004880 
#    y 0.000000 3.737640 0.000000 
#    z 0.004880 0.000000 3.833170 
# 
# 
# High freq. dielectric constant tensor:
#      x y z
#    x 1.773030 0.000000 0.000450 
#    y 0.000000 1.772380 0.000000 
#    z 0.000450 0.000000 1.783690 
# 
# From -- ./inp_files/332292.got.cif
#   From: 2010.06.25/outbox.cif.g09.slc.cpg/sg12_167_cif.got.tgz:332292.got - 2010.06.28 00:19:55.
