data_PCOD8107374
_publ_section_title
;
Structure prediction by ZEFSAII (Michael W. Deem and Ramdas Pophale) SiO2 
 PCOD8107374
Probable space group: C 2/M
;
_chemical_formula_sum "Si O2"
_cell_formula_units_Z 64
_cell_length_a 33.501682
_cell_length_b 15.840039
_cell_length_c 9.786565
_cell_angle_alpha 90.000000
_cell_angle_beta 143.221523
_cell_angle_gamma 90.000000
_cell_volume 3109.416609
_symmetry_space_group_name_H-M "C 2/M"
_symmetry_group_IT_number 12
_symmetry_cell_setting 'monoclinic'
loop_
_space_group_symop_operation_xyz
x,y,z
-x,y,-z
-x,-y,-z
x,-y,z
1/2+x,1/2+y,z
1/2-x,1/2+y,-z
1/2-x,1/2-y,-z
1/2+x,1/2-y,z
loop_
_atom_site_type_symbol
_atom_site_label
_atom_site_fract_x
_atom_site_fract_y
_atom_site_fract_z
Si Si1 0.956678 0.595056 0.249642
Si Si2 0.430052 0.403933 0.232698
Si Si3 0.264194 0.677470 0.192613
Si Si4 0.208309 0.856667 0.020219
Si Si5 0.812005 0.593377 0.788963
Si Si6 0.328517 0.095913 0.532157
Si Si7 0.538533 0.736230 0.898746
Si Si8 0.401555 0.750454 0.650367
O O1 0.977406 0.500000 0.255731
O O2 0.964078 0.666343 0.155927
O O3 0.000000 0.620713 0.500000
O O4 0.877740 0.594831 0.065561
O O5 0.500000 0.394536 0.500000
O O6 0.423785 0.500000 0.156868
O O7 0.367479 0.386341 0.161425
O O8 0.430156 0.331729 0.118162
O O9 0.265040 0.618167 0.059175
O O10 0.247234 0.631229 0.285976
O O11 0.339392 0.704860 0.416066
O O12 0.212291 0.754809 0.035663
O O13 0.256118 0.899067 0.263153
O O14 0.789272 0.500000 0.688480
O O15 0.822389 0.636668 0.668595
O O16 0.384420 0.149036 0.603065
O O17 0.354324 0.000000 0.606999
O O18 0.461399 0.719981 0.718784
O O19 0.583688 0.723831 0.154789
#
# Coordination Sequence:
#
# PCOD8107374 Si02
#       8
#     8   8   8   8   8   8   8   8
#     4  10  21  37  61  93 126 162 202 247 307 379
#     4  11  24  41  63  87 118 163 213 262 309 362
#     4  10  22  40  59  90 123 159 200 256 315 366
#     4  10  22  38  63  90 120 157 207 258 310 369
#     4  10  21  37  59  89 123 160 200 245 306 371
#     4  10  21  38  61  92 126 159 201 251 304 378
#     4  11  22  40  61  89 122 162 208 257 307 372
#     4  10  23  38  61  88 119 160 206 250 313 370
#
# _framework density 20.582640000000001
#
# number of rings (size 3 to 8) (size 9 to 14) (size 15 to 20)
#    0.000    1.750    1.250    2.250    1.750    5.500 
#    0.000    4.375    0.000    0.000    0.000    0.000 
#    0.000    0.000    0.000    0.000    0.000    0.000 
#
# Total GULP energy -396521.072402 kJ/mol
# GULP energy per Si atom -12391.283513 kJ/mol
# Density = 2.053579 g / cm^3
# Si number density = 20.582640 Si / 1000 Ang^3
#
#
#
# Elastic Constant Matrix: (Units=GPa)
#
#
# Indices 1 2 3 4 5 6 
#
# 1 74.5688 34.3669 17.7772 0.0000 -9.5747 0.0000
# 2 34.3669 69.9202 11.2731 0.0000 0.6631 0.0000
# 3 17.7772 11.2731 83.0260 0.0000 1.4035 0.0000
# 4 0.0000 0.0000 0.0000 20.9843 0.0000 0.6685
# 5 -9.5747 0.6631 1.4035 0.0000 23.0322 0.0000
# 6 0.0000 0.0000 0.0000 0.6685 0.0000 15.8704
#
#
#
# Elastic Compliance Matrix: (Units=1/GPa)
#
#
# Indices 1 2 3 4 5 6 
#
# 1 0.019454 -0.009148 -0.003068 0.000000 0.008538 0.000000
# 2 -0.009148 0.018926 -0.000538 0.000000 -0.004315 0.000000
# 3 -0.003068 -0.000538 0.012809 0.000000 -0.002040 0.000000
# 4 0.000000 0.000000 0.000000 0.047719 0.000000 -0.002010
# 5 0.008538 -0.004315 -0.002040 0.000000 0.047215 0.000000
# 6 0.000000 0.000000 0.000000 -0.002010 0.000000 0.063095
#
#
# Mechanical properties :
#
#
# Convention : Reuss Voigt Hill
#
# Bulk Modulus (GPa) = 38.93903 39.37215 39.15559
# Shear Modulus (GPa) = 20.55186 22.91724 21.73455
#
# Velocity S-wave (km/s) = 3.16334 3.34042 3.25309
# Velocity P-wave (km/s) = 5.68346 5.83509 5.75977
#
# Compressibility (1/GPa) = 0.02568117
#
# Stress axis : x y z
#
# Youngs Moduli (GPa) = 51.40255 52.83657 78.07147
#
# Poissons Ratio (x) = 0.48337 0.23949
# Poissons Ratio (y) = 0.47025 0.04200
# Poissons Ratio (z) = 0.15768 0.02843
#
# Static dielectric constant tensor:
#      x y z
#    x 3.784740 0.000000 -0.084110 
#    y 0.000000 3.746100 0.000000 
#    z -0.084110 0.000000 3.839940 
# 
# 
# High freq. dielectric constant tensor:
#      x y z
#    x 1.795370 0.000000 0.000600 
#    y 0.000000 1.796220 0.000000 
#    z 0.000600 0.000000 1.818860 
# 
# From -- ./inp_files/112900.got.cif
#   From: 2010.06.25/outbox.cif.g09.slc.cpg/sg12_57_cif.got.tgz:112900.got - 2010.06.28 00:19:55.
