data_PCOD8107911
_publ_section_title
;
Structure prediction by ZEFSAII (Michael W. Deem and Ramdas Pophale) SiO2 
 PCOD8107911
Probable space group: C 2/M
;
_chemical_formula_sum "Si O2"
_cell_formula_units_Z 44
_cell_length_a 10.639416
_cell_length_b 27.548423
_cell_length_c 11.370676
_cell_angle_alpha 90.000000
_cell_angle_beta 140.359518
_cell_angle_gamma 90.000000
_cell_volume 2126.179229
_symmetry_space_group_name_H-M "C 2/M"
_symmetry_group_IT_number 12
_symmetry_cell_setting 'monoclinic'
loop_
_space_group_symop_operation_xyz
x,y,z
-x,y,-z
-x,-y,-z
x,-y,z
1/2+x,1/2+y,z
1/2-x,1/2+y,-z
1/2-x,1/2-y,-z
1/2+x,1/2-y,z
loop_
_atom_site_type_symbol
_atom_site_label
_atom_site_fract_x
_atom_site_fract_y
_atom_site_fract_z
Si Si1 0.500000 0.863556 0.500000
Si Si2 0.422486 0.881629 0.696140
Si Si3 0.714622 0.946494 0.209200
Si Si4 0.610574 0.306488 0.201258
Si Si5 0.769880 0.203315 0.330219
Si Si6 0.707615 0.641872 0.876873
O O1 0.452671 0.896050 0.581105
O O2 0.321116 0.829896 0.333342
O O3 0.311390 0.926781 0.676821
O O4 0.282876 0.834006 0.602780
O O5 0.628229 0.867893 0.906756
O O6 0.846379 0.909212 0.227174
O O7 0.813715 0.000000 0.282893
O O8 0.500000 0.949417 0.000000
O O9 0.638645 0.250749 0.259904
O O10 0.489136 0.336087 0.210605
O O11 0.500000 0.308797 0.000000
O O12 0.709774 0.179010 0.162022
O O13 0.000000 0.215983 0.500000
#
# Coordination Sequence:
#
# PCOD8107911 Si02
#       6
#     4   8   8   8   8   8
#     4  12  24  38  57  86 124 170 197 244 300 358
#     4  10  21  38  58  88 123 160 201 251 298 355
#     4   8  16  36  67  94 116 150 197 252 308 357
#     4  12  24  38  60  85 125 167 204 245 297 359
#     4  11  23  37  57  85 120 162 210 251 293 348
#     4  10  21  38  60  89 121 157 204 254 298 351
#
# _framework density 20.694399000000001
#
# number of rings (size 3 to 8) (size 9 to 14) (size 15 to 20)
#    0.000    1.636    2.727    3.818    2.545    2.909 
#    0.000    0.455    0.000   21.273    0.000    0.000 
#    0.000    0.000    0.000    0.000    0.000    0.000 
#
# Total GULP energy -272756.826033 kJ/mol
# GULP energy per Si atom -12398.037547 kJ/mol
# Density = 2.064730 g / cm^3
# Si number density = 20.694399 Si / 1000 Ang^3
#
#
#
# Elastic Constant Matrix: (Units=GPa)
#
#
# Indices 1 2 3 4 5 6 
#
# 1 129.2135 74.6139 35.9925 0.0000 -18.7366 0.0000
# 2 74.6139 167.0722 29.4365 0.0000 -7.3066 0.0000
# 3 35.9925 29.4365 85.6056 0.0000 -8.8609 0.0000
# 4 0.0000 0.0000 0.0000 -7.0162 0.0000 -6.5411
# 5 -18.7366 -7.3066 -8.8609 0.0000 41.4779 0.0000
# 6 0.0000 0.0000 0.0000 -6.5411 0.0000 19.7537
#
#
#
# Elastic Compliance Matrix: (Units=1/GPa)
#
#
# Indices 1 2 3 4 5 6 
#
# 1 0.011763 -0.004559 -0.002977 0.000000 0.003874 0.000000
# 2 -0.004559 0.008157 -0.000974 0.000000 -0.000831 0.000000
# 3 -0.002977 -0.000974 0.013407 0.000000 0.001348 0.000000
# 4 0.000000 0.000000 0.000000 -0.108907 0.000000 -0.036063
# 5 0.003874 -0.000831 0.001348 0.000000 0.026001 0.000000
# 6 0.000000 0.000000 0.000000 -0.036063 0.000000 0.038682
#
#
# Mechanical properties :
#
#
# Convention : Reuss Voigt Hill
#
# Bulk Modulus (GPa) = 61.32273 73.55302 67.43787
# Shear Modulus (GPa) = 432.57250 26.96632 229.76941
#
# Velocity S-wave (km/s) = 14.47351 3.61373 10.54850
# Velocity P-wave (km/s) = 17.57859 7.28228 13.45434
#
# Compressibility (1/GPa) = 0.01630717
#
# Stress axis : x y z
#
# Youngs Moduli (GPa) = 85.01276 122.59588 74.58520
#
# Poissons Ratio (x) = 0.55896 0.22203
# Poissons Ratio (y) = 0.38760 0.07264
# Poissons Ratio (z) = 0.25307 0.11939
#
# Static dielectric constant tensor:
#      x y z
#    x 3.865090 0.000000 -0.073220 
#    y 0.000000 3.934160 0.000000 
#    z -0.073220 0.000000 3.738530 
# 
# 
# High freq. dielectric constant tensor:
#      x y z
#    x 1.804810 0.000000 -0.001720 
#    y 0.000000 1.784050 0.000000 
#    z -0.001720 0.000000 1.821950 
# 
# From -- ./inp_files/137075.got.cif
#   From: 2010.06.25/outbox.cif.g09.slc.cpg/sg12_69_cif.got.tgz:137075.got - 2010.06.28 00:19:55.
