data_PCOD8107114
_publ_section_title
;
Structure prediction by ZEFSAII (Michael W. Deem and Ramdas Pophale) SiO2 
 PCOD8107114
Probable space group: C 2/M
;
_chemical_formula_sum "Si O2"
_cell_formula_units_Z 48
_cell_length_a 18.197279
_cell_length_b 8.463344
_cell_length_c 27.458350
_cell_angle_alpha 90.000000
_cell_angle_beta 146.032626
_cell_angle_gamma 90.000000
_cell_volume 2362.749453
_symmetry_space_group_name_H-M "C 2/M"
_symmetry_group_IT_number 12
_symmetry_cell_setting 'monoclinic'
loop_
_space_group_symop_operation_xyz
x,y,z
-x,y,-z
-x,-y,-z
x,-y,z
1/2+x,1/2+y,z
1/2-x,1/2+y,-z
1/2-x,1/2-y,-z
1/2+x,1/2-y,z
loop_
_atom_site_type_symbol
_atom_site_label
_atom_site_fract_x
_atom_site_fract_y
_atom_site_fract_z
Si Si1 0.647830 0.687706 0.083819
Si Si2 0.761127 0.683696 0.248655
Si Si3 0.889137 0.316062 0.744560
Si Si4 0.957439 0.817590 0.598468
Si Si5 0.273245 0.682967 0.584888
Si Si6 0.187325 0.687159 0.916584
O O1 0.645493 0.500000 0.079905
O O2 0.716172 0.744449 0.171000
O O3 0.730899 0.755858 0.084160
O O4 0.500000 0.755981 0.000000
O O5 0.727540 0.500000 0.238010
O O6 0.682231 0.787575 0.243796
O O7 0.916060 0.709155 0.339642
O O8 0.885320 0.500000 0.728826
O O9 0.814098 0.218206 0.662182
O O10 0.037957 0.252770 0.830004
O O11 0.855709 0.784114 0.498904
O O12 0.891805 0.770005 0.613843
O O13 0.999565 0.000000 0.620309
O O14 0.237388 0.500000 0.558963
O O15 0.192297 0.500000 0.920200
O O16 0.250000 0.750000 0.000000
#
# Coordination Sequence:
#
# PCOD8107114 Si02
#       6
#     8   8   8   8   8   8
#     4   9  18  34  57  83 111 145 186 231 279 333
#     4  11  22  37  59  84 113 151 195 238 283 342
#     4  11  23  38  56  82 118 154 191 238 289 336
#     4  10  21  38  60  86 117 149 185 235 290 340
#     4  10  21  38  61  87 114 149 193 234 279 342
#     4  10  21  37  58  84 114 149 188 232 284 340
#
# _framework density 20.315315999999999
#
# number of rings (size 3 to 8) (size 9 to 14) (size 15 to 20)
#    0.000    1.833    0.000    4.000    0.000    6.667 
#    0.000    5.000    0.000    4.500    0.000    0.000 
#    0.000    0.000    0.000    0.000    0.000    0.000 
#
# Total GULP energy -297742.106649 kJ/mol
# GULP energy per Si atom -12405.921110 kJ/mol
# Density = 2.026908 g / cm^3
# Si number density = 20.315316 Si / 1000 Ang^3
#
#
#
# Elastic Constant Matrix: (Units=GPa)
#
#
# Indices 1 2 3 4 5 6 
#
# 1 146.8145 10.6001 75.3686 0.0000 -2.9058 -0.0001
# 2 10.6001 34.4778 13.5117 0.0000 1.4165 -0.0001
# 3 75.3686 13.5117 137.5334 0.0001 0.5956 0.0000
# 4 0.0000 0.0000 0.0001 26.4638 0.0000 -6.4024
# 5 -2.9058 1.4165 0.5956 0.0000 41.7649 0.0000
# 6 -0.0001 -0.0001 0.0000 -6.4024 0.0000 23.8770
#
#
#
# Elastic Compliance Matrix: (Units=1/GPa)
#
#
# Indices 1 2 3 4 5 6 
#
# 1 0.009530 -0.000950 -0.005132 0.000000 0.000768 0.000000
# 2 -0.000950 0.030301 -0.002452 0.000000 -0.001059 0.000000
# 3 -0.005132 -0.002452 0.010326 0.000000 -0.000421 0.000000
# 4 0.000000 0.000000 0.000000 0.040409 0.000000 0.010835
# 5 0.000768 -0.001059 -0.000421 0.000000 0.024039 0.000000
# 6 0.000000 0.000000 0.000000 0.010835 0.000000 0.044787
#
#
# Mechanical properties :
#
#
# Convention : Reuss Voigt Hill
#
# Bulk Modulus (GPa) = 30.22204 57.53184 43.87694
# Shear Modulus (GPa) = 26.66826 33.04415 29.85620
#
# Velocity S-wave (km/s) = 3.62707 4.03744 3.83775
# Velocity P-wave (km/s) = 5.69646 7.07923 6.42515
#
# Compressibility (1/GPa) = 0.03308844
#
# Stress axis : x y z
#
# Youngs Moduli (GPa) = 104.93307 33.00273 96.84118
#
# Poissons Ratio (x) = 0.03136 0.49703
# Poissons Ratio (y) = 0.09970 0.23741
# Poissons Ratio (z) = 0.53856 0.08091
#
# Static dielectric constant tensor:
#      x y z
#    x 3.778570 0.000000 0.035330 
#    y 0.000000 3.412500 0.000000 
#    z 0.035330 0.000000 3.801240 
# 
# 
# High freq. dielectric constant tensor:
#      x y z
#    x 1.800540 0.000000 0.000090 
#    y 0.000000 1.778040 0.000000 
#    z 0.000090 0.000000 1.806440 
# 
# From -- ./inp_files/378553.got.cif
#   From: 2010.06.25/outbox.cif.g09.slc.cpg/sg12_190_cif.got.tgz:378553.got - 2010.06.28 00:19:55.
