data_PCOD8107326
_publ_section_title
;
Structure prediction by ZEFSAII (Michael W. Deem and Ramdas Pophale) SiO2 
 PCOD8107326
Probable space group: C 2/M
;
_chemical_formula_sum "Si O2"
_cell_formula_units_Z 64
_cell_length_a 12.435068
_cell_length_b 12.294594
_cell_length_c 18.636570
_cell_angle_alpha 90.000000
_cell_angle_beta 99.398783
_cell_angle_gamma 90.000000
_cell_volume 2810.986273
_symmetry_space_group_name_H-M "C 2/M"
_symmetry_group_IT_number 12
_symmetry_cell_setting 'monoclinic'
loop_
_space_group_symop_operation_xyz
x,y,z
-x,y,-z
-x,-y,-z
x,-y,z
1/2+x,1/2+y,z
1/2-x,1/2+y,-z
1/2-x,1/2-y,-z
1/2+x,1/2-y,z
loop_
_atom_site_type_symbol
_atom_site_label
_atom_site_fract_x
_atom_site_fract_y
_atom_site_fract_z
Si Si1 0.315941 0.875278 0.943592
Si Si2 0.598569 0.711239 0.642800
Si Si3 0.185178 0.628529 0.553991
Si Si4 0.917117 0.194871 0.047081
Si Si5 0.483817 0.879160 0.281827
Si Si6 0.188017 0.375901 0.390721
Si Si7 0.617144 0.625957 0.320803
Si Si8 0.418808 0.235913 0.823462
O O1 0.189407 0.877370 0.952088
O O2 0.329316 0.806493 0.870802
O O3 0.355747 0.000000 0.940381
O O4 0.385398 0.815040 0.012992
O O5 0.586066 0.795743 0.572631
O O6 0.614851 0.795713 0.712494
O O7 0.703827 0.636058 0.645501
O O8 0.496991 0.632895 0.648053
O O9 0.159864 0.500000 0.560548
O O10 0.211108 0.658696 0.474887
O O11 0.288150 0.670076 0.614201
O O12 0.981010 0.203006 0.128275
O O13 0.000000 0.137105 0.000000
O O14 0.580824 0.821851 0.342497
O O15 0.527808 0.872862 0.205906
O O16 0.447754 0.000000 0.298264
O O17 0.152320 0.500000 0.383066
O O18 0.640540 0.500000 0.308106
O O19 0.625825 0.685029 0.243937
#
# Coordination Sequence:
#
# PCOD8107326 Si02
#       8
#     8   8   8   8   8   8   8   8
#     4  10  21  40  66  91 117 154 193 227 270 330
#     4  11  20  35  57  79 104 143 190 238 291 346
#     4  10  22  39  56  78 111 149 192 244 296 343
#     4   9  21  40  61  91 125 151 186 231 276 328
#     4  10  22  37  54  82 115 147 189 239 290 342
#     4  10  22  38  55  78 110 148 192 243 295 346
#     4  10  23  40  57  82 116 152 192 238 287 342
#     4  10  21  37  59  87 119 151 189 234 280 333
#
# _framework density 22.767810000000001
#
# number of rings (size 3 to 8) (size 9 to 14) (size 15 to 20)
#    0.000    2.000    0.000    3.000    0.000    9.500 
#    0.000    8.750    0.000    0.000    0.000    0.000 
#    0.000    0.000    0.000    0.000    0.000    0.000 
#
# Total GULP energy -396483.012908 kJ/mol
# GULP energy per Si atom -12390.094153 kJ/mol
# Density = 2.271599 g / cm^3
# Si number density = 22.767810 Si / 1000 Ang^3
#
#
#
# Elastic Constant Matrix: (Units=GPa)
#
#
# Indices 1 2 3 4 5 6 
#
# 1 62.2229 3.6437 38.7140 0.0000 -19.9474 0.0000
# 2 3.6437 55.0510 34.5276 0.0000 0.7565 0.0000
# 3 38.7140 34.5276 128.2090 0.0000 -1.5398 0.0000
# 4 0.0000 0.0000 0.0000 29.1457 0.0000 -5.4638
# 5 -19.9474 0.7565 -1.5398 0.0000 37.0393 0.0000
# 6 0.0000 0.0000 0.0000 -5.4638 0.0000 27.0459
#
#
#
# Elastic Compliance Matrix: (Units=1/GPa)
#
#
# Indices 1 2 3 4 5 6 
#
# 1 0.025350 0.003419 -0.008416 0.000000 0.013232 0.000000
# 2 0.003419 0.022336 -0.007034 0.000000 0.001093 0.000000
# 3 -0.008416 -0.007034 0.012189 0.000000 -0.003882 0.000000
# 4 0.000000 0.000000 0.000000 0.035661 0.000000 0.007204
# 5 0.013232 0.001093 -0.003882 0.000000 0.033941 0.000000
# 6 0.000000 0.000000 0.000000 0.007204 0.000000 0.038430
#
#
# Mechanical properties :
#
#
# Convention : Reuss Voigt Hill
#
# Bulk Modulus (GPa) = 27.92474 44.36150 36.14312
# Shear Modulus (GPa) = 24.52114 29.88603 27.20359
#
# Velocity S-wave (km/s) = 3.28534 3.62697 3.46038
# Velocity P-wave (km/s) = 5.16555 6.08823 5.64577
#
# Compressibility (1/GPa) = 0.03581054
#
# Stress axis : x y z
#
# Youngs Moduli (GPa) = 39.44848 44.77160 82.04141
#
# Poissons Ratio (x) = -0.15308 0.69049
# Poissons Ratio (y) = -0.13488 0.57711
# Poissons Ratio (z) = 0.33201 0.31494
#
# Static dielectric constant tensor:
#      x y z
#    x 4.010980 0.000000 -0.149010 
#    y 0.000000 4.108830 0.000000 
#    z -0.149010 0.000000 4.098120 
# 
# 
# High freq. dielectric constant tensor:
#      x y z
#    x 1.896110 0.000000 -0.019210 
#    y 0.000000 1.912520 0.000000 
#    z -0.019210 0.000000 1.891840 
# 
# From -- ./inp_files/263336.got.cif
#   From: 2010.06.25/outbox.cif.g09.slc.cpg/sg12_132_cif.got.tgz:263336.got - 2010.06.28 00:19:55.
