data_PCOD8107535
_publ_section_title
;
Structure prediction by ZEFSAII (Michael W. Deem and Ramdas Pophale) SiO2 
 PCOD8107535
Probable space group: C 2/M
;
_chemical_formula_sum "Si O2"
_cell_formula_units_Z 48
_cell_length_a 17.996669
_cell_length_b 14.336252
_cell_length_c 18.951195
_cell_angle_alpha 90.000000
_cell_angle_beta 30.036891
_cell_angle_gamma 90.000000
_cell_volume 2447.475380
_symmetry_space_group_name_H-M "C 2/M"
_symmetry_group_IT_number 12
_symmetry_cell_setting 'monoclinic'
loop_
_space_group_symop_operation_xyz
x,y,z
-x,y,-z
-x,-y,-z
x,-y,z
1/2+x,1/2+y,z
1/2-x,1/2+y,-z
1/2-x,1/2-y,-z
1/2+x,1/2-y,z
loop_
_atom_site_type_symbol
_atom_site_label
_atom_site_fract_x
_atom_site_fract_y
_atom_site_fract_z
Si Si1 0.869714 0.200279 0.451932
Si Si2 0.300331 0.306413 0.804885
Si Si3 0.995053 0.000000 0.181445
Si Si4 0.463150 0.672919 0.953514
Si Si5 0.799691 0.000000 0.465301
Si Si6 0.216561 0.316906 0.716441
Si Si7 0.743048 0.000000 0.925481
Si Si8 0.582333 0.000000 0.758994
O O1 0.750000 0.250000 0.500000
O O2 0.827672 0.224682 0.566684
O O3 0.039665 0.230037 0.298637
O O4 0.877278 0.089971 0.434164
O O5 0.304949 0.321705 0.716965
O O6 0.243071 0.405681 0.880081
O O7 0.197057 0.221608 0.915173
O O8 0.024568 0.091054 0.112217
O O9 0.110786 0.000000 0.148827
O O10 0.829577 0.000000 0.355197
O O11 0.577786 0.750841 0.838257
O O12 0.500000 0.630911 0.000000
O O13 0.630076 0.000000 0.635680
O O14 0.151322 0.414267 0.744421
O O15 0.595193 0.000000 0.094852
#
# Coordination Sequence:
#
# PCOD8107535 Si02
#       8
#     8   8   4   8   4   8   4   4
#     4  11  22  39  61  88 124 165 205 251 304 367
#     4  11  22  39  60  94 124 157 208 251 315 369
#     4  12  23  41  59  84 124 169 207 255 297 361
#     4  10  23  40  63  88 118 163 212 256 305 360
#     4  10  22  39  56  85 118 156 202 236 307 364
#     4  10  21  37  63  90 124 164 198 255 306 373
#     4  12  23  37  64  93 130 159 195 256 321 371
#     4  10  21  37  60  95 126 156 197 245 315 376
#
# _framework density 19.612045999999999
#
# number of rings (size 3 to 8) (size 9 to 14) (size 15 to 20)
#    0.000    1.333    3.333    2.250    0.000    4.000 
#    0.000    3.333    0.000    0.000    0.000    9.333 
#    0.000    0.000    0.000    0.000    0.000    0.000 
#
# Total GULP energy -297444.322611 kJ/mol
# GULP energy per Si atom -12393.513442 kJ/mol
# Density = 1.956741 g / cm^3
# Si number density = 19.612046 Si / 1000 Ang^3
#
#
#
# Elastic Constant Matrix: (Units=GPa)
#
#
# Indices 1 2 3 4 5 6 
#
# 1 93.1399 62.0659 63.5216 -0.0044 8.1182 -0.0016
# 2 62.0659 60.8379 39.3322 -0.0025 11.1939 -0.0003
# 3 63.5216 39.3322 159.4282 -0.0085 8.5599 -0.0023
# 4 -0.0044 -0.0025 -0.0085 95.2425 0.0040 16.3019
# 5 8.1182 11.1939 8.5599 0.0040 42.3639 0.0010
# 6 -0.0016 -0.0003 -0.0023 16.3019 0.0010 31.4221
#
#
#
# Elastic Compliance Matrix: (Units=1/GPa)
#
#
# Indices 1 2 3 4 5 6 
#
# 1 0.039329 -0.036296 -0.006901 0.000000 0.003448 0.000001
# 2 -0.036296 0.053836 0.001587 0.000000 -0.007591 -0.000001
# 3 -0.006901 0.001587 0.008676 0.000001 -0.000850 0.000000
# 4 0.000000 0.000000 0.000001 0.011523 -0.000001 -0.005978
# 5 0.003448 -0.007591 -0.000850 -0.000001 0.025122 0.000000
# 6 0.000001 -0.000001 0.000000 -0.005978 0.000000 0.034926
#
#
# Mechanical properties :
#
#
# Convention : Reuss Voigt Hill
#
# Bulk Modulus (GPa) = 53.69885 71.47172 62.58528
# Shear Modulus (GPa) = 19.02323 43.70480 31.36401
#
# Velocity S-wave (km/s) = 3.11782 4.72579 4.00337
# Velocity P-wave (km/s) = 6.35618 8.14244 7.30412
#
# Compressibility (1/GPa) = 0.01862237
#
# Stress axis : x y z
#
# Youngs Moduli (GPa) = 25.42672 18.57496 115.26189
#
# Poissons Ratio (x) = 0.67419 0.79537
# Poissons Ratio (y) = 0.92288 -0.18295
# Poissons Ratio (z) = 0.17546 -0.02948
#
# Static dielectric constant tensor:
#      x y z
#    x 4.709150 0.000010 1.109230 
#    y 0.000010 3.473800 0.000010 
#    z 1.109230 0.000010 4.756280 
# 
# 
# High freq. dielectric constant tensor:
#      x y z
#    x 1.747580 0.000000 0.010170 
#    y 0.000000 1.763970 0.000000 
#    z 0.010170 0.000000 1.790190 
# 
# From -- ./inp_files/278110.got.cif
#   From: 2010.06.25/outbox.cif.g09.slc.cpg/sg12_140_cif.got.tgz:278110.got - 2010.06.28 00:19:55.
