data_PCOD8107072
_publ_section_title
;
Structure prediction by ZEFSAII (Michael W. Deem and Ramdas Pophale) SiO2 
 PCOD8107072
Probable space group: C 2/M
;
_chemical_formula_sum "Si O2"
_cell_formula_units_Z 64
_cell_length_a 20.374170
_cell_length_b 8.920283
_cell_length_c 22.188279
_cell_angle_alpha 90.000000
_cell_angle_beta 124.137440
_cell_angle_gamma 90.000000
_cell_volume 3337.735228
_symmetry_space_group_name_H-M "C 2/M"
_symmetry_group_IT_number 12
_symmetry_cell_setting 'monoclinic'
loop_
_space_group_symop_operation_xyz
x,y,z
-x,y,-z
-x,-y,-z
x,-y,z
1/2+x,1/2+y,z
1/2-x,1/2+y,-z
1/2-x,1/2-y,-z
1/2+x,1/2-y,z
loop_
_atom_site_type_symbol
_atom_site_label
_atom_site_fract_x
_atom_site_fract_y
_atom_site_fract_z
Si Si1 0.131177 0.328339 0.809562
Si Si2 0.449942 0.173077 0.033959
Si Si3 0.078684 0.177498 0.436247
Si Si4 0.365785 0.322213 0.664729
Si Si5 0.285121 0.672566 0.959551
Si Si6 0.413667 0.826136 0.346987
Si Si7 0.812080 0.324872 0.408893
Si Si8 0.502560 0.677347 0.822438
O O1 0.103336 0.500000 0.804315
O O2 0.223798 0.311488 0.872717
O O3 0.118431 0.274889 0.734541
O O4 0.082238 0.222267 0.828670
O O5 0.499239 0.247647 0.113257
O O6 0.435610 0.000000 0.042123
O O7 0.500000 0.196355 0.000000
O O8 0.365648 0.250156 0.980461
O O9 0.106896 0.240855 0.386036
O O10 0.138357 0.234952 0.516977
O O11 0.990794 0.233778 0.405578
O O12 0.078476 0.000000 0.437010
O O13 0.368361 0.500000 0.664875
O O14 0.277937 0.264857 0.635125
O O15 0.426410 0.262178 0.746479
O O16 0.302389 0.500000 0.984004
O O17 0.250000 0.750000 0.000000
O O18 0.344649 0.791434 0.359118
O O19 0.437034 0.000000 0.359610
O O20 0.817029 0.500000 0.427483
O O21 0.500814 0.500000 0.829238
#
# Coordination Sequence:
#
# PCOD8107072 Si02
#       8
#     8   8   8   8   8   8   8   8
#     4  10  21  37  59  87 117 151 193 241 292 349
#     4  11  25  43  61  87 125 162 197 243 297 350
#     4  11  21  36  57  83 115 149 190 238 291 343
#     4   9  20  37  58  85 114 148 190 240 290 341
#     4  11  22  37  62  92 121 154 197 245 294 351
#     4  10  21  37  58  83 111 151 193 234 287 344
#     4  10  21  38  57  80 114 150 192 239 286 343
#     4  11  21  37  63  89 115 152 195 242 294 350
#
# _framework density 19.174679000000001
#
# number of rings (size 3 to 8) (size 9 to 14) (size 15 to 20)
#    0.000    1.625    2.500    2.250    0.000    4.500 
#    0.000    4.375    0.000    0.000    0.000    0.000 
#    0.000    0.000    0.000    0.000    0.000    0.000 
#
# Total GULP energy -396946.630469 kJ/mol
# GULP energy per Si atom -12404.582202 kJ/mol
# Density = 1.913104 g / cm^3
# Si number density = 19.174679 Si / 1000 Ang^3
#
#
#
# Elastic Constant Matrix: (Units=GPa)
#
#
# Indices 1 2 3 4 5 6 
#
# 1 104.4458 44.3628 37.8666 0.0000 3.0297 0.0000
# 2 44.3628 84.0075 44.2590 0.0000 -1.4201 0.0000
# 3 37.8666 44.2590 126.2974 0.0000 0.8326 0.0000
# 4 0.0000 0.0000 0.0000 27.6851 0.0000 -2.1046
# 5 3.0297 -1.4201 0.8326 0.0000 32.5816 0.0000
# 6 0.0000 0.0000 0.0000 -2.1046 0.0000 22.2763
#
#
#
# Elastic Compliance Matrix: (Units=1/GPa)
#
#
# Indices 1 2 3 4 5 6 
#
# 1 0.012724 -0.005811 -0.001770 0.000000 -0.001391 0.000000
# 2 -0.005811 0.017272 -0.004320 0.000000 0.001404 0.000000
# 3 -0.001770 -0.004320 0.009964 0.000000 -0.000278 0.000000
# 4 0.000000 0.000000 0.000000 0.036382 0.000000 0.003437
# 5 -0.001391 0.001404 -0.000278 0.000000 0.030890 0.000000
# 6 0.000000 0.000000 0.000000 0.003437 0.000000 0.045216
#
#
# Mechanical properties :
#
#
# Convention : Reuss Voigt Hill
#
# Bulk Modulus (GPa) = 61.88079 63.08082 62.48080
# Shear Modulus (GPa) = 27.52790 29.05941 28.29366
#
# Velocity S-wave (km/s) = 3.79309 3.89718 3.84549
# Velocity P-wave (km/s) = 7.17813 7.29521 7.23691
#
# Compressibility (1/GPa) = 0.01616010
#
# Stress axis : x y z
#
# Youngs Moduli (GPa) = 78.58963 57.89797 100.36143
#
# Poissons Ratio (x) = 0.33643 0.17760
# Poissons Ratio (y) = 0.45666 0.43353
# Poissons Ratio (z) = 0.13907 0.25010
#
# Static dielectric constant tensor:
#      x y z
#    x 3.510910 0.000000 -0.036800 
#    y 0.000000 3.457410 0.000000 
#    z -0.036800 0.000000 3.675370 
# 
# 
# High freq. dielectric constant tensor:
#      x y z
#    x 1.747820 0.000000 0.003160 
#    y 0.000000 1.738540 0.000000 
#    z 0.003160 0.000000 1.761380 
# 
# From -- ./inp_files/320175.got.cif
#   From: 2010.06.25/outbox.cif.g09.slc.cpg/sg12_161_cif.got.tgz:320175.got - 2010.06.28 00:19:55.
