data_PCOD8107795
_publ_section_title
;
Structure prediction by ZEFSAII (Michael W. Deem and Ramdas Pophale) SiO2 
 PCOD8107795
Probable space group: C 2/M
;
_chemical_formula_sum "Si O2"
_cell_formula_units_Z 56
_cell_length_a 23.292669
_cell_length_b 9.203582
_cell_length_c 14.575981
_cell_angle_alpha 90.000000
_cell_angle_beta 71.580218
_cell_angle_gamma 90.000000
_cell_volume 2964.650441
_symmetry_space_group_name_H-M "C 2/M"
_symmetry_group_IT_number 12
_symmetry_cell_setting 'monoclinic'
loop_
_space_group_symop_operation_xyz
x,y,z
-x,y,-z
-x,-y,-z
x,-y,z
1/2+x,1/2+y,z
1/2-x,1/2+y,-z
1/2-x,1/2-y,-z
1/2+x,1/2-y,z
loop_
_atom_site_type_symbol
_atom_site_label
_atom_site_fract_x
_atom_site_fract_y
_atom_site_fract_z
Si Si1 0.092533 0.169132 0.741194
Si Si2 0.301828 0.331736 0.173204
Si Si3 0.866068 0.833250 0.956378
Si Si4 0.512338 0.831189 0.099712
Si Si5 0.422542 0.832641 0.632315
Si Si6 0.561722 0.167346 0.584893
Si Si7 0.681787 0.333747 0.214727
O O1 0.155002 0.197425 0.762375
O O2 0.099219 0.230316 0.634904
O O3 0.039231 0.253914 0.817287
O O4 0.076135 0.000000 0.747532
O O5 0.285497 0.500000 0.170247
O O6 0.240470 0.246427 0.223743
O O7 0.333383 0.274218 0.064237
O O8 0.923566 0.734916 0.905092
O O9 0.820275 0.818565 0.894430
O O10 0.887097 0.000000 0.960164
O O11 0.512539 0.000000 0.125419
O O12 0.500000 0.802757 0.000000
O O13 0.416621 0.794219 0.528101
O O14 0.490399 0.801935 0.632243
O O15 0.378600 0.731126 0.711514
O O16 0.405304 0.000000 0.657912
O O17 0.575737 0.000000 0.600397
O O18 0.685995 0.500000 0.242991
#
# Coordination Sequence:
#
# PCOD8107795 Si02
#       7
#     8   8   8   8   8   8   8
#     4  11  22  36  57  83 113 150 185 224 278 332
#     4  10  22  39  56  75 109 154 190 223 273 334
#     4  10  21  38  57  80 111 148 187 229 280 329
#     4  11  22  34  53  82 113 146 184 226 269 319
#     4   9  19  38  61  84 113 146 179 221 279 336
#     4   9  19  37  62  88 112 142 180 225 276 331
#     4  11  23  36  56  84 110 142 189 237 275 319
#
# _framework density 18.889243
#
# number of rings (size 3 to 8) (size 9 to 14) (size 15 to 20)
#    0.000    1.857    1.429    3.429    0.000    6.857 
#    0.000    2.143    0.000    0.000    0.000    0.000 
#    0.000    0.000    0.000    0.000    0.000    0.000 
#
# Total GULP energy -347332.125467 kJ/mol
# GULP energy per Si atom -12404.718767 kJ/mol
# Density = 1.884625 g / cm^3
# Si number density = 18.889243 Si / 1000 Ang^3
#
#
#
# Elastic Constant Matrix: (Units=GPa)
#
#
# Indices 1 2 3 4 5 6 
#
# 1 80.4240 45.1789 28.8865 0.0000 8.0431 0.0000
# 2 45.1789 75.9717 43.1329 0.0000 9.9832 0.0000
# 3 28.8865 43.1329 69.2701 0.0000 12.8553 0.0000
# 4 0.0000 0.0000 0.0000 58.1564 0.0000 -32.2612
# 5 8.0431 9.9832 12.8553 0.0000 26.9091 0.0000
# 6 0.0000 0.0000 0.0000 -32.2612 0.0000 77.6765
#
#
#
# Elastic Compliance Matrix: (Units=1/GPa)
#
#
# Indices 1 2 3 4 5 6 
#
# 1 0.018790 -0.010354 -0.001162 0.000000 -0.001220 0.000000
# 2 -0.010354 0.026133 -0.011773 0.000000 -0.000976 0.000000
# 3 -0.001162 -0.011773 0.023456 0.000000 -0.006491 0.000000
# 4 0.000000 0.000000 0.000000 0.022343 0.000000 0.009280
# 5 -0.001220 -0.000976 -0.006491 0.000000 0.040990 0.000000
# 6 0.000000 0.000000 0.000000 0.009280 0.000000 0.016728
#
#
# Mechanical properties :
#
#
# Convention : Reuss Voigt Hill
#
# Bulk Modulus (GPa) = 45.87120 51.11805 48.49462
# Shear Modulus (GPa) = 24.71763 39.77956 32.24859
#
# Velocity S-wave (km/s) = 3.62132 4.59403 4.13637
# Velocity P-wave (km/s) = 6.46702 7.43376 6.96718
#
# Compressibility (1/GPa) = 0.02180017
#
# Stress axis : x y z
#
# Youngs Moduli (GPa) = 53.22006 38.26630 42.63222
#
# Poissons Ratio (x) = 0.39621 0.04954
# Poissons Ratio (y) = 0.55104 0.50193
# Poissons Ratio (z) = 0.06185 0.45053
#
# Static dielectric constant tensor:
#      x y z
#    x 3.444080 0.000000 0.249310 
#    y 0.000000 3.470760 0.000000 
#    z 0.249310 0.000000 3.555520 
# 
# 
# High freq. dielectric constant tensor:
#      x y z
#    x 1.728530 0.000000 0.010790 
#    y 0.000000 1.736730 0.000000 
#    z 0.010790 0.000000 1.735520 
# 
# From -- ./inp_files/237382.got.cif
#   From: 2010.06.25/outbox.cif.g09.slc.cpg/sg12_119_cif.got.tgz:237382.got - 2010.06.28 00:19:55.
