data_PCOD8107460
_publ_section_title
;
Structure prediction by ZEFSAII (Michael W. Deem and Ramdas Pophale) SiO2 
 PCOD8107460
Probable space group: C 2/M
;
_chemical_formula_sum "Si O2"
_cell_formula_units_Z 48
_cell_length_a 30.748196
_cell_length_b 8.411132
_cell_length_c 13.591935
_cell_angle_alpha 90.000000
_cell_angle_beta 40.945333
_cell_angle_gamma 90.000000
_cell_volume 2303.674733
_symmetry_space_group_name_H-M "C 2/M"
_symmetry_group_IT_number 12
_symmetry_cell_setting 'monoclinic'
loop_
_space_group_symop_operation_xyz
x,y,z
-x,y,-z
-x,-y,-z
x,-y,z
1/2+x,1/2+y,z
1/2-x,1/2+y,-z
1/2-x,1/2-y,-z
1/2+x,1/2-y,z
loop_
_atom_site_type_symbol
_atom_site_label
_atom_site_fract_x
_atom_site_fract_y
_atom_site_fract_z
Si Si1 0.106117 0.316821 0.688444
Si Si2 0.030426 0.187693 0.151748
Si Si3 0.846033 0.816672 0.193026
Si Si4 0.208984 0.185078 0.363410
Si Si5 0.945551 0.810776 0.668286
Si Si6 0.694399 0.311974 0.166464
O O1 0.112494 0.500000 0.708047
O O2 0.128867 0.207686 0.739555
O O3 0.152736 0.282211 0.516097
O O4 0.030274 0.279231 0.793369
O O5 0.038290 0.248796 0.249777
O O6 0.016740 0.000000 0.169327
O O7 0.097008 0.235225 0.980307
O O8 0.781206 0.711168 0.286152
O O9 0.826826 0.000000 0.210715
O O10 0.208446 0.248618 0.252610
O O11 0.190422 0.000000 0.400865
O O12 0.875155 0.742281 0.753315
O O13 0.000000 0.742818 0.500000
O O14 0.944921 0.000000 0.667574
O O15 0.693564 0.500000 0.165170
O O16 0.750000 0.250000 0.000000
#
# Coordination Sequence:
#
# PCOD8107460 Si02
#       6
#     8   8   8   8   8   8
#     4  12  25  40  60  86 118 154 196 247 299 352
#     4  10  21  38  61  87 117 155 196 238 289 351
#     4  11  23  40  62  87 118 155 197 244 295 354
#     4  11  23  40  62  88 120 157 198 242 292 349
#     4   9  17  33  58  85 113 148 191 233 276 334
#     4  10  21  37  60  88 118 154 193 237 286 342
#
# _framework density 20.836275000000001
#
# number of rings (size 3 to 8) (size 9 to 14) (size 15 to 20)
#    0.000    1.500    0.000    5.500    0.000    8.667 
#    0.000    0.833    0.000    2.000    0.000    0.000 
#    0.000    0.000    0.000    0.000    0.000    0.000 
#
# Total GULP energy -297750.419141 kJ/mol
# GULP energy per Si atom -12406.267464 kJ/mol
# Density = 2.078885 g / cm^3
# Si number density = 20.836275 Si / 1000 Ang^3
#
#
#
# Elastic Constant Matrix: (Units=GPa)
#
#
# Indices 1 2 3 4 5 6 
#
# 1 103.6043 7.3815 8.8064 0.0000 -0.1381 0.0000
# 2 7.3815 38.6291 18.1617 -0.0002 -2.0008 0.0000
# 3 8.8064 18.1617 101.4136 0.0001 0.6172 0.0000
# 4 0.0000 -0.0002 0.0001 31.7343 0.0000 -4.6743
# 5 -0.1381 -2.0008 0.6172 0.0000 46.9678 0.0000
# 6 0.0000 0.0000 0.0000 -4.6743 0.0000 25.3481
#
#
#
# Elastic Compliance Matrix: (Units=1/GPa)
#
#
# Indices 1 2 3 4 5 6 
#
# 1 0.009815 -0.001612 -0.000563 0.000000 -0.000032 0.000000
# 2 -0.001612 0.028608 -0.004991 0.000000 0.001280 0.000000
# 3 -0.000563 -0.004991 0.010806 0.000000 -0.000356 0.000000
# 4 0.000000 0.000000 0.000000 0.032391 0.000000 0.005973
# 5 -0.000032 0.001280 -0.000356 0.000000 0.021350 0.000000
# 6 0.000000 0.000000 0.000000 0.005973 0.000000 0.040552
#
#
# Mechanical properties :
#
#
# Convention : Reuss Voigt Hill
#
# Bulk Modulus (GPa) = 28.65734 34.70512 31.68123
# Shear Modulus (GPa) = 29.50070 34.76321 32.13196
#
# Velocity S-wave (km/s) = 3.76684 4.08903 3.93124
# Velocity P-wave (km/s) = 5.71858 6.24387 5.98699
#
# Compressibility (1/GPa) = 0.03489508
#
# Stress axis : x y z
#
# Youngs Moduli (GPa) = 101.88672 34.95506 92.54526
#
# Poissons Ratio (x) = 0.05636 0.05214
# Poissons Ratio (y) = 0.16427 0.46190
# Poissons Ratio (z) = 0.05740 0.17446
#
# Static dielectric constant tensor:
#      x y z
#    x 2.921220 0.000000 0.109570 
#    y 0.000000 3.464660 0.000000 
#    z 0.109570 0.000000 3.871470 
# 
# 
# High freq. dielectric constant tensor:
#      x y z
#    x 1.832360 0.000000 0.001250 
#    y 0.000000 1.792180 0.000000 
#    z 0.001250 0.000000 1.834250 
# 
# From -- ./inp_files/244697.got.cif
#   From: 2010.06.25/outbox.cif.g09.slc.cpg/sg12_123_cif.got.tgz:244697.got - 2010.06.28 00:19:55.
