data_PCOD8107656
_publ_section_title
;
Structure prediction by ZEFSAII (Michael W. Deem and Ramdas Pophale) SiO2 
 PCOD8107656
Probable space group: C 2/M
;
_chemical_formula_sum "Si O2"
_cell_formula_units_Z 64
_cell_length_a 29.937636
_cell_length_b 18.725202
_cell_length_c 14.775375
_cell_angle_alpha 90.000000
_cell_angle_beta 159.455949
_cell_angle_gamma 90.000000
_cell_volume 2906.697490
_symmetry_space_group_name_H-M "C 2/M"
_symmetry_group_IT_number 12
_symmetry_cell_setting 'monoclinic'
loop_
_space_group_symop_operation_xyz
x,y,z
-x,y,-z
-x,-y,-z
x,-y,z
1/2+x,1/2+y,z
1/2-x,1/2+y,-z
1/2-x,1/2-y,-z
1/2+x,1/2-y,z
loop_
_atom_site_type_symbol
_atom_site_label
_atom_site_fract_x
_atom_site_fract_y
_atom_site_fract_z
Si Si1 0.327907 0.417607 0.975165
Si Si2 0.646932 0.081066 0.476634
Si Si3 0.573950 0.218811 0.722341
Si Si4 0.812703 0.138806 0.134403
Si Si5 0.350642 0.919465 0.720418
Si Si6 0.890834 0.082696 0.463943
Si Si7 0.742956 0.685762 0.660565
Si Si8 0.994696 0.283517 0.769794
O O1 0.334093 0.500000 0.966178
O O2 0.267436 0.405307 0.960077
O O3 0.471720 0.387885 0.242027
O O4 0.243430 0.384618 0.734042
O O5 0.707636 0.082572 0.491674
O O6 0.524170 0.132330 0.244550
O O7 0.604516 0.000000 0.421301
O O8 0.500000 0.179974 0.500000
O O9 0.602857 0.297942 0.743841
O O10 0.490806 0.227049 0.654440
O O11 0.697180 0.171023 0.973810
O O12 0.888372 0.090150 0.349806
O O13 0.272514 0.860673 0.627703
O O14 0.333751 0.000000 0.728440
O O15 0.500000 0.899881 0.000000
O O16 0.785583 0.130758 0.312564
O O17 0.869823 0.000000 0.449012
O O18 0.621347 0.736754 0.408659
O O19 0.866024 0.733972 0.923313
#
# Coordination Sequence:
#
# PCOD8107656 Si02
#       8
#     8   8   8   8   8   8   8   8
#     4  10  21  37  62  96 133 173 215 275 342 394
#     4  10  23  44  71  98 131 177 220 271 342 409
#     4  11  23  37  57  89 128 183 228 271 326 397
#     4  11  21  37  61  89 132 178 227 270 332 398
#     4  10  21  45  75 101 133 173 225 279 340 412
#     4  11  23  41  67 100 137 178 234 286 333 400
#     4  12  26  44  69 104 135 179 227 280 347 401
#     4  12  26  43  68 100 137 176 227 284 334 410
#
# _framework density 22.018115000000002
#
# number of rings (size 3 to 8) (size 9 to 14) (size 15 to 20)
#    0.000    1.125    2.500    4.125    5.250    2.000 
#    0.000    0.625    0.000    5.625    0.000    0.000 
#    0.000    0.000    0.000    0.000    0.000    0.000 
#
# Total GULP energy -396697.880918 kJ/mol
# GULP energy per Si atom -12396.808779 kJ/mol
# Density = 2.196800 g / cm^3
# Si number density = 22.018115 Si / 1000 Ang^3
#
#
#
# Elastic Constant Matrix: (Units=GPa)
#
#
# Indices 1 2 3 4 5 6 
#
# 1 101.9470 25.5606 36.4035 0.0000 1.3310 0.0000
# 2 25.5606 73.7862 40.0109 0.0000 18.5194 0.0000
# 3 36.4035 40.0109 90.8834 0.0000 1.4760 0.0000
# 4 0.0000 0.0000 0.0000 -23.3482 0.0000 -36.6733
# 5 1.3310 18.5194 1.4760 0.0000 37.5796 0.0000
# 6 0.0000 0.0000 0.0000 -36.6733 0.0000 -1.1217
#
#
#
# Elastic Compliance Matrix: (Units=1/GPa)
#
#
# Indices 1 2 3 4 5 6 
#
# 1 0.011685 -0.002251 -0.003703 0.000000 0.000841 0.000000
# 2 -0.002251 0.021412 -0.008360 0.000000 -0.010144 0.000000
# 3 -0.003703 -0.008360 0.016108 0.000000 0.003618 0.000000
# 4 0.000000 0.000000 0.000000 0.000851 0.000000 -0.027809
# 5 0.000841 -0.010144 0.003618 0.000000 0.031437 0.000000
# 6 0.000000 0.000000 0.000000 -0.027809 0.000000 0.017705
#
#
# Mechanical properties :
#
#
# Convention : Reuss Voigt Hill
#
# Bulk Modulus (GPa) = 48.59896 52.28515 50.44205
# Shear Modulus (GPa) = 37.12410 13.59807 25.36109
#
# Velocity S-wave (km/s) = 4.11063 2.48782 3.39754
# Velocity P-wave (km/s) = 6.68206 5.66130 6.19275
#
# Compressibility (1/GPa) = 0.02057657
#
# Stress axis : x y z
#
# Youngs Moduli (GPa) = 85.58226 46.70378 62.08069
#
# Poissons Ratio (x) = 0.10512 0.22989
# Poissons Ratio (y) = 0.19262 0.51900
# Poissons Ratio (z) = 0.31692 0.39044
#
# Static dielectric constant tensor:
#      x y z
#    x 3.975270 0.000000 -0.268050 
#    y 0.000000 3.922250 0.000000 
#    z -0.268050 0.000000 4.272230 
# 
# 
# High freq. dielectric constant tensor:
#      x y z
#    x 1.860940 0.000000 -0.010030 
#    y 0.000000 1.866230 0.000000 
#    z -0.010030 0.000000 1.861910 
# 
# From -- ./inp_files/251941.got.cif
#   From: 2010.06.25/outbox.cif.g09.slc.cpg/sg12_126_cif.got.tgz:251941.got - 2010.06.28 00:19:55.
