data_PCOD8107925
_publ_section_title
;
Structure prediction by ZEFSAII (Michael W. Deem and Ramdas Pophale) SiO2 
 PCOD8107925
Probable space group: C 2/M
;
_chemical_formula_sum "Si O2"
_cell_formula_units_Z 52
_cell_length_a 12.451449
_cell_length_b 14.781558
_cell_length_c 14.757060
_cell_angle_alpha 90.000000
_cell_angle_beta 110.673302
_cell_angle_gamma 90.000000
_cell_volume 2541.172644
_symmetry_space_group_name_H-M "C 2/M"
_symmetry_group_IT_number 12
_symmetry_cell_setting 'monoclinic'
loop_
_space_group_symop_operation_xyz
x,y,z
-x,y,-z
-x,-y,-z
x,-y,z
1/2+x,1/2+y,z
1/2-x,1/2+y,-z
1/2-x,1/2-y,-z
1/2+x,1/2-y,z
loop_
_atom_site_type_symbol
_atom_site_label
_atom_site_fract_x
_atom_site_fract_y
_atom_site_fract_z
Si Si1 0.202707 0.100920 0.026805
Si Si2 0.870357 0.282534 0.432335
Si Si3 0.347180 0.803595 0.214787
Si Si4 0.432598 0.902561 0.750737
Si Si5 0.312362 0.845412 0.881047
Si Si6 0.749572 0.393094 0.544893
Si Si7 0.000000 0.781003 0.000000
O O1 0.257290 0.128969 0.139228
O O2 0.158965 0.000000 0.022033
O O3 0.297936 0.108766 0.975090
O O4 0.089812 0.159236 0.968418
O O5 0.847572 0.312460 0.322663
O O6 0.784127 0.350299 0.458776
O O7 0.846543 0.174937 0.441954
O O8 0.000000 0.302870 0.500000
O O9 0.473266 0.823826 0.212740
O O10 0.308488 0.702784 0.176785
O O11 0.344195 0.911944 0.808871
O O12 0.361252 0.884537 0.639636
O O13 0.495690 0.000000 0.761970
O O14 0.421909 0.779148 0.911251
O O15 0.709392 0.500000 0.525553
#
# Coordination Sequence:
#
# PCOD8107925 Si02
#       7
#     8   8   8   8   8   8   4
#     4  11  23  39  59  88 124 157 201 250 298 354
#     4  11  22  42  66  88 122 164 202 251 311 363
#     4  11  22  37  60  91 118 158 202 247 300 362
#     4  11  21  36  59  88 119 152 199 252 299 354
#     4  11  21  39  60  85 120 161 201 241 296 363
#     4  10  23  40  61  92 121 155 204 254 302 365
#     4  10  21  38  59  80 116 158 198 242 293 352
#
# _framework density 20.462993000000001
#
# number of rings (size 3 to 8) (size 9 to 14) (size 15 to 20)
#    0.000    1.231    3.077    4.846    0.000    1.846 
#    0.000    2.308    0.000    3.692    0.000    0.000 
#    0.000    0.000    0.000    0.000    0.000    0.000 
#
# Total GULP energy -322141.085537 kJ/mol
# GULP energy per Si atom -12390.041751 kJ/mol
# Density = 2.041642 g / cm^3
# Si number density = 20.462993 Si / 1000 Ang^3
#
#
#
# Elastic Constant Matrix: (Units=GPa)
#
#
# Indices 1 2 3 4 5 6 
#
# 1 82.3315 25.6359 35.2554 0.0000 -11.2598 0.0000
# 2 25.6359 89.1995 27.5293 0.0000 -3.1462 0.0000
# 3 35.2554 27.5293 113.2126 0.0000 -12.2635 0.0000
# 4 0.0000 0.0000 0.0000 20.9853 0.0000 3.0076
# 5 -11.2598 -3.1462 -12.2635 0.0000 31.9717 0.0000
# 6 0.0000 0.0000 0.0000 3.0076 0.0000 21.8581
#
#
#
# Elastic Compliance Matrix: (Units=1/GPa)
#
#
# Indices 1 2 3 4 5 6 
#
# 1 0.015144 -0.003125 -0.003560 0.000000 0.003660 0.000000
# 2 -0.003125 0.012765 -0.002206 0.000000 -0.000690 0.000000
# 3 -0.003560 -0.002206 0.010766 0.000000 0.002659 0.000000
# 4 0.000000 0.000000 0.000000 0.048611 0.000000 -0.006689
# 5 0.003660 -0.000690 0.002659 0.000000 0.033519 0.000000
# 6 0.000000 0.000000 0.000000 -0.006689 0.000000 0.046670
#
#
# Mechanical properties :
#
#
# Convention : Reuss Voigt Hill
#
# Bulk Modulus (GPa) = 47.85871 51.28719 49.57295
# Shear Modulus (GPa) = 26.01192 28.05122 27.03157
#
# Velocity S-wave (km/s) = 3.56921 3.70648 3.63850
# Velocity P-wave (km/s) = 6.35802 6.59054 6.47532
#
# Compressibility (1/GPa) = 0.02089484
#
# Stress axis : x y z
#
# Youngs Moduli (GPa) = 66.03345 78.33760 92.88658
#
# Poissons Ratio (x) = 0.24478 0.33064
# Poissons Ratio (y) = 0.20633 0.20489
# Poissons Ratio (z) = 0.23505 0.17280
#
# Static dielectric constant tensor:
#      x y z
#    x 3.686580 0.000000 -0.034240 
#    y 0.000000 3.769960 0.000000 
#    z -0.034240 0.000000 3.667130 
# 
# 
# High freq. dielectric constant tensor:
#      x y z
#    x 1.795310 0.000000 -0.007630 
#    y 0.000000 1.796140 0.000000 
#    z -0.007630 0.000000 1.802410 
# 
# From -- ./inp_files/205084.got.cif
#   From: 2010.06.25/outbox.cif.g09.slc.cpg/sg12_103_cif.got.tgz:205084.got - 2010.06.28 00:19:55.
