data_PCOD8107637
_publ_section_title
;
Structure prediction by ZEFSAII (Michael W. Deem and Ramdas Pophale) SiO2 
 PCOD8107637
Probable space group: C 2/M
;
_chemical_formula_sum "Si O2"
_cell_formula_units_Z 48
_cell_length_a 27.735526
_cell_length_b 8.483196
_cell_length_c 9.981371
_cell_angle_alpha 90.000000
_cell_angle_beta 89.771124
_cell_angle_gamma 90.000000
_cell_volume 2348.457154
_symmetry_space_group_name_H-M "C 2/M"
_symmetry_group_IT_number 12
_symmetry_cell_setting 'monoclinic'
loop_
_space_group_symop_operation_xyz
x,y,z
-x,y,-z
-x,-y,-z
x,-y,z
1/2+x,1/2+y,z
1/2-x,1/2+y,-z
1/2-x,1/2-y,-z
1/2+x,1/2-y,z
loop_
_atom_site_type_symbol
_atom_site_label
_atom_site_fract_x
_atom_site_fract_y
_atom_site_fract_z
Si Si1 0.289006 0.183451 0.225311
Si Si2 0.641734 0.184302 0.536113
Si Si3 0.684761 0.182566 0.252208
Si Si4 0.460296 0.685400 0.399665
Si Si5 0.540908 0.687709 0.900591
Si Si6 0.645209 0.316318 0.994225
O O1 0.324547 0.239031 0.342529
O O2 0.241050 0.284966 0.235651
O O3 0.275688 0.000000 0.236558
O O4 0.314259 0.217599 0.083845
O O5 0.668795 0.232152 0.400504
O O6 0.592154 0.277987 0.542990
O O7 0.630398 0.000000 0.544836
O O8 0.652873 0.286015 0.151169
O O9 0.674538 0.000000 0.224370
O O10 0.500000 0.759732 0.500000
O O11 0.467395 0.500000 0.392330
O O12 0.467336 0.755022 0.249496
O O13 0.539025 0.500000 0.900953
O O14 0.500000 0.756700 0.000000
O O15 0.592656 0.746265 0.952587
O O16 0.651088 0.500000 0.960588
#
# Coordination Sequence:
#
# PCOD8107637 Si02
#       6
#     8   8   8   8   8   8
#     4  11  22  40  63  87 117 156 200 246 296 353
#     4  10  23  41  61  86 122 159 194 244 299 351
#     4  11  24  40  59  87 121 157 199 246 292 349
#     4  10  21  37  62  91 118 152 196 244 291 347
#     4   9  19  36  58  87 119 150 190 241 291 341
#     4  11  22  38  62  89 120 159 196 242 296 349
#
# _framework density 20.438949999999998
#
# number of rings (size 3 to 8) (size 9 to 14) (size 15 to 20)
#    0.000    1.667    1.667    2.500    2.333    2.333 
#    0.000    0.000    0.000    2.500    0.000    0.000 
#    0.000    0.000    0.000    0.000    0.000    0.000 
#
# Total GULP energy -297726.720773 kJ/mol
# GULP energy per Si atom -12405.280032 kJ/mol
# Density = 2.039243 g / cm^3
# Si number density = 20.438950 Si / 1000 Ang^3
#
#
#
# Elastic Constant Matrix: (Units=GPa)
#
#
# Indices 1 2 3 4 5 6 
#
# 1 125.4194 14.1592 48.4970 0.0000 1.7123 0.0000
# 2 14.1592 23.7116 19.7215 0.0000 2.6889 0.0000
# 3 48.4970 19.7215 105.7412 0.0000 4.5238 0.0000
# 4 0.0000 0.0000 0.0000 10.6975 0.0000 -9.5771
# 5 1.7123 2.6889 4.5238 0.0000 46.6429 0.0000
# 6 0.0000 0.0000 0.0000 -9.5771 0.0000 19.3974
#
#
#
# Elastic Compliance Matrix: (Units=1/GPa)
#
#
# Indices 1 2 3 4 5 6 
#
# 1 0.009818 -0.002523 -0.004040 0.000000 0.000177 0.000000
# 2 -0.002523 0.050748 -0.008221 0.000000 -0.002036 0.000000
# 3 -0.004040 -0.008221 0.012870 0.000000 -0.000626 0.000000
# 4 0.000000 0.000000 0.000000 0.167533 0.000000 0.082717
# 5 0.000177 -0.002036 -0.000626 0.000000 0.021611 0.000000
# 6 0.000000 0.000000 0.000000 0.082717 0.000000 0.092394
#
#
# Mechanical properties :
#
#
# Convention : Reuss Voigt Hill
#
# Bulk Modulus (GPa) = 22.79505 46.62529 34.71017
# Shear Modulus (GPa) = 12.52619 26.84720 19.68670
#
# Velocity S-wave (km/s) = 2.47828 3.62820 3.10691
# Velocity P-wave (km/s) = 4.40070 6.35714 5.46715
#
# Compressibility (1/GPa) = 0.04386917
#
# Stress axis : x y z
#
# Youngs Moduli (GPa) = 101.85626 19.70516 77.70054
#
# Poissons Ratio (x) = 0.04971 0.31390
# Poissons Ratio (y) = 0.25694 0.63876
# Poissons Ratio (z) = 0.41149 0.16199
#
# Static dielectric constant tensor:
#      x y z
#    x 3.724820 0.000000 0.090270 
#    y 0.000000 3.366300 0.000000 
#    z 0.090270 0.000000 4.035090 
# 
# 
# High freq. dielectric constant tensor:
#      x y z
#    x 1.806830 0.000000 0.003690 
#    y 0.000000 1.775370 0.000000 
#    z 0.003690 0.000000 1.816700 
# 
# From -- ./inp_files/108756.got.cif
#   From: 2010.06.25/outbox.cif.g09.slc.cpg/sg12_55_cif.got.tgz:108756.got - 2010.06.28 00:19:55.
