data_PCOD8107308
_publ_section_title
;
Structure prediction by ZEFSAII (Michael W. Deem and Ramdas Pophale) SiO2 
 PCOD8107308
Probable space group: C 2/M
;
_chemical_formula_sum "Si O2"
_cell_formula_units_Z 64
_cell_length_a 29.718453
_cell_length_b 8.911092
_cell_length_c 19.564077
_cell_angle_alpha 90.000000
_cell_angle_beta 36.946321
_cell_angle_gamma 90.000000
_cell_volume 3114.146503
_symmetry_space_group_name_H-M "C 2/M"
_symmetry_group_IT_number 12
_symmetry_cell_setting 'monoclinic'
loop_
_space_group_symop_operation_xyz
x,y,z
-x,y,-z
-x,-y,-z
x,-y,z
1/2+x,1/2+y,z
1/2-x,1/2+y,-z
1/2-x,1/2-y,-z
1/2+x,1/2-y,z
loop_
_atom_site_type_symbol
_atom_site_label
_atom_site_fract_x
_atom_site_fract_y
_atom_site_fract_z
Si Si1 0.503688 0.671374 0.666649
Si Si2 0.371613 0.328702 0.589507
Si Si3 0.100468 0.329532 0.311716
Si Si4 0.705045 0.822913 0.756636
Si Si5 0.979382 0.676354 0.213565
Si Si6 0.686891 0.176929 0.623170
Si Si7 0.617071 0.678406 0.982738
Si Si8 0.761732 0.829873 0.057263
O O1 0.488310 0.500000 0.708015
O O2 0.585563 0.687468 0.534188
O O3 0.440933 0.719248 0.689321
O O4 0.497260 0.780048 0.738532
O O5 0.374125 0.500000 0.612659
O O6 0.413523 0.224689 0.593844
O O7 0.287423 0.273899 0.680370
O O8 0.071675 0.500000 0.338202
O O9 0.188512 0.315564 0.192238
O O10 0.694860 0.768482 0.691359
O O11 0.692685 0.000000 0.778136
O O12 0.644844 0.739808 0.876496
O O13 0.989192 0.500000 0.190909
O O14 0.894591 0.728854 0.303609
O O15 0.033420 0.760744 0.094948
O O16 0.750000 0.250000 0.500000
O O17 0.697068 0.000000 0.605229
O O18 0.617696 0.500000 0.979279
O O19 0.670031 0.738043 0.980666
O O20 0.780512 0.000000 0.016070
O O21 0.750000 0.750000 0.000000
#
# Coordination Sequence:
#
# PCOD8107308 Si02
#       8
#     8   8   8   8   8   8   8   8
#     4  11  23  39  59  87 122 161 207 256 305 367
#     4  10  21  37  59  86 119 159 203 249 304 365
#     4  11  22  37  56  84 120 158 204 254 306 365
#     4  10  21  40  65  91 121 163 206 253 309 368
#     4  11  24  42  63  91 124 161 203 252 308 365
#     4  10  23  43  68  97 128 161 205 253 307 370
#     4  11  23  41  62  89 123 162 207 256 307 365
#     4  10  22  37  55  81 115 156 203 252 300 355
#
# _framework density 20.551376999999999
#
# number of rings (size 3 to 8) (size 9 to 14) (size 15 to 20)
#    0.000    1.500    1.250    3.375    0.000    9.500 
#    0.000    2.500    0.000    0.000    0.000    0.000 
#    0.000    0.000    0.000    0.000    0.000    0.000 
#
# Total GULP energy -396968.832749 kJ/mol
# GULP energy per Si atom -12405.276023 kJ/mol
# Density = 2.050460 g / cm^3
# Si number density = 20.551377 Si / 1000 Ang^3
#
#
#
# Elastic Constant Matrix: (Units=GPa)
#
#
# Indices 1 2 3 4 5 6 
#
# 1 109.4887 35.1545 58.5078 0.0069 7.6906 -0.0003
# 2 35.1545 62.9642 45.6827 0.0249 2.3582 -0.0137
# 3 58.5078 45.6827 134.9236 0.0238 1.6346 -0.0129
# 4 0.0069 0.0249 0.0238 39.5576 -0.0029 2.9104
# 5 7.6906 2.3582 1.6346 -0.0029 37.6279 0.0006
# 6 -0.0003 -0.0137 -0.0129 2.9104 0.0006 28.9282
#
#
#
# Elastic Compliance Matrix: (Units=1/GPa)
#
#
# Indices 1 2 3 4 5 6 
#
# 1 0.012809 -0.004055 -0.004155 0.000003 -0.002183 -0.000004
# 2 -0.004055 0.022376 -0.005814 -0.000011 -0.000321 0.000009
# 3 -0.004155 -0.005814 0.011173 -0.000002 0.000728 0.000002
# 4 0.000003 -0.000011 -0.000002 0.025468 0.000002 -0.002562
# 5 -0.002183 -0.000321 0.000728 0.000002 0.027011 -0.000001
# 6 -0.000004 0.000009 0.000002 -0.002562 -0.000001 0.034826
#
#
# Mechanical properties :
#
#
# Convention : Reuss Voigt Hill
#
# Bulk Modulus (GPa) = 54.61419 65.11849 59.86634
# Shear Modulus (GPa) = 29.79472 32.42486 31.10979
#
# Velocity S-wave (km/s) = 3.81171 3.97639 3.89492
# Velocity P-wave (km/s) = 6.78265 7.26889 7.02998
#
# Compressibility (1/GPa) = 0.01831026
#
# Stress axis : x y z
#
# Youngs Moduli (GPa) = 78.06943 44.69008 89.50153
#
# Poissons Ratio (x) = 0.18123 0.37188
# Poissons Ratio (y) = 0.31659 0.52034
# Poissons Ratio (z) = 0.32438 0.25982
#
# Static dielectric constant tensor:
#      x y z
#    x 3.762980 -0.000020 -0.088840 
#    y -0.000020 3.703760 0.000030 
#    z -0.088840 0.000030 3.828540 
# 
# 
# High freq. dielectric constant tensor:
#      x y z
#    x 1.804420 0.000000 -0.002350 
#    y 0.000000 1.799060 0.000000 
#    z -0.002350 0.000000 1.818510 
# 
# From -- ./inp_files/295657.got.cif
#   From: 2010.06.25/outbox.cif.g09.slc.cpg/sg12_148_cif.got.tgz:295657.got - 2010.06.28 00:19:55.
