data_PCOD8107970
_publ_section_title
;
Structure prediction by ZEFSAII (Michael W. Deem and Ramdas Pophale) SiO2 
 PCOD8107970
Probable space group: C 2/M
;
_chemical_formula_sum "Si O2"
_cell_formula_units_Z 64
_cell_length_a 9.546956
_cell_length_b 16.844945
_cell_length_c 32.738595
_cell_angle_alpha 90.000000
_cell_angle_beta 37.028179
_cell_angle_gamma 90.000000
_cell_volume 3170.595824
_symmetry_space_group_name_H-M "C 2/M"
_symmetry_group_IT_number 12
_symmetry_cell_setting 'monoclinic'
loop_
_space_group_symop_operation_xyz
x,y,z
-x,y,-z
-x,-y,-z
x,-y,z
1/2+x,1/2+y,z
1/2-x,1/2+y,-z
1/2-x,1/2-y,-z
1/2+x,1/2-y,z
loop_
_atom_site_type_symbol
_atom_site_label
_atom_site_fract_x
_atom_site_fract_y
_atom_site_fract_z
Si Si1 0.589044 0.183161 0.163218
Si Si2 0.896366 0.695189 0.408216
Si Si3 0.320561 0.412117 0.606768
Si Si4 0.665858 0.905178 0.846762
Si Si5 0.906944 0.409808 0.757566
Si Si6 0.298210 0.142056 0.519712
Si Si7 0.507611 0.210649 0.044318
Si Si8 0.352448 0.667944 0.251395
O O1 0.484713 0.116430 0.157880
O O2 0.663969 0.144513 0.188337
O O3 0.401851 0.251930 0.214846
O O4 0.819751 0.219319 0.090105
O O5 0.710983 0.646272 0.424201
O O6 0.801650 0.784352 0.430915
O O7 0.914148 0.665118 0.450060
O O8 0.155686 0.687387 0.330343
O O9 0.243194 0.500000 0.610586
O O10 0.585440 0.416571 0.560270
O O11 0.162323 0.384686 0.681758
O O12 0.552621 0.863751 0.912726
O O13 0.922159 0.869071 0.779133
O O14 0.670497 0.000000 0.851552
O O15 0.899710 0.500000 0.774024
O O16 0.727758 0.397888 0.762346
O O17 0.500000 0.100765 0.500000
O O18 0.500000 0.177330 0.000000
O O19 0.750000 0.250000 0.000000
#
# Coordination Sequence:
#
# PCOD8107970 Si02
#       8
#     8   8   8   8   8   8   8   8
#     4  11  22  38  64  89 122 160 195 242 297 354
#     4  10  21  38  59  83 115 156 201 248 298 361
#     4  10  22  40  59  81 115 157 197 241 303 370
#     4  11  24  41  62  94 129 158 196 249 302 349
#     4  10  21  38  60  87 117 153 199 246 295 356
#     4  11  22  35  56  87 117 149 200 260 305 355
#     4  11  23  44  67  92 125 164 208 242 287 354
#     4  10  21  38  62  88 115 157 205 245 295 357
#
# _framework density 20.185480999999999
#
# number of rings (size 3 to 8) (size 9 to 14) (size 15 to 20)
#    0.000    1.500    1.250    4.875    1.750    6.000 
#    0.000    1.875    0.000    0.000    0.000    0.000 
#    0.000    0.000    0.000    0.000    0.000    0.000 
#
# Total GULP energy -396844.086448 kJ/mol
# GULP energy per Si atom -12401.377702 kJ/mol
# Density = 2.013954 g / cm^3
# Si number density = 20.185481 Si / 1000 Ang^3
#
#
#
# Elastic Constant Matrix: (Units=GPa)
#
#
# Indices 1 2 3 4 5 6 
#
# 1 100.3239 29.3361 44.7158 0.0112 -4.3298 0.0042
# 2 29.3361 95.5040 39.5271 -0.0057 3.9429 -0.0042
# 3 44.7158 39.5271 105.6234 0.0074 -1.6005 0.0022
# 4 0.0112 -0.0057 0.0074 3.1747 -0.0187 -5.7067
# 5 -4.3298 3.9429 -1.6005 -0.0187 33.2088 -0.0084
# 6 0.0042 -0.0042 0.0022 -5.7067 -0.0084 28.3308
#
#
#
# Elastic Compliance Matrix: (Units=1/GPa)
#
#
# Indices 1 2 3 4 5 6 
#
# 1 0.012683 -0.002075 -0.004567 -0.000047 0.001680 -0.000011
# 2 -0.002075 0.012825 -0.003951 0.000049 -0.001984 0.000012
# 3 -0.004567 -0.003951 0.012887 -0.000031 0.000495 -0.000007
# 4 -0.000047 0.000049 -0.000031 0.493797 0.000290 0.099467
# 5 0.001680 -0.001984 0.000495 0.000290 0.030591 0.000067
# 6 -0.000011 0.000012 -0.000007 0.099467 0.000067 0.055333
#
#
# Mechanical properties :
#
#
# Convention : Reuss Voigt Hill
#
# Bulk Modulus (GPa) = 58.11062 58.73438 58.42250
# Shear Modulus (GPa) = 7.75147 25.46767 16.60957
#
# Velocity S-wave (km/s) = 1.96175 3.55587 2.87164
# Velocity P-wave (km/s) = 5.82942 6.78376 6.32462
#
# Compressibility (1/GPa) = 0.01720856
#
# Stress axis : x y z
#
# Youngs Moduli (GPa) = 78.84803 77.97071 77.59550
#
# Poissons Ratio (x) = 0.16177 0.35440
# Poissons Ratio (y) = 0.16359 0.30660
# Poissons Ratio (z) = 0.36012 0.30808
#
# Static dielectric constant tensor:
#      x y z
#    x 3.653320 -0.000030 -0.047660 
#    y -0.000030 3.581530 0.000040 
#    z -0.047660 0.000040 3.790850 
# 
# 
# High freq. dielectric constant tensor:
#      x y z
#    x 1.795320 0.000000 -0.001520 
#    y 0.000000 1.780000 0.000000 
#    z -0.001520 0.000000 1.796000 
# 
# From -- ./inp_files/372889.got.cif
#   From: 2010.06.25/outbox.cif.g09.slc.cpg/sg12_187_cif.got.tgz:372889.got - 2010.06.28 00:19:55.
