data_PCOD8107720
_publ_section_title
;
Structure prediction by ZEFSAII (Michael W. Deem and Ramdas Pophale) SiO2 
 PCOD8107720
Probable space group: C 2/M
;
_chemical_formula_sum "Si O2"
_cell_formula_units_Z 44
_cell_length_a 18.299556
_cell_length_b 14.017219
_cell_length_c 17.862808
_cell_angle_alpha 90.000000
_cell_angle_beta 154.562659
_cell_angle_gamma 90.000000
_cell_volume 1968.064562
_symmetry_space_group_name_H-M "C 2/M"
_symmetry_group_IT_number 12
_symmetry_cell_setting 'monoclinic'
loop_
_space_group_symop_operation_xyz
x,y,z
-x,y,-z
-x,-y,-z
x,-y,z
1/2+x,1/2+y,z
1/2-x,1/2+y,-z
1/2-x,1/2-y,-z
1/2+x,1/2-y,z
loop_
_atom_site_type_symbol
_atom_site_label
_atom_site_fract_x
_atom_site_fract_y
_atom_site_fract_z
Si Si1 0.956293 0.802346 0.618311
Si Si2 0.622364 0.892405 0.264860
Si Si3 0.500000 0.259188 0.500000
Si Si4 0.056060 0.890787 0.859350
Si Si5 0.627824 0.712580 0.182739
Si Si6 0.563972 0.894465 0.763131
O O1 0.770332 0.847750 0.454518
O O2 0.020407 0.826279 0.592887
O O3 0.071371 0.842325 0.791572
O O4 0.955945 0.686367 0.620734
O O5 0.596725 0.825881 0.168488
O O6 0.459204 0.890049 0.168099
O O7 0.664556 0.000000 0.277266
O O8 0.326638 0.195416 0.345827
O O9 0.912143 0.842631 0.777353
O O10 0.005725 0.000000 0.800966
O O11 0.236297 0.878390 0.067287
O O12 0.500000 0.676905 0.000000
O O13 0.507472 0.000000 0.682039
#
# Coordination Sequence:
#
# PCOD8107720 Si02
#       6
#     8   8   4   8   8   8
#     4  11  21  43  64  93 131 173 216 269 337 388
#     4  10  22  39  63  98 130 167 221 274 324 392
#     4  10  26  40  66 100 128 174 222 274 330 394
#     4  11  24  41  69  99 129 176 225 271 327 397
#     4  11  24  44  66  96 137 179 218 275 337 391
#     4  10  21  37  65 100 127 165 223 276 323 392
#
# _framework density 22.35699
#
# number of rings (size 3 to 8) (size 9 to 14) (size 15 to 20)
#    0.000    1.455    1.818    2.727    5.091    0.727 
#    0.000   13.182    0.000    0.000    0.000    0.000 
#    0.000    0.000    0.000    0.000    0.000    0.000 
#
# Total GULP energy -272666.627446 kJ/mol
# GULP energy per Si atom -12393.937611 kJ/mol
# Density = 2.230610 g / cm^3
# Si number density = 22.356990 Si / 1000 Ang^3
#
#
#
# Elastic Constant Matrix: (Units=GPa)
#
#
# Indices 1 2 3 4 5 6 
#
# 1 124.1283 41.3502 43.3057 -0.0003 1.5583 -0.0005
# 2 41.3502 142.8610 29.1352 -0.0017 -1.9471 -0.0010
# 3 43.3057 29.1352 71.9352 -0.0014 4.9318 -0.0005
# 4 -0.0003 -0.0017 -0.0014 26.6805 -0.0010 0.7008
# 5 1.5583 -1.9471 4.9318 -0.0010 46.6157 -0.0006
# 6 -0.0005 -0.0010 -0.0005 0.7008 -0.0006 15.8411
#
#
#
# Elastic Compliance Matrix: (Units=1/GPa)
#
#
# Indices 1 2 3 4 5 6 
#
# 1 0.010670 -0.001934 -0.005651 0.000000 0.000160 0.000000
# 2 -0.001934 0.008000 -0.002119 0.000000 0.000623 0.000000
# 3 -0.005651 -0.002119 0.018287 0.000001 -0.001834 0.000000
# 4 0.000000 0.000000 0.000001 0.037524 0.000001 -0.001660
# 5 0.000160 0.000623 -0.001834 0.000001 0.021667 0.000001
# 6 0.000000 0.000000 0.000000 -0.001660 0.000001 0.063200
#
#
# Mechanical properties :
#
#
# Convention : Reuss Voigt Hill
#
# Bulk Modulus (GPa) = 56.98000 62.94519 59.96259
# Shear Modulus (GPa) = 27.08471 32.83637 29.96054
#
# Velocity S-wave (km/s) = 3.48439 3.83656 3.66471
# Velocity P-wave (km/s) = 6.45985 6.91674 6.69220
#
# Compressibility (1/GPa) = 0.01755002
#
# Stress axis : x y z
#
# Youngs Moduli (GPa) = 93.72165 124.99847 54.68242
#
# Poissons Ratio (x) = 0.24170 0.30902
# Poissons Ratio (y) = 0.18122 0.11586
# Poissons Ratio (z) = 0.52964 0.26485
#
# Static dielectric constant tensor:
#      x y z
#    x 4.050040 0.000000 0.109610 
#    y 0.000000 4.027520 0.000000 
#    z 0.109610 0.000000 3.811940 
# 
# 
# High freq. dielectric constant tensor:
#      x y z
#    x 1.883050 0.000000 0.008940 
#    y 0.000000 1.867060 0.000000 
#    z 0.008940 0.000000 1.871250 
# 
# From -- ./inp_files/277920.got.cif
#   From: 2010.06.25/outbox.cif.g09.slc.cpg/sg12_139_cif.got.tgz:277920.got - 2010.06.28 00:19:55.
