data_PCOD8107189
_publ_section_title
;
Structure prediction by ZEFSAII (Michael W. Deem and Ramdas Pophale) SiO2 
 PCOD8107189
Probable space group: C 2/M
;
_chemical_formula_sum "Si O2"
_cell_formula_units_Z 40
_cell_length_a 12.360895
_cell_length_b 29.950896
_cell_length_c 5.003375
_cell_angle_alpha 90.000000
_cell_angle_beta 77.121203
_cell_angle_gamma 90.000000
_cell_volume 1805.750732
_symmetry_space_group_name_H-M "C 2/M"
_symmetry_group_IT_number 12
_symmetry_cell_setting 'monoclinic'
loop_
_space_group_symop_operation_xyz
x,y,z
-x,y,-z
-x,-y,-z
x,-y,z
1/2+x,1/2+y,z
1/2-x,1/2+y,-z
1/2-x,1/2-y,-z
1/2+x,1/2-y,z
loop_
_atom_site_type_symbol
_atom_site_label
_atom_site_fract_x
_atom_site_fract_y
_atom_site_fract_z
Si Si1 0.796069 0.680829 0.982482
Si Si2 0.921342 0.770217 0.795016
Si Si3 0.879115 0.949141 0.070790
Si Si4 0.739078 0.050592 0.663694
Si Si5 0.378290 0.133381 0.453581
O O1 0.670530 0.690690 0.142804
O O2 0.863534 0.664859 0.204810
O O3 0.857248 0.723454 0.821570
O O4 0.793008 0.645061 0.740993
O O5 0.000000 0.776365 0.500000
O O6 0.000000 0.774667 0.000000
O O7 0.791348 0.928563 0.906873
O O8 0.893845 0.000000 0.961569
O O9 0.835777 0.946985 0.393576
O O10 0.000000 0.925282 0.000000
O O11 0.637903 0.082098 0.629408
O O12 0.693044 0.000000 0.722997
O O13 0.500000 0.140445 0.500000
#
# Coordination Sequence:
#
# PCOD8107189 Si02
#       5
#     8   8   8   8   8
#     4  11  24  41  64  94 124 160 203 243 296 368
#     4  11  22  41  68  95 126 159 195 243 300 362
#     4   9  17  33  57  82 110 147 193 245 301 359
#     4  10  21  37  58  86 118 156 207 255 295 349
#     4  12  24  41  62  86 122 163 207 255 304 356
#
# _framework density 22.151450000000001
#
# number of rings (size 3 to 8) (size 9 to 14) (size 15 to 20)
#    0.000    1.400    0.000    6.600    0.000    6.000 
#    0.000   10.000    0.000    6.000    0.000    0.000 
#    0.000    0.000    0.000    0.000    0.000    0.000 
#
# Total GULP energy -248025.304586 kJ/mol
# GULP energy per Si atom -12401.265229 kJ/mol
# Density = 2.210103 g / cm^3
# Si number density = 22.151450 Si / 1000 Ang^3
#
#
#
# Elastic Constant Matrix: (Units=GPa)
#
#
# Indices 1 2 3 4 5 6 
#
# 1 44.3660 13.0820 3.3875 0.0000 2.0272 0.0000
# 2 13.0820 65.0927 17.0237 0.0000 -1.7436 0.0000
# 3 3.3875 17.0237 121.4823 0.0000 2.6112 0.0000
# 4 0.0000 0.0000 0.0000 29.2329 0.0000 6.6391
# 5 2.0272 -1.7436 2.6112 0.0000 45.1990 0.0000
# 6 0.0000 0.0000 0.0000 6.6391 0.0000 29.9663
#
#
#
# Elastic Compliance Matrix: (Units=1/GPa)
#
#
# Indices 1 2 3 4 5 6 
#
# 1 0.024032 -0.004874 0.000040 0.000000 -0.001268 0.000000
# 2 -0.004874 0.016961 -0.002262 0.000000 0.001004 0.000000
# 3 0.000040 -0.002262 0.008560 0.000000 -0.000584 0.000000
# 4 0.000000 0.000000 0.000000 0.036020 0.000000 -0.007980
# 5 -0.001268 0.001004 -0.000584 0.000000 0.022254 0.000000
# 6 0.000000 0.000000 0.000000 -0.007980 0.000000 0.035139
#
#
# Mechanical properties :
#
#
# Convention : Reuss Voigt Hill
#
# Bulk Modulus (GPa) = 28.28068 33.10305 30.69187
# Shear Modulus (GPa) = 29.59532 34.04283 31.81907
#
# Velocity S-wave (km/s) = 3.65916 3.92448 3.79414
# Velocity P-wave (km/s) = 5.53600 5.95918 5.75148
#
# Compressibility (1/GPa) = 0.03535983
#
# Stress axis : x y z
#
# Youngs Moduli (GPa) = 41.61133 58.95912 116.82082
#
# Poissons Ratio (x) = 0.28738 -0.00469
# Poissons Ratio (y) = 0.20283 0.26430
# Poissons Ratio (z) = -0.00167 0.13339
#
# Static dielectric constant tensor:
#      x y z
#    x 3.949040 0.000000 0.118480 
#    y 0.000000 4.017790 0.000000 
#    z 0.118480 0.000000 4.032180 
# 
# 
# High freq. dielectric constant tensor:
#      x y z
#    x 1.869680 0.000000 0.012270 
#    y 0.000000 1.858240 0.000000 
#    z 0.012270 0.000000 1.888460 
# 
# From -- ./inp_files/8304.got.cif
#   From: 2010.06.25/outbox.cif.g09.slc.cpg/sg12_5_cif.got.tgz:8304.got - 2010.06.28 00:19:55.
