data_PCOD8107677
_publ_section_title
;
Structure prediction by ZEFSAII (Michael W. Deem and Ramdas Pophale) SiO2 
 PCOD8107677
Probable space group: C 2/M
;
_chemical_formula_sum "Si O2"
_cell_formula_units_Z 36
_cell_length_a 26.497271
_cell_length_b 9.751697
_cell_length_c 23.120002
_cell_angle_alpha 90.000000
_cell_angle_beta 162.885633
_cell_angle_gamma 90.000000
_cell_volume 1758.044788
_symmetry_space_group_name_H-M "C 2/M"
_symmetry_group_IT_number 12
_symmetry_cell_setting 'monoclinic'
loop_
_space_group_symop_operation_xyz
x,y,z
-x,y,-z
-x,-y,-z
x,-y,z
1/2+x,1/2+y,z
1/2-x,1/2+y,-z
1/2-x,1/2-y,-z
1/2+x,1/2-y,z
loop_
_atom_site_type_symbol
_atom_site_label
_atom_site_fract_x
_atom_site_fract_y
_atom_site_fract_z
Si Si1 0.618209 0.777678 0.680942
Si Si2 0.913866 0.769514 0.571711
Si Si3 0.782476 0.500000 0.823771
Si Si4 0.983240 0.000000 0.237601
Si Si5 0.873541 0.000000 0.994769
Si Si6 0.244204 0.000000 0.429938
Si Si7 0.173344 0.500000 0.263992
O O1 0.500000 0.836932 0.500000
O O2 0.512387 0.784077 0.623837
O O3 0.674448 0.625556 0.728696
O O4 0.789109 0.867238 0.873771
O O5 0.040059 0.862574 0.749552
O O6 0.855240 0.636150 0.542605
O O7 0.751443 0.862391 0.376616
O O8 0.787003 0.500000 0.760118
O O9 0.972539 0.500000 0.058161
O O10 0.176629 0.000000 0.422149
O O11 0.845420 0.000000 0.034183
O O12 0.077683 0.000000 0.204457
#
# Coordination Sequence:
#
# PCOD8107677 Si02
#       7
#     8   8   4   4   4   4   4
#     4  12  23  41  63  93 131 164 204 255 313 374
#     4  11  21  41  68  91 124 166 206 253 317 371
#     4  11  21  39  61  93 126 159 206 254 297 373
#     4   9  23  42  66  89 124 160 218 258 303 364
#     4  10  25  41  59  90 132 163 206 255 313 356
#     4  10  22  42  62  94 120 162 216 257 305 361
#     4  10  21  37  63  93 122 163 204 246 310 367
#
# _framework density 20.477295000000002
#
# number of rings (size 3 to 8) (size 9 to 14) (size 15 to 20)
#    0.667    0.667    2.222    4.667    0.000    0.889 
#    0.000    1.111    0.000    0.000    0.000    0.000 
#    0.000    0.000    0.000    0.000    0.000    0.000 
#
# Total GULP energy -223210.252255 kJ/mol
# GULP energy per Si atom -12400.569570 kJ/mol
# Density = 2.043069 g / cm^3
# Si number density = 20.477295 Si / 1000 Ang^3
#
#
#
# Elastic Constant Matrix: (Units=GPa)
#
#
# Indices 1 2 3 4 5 6 
#
# 1 68.8851 9.0771 -9.1668 -0.0032 -0.2660 -0.0004
# 2 9.0771 118.6970 17.0314 -0.0017 -11.9872 -0.0002
# 3 -9.1668 17.0314 64.5761 -0.0078 -15.4060 0.0007
# 4 -0.0032 -0.0017 -0.0078 32.4893 -0.0034 -13.4653
# 5 -0.2660 -11.9872 -15.4060 -0.0034 33.4483 -0.0012
# 6 -0.0004 -0.0002 0.0007 -13.4653 -0.0012 9.0098
#
#
#
# Elastic Compliance Matrix: (Units=1/GPa)
#
#
# Indices 1 2 3 4 5 6 
#
# 1 0.015075 -0.001458 0.002728 0.000006 0.000854 0.000010
# 2 -0.001458 0.009062 -0.002050 0.000001 0.002292 0.000002
# 3 0.002728 -0.002050 0.018249 0.000014 0.007692 0.000020
# 4 0.000006 0.000001 0.000014 0.080872 0.000019 0.120864
# 5 0.000854 0.002292 0.007692 0.000019 0.034268 0.000033
# 6 0.000010 0.000002 0.000020 0.120864 0.000033 0.291624
#
#
# Mechanical properties :
#
#
# Convention : Reuss Voigt Hill
#
# Bulk Modulus (GPa) = 24.49417 31.78239 28.13828
# Shear Modulus (GPa) = 10.76847 30.67058 20.71953
#
# Velocity S-wave (km/s) = 2.29568 3.87432 3.18438
# Velocity P-wave (km/s) = 4.36056 5.96392 5.22412
#
# Compressibility (1/GPa) = 0.04082604
#
# Stress axis : x y z
#
# Youngs Moduli (GPa) = 66.33313 110.35167 54.79824
#
# Poissons Ratio (x) = 0.16090 -0.14951
# Poissons Ratio (y) = 0.09672 0.11235
# Poissons Ratio (z) = -0.18098 0.22625
#
# Static dielectric constant tensor:
#      x y z
#    x 3.682340 0.000000 -0.154440 
#    y 0.000000 3.654410 -0.000010 
#    z -0.154440 -0.000010 3.696180 
# 
# 
# High freq. dielectric constant tensor:
#      x y z
#    x 1.799640 0.000000 -0.007770 
#    y 0.000000 1.811060 0.000000 
#    z -0.007770 0.000000 1.794580 
# 
# From -- ./inp_files/92460.got.cif
#   From: 2010.06.25/outbox.cif.g09.slc.cpg/sg12_47_cif.got.tgz:92460.got - 2010.06.28 00:19:55.
