data_PCOD8107610
_publ_section_title
;
Structure prediction by ZEFSAII (Michael W. Deem and Ramdas Pophale) SiO2 
 PCOD8107610
Probable space group: C 2/M
;
_chemical_formula_sum "Si O2"
_cell_formula_units_Z 64
_cell_length_a 27.731464
_cell_length_b 14.209123
_cell_length_c 11.021520
_cell_angle_alpha 90.000000
_cell_angle_beta 138.039379
_cell_angle_gamma 90.000000
_cell_volume 2903.760051
_symmetry_space_group_name_H-M "C 2/M"
_symmetry_group_IT_number 12
_symmetry_cell_setting 'monoclinic'
loop_
_space_group_symop_operation_xyz
x,y,z
-x,y,-z
-x,-y,-z
x,-y,z
1/2+x,1/2+y,z
1/2-x,1/2+y,-z
1/2-x,1/2-y,-z
1/2+x,1/2-y,z
loop_
_atom_site_type_symbol
_atom_site_label
_atom_site_fract_x
_atom_site_fract_y
_atom_site_fract_z
Si Si1 0.931000 0.300453 0.298875
Si Si2 0.161528 0.218342 0.672774
Si Si3 0.695789 0.106565 0.072974
Si Si4 0.673368 0.108070 0.523534
Si Si5 0.908403 0.893799 0.663543
Si Si6 0.661475 0.604481 0.220142
Si Si7 0.608250 0.893251 0.144293
Si Si8 0.540592 0.270146 0.900444
O O1 0.883411 0.226853 0.287646
O O2 0.968926 0.243575 0.260706
O O3 0.000000 0.344556 0.500000
O O4 0.876440 0.378714 0.143406
O O5 0.243524 0.183393 0.851118
O O6 0.153243 0.320614 0.593192
O O7 0.125824 0.137381 0.526119
O O8 0.675608 0.118922 0.177175
O O9 0.723424 0.000000 0.100362
O O10 0.756399 0.122164 0.653332
O O11 0.631493 0.136848 0.322850
O O12 0.655802 0.000000 0.528929
O O13 0.848282 0.882592 0.654172
O O14 0.975953 0.831529 0.832290
O O15 0.935982 0.000000 0.701258
O O16 0.637009 0.500000 0.134728
O O17 0.617101 0.679540 0.061122
O O18 0.580203 0.000000 0.089737
O O19 0.541868 0.828819 0.975194
#
# Coordination Sequence:
#
# PCOD8107610 Si02
#       8
#     8   8   8   8   8   8   8   8
#     4  11  24  44  62  89 126 172 220 268 314 373
#     4  12  23  41  65  95 129 168 215 265 314 376
#     4  10  22  40  67  95 123 167 217 266 318 377
#     4  10  21  38  62  96 130 162 202 257 320 380
#     4  11  23  39  63  94 129 164 205 254 316 390
#     4  10  21  37  61  94 128 161 204 255 314 385
#     4   9  19  37  62  92 126 162 207 258 317 385
#     4  11  21  39  61  86 123 170 213 256 316 371
#
# _framework density 22.040389000000001
#
# number of rings (size 3 to 8) (size 9 to 14) (size 15 to 20)
#    0.000    1.500    1.250    4.500    0.000    5.250 
#    0.000    5.000    0.000    3.000    0.000    0.000 
#    0.000    0.000    0.000    0.000    0.000    0.000 
#
# Total GULP energy -396832.614224 kJ/mol
# GULP energy per Si atom -12401.019194 kJ/mol
# Density = 2.199022 g / cm^3
# Si number density = 22.040389 Si / 1000 Ang^3
#
#
#
# Elastic Constant Matrix: (Units=GPa)
#
#
# Indices 1 2 3 4 5 6 
#
# 1 42.2427 13.6077 9.4138 0.0000 -3.1019 0.0000
# 2 13.6077 105.3143 36.4418 0.0000 -1.6546 0.0000
# 3 9.4138 36.4418 106.0096 0.0000 -3.4438 0.0000
# 4 0.0000 0.0000 0.0000 26.8098 0.0000 5.8531
# 5 -3.1019 -1.6546 -3.4438 0.0000 28.1883 0.0000
# 6 0.0000 0.0000 0.0000 5.8531 0.0000 25.5381
#
#
#
# Elastic Compliance Matrix: (Units=1/GPa)
#
#
# Indices 1 2 3 4 5 6 
#
# 1 0.025013 -0.002784 -0.001185 0.000000 0.002444 0.000000
# 2 -0.002784 0.011088 -0.003567 0.000000 -0.000091 0.000000
# 3 -0.001185 -0.003567 0.010796 0.000000 0.000979 0.000000
# 4 0.000000 0.000000 0.000000 0.039264 0.000000 -0.008999
# 5 0.002444 -0.000091 0.000979 0.000000 0.035859 0.000000
# 6 0.000000 0.000000 0.000000 -0.008999 0.000000 0.041220
#
#
# Mechanical properties :
#
#
# Convention : Reuss Voigt Hill
#
# Bulk Modulus (GPa) = 31.42109 41.38815 36.40462
# Shear Modulus (GPa) = 26.46609 29.04742 27.75676
#
# Velocity S-wave (km/s) = 3.46901 3.63425 3.55259
# Velocity P-wave (km/s) = 5.50750 6.03568 5.77763
#
# Compressibility (1/GPa) = 0.03182575
#
# Stress axis : x y z
#
# Youngs Moduli (GPa) = 39.97932 90.18722 92.62278
#
# Poissons Ratio (x) = 0.25104 0.10975
# Poissons Ratio (y) = 0.11128 0.33042
# Poissons Ratio (z) = 0.04737 0.32173
#
# Static dielectric constant tensor:
#      x y z
#    x 3.929830 0.000000 0.011400 
#    y 0.000000 4.150090 0.000000 
#    z 0.011400 0.000000 4.043220 
# 
# 
# High freq. dielectric constant tensor:
#      x y z
#    x 1.862090 0.000000 0.003000 
#    y 0.000000 1.869270 0.000000 
#    z 0.003000 0.000000 1.870410 
# 
# From -- ./inp_files/183852.got.cif
#   From: 2010.06.25/outbox.cif.g09.slc.cpg/sg12_92_cif.got.tgz:183852.got - 2010.06.28 00:19:55.
