data_PCOD8107244
_publ_section_title
;
Structure prediction by ZEFSAII (Michael W. Deem and Ramdas Pophale) SiO2 
 PCOD8107244
Probable space group: C 2/M
;
_chemical_formula_sum "Si O2"
_cell_formula_units_Z 40
_cell_length_a 28.034973
_cell_length_b 7.630091
_cell_length_c 20.184620
_cell_angle_alpha 90.000000
_cell_angle_beta 27.966423
_cell_angle_gamma 90.000000
_cell_volume 2024.793451
_symmetry_space_group_name_H-M "C 2/M"
_symmetry_group_IT_number 12
_symmetry_cell_setting 'monoclinic'
loop_
_space_group_symop_operation_xyz
x,y,z
-x,y,-z
-x,-y,-z
x,-y,z
1/2+x,1/2+y,z
1/2-x,1/2+y,-z
1/2-x,1/2-y,-z
1/2+x,1/2-y,z
loop_
_atom_site_type_symbol
_atom_site_label
_atom_site_fract_x
_atom_site_fract_y
_atom_site_fract_z
Si Si1 0.009765 0.803779 0.836823
Si Si2 0.418327 0.705199 0.395414
Si Si3 0.688469 0.796497 0.708276
Si Si4 0.666552 0.000000 0.283290
Si Si5 0.808558 0.303607 0.144713
Si Si6 0.514750 0.000000 0.590891
O O1 0.042804 0.736354 0.724213
O O2 0.106420 0.807124 0.766425
O O3 0.967053 0.000000 0.884210
O O4 0.919328 0.684708 0.975480
O O5 0.438517 0.500000 0.386114
O O6 0.299037 0.748335 0.544137
O O7 0.477134 0.822701 0.376508
O O8 0.680827 0.733002 0.793452
O O9 0.662350 0.000000 0.734560
O O10 0.734602 0.174831 0.195543
O O11 0.602356 0.000000 0.428955
O O12 0.596124 0.000000 0.305332
O O13 0.761574 0.500000 0.202049
#
# Coordination Sequence:
#
# PCOD8107244 Si02
#       6
#     8   8   8   4   8   4
#     4  11  23  36  61  92 130 166 206 243 302 369
#     4  10  23  41  60  92 128 161 204 254 301 369
#     4  10  21  37  58  91 125 169 205 240 302 371
#     4  11  24  44  66  99 110 154 217 259 307 369
#     4  11  23  41  62  89 130 162 201 258 305 361
#     4  11  24  42  73  88 118 157 205 265 315 353
#
# _framework density 19.755102000000001
#
# number of rings (size 3 to 8) (size 9 to 14) (size 15 to 20)
#    0.000    1.400    3.000    1.800    5.600    3.200 
#    0.000    3.000    0.000    0.000    0.000    0.000 
#    0.000    0.000    0.000    0.000    0.000    0.000 
#
# Total GULP energy -248098.032810 kJ/mol
# GULP energy per Si atom -12404.901641 kJ/mol
# Density = 1.971014 g / cm^3
# Si number density = 19.755102 Si / 1000 Ang^3
#
#
#
# Elastic Constant Matrix: (Units=GPa)
#
#
# Indices 1 2 3 4 5 6 
#
# 1 115.2910 50.6459 63.9949 0.0173 -20.2176 -0.0082
# 2 50.6459 91.4916 30.6039 0.0199 -12.1726 -0.0153
# 3 63.9949 30.6039 116.3155 0.0026 12.3969 -0.0007
# 4 0.0173 0.0199 0.0026 20.3781 0.0116 6.4265
# 5 -20.2176 -12.1726 12.3969 0.0116 24.4694 -0.0120
# 6 -0.0082 -0.0153 -0.0007 6.4265 -0.0120 23.2756
#
#
#
# Elastic Compliance Matrix: (Units=1/GPa)
#
#
# Indices 1 2 3 4 5 6 
#
# 1 0.022175 -0.004784 -0.013362 -0.000033 0.022712 0.000025
# 2 -0.004784 0.014703 -0.001686 -0.000017 0.004216 0.000015
# 3 -0.013362 -0.001686 0.018667 0.000031 -0.021336 -0.000025
# 4 -0.000033 -0.000017 0.000031 0.053753 -0.000084 -0.014842
# 5 0.022712 0.004216 -0.021336 -0.000084 0.072540 0.000071
# 6 0.000025 0.000015 -0.000025 -0.014842 0.000071 0.047061
#
#
# Mechanical properties :
#
#
# Convention : Reuss Voigt Hill
#
# Bulk Modulus (GPa) = 62.96966 68.17639 65.57303
# Shear Modulus (GPa) = 18.25780 25.48151 21.86965
#
# Velocity S-wave (km/s) = 3.04337 3.59537 3.33083
# Velocity P-wave (km/s) = 6.65536 7.19870 6.93236
#
# Compressibility (1/GPa) = 0.01588066
#
# Stress axis : x y z
#
# Youngs Moduli (GPa) = 45.09601 68.01407 53.57166
#
# Poissons Ratio (x) = 0.32536 0.71584
# Poissons Ratio (y) = 0.21572 0.09032
# Poissons Ratio (z) = 0.60258 0.11467
#
# Static dielectric constant tensor:
#      x y z
#    x 3.458690 -0.000010 0.142430 
#    y -0.000010 3.553260 0.000020 
#    z 0.142430 0.000020 3.621770 
# 
# 
# High freq. dielectric constant tensor:
#      x y z
#    x 1.754480 0.000000 0.011300 
#    y 0.000000 1.780480 0.000000 
#    z 0.011300 0.000000 1.775320 
# 
# From -- ./inp_files/151761.got.cif
#   From: 2010.06.25/outbox.cif.g09.slc.cpg/sg12_76_cif.got.tgz:151761.got - 2010.06.28 00:19:55.
