data_PCOD8107178
_publ_section_title
;
Structure prediction by ZEFSAII (Michael W. Deem and Ramdas Pophale) SiO2 
 PCOD8107178
Probable space group: C 2/M
;
_chemical_formula_sum "Si O2"
_cell_formula_units_Z 64
_cell_length_a 9.044583
_cell_length_b 18.284701
_cell_length_c 28.214477
_cell_angle_alpha 90.000000
_cell_angle_beta 43.752417
_cell_angle_gamma 90.000000
_cell_volume 3226.769453
_symmetry_space_group_name_H-M "C 2/M"
_symmetry_group_IT_number 12
_symmetry_cell_setting 'monoclinic'
loop_
_space_group_symop_operation_xyz
x,y,z
-x,y,-z
-x,-y,-z
x,-y,z
1/2+x,1/2+y,z
1/2-x,1/2+y,-z
1/2-x,1/2-y,-z
1/2+x,1/2-y,z
loop_
_atom_site_type_symbol
_atom_site_label
_atom_site_fract_x
_atom_site_fract_y
_atom_site_fract_z
Si Si1 0.765217 0.412935 0.567833
Si Si2 0.067293 0.912736 0.433136
Si Si3 0.613594 0.821790 0.022597
Si Si4 0.966793 0.413787 0.698412
Si Si5 0.996273 0.081231 0.945014
Si Si6 0.295562 0.819779 0.182058
Si Si7 0.629205 0.167961 0.187128
Si Si8 0.615127 0.412993 0.705794
O O1 0.769727 0.500000 0.566179
O O2 0.596270 0.382574 0.568554
O O3 0.694854 0.385041 0.636008
O O4 0.000000 0.382411 0.500000
O O5 0.303084 0.880943 0.368942
O O6 0.000000 0.883006 0.500000
O O7 0.066719 0.000000 0.432280
O O8 0.443506 0.838147 0.103038
O O9 0.500000 0.807057 0.000000
O O10 0.750000 0.750000 0.000000
O O11 0.764374 0.892257 0.981688
O O12 0.973836 0.500000 0.692269
O O13 0.922908 0.393646 0.762616
O O14 0.784777 0.383598 0.705231
O O15 0.170365 0.140098 0.889145
O O16 0.038670 0.000000 0.913987
O O17 0.000000 0.077954 0.000000
O O18 0.430451 0.818572 0.198903
O O19 0.184664 0.741790 0.201703
O O20 0.116294 0.881684 0.227818
O O21 0.594523 0.500000 0.711517
#
# Coordination Sequence:
#
# PCOD8107178 Si02
#       8
#     8   8   8   8   8   8   8   8
#     4   9  16  29  52  82 120 161 200 248 300 354
#     4   9  16  28  50  81 115 156 203 244 294 355
#     4  12  24  42  67  90 120 158 204 250 301 362
#     4  10  21  37  58  85 122 160 196 250 304 355
#     4  11  24  43  65  93 123 154 195 246 302 360
#     4  12  25  40  64  88 117 158 200 249 304 361
#     4  12  24  41  62  87 116 157 201 245 297 365
#     4  10  22  38  57  89 125 157 202 253 306 360
#
# _framework density 19.83408
#
# number of rings (size 3 to 8) (size 9 to 14) (size 15 to 20)
#    0.000    1.375    2.500    3.750    1.750    5.750 
#    0.000    0.000    0.000    0.750    0.000    5.250 
#    0.000    0.000    0.000    0.000    0.000    0.000 
#
# Total GULP energy -396889.576708 kJ/mol
# GULP energy per Si atom -12402.799272 kJ/mol
# Density = 1.978894 g / cm^3
# Si number density = 19.834080 Si / 1000 Ang^3
#
#
#
# Elastic Constant Matrix: (Units=GPa)
#
#
# Indices 1 2 3 4 5 6 
#
# 1 197.1403 34.1015 73.5222 -0.0003 -4.5385 0.0028
# 2 34.1015 46.8344 23.1079 -0.0038 -6.0212 0.0008
# 3 73.5222 23.1079 142.5081 -0.0056 -9.2456 0.0018
# 4 -0.0003 -0.0038 -0.0056 13.3313 0.0045 -4.1470
# 5 -4.5385 -6.0212 -9.2456 0.0045 39.8371 0.0014
# 6 0.0028 0.0008 0.0018 -4.1470 0.0014 29.3076
#
#
#
# Elastic Compliance Matrix: (Units=1/GPa)
#
#
# Indices 1 2 3 4 5 6 
#
# 1 0.006774 -0.003534 -0.002951 -0.000002 -0.000447 -0.000001
# 2 -0.003534 0.025336 -0.002094 0.000005 0.002941 0.000000
# 3 -0.002951 -0.002094 0.008972 0.000003 0.001430 0.000000
# 4 -0.000002 0.000005 0.000003 0.078465 -0.000008 0.011103
# 5 -0.000447 0.002941 0.001430 -0.000008 0.025828 -0.000002
# 6 -0.000001 0.000000 0.000000 0.011103 -0.000002 0.035692
#
#
# Mechanical properties :
#
#
# Convention : Reuss Voigt Hill
#
# Bulk Modulus (GPa) = 41.79881 71.99401 56.89641
# Shear Modulus (GPa) = 24.24835 33.54528 28.89682
#
# Velocity S-wave (km/s) = 3.50031 4.11700 3.82111
# Velocity P-wave (km/s) = 6.12014 7.67962 6.94380
#
# Compressibility (1/GPa) = 0.02392413
#
# Stress axis : x y z
#
# Youngs Moduli (GPa) = 147.62274 39.46891 111.45972
#
# Poissons Ratio (x) = 0.13948 0.32890
# Poissons Ratio (y) = 0.52169 0.23343
# Poissons Ratio (z) = 0.43561 0.08266
#
# Static dielectric constant tensor:
#      x y z
#    x 4.031920 0.000010 -0.160230 
#    y 0.000010 3.398720 -0.000010 
#    z -0.160230 -0.000010 3.817450 
# 
# 
# High freq. dielectric constant tensor:
#      x y z
#    x 1.792710 0.000000 -0.002510 
#    y 0.000000 1.739040 0.000000 
#    z -0.002510 0.000000 1.787110 
# 
# From -- ./inp_files/372929.got.cif
#   From: 2010.06.25/outbox.cif.g09.slc.cpg/sg12_187_cif.got.tgz:372929.got - 2010.06.28 00:19:55.
