data_PCOD8107297
_publ_section_title
;
Structure prediction by ZEFSAII (Michael W. Deem and Ramdas Pophale) SiO2 
 PCOD8107297
Probable space group: C 2/M
;
_chemical_formula_sum "Si O2"
_cell_formula_units_Z 48
_cell_length_a 21.886213
_cell_length_b 12.116413
_cell_length_c 11.292913
_cell_angle_alpha 90.000000
_cell_angle_beta 58.625450
_cell_angle_gamma 90.000000
_cell_volume 2556.805766
_symmetry_space_group_name_H-M "C 2/M"
_symmetry_group_IT_number 12
_symmetry_cell_setting 'monoclinic'
loop_
_space_group_symop_operation_xyz
x,y,z
-x,y,-z
-x,-y,-z
x,-y,z
1/2+x,1/2+y,z
1/2-x,1/2+y,-z
1/2-x,1/2-y,-z
1/2+x,1/2-y,z
loop_
_atom_site_type_symbol
_atom_site_label
_atom_site_fract_x
_atom_site_fract_y
_atom_site_fract_z
Si Si1 0.763491 0.628276 0.612867
Si Si2 0.130975 0.236138 0.635803
Si Si3 0.869882 0.740123 0.896634
Si Si4 0.583816 0.124450 0.909647
Si Si5 0.256098 0.873245 0.879298
Si Si6 0.502792 0.370314 0.357178
O O1 0.777060 0.500000 0.608999
O O2 0.836743 0.676100 0.487216
O O3 0.693836 0.650937 0.604403
O O4 0.751526 0.682256 0.754107
O O5 0.103519 0.302226 0.777093
O O6 0.070002 0.165829 0.633124
O O7 0.836110 0.643835 0.849796
O O8 0.934707 0.799173 0.764978
O O9 0.891624 0.688300 0.998819
O O10 0.805921 0.827233 0.974447
O O11 0.617609 0.000000 0.868138
O O12 0.500000 0.111527 0.000000
O O13 0.239177 0.000000 0.884132
O O14 0.500000 0.345344 0.500000
O O15 0.515818 0.500000 0.320615
#
# Coordination Sequence:
#
# PCOD8107297 Si02
#       6
#     8   8   8   8   8   8
#     4  10  21  37  59  86 117 153 194 239 287 343
#     4  11  21  39  60  86 118 157 192 242 289 347
#     4  11  21  39  60  86 118 157 192 242 289 347
#     4  11  22  38  60  88 120 155 194 239 292 346
#     4  10  21  37  59  86 117 153 194 239 287 343
#     4  11  24  41  61  86 116 153 196 244 296 350
#
# _framework density 18.773425
#
# number of rings (size 3 to 8) (size 9 to 14) (size 15 to 20)
#    0.000    1.333    3.333    3.000    0.000    0.000 
#    0.000    0.833    0.000    4.000    0.000    0.000 
#    0.000    0.000    0.000    0.000    0.000    0.000 
#
# Total GULP energy -297560.827732 kJ/mol
# GULP energy per Si atom -12398.367822 kJ/mol
# Density = 1.873070 g / cm^3
# Si number density = 18.773425 Si / 1000 Ang^3
#
#
#
# Elastic Constant Matrix: (Units=GPa)
#
#
# Indices 1 2 3 4 5 6 
#
# 1 100.2055 19.3498 29.6219 0.0000 4.2212 0.0000
# 2 19.3498 61.5801 20.5385 0.0000 8.1413 0.0000
# 3 29.6219 20.5385 84.9712 0.0000 7.4600 0.0000
# 4 0.0000 0.0000 0.0000 26.4743 0.0000 3.4081
# 5 4.2212 8.1413 7.4600 0.0000 34.0472 0.0000
# 6 0.0000 0.0000 0.0000 3.4081 0.0000 27.7019
#
#
#
# Elastic Compliance Matrix: (Units=1/GPa)
#
#
# Indices 1 2 3 4 5 6 
#
# 1 0.011461 -0.002458 -0.003394 0.000000 -0.000090 0.000000
# 2 -0.002458 0.018573 -0.003334 0.000000 -0.003406 0.000000
# 3 -0.003394 -0.003334 0.013918 0.000000 -0.001832 0.000000
# 4 0.000000 0.000000 0.000000 0.038380 0.000000 -0.004722
# 5 -0.000090 -0.003406 -0.001832 0.000000 0.030598 0.000000
# 6 0.000000 0.000000 0.000000 -0.004722 0.000000 0.036680
#
#
# Mechanical properties :
#
#
# Convention : Reuss Voigt Hill
#
# Bulk Modulus (GPa) = 39.08813 42.86415 40.97614
# Shear Modulus (GPa) = 28.32736 29.46111 28.89424
#
# Velocity S-wave (km/s) = 3.88868 3.96574 3.92740
# Velocity P-wave (km/s) = 6.40536 6.62203 6.51460
#
# Compressibility (1/GPa) = 0.02558321
#
# Stress axis : x y z
#
# Youngs Moduli (GPa) = 87.25241 53.84042 71.84780
#
# Poissons Ratio (x) = 0.13232 0.24382
# Poissons Ratio (y) = 0.21443 0.23951
# Poissons Ratio (z) = 0.29609 0.17948
#
# Static dielectric constant tensor:
#      x y z
#    x 3.620730 0.000000 0.159600 
#    y 0.000000 3.473110 0.000000 
#    z 0.159600 0.000000 3.633390 
# 
# 
# High freq. dielectric constant tensor:
#      x y z
#    x 1.740860 0.000000 0.005220 
#    y 0.000000 1.733440 0.000000 
#    z 0.005220 0.000000 1.739930 
# 
# From -- ./inp_files/165173.got.cif
#   From: 2010.06.25/outbox.cif.g09.slc.cpg/sg12_83_cif.got.tgz:165173.got - 2010.06.28 00:19:55.
