data_PCOD8107678
_publ_section_title
;
Structure prediction by ZEFSAII (Michael W. Deem and Ramdas Pophale) SiO2 
 PCOD8107678
Probable space group: C 2/M
;
_chemical_formula_sum "Si O2"
_cell_formula_units_Z 64
_cell_length_a 8.435337
_cell_length_b 24.740598
_cell_length_c 14.881214
_cell_angle_alpha 90.000000
_cell_angle_beta 69.193189
_cell_angle_gamma 90.000000
_cell_volume 2903.100098
_symmetry_space_group_name_H-M "C 2/M"
_symmetry_group_IT_number 12
_symmetry_cell_setting 'monoclinic'
loop_
_space_group_symop_operation_xyz
x,y,z
-x,y,-z
-x,-y,-z
x,-y,z
1/2+x,1/2+y,z
1/2-x,1/2+y,-z
1/2-x,1/2-y,-z
1/2+x,1/2-y,z
loop_
_atom_site_type_symbol
_atom_site_label
_atom_site_fract_x
_atom_site_fract_y
_atom_site_fract_z
Si Si1 0.178829 0.647372 0.419979
Si Si2 0.247236 0.625443 0.698879
Si Si3 0.578398 0.439531 0.178671
Si Si4 0.301707 0.439689 0.521244
Si Si5 0.511761 0.283632 0.600490
Si Si6 0.586798 0.183128 0.257996
Si Si7 0.152344 0.440774 0.025430
Si Si8 0.641113 0.367242 0.895981
O O1 0.264659 0.592288 0.437003
O O2 0.295167 0.699621 0.418195
O O3 0.148582 0.640420 0.320460
O O4 0.000000 0.660091 0.500000
O O5 0.307080 0.587764 0.768082
O O6 0.201082 0.587664 0.623596
O O7 0.396249 0.664167 0.636421
O O8 0.080742 0.660246 0.758544
O O9 0.513679 0.500000 0.222584
O O10 0.433495 0.397576 0.176721
O O11 0.685733 0.448798 0.068589
O O12 0.500000 0.439193 0.500000
O O13 0.232505 0.500000 0.522445
O O14 0.500000 0.262940 0.500000
O O15 0.454010 0.239603 0.685480
O O16 0.751111 0.186118 0.157357
O O17 0.090782 0.500000 0.072538
O O18 0.208491 0.405111 0.097650
O O19 0.000000 0.412771 0.000000
O O20 0.500000 0.351419 0.000000
#
# Coordination Sequence:
#
# PCOD8107678 Si02
#       8
#     8   8   8   8   8   8   8   8
#     4  12  22  43  65  99 133 168 219 275 324 389
#     4  12  22  42  63  94 134 172 225 269 321 389
#     4  10  21  37  63  93 127 172 215 261 320 393
#     4  11  23  42  63  89 136 187 215 255 319 392
#     4  12  24  44  69  94 126 172 226 279 330 384
#     4  12  26  39  65  96 126 168 224 284 335 388
#     4   9  17  34  62  93 125 164 211 264 325 392
#     4  10  22  42  65  95 135 169 216 279 339 399
#
# _framework density 22.045399
#
# number of rings (size 3 to 8) (size 9 to 14) (size 15 to 20)
#    0.000    1.000    3.750    3.375    0.000    3.250 
#    0.000    3.750    0.000   12.750    0.000    0.000 
#    0.000    0.000    0.000    0.000    0.000    0.000 
#
# Total GULP energy -396619.411001 kJ/mol
# GULP energy per Si atom -12394.356594 kJ/mol
# Density = 2.199522 g / cm^3
# Si number density = 22.045399 Si / 1000 Ang^3
#
#
#
# Elastic Constant Matrix: (Units=GPa)
#
#
# Indices 1 2 3 4 5 6 
#
# 1 113.5830 36.6855 22.8740 0.0000 -2.6503 0.0000
# 2 36.6855 123.9118 37.7586 0.0000 -3.5775 0.0000
# 3 22.8740 37.7586 66.7300 0.0000 -6.6956 0.0000
# 4 0.0000 0.0000 0.0000 29.9644 0.0000 -12.8496
# 5 -2.6503 -3.5775 -6.6956 0.0000 44.0585 0.0000
# 6 0.0000 0.0000 0.0000 -12.8496 0.0000 15.2090
#
#
#
# Elastic Compliance Matrix: (Units=1/GPa)
#
#
# Indices 1 2 3 4 5 6 
#
# 1 0.009976 -0.002310 -0.002103 0.000000 0.000093 0.000000
# 2 -0.002310 0.010287 -0.005036 0.000000 -0.000069 0.000000
# 3 -0.002103 -0.005036 0.018789 0.000000 0.002320 0.000000
# 4 0.000000 0.000000 0.000000 0.052333 0.000000 0.044215
# 5 0.000093 -0.000069 0.002320 0.000000 0.023050 0.000000
# 6 0.000000 0.000000 0.000000 0.044215 0.000000 0.103106
#
#
# Mechanical properties :
#
#
# Convention : Reuss Voigt Hill
#
# Bulk Modulus (GPa) = 49.61853 55.42900 52.52377
# Shear Modulus (GPa) = 20.56291 31.64017 26.10154
#
# Velocity S-wave (km/s) = 3.05741 3.79255 3.44465
# Velocity P-wave (km/s) = 5.91777 6.66150 6.30062
#
# Compressibility (1/GPa) = 0.02015376
#
# Stress axis : x y z
#
# Youngs Moduli (GPa) = 100.24131 97.21352 53.22282
#
# Poissons Ratio (x) = 0.22455 0.11194
# Poissons Ratio (y) = 0.23155 0.26802
# Poissons Ratio (z) = 0.21083 0.48954
#
# Static dielectric constant tensor:
#      x y z
#    x 4.229850 0.000000 0.055940 
#    y 0.000000 4.060470 0.000000 
#    z 0.055940 0.000000 4.063360 
# 
# 
# High freq. dielectric constant tensor:
#      x y z
#    x 1.885670 0.000000 0.000060 
#    y 0.000000 1.854160 0.000000 
#    z 0.000060 0.000000 1.854540 
# 
# From -- ./inp_files/199766.got.cif
#   From: 2010.06.25/outbox.cif.g09.slc.cpg/sg12_100_cif.got.tgz:199766.got - 2010.06.28 00:19:55.
