data_PCOD8107597
_publ_section_title
;
Structure prediction by ZEFSAII (Michael W. Deem and Ramdas Pophale) SiO2 
 PCOD8107597
Probable space group: C 2/M
;
_chemical_formula_sum "Si O2"
_cell_formula_units_Z 64
_cell_length_a 15.006927
_cell_length_b 22.774406
_cell_length_c 17.020785
_cell_angle_alpha 90.000000
_cell_angle_beta 30.773407
_cell_angle_gamma 90.000000
_cell_volume 2976.366553
_symmetry_space_group_name_H-M "C 2/M"
_symmetry_group_IT_number 12
_symmetry_cell_setting 'monoclinic'
loop_
_space_group_symop_operation_xyz
x,y,z
-x,y,-z
-x,-y,-z
x,-y,z
1/2+x,1/2+y,z
1/2-x,1/2+y,-z
1/2-x,1/2-y,-z
1/2+x,1/2-y,z
loop_
_atom_site_type_symbol
_atom_site_label
_atom_site_fract_x
_atom_site_fract_y
_atom_site_fract_z
Si Si1 0.113673 0.432196 0.103653
Si Si2 0.655371 0.614607 0.933893
Si Si3 0.982980 0.221700 0.866218
Si Si4 0.854962 0.259055 0.549442
Si Si5 0.145118 0.667632 0.956871
Si Si6 0.977549 0.829296 0.337492
Si Si7 0.221273 0.434193 0.547283
Si Si8 0.507887 0.884314 0.581201
O O1 0.118592 0.500000 0.075443
O O2 0.267695 0.423025 0.051708
O O3 0.142733 0.393977 0.004400
O O4 0.920285 0.414327 0.280345
O O5 0.813196 0.629168 0.756425
O O6 0.500000 0.583131 0.000000
O O7 0.574782 0.675129 0.025433
O O8 0.178722 0.243742 0.732917
O O9 0.865662 0.280122 0.968968
O O10 0.984283 0.192322 0.779649
O O11 0.000000 0.238657 0.500000
O O12 0.852220 0.215925 0.477079
O O13 0.882555 0.324344 0.494893
O O14 0.329613 0.668983 0.771051
O O15 0.000000 0.672944 0.000000
O O16 0.889025 0.892906 0.413182
O O17 0.289752 0.500000 0.510835
O O18 0.109949 0.433890 0.551435
O O19 0.500000 0.908905 0.500000
#
# Coordination Sequence:
#
# PCOD8107597 Si02
#       8
#     8   8   8   8   8   8   8   8
#     4  10  24  46  67  91 128 176 223 271 323 384
#     4  11  22  38  64  95 136 170 210 265 323 395
#     4  12  23  40  62  99 132 170 209 265 330 398
#     4  11  22  37  61  93 132 167 213 265 319 393
#     4  12  26  43  66  96 132 169 216 271 332 389
#     4  12  24  40  65  96 126 173 215 268 333 388
#     4  10  23  43  65  89 123 167 219 269 317 381
#     4  10  21  37  61  92 126 167 210 257 321 382
#
# _framework density 21.502728999999999
#
# number of rings (size 3 to 8) (size 9 to 14) (size 15 to 20)
#    0.000    1.000    2.500    4.875    3.500    1.250 
#    0.000    0.000    0.000    1.875    0.000    0.000 
#    0.000    0.000    0.000    0.000    0.000    0.000 
#
# Total GULP energy -396684.390944 kJ/mol
# GULP energy per Si atom -12396.387217 kJ/mol
# Density = 2.145379 g / cm^3
# Si number density = 21.502729 Si / 1000 Ang^3
#
#
#
# Elastic Constant Matrix: (Units=GPa)
#
#
# Indices 1 2 3 4 5 6 
#
# 1 55.3919 17.9302 18.5976 0.0848 -4.1615 -0.0217
# 2 17.9302 83.3756 33.8854 -0.0806 -6.8784 -0.0154
# 3 18.5976 33.8854 131.9256 -0.0213 -17.2463 -0.0668
# 4 0.0848 -0.0806 -0.0213 25.6333 -0.0522 -3.4469
# 5 -4.1615 -6.8784 -17.2463 -0.0522 36.7309 0.0335
# 6 -0.0217 -0.0154 -0.0668 -3.4469 0.0335 22.4464
#
#
#
# Elastic Compliance Matrix: (Units=1/GPa)
#
#
# Indices 1 2 3 4 5 6 
#
# 1 0.019840 -0.003470 -0.001808 -0.000077 0.000749 -0.000001
# 2 -0.003470 0.014030 -0.003007 0.000055 0.000822 0.000005
# 3 -0.001808 -0.003007 0.009063 0.000014 0.003488 0.000020
# 4 -0.000077 0.000055 0.000014 0.039835 0.000059 0.006117
# 5 0.000749 0.000822 0.003488 0.000059 0.029101 -0.000023
# 6 -0.000001 0.000005 0.000020 0.006117 -0.000023 0.045490
#
#
# Mechanical properties :
#
#
# Convention : Reuss Voigt Hill
#
# Bulk Modulus (GPa) = 37.93121 45.72439 41.82780
# Shear Modulus (GPa) = 27.36473 30.31412 28.83942
#
# Velocity S-wave (km/s) = 3.57125 3.75878 3.66621
# Velocity P-wave (km/s) = 5.88927 6.33628 6.11686
#
# Compressibility (1/GPa) = 0.02636351
#
# Stress axis : x y z
#
# Youngs Moduli (GPa) = 50.40380 71.27486 110.33736
#
# Poissons Ratio (x) = 0.24734 0.19944
# Poissons Ratio (y) = 0.17491 0.33178
# Poissons Ratio (z) = 0.09111 0.21432
#
# Static dielectric constant tensor:
#      x y z
#    x 3.767790 -0.000120 -0.139840 
#    y -0.000120 3.623370 0.000260 
#    z -0.139840 0.000260 4.352810 
# 
# 
# High freq. dielectric constant tensor:
#      x y z
#    x 1.838510 -0.000010 -0.006720 
#    y -0.000010 1.827360 0.000030 
#    z -0.006720 0.000030 1.865620 
# 
# From -- ./inp_files/272816.got.cif
#   From: 2010.06.25/outbox.cif.g09.slc.cpg/sg12_137_cif.got.tgz:272816.got - 2010.06.28 00:19:55.
