data_PCOD8107600
_publ_section_title
;
Structure prediction by ZEFSAII (Michael W. Deem and Ramdas Pophale) SiO2 
 PCOD8107600
Probable space group: C 2/M
;
_chemical_formula_sum "Si O2"
_cell_formula_units_Z 64
_cell_length_a 23.746162
_cell_length_b 22.443840
_cell_length_c 17.080608
_cell_angle_alpha 90.000000
_cell_angle_beta 158.640173
_cell_angle_gamma 90.000000
_cell_volume 3315.601574
_symmetry_space_group_name_H-M "C 2/M"
_symmetry_group_IT_number 12
_symmetry_cell_setting 'monoclinic'
loop_
_space_group_symop_operation_xyz
x,y,z
-x,y,-z
-x,-y,-z
x,-y,z
1/2+x,1/2+y,z
1/2-x,1/2+y,-z
1/2-x,1/2-y,-z
1/2+x,1/2-y,z
loop_
_atom_site_type_symbol
_atom_site_label
_atom_site_fract_x
_atom_site_fract_y
_atom_site_fract_z
Si Si1 0.624270 0.714838 0.288644
Si Si2 0.295459 0.568377 0.046126
Si Si3 0.593180 0.638609 0.382455
Si Si4 0.355197 0.758897 0.465218
Si Si5 0.318901 0.932142 0.776298
Si Si6 0.710866 0.758725 0.117443
Si Si7 0.179812 0.883551 0.754770
Si Si8 0.091492 0.340534 0.698099
O O1 0.750000 0.750000 0.500000
O O2 0.605325 0.649332 0.303996
O O3 0.697331 0.711776 0.296341
O O4 0.465384 0.751577 0.083990
O O5 0.287749 0.500000 0.011595
O O6 0.452991 0.595876 0.218623
O O7 0.294417 0.572702 0.138819
O O8 0.152363 0.599782 0.817571
O O9 0.570407 0.704720 0.389511
O O10 0.747321 0.608718 0.615669
O O11 0.318711 0.734231 0.332753
O O12 0.482778 0.810237 0.622505
O O13 0.272428 0.909235 0.801351
O O14 0.261604 0.000000 0.692137
O O15 0.500000 0.926653 0.000000
O O16 0.744625 0.821138 0.117949
O O17 0.764085 0.703103 0.133620
O O18 0.000000 0.877240 0.500000
O O19 0.000000 0.356738 0.500000
#
# Coordination Sequence:
#
# PCOD8107600 Si02
#       8
#     8   8   8   8   8   8   8   8
#     4  10  23  33  55  92 121 158 196 242 309 370
#     4  12  25  40  63  88 119 168 213 256 302 356
#     4  11  21  38  59  89 122 159 204 251 299 368
#     4  10  21  37  61  93 122 155 195 252 320 363
#     4  11  25  41  58  84 126 173 206 242 292 360
#     4  11  20  38  60  88 125 158 192 246 319 369
#     4  12  24  38  63  93 123 163 205 253 296 369
#     4  10  23  41  63  91 119 153 202 261 314 366
#
# _framework density 19.302681
#
# number of rings (size 3 to 8) (size 9 to 14) (size 15 to 20)
#    0.000    1.125    3.750    3.000    7.000    1.750 
#    0.000    0.000    0.000    0.750    0.000    1.750 
#    0.000    0.000    0.000    0.000    0.000    0.000 
#
# Total GULP energy -396802.958379 kJ/mol
# GULP energy per Si atom -12400.092449 kJ/mol
# Density = 1.925875 g / cm^3
# Si number density = 19.302681 Si / 1000 Ang^3
#
#
#
# Elastic Constant Matrix: (Units=GPa)
#
#
# Indices 1 2 3 4 5 6 
#
# 1 74.1211 46.5318 23.4245 0.0000 22.3873 0.0000
# 2 46.5318 132.8933 50.5400 0.0000 5.1724 0.0000
# 3 23.4245 50.5400 92.8150 0.0000 16.1595 0.0000
# 4 0.0000 0.0000 0.0000 29.9200 0.0000 -2.7419
# 5 22.3873 5.1724 16.1595 0.0000 33.3792 0.0000
# 6 0.0000 0.0000 0.0000 -2.7419 0.0000 17.6436
#
#
#
# Elastic Compliance Matrix: (Units=1/GPa)
#
#
# Indices 1 2 3 4 5 6 
#
# 1 0.022258 -0.007625 0.001013 0.000000 -0.014237 0.000000
# 2 -0.007625 0.012141 -0.005733 0.000000 0.006008 0.000000
# 3 0.001013 -0.005733 0.014856 0.000000 -0.006983 0.000000
# 4 0.000000 0.000000 0.000000 0.033905 0.000000 0.005269
# 5 -0.014237 0.006008 -0.006983 0.000000 0.041957 0.000000
# 6 0.000000 0.000000 0.000000 0.005269 0.000000 0.057497
#
#
# Mechanical properties :
#
#
# Convention : Reuss Voigt Hill
#
# Bulk Modulus (GPa) = 40.70609 60.09133 50.39871
# Shear Modulus (GPa) = 23.20276 28.14409 25.67342
#
# Velocity S-wave (km/s) = 3.47082 3.82257 3.65093
# Velocity P-wave (km/s) = 6.09887 7.11909 6.62863
#
# Compressibility (1/GPa) = 0.02456635
#
# Stress axis : x y z
#
# Youngs Moduli (GPa) = 44.92745 82.36614 67.31370
#
# Poissons Ratio (x) = 0.62802 -0.06820
# Poissons Ratio (y) = 0.34256 0.38589
# Poissons Ratio (z) = -0.04552 0.47218
#
# Static dielectric constant tensor:
#      x y z
#    x 4.454810 0.000000 0.175350 
#    y 0.000000 3.590400 0.000000 
#    z 0.175350 0.000000 3.633730 
# 
# 
# High freq. dielectric constant tensor:
#      x y z
#    x 1.756740 0.000000 0.007940 
#    y 0.000000 1.733320 0.000000 
#    z 0.007940 0.000000 1.759410 
# 
# From -- ./inp_files/290938.got.cif
#   From: 2010.06.25/outbox.cif.g09.slc.cpg/sg12_146_cif.got.tgz:290938.got - 2010.06.28 00:19:55.
