data_PCOD8107124
_publ_section_title
;
Structure prediction by ZEFSAII (Michael W. Deem and Ramdas Pophale) SiO2 
 PCOD8107124
Probable space group: C 2/M
;
_chemical_formula_sum "Si O2"
_cell_formula_units_Z 56
_cell_length_a 20.320594
_cell_length_b 8.921123
_cell_length_c 29.997284
_cell_angle_alpha 90.000000
_cell_angle_beta 33.630463
_cell_angle_gamma 90.000000
_cell_volume 3011.741714
_symmetry_space_group_name_H-M "C 2/M"
_symmetry_group_IT_number 12
_symmetry_cell_setting 'monoclinic'
loop_
_space_group_symop_operation_xyz
x,y,z
-x,y,-z
-x,-y,-z
x,-y,z
1/2+x,1/2+y,z
1/2-x,1/2+y,-z
1/2-x,1/2-y,-z
1/2+x,1/2-y,z
loop_
_atom_site_type_symbol
_atom_site_label
_atom_site_fract_x
_atom_site_fract_y
_atom_site_fract_z
Si Si1 0.287533 0.823620 0.762732
Si Si2 0.187107 0.673803 0.994460
Si Si3 0.928567 0.675752 0.268664
Si Si4 0.075215 0.673953 0.832779
Si Si5 0.814696 0.322394 0.584034
Si Si6 0.048427 0.676098 0.407225
Si Si7 0.339164 0.322727 0.825701
O O1 0.171433 0.781729 0.800273
O O2 0.403390 0.775271 0.668341
O O3 0.288385 0.732447 0.807582
O O4 0.287089 0.000000 0.772847
O O5 0.210903 0.500000 0.987479
O O6 0.244453 0.731377 0.916128
O O7 0.250000 0.750000 0.000000
O O8 0.047366 0.708863 0.072640
O O9 0.936580 0.500000 0.272110
O O10 0.939646 0.717941 0.210507
O O11 0.806459 0.736716 0.358287
O O12 0.033603 0.751710 0.236767
O O13 0.112371 0.500000 0.816917
O O14 0.790743 0.500000 0.597831
O O15 0.865230 0.260748 0.602729
O O16 0.911423 0.274976 0.491620
O O17 0.055218 0.500000 0.409626
O O18 0.352271 0.500000 0.817312
#
# Coordination Sequence:
#
# PCOD8107124 Si02
#       7
#     8   8   8   8   8   8   8
#     4  11  22  38  59  85 116 151 190 231 280 337
#     4  10  21  38  60  84 112 147 189 235 281 331
#     4  11  21  35  57  87 117 146 186 235 282 333
#     4  10  21  37  58  84 115 148 184 232 283 334
#     4   9  16  32  57  84 112 144 188 233 278 332
#     4   8  16  31  55  83 112 147 185 230 279 330
#     4  11  24  40  59  82 113 154 191 230 285 340
#
# _framework density 18.593889999999998
#
# number of rings (size 3 to 8) (size 9 to 14) (size 15 to 20)
#    0.000    2.000    2.857    2.143    0.000    2.286 
#    0.000    6.429    0.000    0.000    0.000    0.000 
#    0.000    0.000    0.000    0.000    0.000    0.000 
#
# Total GULP energy -347209.157064 kJ/mol
# GULP energy per Si atom -12400.327038 kJ/mol
# Density = 1.855157 g / cm^3
# Si number density = 18.593890 Si / 1000 Ang^3
#
#
#
# Elastic Constant Matrix: (Units=GPa)
#
#
# Indices 1 2 3 4 5 6 
#
# 1 58.9791 26.0529 23.0651 -0.0002 4.8042 0.0018
# 2 26.0529 54.5500 31.8539 -0.0001 1.1350 0.0003
# 3 23.0651 31.8539 114.6095 0.0000 0.9005 -0.0004
# 4 -0.0002 -0.0001 0.0000 26.1532 -0.0001 -2.2353
# 5 4.8042 1.1350 0.9005 -0.0001 29.8920 -0.0004
# 6 0.0018 0.0003 -0.0004 -2.2353 -0.0004 33.2418
#
#
#
# Elastic Compliance Matrix: (Units=1/GPa)
#
#
# Indices 1 2 3 4 5 6 
#
# 1 0.022079 -0.009430 -0.001798 0.000000 -0.003136 -0.000001
# 2 -0.009430 0.025923 -0.005313 0.000000 0.000691 0.000000
# 3 -0.001798 -0.005313 0.010562 0.000000 0.000172 0.000000
# 4 0.000000 0.000000 0.000000 0.038457 0.000000 0.002586
# 5 -0.003136 0.000691 0.000172 0.000000 0.033926 0.000001
# 6 -0.000001 0.000000 0.000000 0.002586 0.000001 0.030257
#
#
# Mechanical properties :
#
#
# Convention : Reuss Voigt Hill
#
# Bulk Modulus (GPa) = 39.24020 43.34248 41.29134
# Shear Modulus (GPa) = 24.65719 27.66851 26.16285
#
# Velocity S-wave (km/s) = 3.64550 3.86170 3.75516
# Velocity P-wave (km/s) = 6.23452 6.57604 6.40756
#
# Compressibility (1/GPa) = 0.02548407
#
# Stress axis : x y z
#
# Youngs Moduli (GPa) = 45.29151 38.57522 94.67615
#
# Poissons Ratio (x) = 0.36376 0.17022
# Poissons Ratio (y) = 0.42709 0.50298
# Poissons Ratio (z) = 0.08143 0.20494
#
# Static dielectric constant tensor:
#      x y z
#    x 3.121820 0.000010 0.060000 
#    y 0.000010 3.264430 0.000000 
#    z 0.060000 0.000000 3.939690 
# 
# 
# High freq. dielectric constant tensor:
#      x y z
#    x 1.704570 0.000000 -0.005400 
#    y 0.000000 1.710900 0.000000 
#    z -0.005400 0.000000 1.739290 
# 
# From -- ./inp_files/275026.got.cif
#   From: 2010.06.25/outbox.cif.g09.slc.cpg/sg12_138_cif.got.tgz:275026.got - 2010.06.28 00:19:55.
