data_PCOD8107565
_publ_section_title
;
Structure prediction by ZEFSAII (Michael W. Deem and Ramdas Pophale) SiO2 
 PCOD8107565
Probable space group: C 2/M
;
_chemical_formula_sum "Si O2"
_cell_formula_units_Z 64
_cell_length_a 30.466663
_cell_length_b 8.913217
_cell_length_c 19.532936
_cell_angle_alpha 90.000000
_cell_angle_beta 141.958230
_cell_angle_gamma 90.000000
_cell_volume 3268.690599
_symmetry_space_group_name_H-M "C 2/M"
_symmetry_group_IT_number 12
_symmetry_cell_setting 'monoclinic'
loop_
_space_group_symop_operation_xyz
x,y,z
-x,y,-z
-x,-y,-z
x,-y,z
1/2+x,1/2+y,z
1/2-x,1/2+y,-z
1/2-x,1/2-y,-z
1/2+x,1/2-y,z
loop_
_atom_site_type_symbol
_atom_site_label
_atom_site_fract_x
_atom_site_fract_y
_atom_site_fract_z
Si Si1 0.447113 0.822002 0.644704
Si Si2 0.296805 0.830728 0.738746
Si Si3 0.809095 0.167630 0.271365
Si Si4 0.710993 0.177570 0.515948
Si Si5 0.054358 0.677079 0.510618
Si Si6 0.070720 0.830746 0.043310
Si Si7 0.570544 0.178615 0.898286
Si Si8 0.724087 0.823824 0.036732
O O1 0.370949 0.766264 0.580375
O O2 0.460280 0.758047 0.583747
O O3 0.509619 0.764392 0.771002
O O4 0.446839 0.000000 0.640638
O O5 0.261232 0.832365 0.769158
O O6 0.250400 0.727975 0.632558
O O7 0.374276 0.761274 0.842842
O O8 0.303247 0.000000 0.717006
O O9 0.866066 0.283843 0.369414
O O10 0.783069 0.220624 0.165178
O O11 0.842245 0.000000 0.310138
O O12 0.750000 0.250000 0.500000
O O13 0.715088 0.000000 0.514248
O O14 0.046387 0.500000 0.499431
O O15 0.000000 0.746457 0.500000
O O16 0.098620 0.000000 0.064805
O O17 0.055388 0.752088 0.952486
O O18 0.000000 0.832905 0.000000
O O19 0.568927 0.000000 0.905247
O O20 0.646117 0.235752 0.962090
O O21 0.719720 0.000000 0.020877
O O22 0.750000 0.750000 0.000000
#
# Coordination Sequence:
#
# PCOD8107565 Si02
#       8
#     8   8   8   8   8   8   8   8
#     4   9  20  38  59  86 119 156 197 241 292 347
#     4  11  22  41  66  89 116 160 206 250 305 360
#     4  10  21  39  60  86 120 154 197 249 301 354
#     4  11  23  40  61  91 125 159 202 251 300 358
#     4  10  21  37  61  90 117 154 202 244 291 353
#     4  11  25  42  61  91 124 155 196 252 308 360
#     4  10  21  41  63  85 120 162 202 245 292 358
#     4  10  22  39  60  88 119 155 200 247 296 354
#
# _framework density 19.579705000000001
#
# number of rings (size 3 to 8) (size 9 to 14) (size 15 to 20)
#    0.000    1.750    2.500    1.125    3.500    2.750 
#    0.000    1.250    0.000    0.000    0.000    0.000 
#    0.000    0.000    0.000    0.000    0.000    0.000 
#
# Total GULP energy -396855.429042 kJ/mol
# GULP energy per Si atom -12401.732158 kJ/mol
# Density = 1.953514 g / cm^3
# Si number density = 19.579705 Si / 1000 Ang^3
#
#
#
# Elastic Constant Matrix: (Units=GPa)
#
#
# Indices 1 2 3 4 5 6 
#
# 1 111.4196 32.8180 45.7324 0.0000 -8.5256 0.0000
# 2 32.8180 48.5408 28.9532 0.0000 -1.7807 0.0000
# 3 45.7324 28.9532 125.6848 0.0000 -4.9783 0.0000
# 4 0.0000 0.0000 0.0000 30.3922 0.0000 -2.0505
# 5 -8.5256 -1.7807 -4.9783 0.0000 34.9075 0.0000
# 6 0.0000 0.0000 0.0000 -2.0505 0.0000 30.0092
#
#
#
# Elastic Compliance Matrix: (Units=1/GPa)
#
#
# Indices 1 2 3 4 5 6 
#
# 1 0.012233 -0.006476 -0.002870 0.000000 0.002248 0.000000
# 2 -0.006476 0.027318 -0.003967 0.000000 -0.000754 0.000000
# 3 -0.002870 -0.003967 0.009935 0.000000 0.000514 0.000000
# 4 0.000000 0.000000 0.000000 0.033056 0.000000 0.002259
# 5 0.002248 -0.000754 0.000514 0.000000 0.029231 0.000000
# 6 0.000000 0.000000 0.000000 0.002259 0.000000 0.033477
#
#
# Mechanical properties :
#
#
# Convention : Reuss Voigt Hill
#
# Bulk Modulus (GPa) = 43.74446 55.62805 49.68626
# Shear Modulus (GPa) = 27.85603 30.93789 29.39696
#
# Velocity S-wave (km/s) = 3.77596 3.97936 3.87899
# Velocity P-wave (km/s) = 6.43434 7.04177 6.74490
#
# Compressibility (1/GPa) = 0.02286004
#
# Stress axis : x y z
#
# Youngs Moduli (GPa) = 81.74885 36.60619 100.65566
#
# Poissons Ratio (x) = 0.23706 0.28890
# Poissons Ratio (y) = 0.52940 0.39925
# Poissons Ratio (z) = 0.23463 0.14520
#
# Static dielectric constant tensor:
#      x y z
#    x 3.794470 0.000000 -0.377050 
#    y 0.000000 3.617500 0.000000 
#    z -0.377050 0.000000 4.549520 
# 
# 
# High freq. dielectric constant tensor:
#      x y z
#    x 1.772130 0.000000 -0.003310 
#    y 0.000000 1.746800 0.000000 
#    z -0.003310 0.000000 1.775120 
# 
# From -- ./inp_files/295702.got.cif
#   From: 2010.06.25/outbox.cif.g09.slc.cpg/sg12_148_cif.got.tgz:295702.got - 2010.06.28 00:19:55.
