data_PCOD8107969
_publ_section_title
;
Structure prediction by ZEFSAII (Michael W. Deem and Ramdas Pophale) SiO2 
 PCOD8107969
Probable space group: C 2/M
;
_chemical_formula_sum "Si O2"
_cell_formula_units_Z 64
_cell_length_a 8.920259
_cell_length_b 19.031817
_cell_length_c 29.368383
_cell_angle_alpha 90.000000
_cell_angle_beta 141.567911
_cell_angle_gamma 90.000000
_cell_volume 3099.127146
_symmetry_space_group_name_H-M "C 2/M"
_symmetry_group_IT_number 12
_symmetry_cell_setting 'monoclinic'
loop_
_space_group_symop_operation_xyz
x,y,z
-x,y,-z
-x,-y,-z
x,-y,z
1/2+x,1/2+y,z
1/2-x,1/2+y,-z
1/2-x,1/2-y,-z
1/2+x,1/2-y,z
loop_
_atom_site_type_symbol
_atom_site_label
_atom_site_fract_x
_atom_site_fract_y
_atom_site_fract_z
Si Si1 0.849076 0.080416 0.551246
Si Si2 0.477207 0.792456 0.073478
Si Si3 0.718908 0.804895 0.690679
Si Si4 0.191234 0.664454 0.339351
Si Si5 0.469769 0.689706 0.148617
Si Si6 0.334098 0.080862 0.393380
Si Si7 0.779224 0.578777 0.077214
Si Si8 0.693163 0.916934 0.811310
O O1 0.605541 0.106672 0.468894
O O2 0.829745 0.089695 0.601010
O O3 0.077684 0.122711 0.587283
O O4 0.891051 0.000000 0.548497
O O5 0.577428 0.748814 0.140463
O O6 0.680061 0.802094 0.082710
O O7 0.413579 0.870530 0.074359
O O8 0.250000 0.750000 0.000000
O O9 0.709468 0.734159 0.660119
O O10 0.461883 0.815400 0.653084
O O11 0.777984 0.871396 0.672769
O O12 0.931322 0.798552 0.777534
O O13 0.036938 0.616879 0.268025
O O14 0.557739 0.614400 0.150120
O O15 0.331919 0.000000 0.376569
O O16 0.878572 0.500000 0.093035
O O17 0.824308 0.602604 0.139748
O O18 0.500000 0.582579 0.000000
O O19 0.697245 0.000000 0.804082
#
# Coordination Sequence:
#
# PCOD8107969 Si02
#       8
#     8   8   8   8   8   8   8   8
#     4   9  19  38  62  85 115 155 200 250 301 361
#     4  12  23  39  63  90 119 158 201 243 294 351
#     4  11  23  37  57  84 118 156 193 246 300 355
#     4  11  22  37  58  85 118 156 199 245 301 361
#     4  11  23  38  59  86 120 154 196 246 293 353
#     4   9  20  39  61  87 118 155 200 249 303 361
#     4  10  21  38  59  83 115 153 195 242 291 350
#     4  10  22  40  61  87 120 156 195 246 306 361
#
# _framework density 20.650976
#
# number of rings (size 3 to 8) (size 9 to 14) (size 15 to 20)
#    0.000    1.625    0.000    6.750    0.000    5.000 
#    0.000    2.500    0.000    3.750    0.000    0.000 
#    0.000    0.000    0.000    0.000    0.000    0.000 
#
# Total GULP energy -396883.587558 kJ/mol
# GULP energy per Si atom -12402.612111 kJ/mol
# Density = 2.060397 g / cm^3
# Si number density = 20.650976 Si / 1000 Ang^3
#
#
#
# Elastic Constant Matrix: (Units=GPa)
#
#
# Indices 1 2 3 4 5 6 
#
# 1 76.5652 37.4705 5.9394 0.0000 17.9927 0.0000
# 2 37.4705 100.9610 22.7021 0.0000 2.3982 0.0000
# 3 5.9394 22.7021 52.4708 -0.0007 4.0741 0.0003
# 4 0.0000 0.0000 -0.0007 25.7525 -0.0003 3.0418
# 5 17.9927 2.3982 4.0741 -0.0003 36.6111 0.0001
# 6 0.0000 0.0000 0.0003 3.0418 0.0001 38.8323
#
#
#
# Elastic Compliance Matrix: (Units=1/GPa)
#
#
# Indices 1 2 3 4 5 6 
#
# 1 0.018419 -0.006992 0.001622 0.000000 -0.008774 0.000000
# 2 -0.006992 0.013628 -0.005349 0.000000 0.003139 0.000000
# 3 0.001622 -0.005349 0.021408 0.000001 -0.002829 0.000000
# 4 0.000000 0.000000 0.000001 0.039194 0.000000 -0.003070
# 5 -0.008774 0.003139 -0.002829 0.000000 0.031736 0.000000
# 6 0.000000 0.000000 0.000000 -0.003070 0.000000 0.025992
#
#
# Mechanical properties :
#
#
# Convention : Reuss Voigt Hill
#
# Bulk Modulus (GPa) = 31.23328 40.24678 35.74003
# Shear Modulus (GPa) = 27.39912 31.16483 29.28198
#
# Velocity S-wave (km/s) = 3.64644 3.88896 3.76965
# Velocity P-wave (km/s) = 5.73462 6.30053 6.02422
#
# Compressibility (1/GPa) = 0.03201713
#
# Stress axis : x y z
#
# Youngs Moduli (GPa) = 54.29213 73.37830 46.71056
#
# Poissons Ratio (x) = 0.51307 -0.07575
# Poissons Ratio (y) = 0.37962 0.24983
# Poissons Ratio (z) = -0.08804 0.39247
#
# Static dielectric constant tensor:
#      x y z
#    x 3.832270 0.000000 0.011800 
#    y 0.000000 3.845080 0.000000 
#    z 0.011800 0.000000 3.721290 
# 
# 
# High freq. dielectric constant tensor:
#      x y z
#    x 1.808520 0.000000 -0.003090 
#    y 0.000000 1.815410 0.000000 
#    z -0.003090 0.000000 1.806270 
# 
# From -- ./inp_files/372993.got.cif
#   From: 2010.06.25/outbox.cif.g09.slc.cpg/sg12_187_cif.got.tgz:372993.got - 2010.06.28 00:19:55.
