data_PCOD8107249
_publ_section_title
;
Structure prediction by ZEFSAII (Michael W. Deem and Ramdas Pophale) SiO2 
 PCOD8107249
Probable space group: C 2/M
;
_chemical_formula_sum "Si O2"
_cell_formula_units_Z 56
_cell_length_a 23.822373
_cell_length_b 8.872715
_cell_length_c 13.577400
_cell_angle_alpha 90.000000
_cell_angle_beta 76.207426
_cell_angle_gamma 90.000000
_cell_volume 2787.091785
_symmetry_space_group_name_H-M "C 2/M"
_symmetry_group_IT_number 12
_symmetry_cell_setting 'monoclinic'
loop_
_space_group_symop_operation_xyz
x,y,z
-x,y,-z
-x,-y,-z
x,-y,z
1/2+x,1/2+y,z
1/2-x,1/2+y,-z
1/2-x,1/2-y,-z
1/2+x,1/2-y,z
loop_
_atom_site_type_symbol
_atom_site_label
_atom_site_fract_x
_atom_site_fract_y
_atom_site_fract_z
Si Si1 0.607683 0.677790 0.138449
Si Si2 0.001289 0.673355 0.886735
Si Si3 0.697209 0.178858 0.965271
Si Si4 0.343899 0.320771 0.672473
Si Si5 0.560601 0.678793 0.516983
Si Si6 0.400720 0.826489 0.303750
Si Si7 0.215585 0.321019 0.737614
O O1 0.615293 0.500000 0.123728
O O2 0.540738 0.724050 0.162172
O O3 0.637659 0.762864 0.035496
O O4 0.635107 0.735106 0.229410
O O5 0.980734 0.500000 0.890582
O O6 0.064997 0.692191 0.813644
O O7 0.000000 0.730698 0.000000
O O8 0.700695 0.000000 0.970482
O O9 0.750000 0.250000 0.000000
O O10 0.700878 0.237935 0.852392
O O11 0.344959 0.500000 0.670283
O O12 0.387046 0.256012 0.571547
O O13 0.278826 0.260147 0.678179
O O14 0.500000 0.741387 0.500000
O O15 0.560334 0.500000 0.514510
O O16 0.568408 0.730894 0.625161
O O17 0.335106 0.765697 0.314793
O O18 0.400303 0.000000 0.337247
O O19 0.216120 0.500000 0.739293
#
# Coordination Sequence:
#
# PCOD8107249 Si02
#       7
#     8   8   8   8   8   8   8
#     4  11  21  35  57  85 113 147 191 238 283 336
#     4  10  21  38  57  80 111 150 190 229 282 349
#     4  11  20  34  56  83 118 156 192 232 279 336
#     4   9  18  34  56  80 108 146 190 229 277 343
#     4  10  21  38  59  81 109 147 187 231 287 346
#     4  10  21  37  59  83 110 145 187 235 284 334
#     4   9  18  35  57  80 111 152 189 226 280 342
#
# _framework density 20.092628999999999
#
# number of rings (size 3 to 8) (size 9 to 14) (size 15 to 20)
#    0.000    2.000    1.429    2.571    0.000    5.143 
#    0.000    4.286    0.000    0.000    0.000    0.000 
#    0.000    0.000    0.000    0.000    0.000    0.000 
#
# Total GULP energy -347212.201608 kJ/mol
# GULP energy per Si atom -12400.435772 kJ/mol
# Density = 2.004690 g / cm^3
# Si number density = 20.092629 Si / 1000 Ang^3
#
#
#
# Elastic Constant Matrix: (Units=GPa)
#
#
# Indices 1 2 3 4 5 6 
#
# 1 162.0119 21.2444 58.5841 0.0000 1.1285 0.0000
# 2 21.2444 33.1431 17.0518 0.0000 -0.0724 0.0000
# 3 58.5841 17.0518 119.8193 0.0000 -6.1243 0.0000
# 4 0.0000 0.0000 0.0000 24.6971 0.0000 1.6740
# 5 1.1285 -0.0724 -6.1243 0.0000 37.1478 0.0000
# 6 0.0000 0.0000 0.0000 1.6740 0.0000 27.6388
#
#
#
# Elastic Compliance Matrix: (Units=1/GPa)
#
#
# Indices 1 2 3 4 5 6 
#
# 1 0.007840 -0.003273 -0.003409 0.000000 -0.000806 0.000000
# 2 -0.003273 0.033941 -0.003249 0.000000 -0.000370 0.000000
# 3 -0.003409 -0.003249 0.010569 0.000000 0.001840 0.000000
# 4 0.000000 0.000000 0.000000 0.040658 0.000000 -0.002463
# 5 -0.000806 -0.000370 0.001840 0.000000 0.027247 0.000000
# 6 0.000000 0.000000 0.000000 -0.002463 0.000000 0.036330
#
#
# Mechanical properties :
#
#
# Convention : Reuss Voigt Hill
#
# Bulk Modulus (GPa) = 30.78016 56.52611 43.65314
# Shear Modulus (GPa) = 26.69879 32.43634 29.56756
#
# Velocity S-wave (km/s) = 3.64921 4.02224 3.84026
# Velocity P-wave (km/s) = 5.75395 7.05444 6.43712
#
# Compressibility (1/GPa) = 0.03248846
#
# Stress axis : x y z
#
# Youngs Moduli (GPa) = 127.55473 29.46290 94.61794
#
# Poissons Ratio (x) = 0.09644 0.32251
# Poissons Ratio (y) = 0.41753 0.30739
# Poissons Ratio (z) = 0.43478 0.09572
#
# Static dielectric constant tensor:
#      x y z
#    x 3.875410 0.000000 -0.168700 
#    y 0.000000 3.278820 0.000000 
#    z -0.168700 0.000000 3.738800 
# 
# 
# High freq. dielectric constant tensor:
#      x y z
#    x 1.801710 0.000000 -0.007140 
#    y 0.000000 1.746100 0.000000 
#    z -0.007140 0.000000 1.785520 
# 
# From -- ./inp_files/237488.got.cif
#   From: 2010.06.25/outbox.cif.g09.slc.cpg/sg12_119_cif.got.tgz:237488.got - 2010.06.28 00:19:55.
