data_PCOD8107247
_publ_section_title
;
Structure prediction by ZEFSAII (Michael W. Deem and Ramdas Pophale) SiO2 
 PCOD8107247
Probable space group: C 2/M
;
_chemical_formula_sum "Si O2"
_cell_formula_units_Z 56
_cell_length_a 24.313140
_cell_length_b 14.869875
_cell_length_c 8.974828
_cell_angle_alpha 90.000000
_cell_angle_beta 118.644273
_cell_angle_gamma 90.000000
_cell_volume 2847.590027
_symmetry_space_group_name_H-M "C 2/M"
_symmetry_group_IT_number 12
_symmetry_cell_setting 'monoclinic'
loop_
_space_group_symop_operation_xyz
x,y,z
-x,y,-z
-x,-y,-z
x,-y,z
1/2+x,1/2+y,z
1/2-x,1/2+y,-z
1/2-x,1/2-y,-z
1/2+x,1/2-y,z
loop_
_atom_site_type_symbol
_atom_site_label
_atom_site_fract_x
_atom_site_fract_y
_atom_site_fract_z
Si Si1 0.905272 0.708316 0.214714
Si Si2 0.715349 0.774414 0.103705
Si Si3 0.739666 0.338711 0.392147
Si Si4 0.071140 0.897495 0.640571
Si Si5 0.874397 0.601690 0.470665
Si Si6 0.311369 0.402129 0.392774
Si Si7 0.991053 0.396192 0.818854
O O1 0.912854 0.817394 0.222882
O O2 0.887977 0.672375 0.356722
O O3 0.968152 0.661802 0.242102
O O4 0.851334 0.682646 0.025750
O O5 0.705575 0.685204 0.192047
O O6 0.759398 0.840798 0.250642
O O7 0.750000 0.750000 0.000000
O O8 0.750000 0.250000 0.500000
O O9 0.805031 0.387341 0.444085
O O10 0.694156 0.400158 0.434204
O O11 0.117145 0.879724 0.559653
O O12 0.000000 0.884542 0.500000
O O13 0.080718 0.000000 0.717324
O O14 0.882974 0.500000 0.420142
O O15 0.919996 0.617959 0.671125
O O16 0.294341 0.500000 0.310866
O O17 0.011985 0.500000 0.835187
O O18 0.000000 0.361642 0.000000
#
# Coordination Sequence:
#
# PCOD8107247 Si02
#       7
#     8   8   8   8   8   8   8
#     4  12  22  39  62  89 120 164 199 246 309 363
#     4  11  21  39  58  89 124 154 200 247 302 368
#     4  10  21  37  59  82 118 159 201 246 295 357
#     4  10  21  39  63  86 111 151 207 255 297 354
#     4  11  22  38  61  90 123 161 206 249 298 365
#     4  10  21  38  60  86 117 155 197 249 305 359
#     4  10  24  41  59  90 127 162 204 249 299 365
#
# _framework density 19.665752999999999
#
# number of rings (size 3 to 8) (size 9 to 14) (size 15 to 20)
#    0.000    1.429    2.857    3.000    4.000    2.286 
#    0.000    1.429    0.000    0.429    0.000    0.000 
#    0.000    0.000    0.000    0.000    0.000    0.000 
#
# Total GULP energy -347028.074865 kJ/mol
# GULP energy per Si atom -12393.859817 kJ/mol
# Density = 1.962099 g / cm^3
# Si number density = 19.665753 Si / 1000 Ang^3
#
#
#
# Elastic Constant Matrix: (Units=GPa)
#
#
# Indices 1 2 3 4 5 6 
#
# 1 110.1774 34.5071 40.4518 0.0000 -0.9107 0.0000
# 2 34.5071 94.1674 33.4090 0.0000 -2.1797 0.0000
# 3 40.4518 33.4090 115.2777 0.0000 1.0094 0.0000
# 4 0.0000 0.0000 0.0000 21.6072 0.0000 2.4404
# 5 -0.9107 -2.1797 1.0094 0.0000 32.2283 0.0000
# 6 0.0000 0.0000 0.0000 2.4404 0.0000 30.2148
#
#
#
# Elastic Compliance Matrix: (Units=1/GPa)
#
#
# Indices 1 2 3 4 5 6 
#
# 1 0.011132 -0.002996 -0.003040 0.000000 0.000207 0.000000
# 2 -0.002996 0.012669 -0.002628 0.000000 0.000855 0.000000
# 3 -0.003040 -0.002628 0.010508 0.000000 -0.000593 0.000000
# 4 0.000000 0.000000 0.000000 0.046707 0.000000 -0.003772
# 5 0.000207 0.000855 -0.000593 0.000000 0.031111 0.000000
# 6 0.000000 0.000000 0.000000 -0.003772 0.000000 0.033401
#
#
# Mechanical properties :
#
#
# Convention : Reuss Voigt Hill
#
# Bulk Modulus (GPa) = 58.88521 59.59536 59.24028
# Shear Modulus (GPa) = 29.67051 30.89372 30.28212
#
# Velocity S-wave (km/s) = 3.88846 3.96781 3.92834
# Velocity P-wave (km/s) = 7.08295 7.16668 7.12494
#
# Compressibility (1/GPa) = 0.01698219
#
# Stress axis : x y z
#
# Youngs Moduli (GPa) = 89.82725 78.93030 95.16338
#
# Poissons Ratio (x) = 0.23648 0.28929
# Poissons Ratio (y) = 0.26913 0.25008
# Poissons Ratio (z) = 0.27307 0.20742
#
# Static dielectric constant tensor:
#      x y z
#    x 5.111860 0.000000 -2.068890 
#    y 0.000000 4.184130 0.000000 
#    z -2.068890 0.000000 6.439410 
# 
# 
# High freq. dielectric constant tensor:
#      x y z
#    x 1.776090 0.000000 -0.000620 
#    y 0.000000 1.771330 0.000000 
#    z -0.000620 0.000000 1.751830 
# 
# From -- ./inp_files/96963.got.cif
#   From: 2010.06.25/outbox.cif.g09.slc.cpg/sg12_49_cif.got.tgz:96963.got - 2010.06.28 00:19:55.
