data_PCOD8107198
_publ_section_title
;
Structure prediction by ZEFSAII (Michael W. Deem and Ramdas Pophale) SiO2 
 PCOD8107198
Probable space group: C 2/M
;
_chemical_formula_sum "Si O2"
_cell_formula_units_Z 40
_cell_length_a 8.835594
_cell_length_b 29.651794
_cell_length_c 14.702175
_cell_angle_alpha 90.000000
_cell_angle_beta 30.464364
_cell_angle_gamma 90.000000
_cell_volume 1952.892312
_symmetry_space_group_name_H-M "C 2/M"
_symmetry_group_IT_number 12
_symmetry_cell_setting 'monoclinic'
loop_
_space_group_symop_operation_xyz
x,y,z
-x,y,-z
-x,-y,-z
x,-y,z
1/2+x,1/2+y,z
1/2-x,1/2+y,-z
1/2-x,1/2-y,-z
1/2+x,1/2-y,z
loop_
_atom_site_type_symbol
_atom_site_label
_atom_site_fract_x
_atom_site_fract_y
_atom_site_fract_z
Si Si1 0.346773 0.451919 0.307512
Si Si2 0.288558 0.135610 0.695704
Si Si3 0.663694 0.949143 0.819002
Si Si4 0.649222 0.133182 0.694236
Si Si5 0.679144 0.298738 0.999646
O O1 0.472760 0.500000 0.202866
O O2 0.411481 0.410327 0.206536
O O3 0.487240 0.443765 0.335153
O O4 0.000000 0.455739 0.500000
O O5 0.500000 0.141599 0.500000
O O6 0.490041 0.131558 0.679868
O O7 0.050875 0.175892 0.814572
O O8 0.589501 0.913639 0.778413
O O9 0.594464 0.000000 0.819511
O O10 0.500000 0.938981 0.000000
O O11 0.000000 0.143563 0.500000
O O12 0.491117 0.174072 0.830560
O O13 0.500000 0.293960 0.000000
O O14 0.750000 0.250000 0.000000
#
# Coordination Sequence:
#
# PCOD8107198 Si02
#       5
#     8   8   8   8   8
#     4   9  17  31  53  81 113 150 188 226 275 332
#     4  10  21  39  61  87 119 155 195 240 292 351
#     4  10  21  37  58  86 120 159 201 242 287 341
#     4  11  23  38  60  91 121 154 198 242 293 353
#     4  10  24  43  62  85 114 150 194 245 299 355
#
# _framework density 20.48244
#
# number of rings (size 3 to 8) (size 9 to 14) (size 15 to 20)
#    0.000    2.000    0.000    3.600    0.000    6.000 
#    0.000    4.000    0.000    7.200    0.000    0.000 
#    0.000    0.000    0.000    0.000    0.000    0.000 
#
# Total GULP energy -247770.232400 kJ/mol
# GULP energy per Si atom -12388.511620 kJ/mol
# Density = 2.043582 g / cm^3
# Si number density = 20.482440 Si / 1000 Ang^3
#
#
#
# Elastic Constant Matrix: (Units=GPa)
#
#
# Indices 1 2 3 4 5 6 
#
# 1 87.9167 68.2274 50.6145 0.0000 -5.1298 0.0000
# 2 68.2274 203.9854 78.5272 0.0000 -1.1831 0.0000
# 3 50.6145 78.5272 119.0820 0.0000 -0.4417 0.0000
# 4 0.0000 0.0000 0.0000 39.7369 0.0000 4.5092
# 5 -5.1298 -1.1831 -0.4417 0.0000 29.3065 0.0000
# 6 0.0000 0.0000 0.0000 4.5092 0.0000 37.0299
#
#
#
# Elastic Compliance Matrix: (Units=1/GPa)
#
#
# Indices 1 2 3 4 5 6 
#
# 1 0.017344 -0.003955 -0.004753 0.000000 0.002805 0.000000
# 2 -0.003955 0.007473 -0.003249 0.000000 -0.000440 0.000000
# 3 -0.004753 -0.003249 0.012557 0.000000 -0.000774 0.000000
# 4 0.000000 0.000000 0.000000 0.025518 0.000000 -0.003107
# 5 0.002805 -0.000440 -0.000774 0.000000 0.034584 0.000000
# 6 0.000000 0.000000 0.000000 -0.003107 0.000000 0.027384
#
#
# Mechanical properties :
#
#
# Convention : Reuss Voigt Hill
#
# Bulk Modulus (GPa) = 74.29213 89.52469 81.90841
# Shear Modulus (GPa) = 32.62417 35.45567 34.03992
#
# Velocity S-wave (km/s) = 3.99530 4.16508 4.08107
# Velocity P-wave (km/s) = 7.59165 8.18128 7.89197
#
# Compressibility (1/GPa) = 0.01346038
#
# Stress axis : x y z
#
# Youngs Moduli (GPa) = 57.65762 133.81122 79.63400
#
# Poissons Ratio (x) = 0.52920 0.37853
# Poissons Ratio (y) = 0.22803 0.25871
# Poissons Ratio (z) = 0.27407 0.43472
#
# Static dielectric constant tensor:
#      x y z
#    x 4.221980 0.000000 -0.195690 
#    y 0.000000 -1.758610 0.000000 
#    z -0.195690 0.000000 3.929500 
# 
# 
# High freq. dielectric constant tensor:
#      x y z
#    x 1.800250 0.000000 -0.024680 
#    y 0.000000 1.808080 0.000000 
#    z -0.024680 0.000000 1.803170 
# 
# From -- ./inp_files/41434.got.cif
#   From: 2010.06.25/outbox.cif.g09.slc.cpg/sg12_21_cif.got.tgz:41434.got - 2010.06.28 00:19:55.
