data_PCOD8107495
_publ_section_title
;
Structure prediction by ZEFSAII (Michael W. Deem and Ramdas Pophale) SiO2 
 PCOD8107495
Probable space group: C 2/M
;
_chemical_formula_sum "Si O2"
_cell_formula_units_Z 56
_cell_length_a 24.040031
_cell_length_b 15.371572
_cell_length_c 7.832976
_cell_angle_alpha 90.000000
_cell_angle_beta 66.983658
_cell_angle_gamma 90.000000
_cell_volume 2664.118786
_symmetry_space_group_name_H-M "C 2/M"
_symmetry_group_IT_number 12
_symmetry_cell_setting 'monoclinic'
loop_
_space_group_symop_operation_xyz
x,y,z
-x,y,-z
-x,-y,-z
x,-y,z
1/2+x,1/2+y,z
1/2-x,1/2+y,-z
1/2-x,1/2-y,-z
1/2+x,1/2-y,z
loop_
_atom_site_type_symbol
_atom_site_label
_atom_site_fract_x
_atom_site_fract_y
_atom_site_fract_z
Si Si1 0.251702 0.648520 0.962990
Si Si2 0.568242 0.232734 0.478017
Si Si3 0.835457 0.598031 0.640852
Si Si4 0.170896 0.600755 0.747628
Si Si5 0.115251 0.903648 0.277470
Si Si6 0.568871 0.224558 0.861872
Si Si7 0.568362 0.593060 0.974281
O O1 0.225998 0.626513 0.805351
O O2 0.319687 0.614338 0.880627
O O3 0.250000 0.750000 0.000000
O O4 0.220160 0.600675 0.160367
O O5 0.500000 0.224944 0.500000
O O6 0.614161 0.163297 0.337256
O O7 0.594180 0.330647 0.435856
O O8 0.568933 0.200968 0.667262
O O9 0.861620 0.500000 0.607008
O O10 0.814674 0.623204 0.470369
O O11 0.155899 0.500000 0.787208
O O12 0.112997 0.653315 0.892417
O O13 0.113043 0.000000 0.365877
O O14 0.067901 0.898264 0.179092
O O15 0.598233 0.320364 0.859321
O O16 0.500000 0.216497 0.000000
O O17 0.599481 0.500000 0.883108
O O18 0.500000 0.591563 0.000000
#
# Coordination Sequence:
#
# PCOD8107495 Si02
#       7
#     8   8   8   8   8   8   8
#     4  12  23  42  71  94 131 170 211 270 325 381
#     4  11  23  39  62  91 125 165 211 266 319 374
#     4  10  23  44  66  96 132 170 214 263 319 384
#     4  10  23  42  64  94 132 169 212 263 320 382
#     4  11  23  40  61  92 125 163 213 259 319 389
#     4  10  21  37  60  89 123 164 214 261 316 384
#     4   9  18  35  58  82 116 158 202 256 312 369
#
# _framework density 21.020083
#
# number of rings (size 3 to 8) (size 9 to 14) (size 15 to 20)
#    0.000    1.571    1.429    3.857    2.000    2.000 
#    2.571    0.000    0.000    0.000    0.000    0.000 
#    0.000    0.000    0.000    0.000    0.000    0.000 
#
# Total GULP energy -346949.257112 kJ/mol
# GULP energy per Si atom -12391.044897 kJ/mol
# Density = 2.097224 g / cm^3
# Si number density = 21.020083 Si / 1000 Ang^3
#
#
#
# Elastic Constant Matrix: (Units=GPa)
#
#
# Indices 1 2 3 4 5 6 
#
# 1 85.6356 44.9594 39.1042 0.0000 -1.1831 0.0000
# 2 44.9594 141.9211 16.3631 0.0000 2.2994 0.0000
# 3 39.1042 16.3631 71.8239 0.0000 1.0649 0.0000
# 4 0.0000 0.0000 0.0000 30.3907 0.0000 2.2463
# 5 -1.1831 2.2994 1.0649 0.0000 22.4350 0.0000
# 6 0.0000 0.0000 0.0000 2.2463 0.0000 26.9277
#
#
#
# Elastic Compliance Matrix: (Units=1/GPa)
#
#
# Indices 1 2 3 4 5 6 
#
# 1 0.018280 -0.004797 -0.008887 0.000000 0.001877 0.000000
# 2 -0.004797 0.008505 0.000691 0.000000 -0.001157 0.000000
# 3 -0.008887 0.000691 0.018625 0.000000 -0.001424 0.000000
# 4 0.000000 0.000000 0.000000 0.033109 0.000000 -0.002762
# 5 0.001877 -0.001157 -0.001424 0.000000 0.044858 0.000000
# 6 0.000000 0.000000 0.000000 -0.002762 0.000000 0.037367
#
#
# Mechanical properties :
#
#
# Convention : Reuss Voigt Hill
#
# Bulk Modulus (GPa) = 51.48271 55.58154 53.53213
# Shear Modulus (GPa) = 25.87925 29.21428 27.54676
#
# Velocity S-wave (km/s) = 3.51261 3.73208 3.62401
# Velocity P-wave (km/s) = 6.40285 6.71348 6.56000
#
# Compressibility (1/GPa) = 0.01942400
#
# Stress axis : x y z
#
# Youngs Moduli (GPa) = 54.70483 117.58103 53.69033
#
# Poissons Ratio (x) = 0.56399 0.47717
# Poissons Ratio (y) = 0.26240 -0.03710
# Poissons Ratio (z) = 0.48619 -0.08126
#
# Static dielectric constant tensor:
#      x y z
#    x 2.961280 0.000000 0.898050 
#    y 0.000000 4.429390 0.000000 
#    z 0.898050 0.000000 3.869160 
# 
# 
# High freq. dielectric constant tensor:
#      x y z
#    x 1.824600 0.000000 0.011200 
#    y 0.000000 1.846160 0.000000 
#    z 0.011200 0.000000 1.806540 
# 
# From -- ./inp_files/96779.got.cif
#   From: 2010.06.25/outbox.cif.g09.slc.cpg/sg12_49_cif.got.tgz:96779.got - 2010.06.28 00:19:55.
