data_PCOD8107912
_publ_section_title
;
Structure prediction by ZEFSAII (Michael W. Deem and Ramdas Pophale) SiO2 
 PCOD8107912
Probable space group: C 2/M
;
_chemical_formula_sum "Si O2"
_cell_formula_units_Z 64
_cell_length_a 11.954697
_cell_length_b 20.576128
_cell_length_c 24.452126
_cell_angle_alpha 90.000000
_cell_angle_beta 147.471540
_cell_angle_gamma 90.000000
_cell_volume 3234.251639
_symmetry_space_group_name_H-M "C 2/M"
_symmetry_group_IT_number 12
_symmetry_cell_setting 'monoclinic'
loop_
_space_group_symop_operation_xyz
x,y,z
-x,y,-z
-x,-y,-z
x,-y,z
1/2+x,1/2+y,z
1/2-x,1/2+y,-z
1/2-x,1/2-y,-z
1/2+x,1/2-y,z
loop_
_atom_site_type_symbol
_atom_site_label
_atom_site_fract_x
_atom_site_fract_y
_atom_site_fract_z
Si Si1 0.794399 0.074547 0.853505
Si Si2 0.941743 0.621046 0.636569
Si Si3 0.366131 0.826258 0.390104
Si Si4 0.754167 0.577227 0.046655
Si Si5 0.808044 0.184828 0.381011
Si Si6 0.928708 0.577198 0.911951
Si Si7 0.537094 0.427527 0.420191
Si Si8 0.043360 0.074640 0.298139
O O1 0.642927 0.081396 0.739139
O O2 0.701377 0.102197 0.872715
O O3 0.834447 0.000000 0.882198
O O4 0.023474 0.103321 0.934390
O O5 0.895999 0.670306 0.667373
O O6 0.737382 0.576674 0.542744
O O7 0.983738 0.659257 0.598498
O O8 0.500000 0.828203 0.500000
O O9 0.271078 0.754889 0.337821
O O10 0.184904 0.879918 0.318496
O O11 0.771193 0.500000 0.048797
O O12 0.924339 0.607402 0.075123
O O13 0.000000 0.193544 0.500000
O O14 0.860489 0.126101 0.360625
O O15 0.944345 0.500000 0.917984
O O16 0.692937 0.598943 0.803992
O O17 0.000000 0.604975 0.000000
O O18 0.439354 0.500000 0.387179
O O19 0.615083 0.418236 0.390467
O O20 0.069808 0.000000 0.289017
#
# Coordination Sequence:
#
# PCOD8107912 Si02
#       8
#     8   8   8   8   8   8   8   8
#     4   9  18  31  52  82 115 145 182 236 291 340
#     4  11  22  35  56  87 110 153 192 231 292 341
#     4  11  23  40  59  79 118 157 198 237 278 351
#     4   8  16  32  50  75 111 149 186 233 288 338
#     4   9  23  38  58  82 112 157 198 237 276 339
#     4   9  18  32  52  78 111 151 194 233 275 339
#     4  10  21  38  58  88 124 150 186 239 294 348
#     4  10  22  36  56  86 119 157 191 236 295 338
#
# _framework density 19.788193
#
# number of rings (size 3 to 8) (size 9 to 14) (size 15 to 20)
#    0.000    2.375    1.250    1.125    5.250    5.500 
#    0.000    0.000    0.000    0.000    3.250    5.250 
#    0.000    0.000    0.000    0.000    0.000    0.000 
#
# Total GULP energy -396610.625512 kJ/mol
# GULP energy per Si atom -12394.082047 kJ/mol
# Density = 1.974315 g / cm^3
# Si number density = 19.788193 Si / 1000 Ang^3
#
#
#
# Elastic Constant Matrix: (Units=GPa)
#
#
# Indices 1 2 3 4 5 6 
#
# 1 100.6290 48.2943 17.5821 0.0004 16.3422 0.0006
# 2 48.2943 97.1745 16.3999 0.0016 12.8027 0.0001
# 3 17.5821 16.3999 86.0347 0.0057 1.3019 -0.0003
# 4 0.0004 0.0016 0.0057 6.1523 -0.0007 1.5617
# 5 16.3422 12.8027 1.3019 -0.0007 31.6546 -0.0002
# 6 0.0006 0.0001 -0.0003 1.5617 -0.0002 20.4075
#
#
#
# Elastic Compliance Matrix: (Units=1/GPa)
#
#
# Indices 1 2 3 4 5 6 
#
# 1 0.013856 -0.005999 -0.001618 0.000002 -0.004661 -0.000001
# 2 -0.005999 0.013825 -0.001372 -0.000002 -0.002438 0.000000
# 3 -0.001618 -0.001372 0.012202 -0.000011 0.000888 0.000001
# 4 0.000002 -0.000002 -0.000011 0.165761 0.000004 -0.012685
# 5 -0.004661 -0.002438 0.000888 0.000004 0.034946 0.000000
# 6 -0.000001 0.000000 0.000001 -0.012685 0.000000 0.049972
#
#
# Mechanical properties :
#
#
# Convention : Reuss Voigt Hill
#
# Bulk Modulus (GPa) = 45.65228 49.82120 47.73674
# Shear Modulus (GPa) = 15.83065 25.08035 20.45550
#
# Velocity S-wave (km/s) = 2.83150 3.56397 3.21864
# Velocity P-wave (km/s) = 5.81467 6.49367 6.16353
#
# Compressibility (1/GPa) = 0.02190471
#
# Stress axis : x y z
#
# Youngs Moduli (GPa) = 72.16980 72.33197 81.95408
#
# Poissons Ratio (x) = 0.43394 0.13257
# Poissons Ratio (y) = 0.43297 0.11248
# Poissons Ratio (z) = 0.11674 0.09927
#
# Static dielectric constant tensor:
#      x y z
#    x 3.766330 0.000000 0.061980 
#    y 0.000000 3.406080 0.000000 
#    z 0.061980 0.000000 3.517640 
# 
# 
# High freq. dielectric constant tensor:
#      x y z
#    x 1.782390 0.000000 0.004390 
#    y 0.000000 1.723680 0.000000 
#    z 0.004390 0.000000 1.761670 
# 
# From -- ./inp_files/359001.got.cif
#   From: 2010.06.25/outbox.cif.g09.slc.cpg/sg12_180_cif.got.tgz:359001.got - 2010.06.28 00:19:55.
