data_PCOD8107029
_publ_section_title
;
Structure prediction by ZEFSAII (Michael W. Deem and Ramdas Pophale) SiO2 
 PCOD8107029
Probable space group: C 2/M
;
_chemical_formula_sum "Si O2"
_cell_formula_units_Z 48
_cell_length_a 15.570385
_cell_length_b 28.279762
_cell_length_c 6.457408
_cell_angle_alpha 90.000000
_cell_angle_beta 127.069952
_cell_angle_gamma 90.000000
_cell_volume 2268.725136
_symmetry_space_group_name_H-M "C 2/M"
_symmetry_group_IT_number 12
_symmetry_cell_setting 'monoclinic'
loop_
_space_group_symop_operation_xyz
x,y,z
-x,y,-z
-x,-y,-z
x,-y,z
1/2+x,1/2+y,z
1/2-x,1/2+y,-z
1/2-x,1/2-y,-z
1/2+x,1/2-y,z
loop_
_atom_site_type_symbol
_atom_site_label
_atom_site_fract_x
_atom_site_fract_y
_atom_site_fract_z
Si Si1 0.262317 0.282326 0.317315
Si Si2 0.885790 0.126190 0.429633
Si Si3 0.714536 0.892821 0.844705
Si Si4 0.121651 0.704187 0.748369
Si Si5 0.203611 0.947341 0.429649
Si Si6 0.592296 0.052777 0.986626
O O1 0.250000 0.250000 0.500000
O O2 0.327569 0.330117 0.461882
O O3 0.336567 0.254399 0.265816
O O4 0.148013 0.295742 0.036739
O O5 0.892783 0.084874 0.614926
O O6 0.000000 0.140530 0.500000
O O7 0.818456 0.107659 0.138909
O O8 0.685267 0.839386 0.733929
O O9 0.743083 0.925175 0.694226
O O10 0.609903 0.914557 0.810540
O O11 0.000000 0.698800 0.500000
O O12 0.295772 0.949977 0.733246
O O13 0.158977 0.000000 0.315890
O O14 0.556057 0.000000 0.864658
O O15 0.500000 0.075254 0.000000
#
# Coordination Sequence:
#
# PCOD8107029 Si02
#       6
#     8   8   8   8   8   8
#     4  10  21  41  62  86 119 156 202 248 300 364
#     4  10  22  41  62  85 118 158 203 255 305 355
#     4  10  21  37  57  86 122 155 198 254 300 366
#     4  10  22  37  57  90 121 152 195 246 301 362
#     4  10  21  37  58  85 117 157 203 252 304 360
#     4   9  19  34  53  81 117 160 204 246 298 361
#
# _framework density 21.157254999999999
#
# number of rings (size 3 to 8) (size 9 to 14) (size 15 to 20)
#    0.000    2.167    0.000    2.000    2.333    2.333 
#    0.000    5.000    0.000    0.000    0.000    0.000 
#    0.000    0.000    0.000    0.000    0.000    0.000 
#
# Total GULP energy -297454.065565 kJ/mol
# GULP energy per Si atom -12393.919399 kJ/mol
# Density = 2.110910 g / cm^3
# Si number density = 21.157255 Si / 1000 Ang^3
#
#
#
# Elastic Constant Matrix: (Units=GPa)
#
#
# Indices 1 2 3 4 5 6 
#
# 1 101.5428 35.3865 40.3665 0.0000 -1.3345 0.0000
# 2 35.3865 135.5135 42.1183 0.0000 -10.9935 0.0000
# 3 40.3665 42.1183 75.3946 0.0000 1.5038 0.0000
# 4 0.0000 0.0000 0.0000 25.0134 0.0000 -7.6947
# 5 -1.3345 -10.9935 1.5038 0.0000 24.5790 0.0000
# 6 0.0000 0.0000 0.0000 -7.6947 0.0000 36.3440
#
#
#
# Elastic Compliance Matrix: (Units=1/GPa)
#
#
# Indices 1 2 3 4 5 6 
#
# 1 0.012750 -0.001416 -0.006044 0.000000 0.000429 0.000000
# 2 -0.001416 0.009566 -0.004675 0.000000 0.004488 0.000000
# 3 -0.006044 -0.004675 0.019183 0.000000 -0.003593 0.000000
# 4 0.000000 0.000000 0.000000 0.042764 0.000000 0.009054
# 5 0.000429 0.004488 -0.003593 0.000000 0.042936 0.000000
# 6 0.000000 0.000000 0.000000 0.009054 0.000000 0.029432
#
#
# Mechanical properties :
#
#
# Convention : Reuss Voigt Hill
#
# Bulk Modulus (GPa) = 58.04348 60.91040 59.47694
# Shear Modulus (GPa) = 26.78905 30.15926 28.47415
#
# Velocity S-wave (km/s) = 3.56221 3.77965 3.67254
# Velocity P-wave (km/s) = 6.66431 6.92095 6.79384
#
# Compressibility (1/GPa) = 0.01722846
#
# Stress axis : x y z
#
# Youngs Moduli (GPa) = 78.43277 104.53284 52.12975
#
# Poissons Ratio (x) = 0.14803 0.31506
# Poissons Ratio (y) = 0.11107 0.24373
# Poissons Ratio (z) = 0.47402 0.48874
#
# Static dielectric constant tensor:
#      x y z
#    x 3.618180 0.000000 -0.038620 
#    y 0.000000 4.304760 0.000000 
#    z -0.038620 0.000000 3.785270 
# 
# 
# High freq. dielectric constant tensor:
#      x y z
#    x 1.809310 0.000000 -0.006160 
#    y 0.000000 1.849000 0.000000 
#    z -0.006160 0.000000 1.817750 
# 
# From -- ./inp_files/13059.got.cif
#   From: 2010.06.25/outbox.cif.g09.slc.cpg/sg12_7_cif.got.tgz:13059.got - 2010.06.28 00:19:55.
