data_PCOD8107749
_publ_section_title
;
Structure prediction by ZEFSAII (Michael W. Deem and Ramdas Pophale) SiO2 
 PCOD8107749
Probable space group: C 2/M
;
_chemical_formula_sum "Si O2"
_cell_formula_units_Z 56
_cell_length_a 19.606853
_cell_length_b 11.395851
_cell_length_c 19.851881
_cell_angle_alpha 90.000000
_cell_angle_beta 41.920036
_cell_angle_gamma 90.000000
_cell_volume 2963.419314
_symmetry_space_group_name_H-M "C 2/M"
_symmetry_group_IT_number 12
_symmetry_cell_setting 'monoclinic'
loop_
_space_group_symop_operation_xyz
x,y,z
-x,y,-z
-x,-y,-z
x,-y,z
1/2+x,1/2+y,z
1/2-x,1/2+y,-z
1/2-x,1/2-y,-z
1/2+x,1/2-y,z
loop_
_atom_site_type_symbol
_atom_site_label
_atom_site_fract_x
_atom_site_fract_y
_atom_site_fract_z
Si Si1 0.475842 0.361930 0.701157
Si Si2 0.192513 0.628095 0.022635
Si Si3 0.414300 0.634830 0.014719
Si Si4 0.914409 0.861904 0.513390
Si Si5 0.796483 0.632576 0.276031
Si Si6 0.002237 0.753362 0.822583
Si Si7 0.749952 0.188675 0.839888
O O1 0.452423 0.500000 0.720754
O O2 0.559381 0.331216 0.583003
O O3 0.521353 0.318508 0.738151
O O4 0.371127 0.295560 0.760002
O O5 0.229750 0.500000 0.026344
O O6 0.073801 0.642472 0.130458
O O7 0.250000 0.750000 0.000000
O O8 0.203462 0.610583 0.934357
O O9 0.406257 0.500000 0.036794
O O10 0.445279 0.656768 0.914651
O O11 0.500000 0.693663 0.000000
O O12 0.302953 0.684357 0.115114
O O13 0.802730 0.812008 0.613895
O O14 0.000000 0.806480 0.500000
O O15 0.910986 0.000000 0.529071
O O16 0.818156 0.500000 0.284683
O O17 0.890366 0.714562 0.226250
O O18 0.776603 0.628450 0.210979
#
# Coordination Sequence:
#
# PCOD8107749 Si02
#       7
#     8   8   8   8   8   8   8
#     4  11  21  37  59  86 116 148 190 246 297 348
#     4  11  23  37  56  84 121 159 199 244 294 357
#     4  10  21  38  55  80 117 155 198 236 280 356
#     4   9  18  33  58  87 112 143 189 242 296 347
#     4  11  21  37  59  84 116 147 189 246 296 347
#     4  11  23  37  54  84 119 154 194 233 301 348
#     4  11  21  36  59  86 110 149 196 238 296 338
#
# _framework density 18.897089999999999
#
# number of rings (size 3 to 8) (size 9 to 14) (size 15 to 20)
#    0.000    1.429    4.286    2.143    0.000    2.857 
#    0.000    2.143    0.000    0.000    0.000    5.000 
#    0.000    0.000    0.000    0.000    0.000    0.000 
#
# Total GULP energy -347034.589788 kJ/mol
# GULP energy per Si atom -12394.092492 kJ/mol
# Density = 1.885408 g / cm^3
# Si number density = 18.897090 Si / 1000 Ang^3
#
#
#
# Elastic Constant Matrix: (Units=GPa)
#
#
# Indices 1 2 3 4 5 6 
#
# 1 96.6882 26.2706 41.2904 0.0000 3.3662 0.0000
# 2 26.2706 82.8784 30.0338 0.0000 -3.7614 0.0000
# 3 41.2904 30.0338 129.1935 0.0000 1.4625 0.0000
# 4 0.0000 0.0000 0.0000 12.0956 0.0000 -7.6654
# 5 3.3662 -3.7614 1.4625 0.0000 38.6347 0.0000
# 6 0.0000 0.0000 0.0000 -7.6654 0.0000 7.8827
#
#
#
# Elastic Compliance Matrix: (Units=1/GPa)
#
#
# Indices 1 2 3 4 5 6 
#
# 1 0.012586 -0.002832 -0.003350 0.000000 -0.001246 0.000000
# 2 -0.002832 0.013889 -0.002343 0.000000 0.001688 0.000000
# 3 -0.003350 -0.002343 0.009359 0.000000 -0.000291 0.000000
# 4 0.000000 0.000000 0.000000 0.215445 0.000000 0.209506
# 5 -0.001246 0.001688 -0.000291 0.000000 0.026167 0.000000
# 6 0.000000 0.000000 0.000000 0.209506 0.000000 0.330592
#
#
# Mechanical properties :
#
#
# Convention : Reuss Voigt Hill
#
# Bulk Modulus (GPa) = 53.23588 55.99444 54.61516
# Shear Modulus (GPa) = 7.91955 25.80027 16.85991
#
# Velocity S-wave (km/s) = 2.04939 3.69901 2.99021
# Velocity P-wave (km/s) = 5.81658 6.92381 6.39421
#
# Compressibility (1/GPa) = 0.01878432
#
# Stress axis : x y z
#
# Youngs Moduli (GPa) = 79.45350 71.99868 106.84973
#
# Poissons Ratio (x) = 0.20390 0.35795
# Poissons Ratio (y) = 0.22501 0.25033
# Poissons Ratio (z) = 0.26617 0.16868
#
# Static dielectric constant tensor:
#      x y z
#    x 3.582350 0.000000 0.007810 
#    y 0.000000 3.241530 0.000000 
#    z 0.007810 0.000000 3.652540 
# 
# 
# High freq. dielectric constant tensor:
#      x y z
#    x 1.740040 0.000000 0.001430 
#    y 0.000000 1.704420 0.000000 
#    z 0.001430 0.000000 1.737110 
# 
# From -- ./inp_files/320902.got.cif
#   From: 2010.06.25/outbox.cif.g09.slc.cpg/sg12_161_cif.got.tgz:320902.got - 2010.06.28 00:19:55.
