data_PCOD8107506
_publ_section_title
;
Structure prediction by ZEFSAII (Michael W. Deem and Ramdas Pophale) SiO2 
 PCOD8107506
Probable space group: C 2/M
;
_chemical_formula_sum "Si O2"
_cell_formula_units_Z 48
_cell_length_a 34.304694
_cell_length_b 8.884419
_cell_length_c 18.968664
_cell_angle_alpha 90.000000
_cell_angle_beta 155.096858
_cell_angle_gamma 90.000000
_cell_volume 2434.387266
_symmetry_space_group_name_H-M "C 2/M"
_symmetry_group_IT_number 12
_symmetry_cell_setting 'monoclinic'
loop_
_space_group_symop_operation_xyz
x,y,z
-x,y,-z
-x,-y,-z
x,-y,z
1/2+x,1/2+y,z
1/2-x,1/2+y,-z
1/2-x,1/2-y,-z
1/2+x,1/2-y,z
loop_
_atom_site_type_symbol
_atom_site_label
_atom_site_fract_x
_atom_site_fract_y
_atom_site_fract_z
Si Si1 0.997325 0.668133 0.644277
Si Si2 0.442826 0.170298 0.704627
Si Si3 0.249440 0.320870 0.678555
Si Si4 0.942864 0.324625 0.976628
Si Si5 0.670633 0.827693 0.828813
Si Si6 0.828164 0.826373 0.318217
O O1 0.954720 0.500000 0.559251
O O2 0.084245 0.692382 0.738068
O O3 0.015470 0.679370 0.758123
O O4 0.928848 0.804524 0.516395
O O5 0.340742 0.237010 0.515057
O O6 0.495209 0.246403 0.857378
O O7 0.423363 0.000000 0.695565
O O8 0.250057 0.500000 0.681912
O O9 0.244755 0.258531 0.751122
O O10 0.345480 0.260228 0.804787
O O11 0.921306 0.500000 0.955217
O O12 0.000000 0.298571 0.000000
O O13 0.661017 0.743745 0.740326
O O14 0.692824 0.000000 0.849691
O O15 0.750000 0.750000 0.000000
O O16 0.800035 0.000000 0.266655
#
# Coordination Sequence:
#
# PCOD8107506 Si02
#       6
#     8   8   8   8   8   8
#     4   9  19  37  58  78 108 152 194 237 289 342
#     4   8  17  36  59  82 115 156 193 233 294 353
#     4  10  21  39  61  85 114 155 198 243 295 355
#     4  10  21  37  60  90 121 154 192 239 295 359
#     4  11  23  36  53  82 116 154 196 239 287 340
#     4  11  22  37  58  82 111 149 191 242 295 347
#
# _framework density 19.717487999999999
#
# number of rings (size 3 to 8) (size 9 to 14) (size 15 to 20)
#    0.000    2.167    0.000    4.000    2.333    4.333 
#    0.000    4.167    0.000    0.000    0.000    0.000 
#    0.000    0.000    0.000    0.000    0.000    0.000 
#
# Total GULP energy -297349.980914 kJ/mol
# GULP energy per Si atom -12389.582538 kJ/mol
# Density = 1.967261 g / cm^3
# Si number density = 19.717488 Si / 1000 Ang^3
#
#
#
# Elastic Constant Matrix: (Units=GPa)
#
#
# Indices 1 2 3 4 5 6 
#
# 1 97.4949 39.7288 27.9229 0.0000 -13.0754 0.0000
# 2 39.7288 85.2909 29.9351 0.0000 8.1289 0.0000
# 3 27.9229 29.9351 64.6764 0.0000 -8.9576 0.0000
# 4 0.0000 0.0000 0.0000 27.4296 0.0000 1.4601
# 5 -13.0754 8.1289 -8.9576 0.0000 28.4958 0.0000
# 6 0.0000 0.0000 0.0000 1.4601 0.0000 24.8911
#
#
#
# Elastic Compliance Matrix: (Units=1/GPa)
#
#
# Indices 1 2 3 4 5 6 
#
# 1 0.014751 -0.006927 -0.002040 0.000000 0.008103 0.000000
# 2 -0.006927 0.018426 -0.007011 0.000000 -0.010639 0.000000
# 3 -0.002040 -0.007011 0.020633 0.000000 0.007550 0.000000
# 4 0.000000 0.000000 0.000000 0.036571 0.000000 -0.002145
# 5 0.008103 -0.010639 0.007550 0.000000 0.044219 0.000000
# 6 0.000000 0.000000 0.000000 -0.002145 0.000000 0.040301
#
#
# Mechanical properties :
#
#
# Convention : Reuss Voigt Hill
#
# Bulk Modulus (GPa) = 45.75972 49.18175 47.47073
# Shear Modulus (GPa) = 23.34896 26.15500 24.75198
#
# Velocity S-wave (km/s) = 3.44492 3.64605 3.54691
# Velocity P-wave (km/s) = 6.25151 6.53623 6.39545
#
# Compressibility (1/GPa) = 0.02185328
#
# Stress axis : x y z
#
# Youngs Moduli (GPa) = 67.79286 54.27085 48.46614
#
# Poissons Ratio (x) = 0.37595 0.09886
# Poissons Ratio (y) = 0.46963 0.33980
# Poissons Ratio (z) = 0.13828 0.38050
#
# Static dielectric constant tensor:
#      x y z
#    x 3.596690 0.000000 -0.072620 
#    y 0.000000 3.409430 0.000000 
#    z -0.072620 0.000000 3.667250 
# 
# 
# High freq. dielectric constant tensor:
#      x y z
#    x 1.780620 0.000000 -0.001970 
#    y 0.000000 1.749280 0.000000 
#    z -0.001970 0.000000 1.763920 
# 
# From -- ./inp_files/295910.got.cif
#   From: 2010.06.25/outbox.cif.g09.slc.cpg/sg12_148_cif.got.tgz:295910.got - 2010.06.28 00:19:55.
