data_PCOD8107713
_publ_section_title
;
Structure prediction by ZEFSAII (Michael W. Deem and Ramdas Pophale) SiO2 
 PCOD8107713
Probable space group: C 2/M
;
_chemical_formula_sum "Si O2"
_cell_formula_units_Z 52
_cell_length_a 9.347727
_cell_length_b 29.124044
_cell_length_c 15.030322
_cell_angle_alpha 90.000000
_cell_angle_beta 139.599159
_cell_angle_gamma 90.000000
_cell_volume 2652.093498
_symmetry_space_group_name_H-M "C 2/M"
_symmetry_group_IT_number 12
_symmetry_cell_setting 'monoclinic'
loop_
_space_group_symop_operation_xyz
x,y,z
-x,y,-z
-x,-y,-z
x,-y,z
1/2+x,1/2+y,z
1/2-x,1/2+y,-z
1/2-x,1/2-y,-z
1/2+x,1/2-y,z
loop_
_atom_site_type_symbol
_atom_site_label
_atom_site_fract_x
_atom_site_fract_y
_atom_site_fract_z
Si Si1 0.035525 0.553856 0.413960
Si Si2 0.000000 0.710208 0.000000
Si Si3 0.939454 0.840528 0.203880
Si Si4 0.184152 0.245887 0.258147
Si Si5 0.327950 0.384940 0.842391
Si Si6 0.022172 0.308782 0.326772
Si Si7 0.884024 0.876760 0.539406
O O1 0.037128 0.500000 0.398881
O O2 0.843452 0.574408 0.260147
O O3 0.000000 0.567163 0.500000
O O4 0.275906 0.573012 0.499319
O O5 0.804843 0.675980 0.933332
O O6 0.952691 0.744374 0.896170
O O7 0.093551 0.795984 0.272727
O O8 0.020974 0.877815 0.172442
O O9 0.940325 0.864356 0.301231
O O10 0.436266 0.233693 0.348048
O O11 0.163805 0.291013 0.309586
O O12 0.193962 0.338393 0.805462
O O13 0.500000 0.399644 0.000000
O O14 0.183129 0.341059 0.458676
O O15 0.000000 0.873192 0.500000
#
# Coordination Sequence:
#
# PCOD8107713 Si02
#       7
#     8   4   8   8   8   8   8
#     4  10  21  43  72  95 122 154 193 244 307 380
#     4  12  22  36  52  80 115 166 219 248 298 346
#     4  11  23  37  58  81 122 162 207 257 299 349
#     4  11  22  37  55  78 114 164 211 258 291 347
#     4  10  21  37  64  93 125 157 200 250 304 358
#     4  10  23  38  56  82 120 162 210 250 300 343
#     4  11  24  43  61  90 121 155 202 251 310 363
#
# _framework density 19.607151999999999
#
# number of rings (size 3 to 8) (size 9 to 14) (size 15 to 20)
#    0.000    1.385    3.077    2.308    4.308    2.462 
#    2.769    0.000    0.000    0.000    0.000    2.154 
#    0.000    0.000    0.000    0.000    0.000    0.000 
#
# Total GULP energy -322373.068918 kJ/mol
# GULP energy per Si atom -12398.964189 kJ/mol
# Density = 1.956253 g / cm^3
# Si number density = 19.607152 Si / 1000 Ang^3
#
#
#
# Elastic Constant Matrix: (Units=GPa)
#
#
# Indices 1 2 3 4 5 6 
#
# 1 110.3794 43.2156 24.2705 0.0000 0.5291 0.0000
# 2 43.2156 86.5137 31.2469 0.0000 -2.3849 0.0000
# 3 24.2705 31.2469 57.6959 0.0000 0.8116 0.0000
# 4 0.0000 0.0000 0.0000 26.7404 0.0000 1.5401
# 5 0.5291 -2.3849 0.8116 0.0000 30.3970 0.0000
# 6 0.0000 0.0000 0.0000 1.5401 0.0000 27.1192
#
#
#
# Elastic Compliance Matrix: (Units=1/GPa)
#
#
# Indices 1 2 3 4 5 6 
#
# 1 0.011480 -0.004982 -0.002123 0.000000 -0.000534 0.000000
# 2 -0.004982 0.016586 -0.006909 0.000000 0.001573 0.000000
# 3 -0.002123 -0.006909 0.021983 0.000000 -0.001092 0.000000
# 4 0.000000 0.000000 0.000000 0.037519 0.000000 -0.002131
# 5 -0.000534 0.001573 -0.001092 0.000000 0.033060 0.000000
# 6 0.000000 0.000000 0.000000 -0.002131 0.000000 0.036995
#
#
# Mechanical properties :
#
#
# Convention : Reuss Voigt Hill
#
# Bulk Modulus (GPa) = 45.41437 50.22832 47.82135
# Shear Modulus (GPa) = 25.90777 27.24172 26.57475
#
# Velocity S-wave (km/s) = 3.63897 3.73148 3.68552
# Velocity P-wave (km/s) = 6.39285 6.65118 6.52330
#
# Compressibility (1/GPa) = 0.02201946
#
# Stress axis : x y z
#
# Youngs Moduli (GPa) = 87.11004 60.29046 45.49041
#
# Poissons Ratio (x) = 0.30038 0.09659
# Poissons Ratio (y) = 0.43400 0.31430
# Poissons Ratio (z) = 0.18496 0.41655
#
# Static dielectric constant tensor:
#      x y z
#    x 4.061520 0.000000 -0.011840 
#    y 0.000000 3.369730 0.000000 
#    z -0.011840 0.000000 3.483230 
# 
# 
# High freq. dielectric constant tensor:
#      x y z
#    x 1.775750 0.000000 -0.000260 
#    y 0.000000 1.738520 0.000000 
#    z -0.000260 0.000000 1.758840 
# 
# From -- ./inp_files/201374.got.cif
#   From: 2010.06.25/outbox.cif.g09.slc.cpg/sg12_101_cif.got.tgz:201374.got - 2010.06.28 00:19:55.
