data_PCOD8107817
_publ_section_title
;
Structure prediction by ZEFSAII (Michael W. Deem and Ramdas Pophale) SiO2 
 PCOD8107817
Probable space group: C 2/M
;
_chemical_formula_sum "Si O2"
_cell_formula_units_Z 52
_cell_length_a 21.149199
_cell_length_b 25.959712
_cell_length_c 5.154943
_cell_angle_alpha 90.000000
_cell_angle_beta 119.874262
_cell_angle_gamma 90.000000
_cell_volume 2454.127710
_symmetry_space_group_name_H-M "C 2/M"
_symmetry_group_IT_number 12
_symmetry_cell_setting 'monoclinic'
loop_
_space_group_symop_operation_xyz
x,y,z
-x,y,-z
-x,-y,-z
x,-y,z
1/2+x,1/2+y,z
1/2-x,1/2+y,-z
1/2-x,1/2-y,-z
1/2+x,1/2-y,z
loop_
_atom_site_type_symbol
_atom_site_label
_atom_site_fract_x
_atom_site_fract_y
_atom_site_fract_z
Si Si1 0.424286 0.655918 0.000129
Si Si2 0.660977 0.152192 0.057496
Si Si3 0.202058 0.212510 0.572838
Si Si4 0.604786 0.798742 0.465523
Si Si5 0.000000 0.768458 0.500000
Si Si6 0.342509 0.558726 0.997353
Si Si7 0.747766 0.057857 0.301038
O O1 0.356181 0.676805 0.697116
O O2 0.407596 0.599228 0.081313
O O3 0.500000 0.652471 0.000000
O O4 0.435135 0.695777 0.258662
O O5 0.742204 0.174742 0.167542
O O6 0.618413 0.178815 0.208656
O O7 0.674423 0.092049 0.137445
O O8 0.612347 0.157334 0.700025
O O9 0.250000 0.250000 0.500000
O O10 0.160184 0.253024 0.669256
O O11 0.527025 0.769770 0.323684
O O12 0.373591 0.500000 0.055802
O O13 0.281989 0.565941 0.653066
O O14 0.307091 0.571762 0.202281
O O15 0.720271 0.000000 0.203233
#
# Coordination Sequence:
#
# PCOD8107817 Si02
#       7
#     8   8   8   8   4   8   8
#     4  12  25  41  60  87 124 173 218 257 308 365
#     4  11  22  38  64  91 118 154 206 251 323 359
#     4  10  21  38  57  85 117 157 206 257 303 356
#     4  11  24  39  58  89 121 164 203 253 299 381
#     4  12  26  40  59  84 133 166 212 248 306 364
#     4  10  23  41  62  87 119 164 211 261 310 354
#     4  10  21  40  66  94 122 152 201 265 318 366
#
# _framework density 21.188793
#
# number of rings (size 3 to 8) (size 9 to 14) (size 15 to 20)
#    0.000    1.231    3.077    3.231    6.462    0.308 
#    0.000    0.385    0.000    0.000    0.000    3.231 
#    0.000    0.000    0.000    0.000    0.000    0.000 
#
# Total GULP energy -322202.324039 kJ/mol
# GULP energy per Si atom -12392.397078 kJ/mol
# Density = 2.114057 g / cm^3
# Si number density = 21.188793 Si / 1000 Ang^3
#
#
#
# Elastic Constant Matrix: (Units=GPa)
#
#
# Indices 1 2 3 4 5 6 
#
# 1 66.8029 42.9364 -2.2974 0.0000 -5.3738 0.0000
# 2 42.9364 109.6173 -0.3508 0.0000 13.3343 0.0000
# 3 -2.2974 -0.3508 49.5766 0.0000 -2.7260 0.0000
# 4 0.0000 0.0000 0.0000 30.4608 0.0000 5.5757
# 5 -5.3738 13.3343 -2.7260 0.0000 25.4466 0.0000
# 6 0.0000 0.0000 0.0000 5.5757 0.0000 34.2842
#
#
#
# Elastic Compliance Matrix: (Units=1/GPa)
#
#
# Indices 1 2 3 4 5 6 
#
# 1 0.022201 -0.009913 0.001511 0.000000 0.010045 0.000000
# 2 -0.009913 0.014172 -0.000888 0.000000 -0.009615 0.000000
# 3 0.001511 -0.000888 0.020398 0.000000 0.002969 0.000000
# 4 0.000000 0.000000 0.000000 0.033836 0.000000 -0.005503
# 5 0.010045 -0.009615 0.002969 0.000000 0.046776 0.000000
# 6 0.000000 0.000000 0.000000 -0.005503 0.000000 0.030063
#
#
# Mechanical properties :
#
#
# Convention : Reuss Voigt Hill
#
# Bulk Modulus (GPa) = 26.18397 34.06371 30.12384
# Shear Modulus (GPa) = 25.15652 30.41890 27.78771
#
# Velocity S-wave (km/s) = 3.44940 3.79306 3.62530
# Velocity P-wave (km/s) = 5.31495 5.94090 5.63662
#
# Compressibility (1/GPa) = 0.03819130
#
# Stress axis : x y z
#
# Youngs Moduli (GPa) = 45.04353 70.56048 49.02484
#
# Poissons Ratio (x) = 0.69946 -0.07407
# Poissons Ratio (y) = 0.44651 0.04352
# Poissons Ratio (z) = -0.06806 0.06264
#
# Static dielectric constant tensor:
#      x y z
#    x 3.926590 0.000000 -0.039460 
#    y 0.000000 4.205100 0.000000 
#    z -0.039460 0.000000 3.640920 
# 
# 
# High freq. dielectric constant tensor:
#      x y z
#    x 1.822410 0.000000 -0.018450 
#    y 0.000000 1.835410 0.000000 
#    z -0.018450 0.000000 1.817170 
# 
# From -- ./inp_files/21970.got.cif
#   From: 2010.06.25/outbox.cif.g09.slc.cpg/sg12_11_cif.got.tgz:21970.got - 2010.06.28 00:19:55.
