data_PCOD8107047
_publ_section_title
;
Structure prediction by ZEFSAII (Michael W. Deem and Ramdas Pophale) SiO2 
 PCOD8107047
Probable space group: C 2/M
;
_chemical_formula_sum "Si O2"
_cell_formula_units_Z 64
_cell_length_a 18.568336
_cell_length_b 8.858701
_cell_length_c 20.183984
_cell_angle_alpha 90.000000
_cell_angle_beta 90.130662
_cell_angle_gamma 90.000000
_cell_volume 3320.081875
_symmetry_space_group_name_H-M "C 2/M"
_symmetry_group_IT_number 12
_symmetry_cell_setting 'monoclinic'
loop_
_space_group_symop_operation_xyz
x,y,z
-x,y,-z
-x,-y,-z
x,-y,z
1/2+x,1/2+y,z
1/2-x,1/2+y,-z
1/2-x,1/2-y,-z
1/2+x,1/2-y,z
loop_
_atom_site_type_symbol
_atom_site_label
_atom_site_fract_x
_atom_site_fract_y
_atom_site_fract_z
Si Si1 0.327638 0.175216 0.928942
Si Si2 0.413379 0.323327 0.192880
Si Si3 0.667558 0.320656 0.302045
Si Si4 0.925324 0.821213 0.577733
Si Si5 0.579037 0.323123 0.175056
Si Si6 0.087579 0.178596 0.570639
Si Si7 0.821121 0.324806 0.082004
Si Si8 0.330150 0.178728 0.312813
O O1 0.397765 0.232146 0.890292
O O2 0.259169 0.268216 0.902567
O O3 0.313032 0.000000 0.915684
O O4 0.341683 0.206528 0.006153
O O5 0.400183 0.500000 0.200284
O O6 0.497171 0.282786 0.190808
O O7 0.377723 0.266348 0.125450
O O8 0.381109 0.242729 0.256411
O O9 0.665022 0.500000 0.306147
O O10 0.626438 0.251767 0.366023
O O11 0.627650 0.264838 0.235947
O O12 0.749162 0.261129 0.300926
O O13 0.897000 0.772661 0.505213
O O14 0.007192 0.766938 0.590007
O O15 0.925807 0.000000 0.581309
O O16 0.589418 0.500000 0.161787
O O17 0.144752 0.265297 0.615534
O O18 0.096265 0.000000 0.580968
O O19 0.824936 0.500000 0.101012
O O20 0.332728 0.000000 0.310256
#
# Coordination Sequence:
#
# PCOD8107047 Si02
#       8
#     8   8   8   8   8   8   8   8
#     4  10  21  37  59  85 113 147 185 223 266 325
#     4  11  23  38  58  82 107 141 188 235 276 327
#     4   9  18  33  52  75 104 139 178 219 269 327
#     4   8  15  31  55  78 101 136 181 222 263 318
#     4  10  21  37  58  81 107 142 184 232 281 328
#     4   9  17  32  56  80 102 135 179 224 267 319
#     4  10  21  38  59  83 114 149 182 222 274 325
#     4  11  22  34  52  78 109 144 177 219 278 335
#
# _framework density 19.276633
#
# number of rings (size 3 to 8) (size 9 to 14) (size 15 to 20)
#    0.000    2.250    0.000    3.750    0.000    6.500 
#    0.000    4.375    0.000    3.000    0.000    0.000 
#    0.000    0.000    0.000    0.000    0.000    0.000 
#
# Total GULP energy -396882.149917 kJ/mol
# GULP energy per Si atom -12402.567185 kJ/mol
# Density = 1.923276 g / cm^3
# Si number density = 19.276633 Si / 1000 Ang^3
#
#
#
# Elastic Constant Matrix: (Units=GPa)
#
#
# Indices 1 2 3 4 5 6 
#
# 1 88.9032 22.3362 39.0525 0.0000 2.3488 0.0000
# 2 22.3362 35.5283 19.0555 0.0000 -2.7350 0.0000
# 3 39.0525 19.0555 89.9426 0.0000 -4.4107 0.0000
# 4 0.0000 0.0000 0.0000 26.0331 0.0000 4.9654
# 5 2.3488 -2.7350 -4.4107 0.0000 41.4081 0.0000
# 6 0.0000 0.0000 0.0000 4.9654 0.0000 27.8934
#
#
#
# Elastic Compliance Matrix: (Units=1/GPa)
#
#
# Indices 1 2 3 4 5 6 
#
# 1 0.015375 -0.006974 -0.005291 0.000000 -0.001896 0.000000
# 2 -0.006974 0.034998 -0.004276 0.000000 0.002252 0.000000
# 3 -0.005291 -0.004276 0.014398 0.000000 0.001551 0.000000
# 4 0.000000 0.000000 0.000000 0.039763 0.000000 -0.007078
# 5 -0.001896 0.002252 0.001551 0.000000 0.024571 0.000000
# 6 0.000000 0.000000 0.000000 -0.007078 0.000000 0.037111
#
#
# Mechanical properties :
#
#
# Convention : Reuss Voigt Hill
#
# Bulk Modulus (GPa) = 31.55813 41.69582 36.62698
# Shear Modulus (GPa) = 23.82538 27.99557 25.91048
#
# Velocity S-wave (km/s) = 3.51945 3.81505 3.67023
# Velocity P-wave (km/s) = 5.73778 6.40963 6.08299
#
# Compressibility (1/GPa) = 0.03168756
#
# Stress axis : x y z
#
# Youngs Moduli (GPa) = 65.04214 28.57313 69.45604
#
# Poissons Ratio (x) = 0.19927 0.36749
# Poissons Ratio (y) = 0.45360 0.29701
# Poissons Ratio (z) = 0.34414 0.12219
#
# Static dielectric constant tensor:
#      x y z
#    x 3.643740 0.000000 -0.052530 
#    y 0.000000 3.270960 0.000000 
#    z -0.052530 0.000000 3.716330 
# 
# 
# High freq. dielectric constant tensor:
#      x y z
#    x 1.753530 0.000000 -0.001320 
#    y 0.000000 1.727030 0.000000 
#    z -0.001320 0.000000 1.764620 
# 
# From -- ./inp_files/314072.got.cif
#   From: 2010.06.25/outbox.cif.g09.slc.cpg/sg12_158_cif.got.tgz:314072.got - 2010.06.28 00:19:55.
