data_PCOD8107680
_publ_section_title
;
Structure prediction by ZEFSAII (Michael W. Deem and Ramdas Pophale) SiO2 
 PCOD8107680
Probable space group: C 2/M
;
_chemical_formula_sum "Si O2"
_cell_formula_units_Z 64
_cell_length_a 17.601571
_cell_length_b 29.572162
_cell_length_c 8.658822
_cell_angle_alpha 90.000000
_cell_angle_beta 136.236672
_cell_angle_gamma 90.000000
_cell_volume 3117.447952
_symmetry_space_group_name_H-M "C 2/M"
_symmetry_group_IT_number 12
_symmetry_cell_setting 'monoclinic'
loop_
_space_group_symop_operation_xyz
x,y,z
-x,y,-z
-x,-y,-z
x,-y,z
1/2+x,1/2+y,z
1/2-x,1/2+y,-z
1/2-x,1/2-y,-z
1/2+x,1/2-y,z
loop_
_atom_site_type_symbol
_atom_site_label
_atom_site_fract_x
_atom_site_fract_y
_atom_site_fract_z
Si Si1 0.699726 0.680795 0.592117
Si Si2 0.789740 0.199038 0.041943
Si Si3 0.077376 0.675205 0.234920
Si Si4 0.379599 0.864763 0.384834
Si Si5 0.498463 0.270252 0.821645
Si Si6 0.399474 0.602063 0.756048
Si Si7 0.468891 0.448709 0.295017
Si Si8 0.241240 0.052807 0.196410
O O1 0.700809 0.674251 0.778982
O O2 0.818961 0.695711 0.705914
O O3 0.616528 0.720623 0.430978
O O4 0.661461 0.636120 0.447006
O O5 0.907194 0.202393 0.130171
O O6 0.750000 0.250000 0.000000
O O7 0.707945 0.169674 0.816967
O O8 0.119064 0.642711 0.429785
O O9 0.997451 0.715622 0.179759
O O10 0.000000 0.647470 0.000000
O O11 0.500000 0.854508 0.500000
O O12 0.347864 0.917263 0.308520
O O13 0.500000 0.287404 0.000000
O O14 0.456391 0.564547 0.737142
O O15 0.311488 0.576123 0.731181
O O16 0.500000 0.625651 0.000000
O O17 0.500000 0.422283 0.500000
O O18 0.498804 0.500000 0.364862
O O19 0.340793 0.442059 0.068460
O O20 0.271614 0.000000 0.271036
#
# Coordination Sequence:
#
# PCOD8107680 Si02
#       8
#     8   8   8   8   8   8   8   8
#     4  12  23  38  63  95 125 167 212 267 317 381
#     4  12  26  43  63  95 132 172 217 268 324 389
#     4  11  23  44  64  88 123 174 217 261 319 386
#     4  12  25  43  67  92 128 173 220 274 325 391
#     4  11  23  39  64  92 130 168 212 265 319 387
#     4  10  21  37  63  93 129 165 210 263 325 389
#     4   9  19  35  61  95 135 169 201 255 326 397
#     4  10  22  42  66  95 129 172 218 267 330 394
#
# _framework density 20.529613000000001
#
# number of rings (size 3 to 8) (size 9 to 14) (size 15 to 20)
#    0.000    1.125    1.250    6.000    5.250    1.750 
#    0.000    0.000    0.000    0.375    0.000    0.000 
#    0.000    0.000    0.000    0.000    0.000    0.000 
#
# Total GULP energy -396647.659265 kJ/mol
# GULP energy per Si atom -12395.239352 kJ/mol
# Density = 2.048289 g / cm^3
# Si number density = 20.529613 Si / 1000 Ang^3
#
#
#
# Elastic Constant Matrix: (Units=GPa)
#
#
# Indices 1 2 3 4 5 6 
#
# 1 91.9843 25.1707 36.1049 0.0000 -0.7200 0.0000
# 2 25.1707 102.0272 56.2517 0.0000 -2.1824 0.0000
# 3 36.1049 56.2517 133.3779 0.0000 -15.4597 0.0000
# 4 0.0000 0.0000 0.0000 28.8862 0.0000 0.8856
# 5 -0.7200 -2.1824 -15.4597 0.0000 42.1830 0.0000
# 6 0.0000 0.0000 0.0000 0.8856 0.0000 23.5868
#
#
#
# Elastic Compliance Matrix: (Units=1/GPa)
#
#
# Indices 1 2 3 4 5 6 
#
# 1 0.012386 -0.001523 -0.002815 0.000000 -0.000899 0.000000
# 2 -0.001523 0.013035 -0.005232 0.000000 -0.001269 0.000000
# 3 -0.002815 -0.005232 0.010892 0.000000 0.003673 0.000000
# 4 0.000000 0.000000 0.000000 0.034659 0.000000 -0.001301
# 5 -0.000899 -0.001269 0.003673 0.000000 0.024971 0.000000
# 6 0.000000 0.000000 0.000000 -0.001301 0.000000 0.042445
#
#
# Mechanical properties :
#
#
# Convention : Reuss Voigt Hill
#
# Bulk Modulus (GPa) = 58.23232 62.49378 60.36305
# Shear Modulus (GPa) = 30.62758 32.92201 31.77480
#
# Velocity S-wave (km/s) = 3.86667 4.00889 3.93842
# Velocity P-wave (km/s) = 6.95424 7.20660 7.08154
#
# Compressibility (1/GPa) = 0.01717259
#
# Stress axis : x y z
#
# Youngs Moduli (GPa) = 80.73664 76.71902 91.81234
#
# Poissons Ratio (x) = 0.11685 0.25842
# Poissons Ratio (y) = 0.12297 0.48037
# Poissons Ratio (z) = 0.22725 0.40140
#
# Static dielectric constant tensor:
#      x y z
#    x 3.892060 0.000000 -0.184850 
#    y 0.000000 3.559010 0.000000 
#    z -0.184850 0.000000 4.290480 
# 
# 
# High freq. dielectric constant tensor:
#      x y z
#    x 1.804860 0.000000 -0.006910 
#    y 0.000000 1.785280 0.000000 
#    z -0.006910 0.000000 1.820680 
# 
# From -- ./inp_files/80784.got.cif
#   From: 2010.06.25/outbox.cif.g09.slc.cpg/sg12_41_cif.got.tgz:80784.got - 2010.06.28 00:19:55.
