data_PCOD8107463
_publ_section_title
;
Structure prediction by ZEFSAII (Michael W. Deem and Ramdas Pophale) SiO2 
 PCOD8107463
Probable space group: C 2/M
;
_chemical_formula_sum "Si O2"
_cell_formula_units_Z 64
_cell_length_a 29.897485
_cell_length_b 14.153531
_cell_length_c 21.047544
_cell_angle_alpha 90.000000
_cell_angle_beta 159.266007
_cell_angle_gamma 90.000000
_cell_volume 3153.121220
_symmetry_space_group_name_H-M "C 2/M"
_symmetry_group_IT_number 12
_symmetry_cell_setting 'monoclinic'
loop_
_space_group_symop_operation_xyz
x,y,z
-x,y,-z
-x,-y,-z
x,-y,z
1/2+x,1/2+y,z
1/2-x,1/2+y,-z
1/2-x,1/2-y,-z
1/2+x,1/2-y,z
loop_
_atom_site_type_symbol
_atom_site_label
_atom_site_fract_x
_atom_site_fract_y
_atom_site_fract_z
Si Si1 0.350334 0.601349 0.133730
Si Si2 0.058276 0.100706 0.885356
Si Si3 0.465053 0.107326 0.884061
Si Si4 0.065651 0.389171 0.779650
Si Si5 0.866990 0.109841 0.356369
Si Si6 0.076352 0.770248 0.453674
Si Si7 0.796433 0.822680 0.507888
Si Si8 0.873621 0.304720 0.009195
O O1 0.361660 0.500000 0.185869
O O2 0.398343 0.584169 0.127677
O O3 0.442885 0.676506 0.287387
O O4 0.205408 0.633863 0.940166
O O5 0.906843 0.116557 0.687474
O O6 0.086035 0.000000 0.958734
O O7 0.137365 0.191202 0.014659
O O8 0.318708 0.113693 0.669922
O O9 0.509676 0.000000 0.939236
O O10 0.500000 0.147667 0.000000
O O11 0.548934 0.166214 0.948472
O O12 0.035639 0.500000 0.745902
O O13 0.964435 0.340851 0.596478
O O14 0.049682 0.334361 0.825717
O O15 0.841006 0.183527 0.380154
O O16 0.760210 0.140753 0.163877
O O17 0.000000 0.126520 0.500000
O O18 0.849738 0.000000 0.354727
O O19 0.147280 0.776678 0.481052
O O20 0.750000 0.750000 0.500000
#
# Coordination Sequence:
#
# PCOD8107463 Si02
#       8
#     8   8   8   8   8   8   8   8
#     4   9  18  32  56  86 115 150 196 240 292 356
#     4  10  21  37  60  88 118 157 204 254 300 356
#     4  11  23  38  60  89 122 158 197 248 310 366
#     4  11  21  35  59  89 121 157 199 248 303 361
#     4  11  25  41  62  93 129 167 202 246 315 385
#     4  11  21  36  58  85 123 160 201 250 306 367
#     4  11  20  38  60  89 121 160 206 257 308 359
#     4  12  22  40  62  88 125 157 204 254 307 366
#
# _framework density 20.297348
#
# number of rings (size 3 to 8) (size 9 to 14) (size 15 to 20)
#    0.000    1.250    3.750    3.750    1.750    4.500 
#    0.000    1.250    0.000    1.125    0.000    0.000 
#    0.000    0.000    0.000    0.000    0.000    0.000 
#
# Total GULP energy -396423.051623 kJ/mol
# GULP energy per Si atom -12388.220363 kJ/mol
# Density = 2.025115 g / cm^3
# Si number density = 20.297348 Si / 1000 Ang^3
#
#
#
# Elastic Constant Matrix: (Units=GPa)
#
#
# Indices 1 2 3 4 5 6 
#
# 1 49.5777 40.6142 12.2238 0.0000 1.4512 0.0000
# 2 40.6142 141.2002 33.1416 0.0000 0.8831 0.0000
# 3 12.2238 33.1416 63.2167 0.0000 1.0435 0.0000
# 4 0.0000 0.0000 0.0000 47.6658 0.0000 0.6622
# 5 1.4512 0.8831 1.0435 0.0000 23.9486 0.0000
# 6 0.0000 0.0000 0.0000 0.6622 0.0000 20.7447
#
#
#
# Elastic Compliance Matrix: (Units=1/GPa)
#
#
# Indices 1 2 3 4 5 6 
#
# 1 0.026519 -0.007322 -0.001268 0.000000 -0.001282 0.000000
# 2 -0.007322 0.010098 -0.003882 0.000000 0.000240 0.000000
# 3 -0.001268 -0.003882 0.018108 0.000000 -0.000569 0.000000
# 4 0.000000 0.000000 0.000000 0.020989 0.000000 -0.000670
# 5 -0.001282 0.000240 -0.000569 0.000000 0.041850 0.000000
# 6 0.000000 0.000000 0.000000 -0.000670 0.000000 0.048227
#
#
# Mechanical properties :
#
#
# Convention : Reuss Voigt Hill
#
# Bulk Modulus (GPa) = 33.57861 47.32820 40.45341
# Shear Modulus (GPa) = 24.91764 29.67281 27.29522
#
# Velocity S-wave (km/s) = 3.50756 3.82764 3.67109
# Velocity P-wave (km/s) = 5.74310 6.55000 6.15977
#
# Compressibility (1/GPa) = 0.02978086
#
# Stress axis : x y z
#
# Youngs Moduli (GPa) = 37.70909 99.03043 55.22316
#
# Poissons Ratio (x) = 0.72511 0.07002
# Poissons Ratio (y) = 0.27611 0.21438
# Poissons Ratio (z) = 0.04781 0.38444
#
# Static dielectric constant tensor:
#      x y z
#    x 3.706290 0.000000 -0.035440 
#    y 0.000000 4.236500 0.000000 
#    z -0.035440 0.000000 4.294320 
# 
# 
# High freq. dielectric constant tensor:
#      x y z
#    x 1.788590 0.000000 0.022130 
#    y 0.000000 1.796930 0.000000 
#    z 0.022130 0.000000 1.778620 
# 
# From -- ./inp_files/330391.got.cif
#   From: 2010.06.25/outbox.cif.g09.slc.cpg/sg12_166_cif.got.tgz:330391.got - 2010.06.28 00:19:55.
