data_PCOD8107602
_publ_section_title
;
Structure prediction by ZEFSAII (Michael W. Deem and Ramdas Pophale) SiO2 
 PCOD8107602
Probable space group: C 2/M
;
_chemical_formula_sum "Si O2"
_cell_formula_units_Z 36
_cell_length_a 23.416330
_cell_length_b 9.711140
_cell_length_c 7.674192
_cell_angle_alpha 90.000000
_cell_angle_beta 109.704321
_cell_angle_gamma 90.000000
_cell_volume 1642.921126
_symmetry_space_group_name_H-M "C 2/M"
_symmetry_group_IT_number 12
_symmetry_cell_setting 'monoclinic'
loop_
_space_group_symop_operation_xyz
x,y,z
-x,y,-z
-x,-y,-z
x,-y,z
1/2+x,1/2+y,z
1/2-x,1/2+y,-z
1/2-x,1/2-y,-z
1/2+x,1/2-y,z
loop_
_atom_site_type_symbol
_atom_site_label
_atom_site_fract_x
_atom_site_fract_y
_atom_site_fract_z
Si Si1 0.000000 0.751361 0.000000
Si Si2 0.125187 0.654240 0.243081
Si Si3 0.270683 0.660728 0.685404
Si Si4 0.045781 0.154613 0.693002
Si Si5 0.857621 0.345014 0.337978
O O1 0.013932 0.846263 0.848161
O O2 0.942405 0.655721 0.901653
O O3 0.151808 0.500000 0.246494
O O4 0.167660 0.765260 0.183362
O O5 0.124450 0.693651 0.445884
O O6 0.283347 0.500000 0.651372
O O7 0.250000 0.750000 0.500000
O O8 0.215163 0.670105 0.766034
O O9 0.106688 0.246083 0.757146
O O10 0.000000 0.214185 0.500000
O O11 0.064697 0.000000 0.663252
O O12 0.878134 0.500000 0.315612
#
# Coordination Sequence:
#
# PCOD8107602 Si02
#       5
#     4   8   8   8   8
#     4  12  24  42  62  92 128 166 208 260 308 376
#     4  10  21  37  61  93 126 165 210 256 311 369
#     4   9  18  34  59  91 125 163 208 257 310 368
#     4  11  24  41  62  91 124 164 208 256 312 369
#     4   9  19  38  62  90 122 162 207 253 307 371
#
# _framework density 21.912189000000001
#
# number of rings (size 3 to 8) (size 9 to 14) (size 15 to 20)
#    0.000    2.000    2.222    2.667    0.000    8.444 
#    0.000    1.111    0.000    0.000    0.000    0.000 
#    0.000    0.000    0.000    0.000    0.000    0.000 
#
# Total GULP energy -223130.798215 kJ/mol
# GULP energy per Si atom -12396.155456 kJ/mol
# Density = 2.186232 g / cm^3
# Si number density = 21.912189 Si / 1000 Ang^3
#
#
#
# Elastic Constant Matrix: (Units=GPa)
#
#
# Indices 1 2 3 4 5 6 
#
# 1 152.5041 83.5043 45.5291 0.0000 8.9361 0.0000
# 2 83.5043 144.7439 18.8217 0.0000 3.4536 0.0000
# 3 45.5291 18.8217 62.9317 0.0000 1.7312 0.0000
# 4 0.0000 0.0000 0.0000 9.9583 0.0000 -0.6617
# 5 8.9361 3.4536 1.7312 0.0000 36.1603 0.0000
# 6 0.0000 0.0000 0.0000 -0.6617 0.0000 39.8387
#
#
#
# Elastic Compliance Matrix: (Units=1/GPa)
#
#
# Indices 1 2 3 4 5 6 
#
# 1 0.011992 -0.005981 -0.006830 0.000000 -0.002065 0.000000
# 2 -0.005981 0.010184 0.001269 0.000000 0.000445 0.000000
# 3 -0.006830 0.001269 0.020436 0.000000 0.000588 0.000000
# 4 0.000000 0.000000 0.000000 0.100530 0.000000 0.001670
# 5 -0.002065 0.000445 0.000588 0.000000 0.028094 0.000000
# 6 0.000000 0.000000 0.000000 0.001670 0.000000 0.025129
#
#
# Mechanical properties :
#
#
# Convention : Reuss Voigt Hill
#
# Bulk Modulus (GPa) = 51.21024 72.87665 62.04345
# Shear Modulus (GPa) = 22.12793 31.34645 26.73719
#
# Velocity S-wave (km/s) = 3.18125 3.78636 3.49692
# Velocity P-wave (km/s) = 6.07579 7.24197 6.68436
#
# Compressibility (1/GPa) = 0.01952734
#
# Stress axis : x y z
#
# Youngs Moduli (GPa) = 83.38661 98.19678 48.93306
#
# Poissons Ratio (x) = 0.58732 0.33423
# Poissons Ratio (y) = 0.49874 -0.06210
# Poissons Ratio (z) = 0.56957 -0.12462
#
# Static dielectric constant tensor:
#      x y z
#    x 4.345760 0.000000 0.269260 
#    y 0.000000 3.885220 0.000000 
#    z 0.269260 0.000000 3.663810 
# 
# 
# High freq. dielectric constant tensor:
#      x y z
#    x 1.867790 0.000000 0.011740 
#    y 0.000000 1.860640 0.000000 
#    z 0.011740 0.000000 1.831740 
# 
# From -- ./inp_files/92631.got.cif
#   From: 2010.06.25/outbox.cif.g09.slc.cpg/sg12_47_cif.got.tgz:92631.got - 2010.06.28 00:19:55.
