data_PCOD8107353
_publ_section_title
;
Structure prediction by ZEFSAII (Michael W. Deem and Ramdas Pophale) SiO2 
 PCOD8107353
Probable space group: C 2/M
;
_chemical_formula_sum "Si O2"
_cell_formula_units_Z 56
_cell_length_a 22.974823
_cell_length_b 8.874932
_cell_length_c 14.490371
_cell_angle_alpha 90.000000
_cell_angle_beta 69.019054
_cell_angle_gamma 90.000000
_cell_volume 2758.696118
_symmetry_space_group_name_H-M "C 2/M"
_symmetry_group_IT_number 12
_symmetry_cell_setting 'monoclinic'
loop_
_space_group_symop_operation_xyz
x,y,z
-x,y,-z
-x,-y,-z
x,-y,z
1/2+x,1/2+y,z
1/2-x,1/2+y,-z
1/2-x,1/2-y,-z
1/2+x,1/2-y,z
loop_
_atom_site_type_symbol
_atom_site_label
_atom_site_fract_x
_atom_site_fract_y
_atom_site_fract_z
Si Si1 0.840069 0.829410 0.143479
Si Si2 0.170391 0.677654 0.465659
Si Si3 0.058355 0.323649 0.402631
Si Si4 0.942756 0.323127 0.969314
Si Si5 0.189404 0.822758 0.638953
Si Si6 0.718752 0.171851 0.104163
Si Si7 0.912425 0.178393 0.798640
O O1 0.846078 0.778767 0.246535
O O2 0.766870 0.822506 0.161384
O O3 0.864815 0.000000 0.114666
O O4 0.878433 0.717963 0.056649
O O5 0.166129 0.500000 0.477234
O O6 0.120692 0.734149 0.418662
O O7 0.152930 0.745104 0.575701
O O8 0.238938 0.734433 0.397283
O O9 0.062652 0.500000 0.376482
O O10 0.049901 0.232331 0.312619
O O11 0.000000 0.286704 0.500000
O O12 0.944530 0.500000 0.950067
O O13 0.947665 0.239229 0.869060
O O14 0.000000 0.269105 0.000000
O O15 0.188697 0.000000 0.624042
O O16 0.657333 0.259062 0.168804
O O17 0.701015 0.000000 0.089283
O O18 0.750000 0.250000 0.000000
O O19 0.910440 0.000000 0.804938
#
# Coordination Sequence:
#
# PCOD8107353 Si02
#       7
#     8   8   8   8   8   8   8
#     4  10  21  37  59  88 121 157 196 242 300 361
#     4   9  18  35  57  83 114 150 190 238 294 350
#     4  10  22  41  64  87 116 156 202 252 304 359
#     4  11  25  43  62  84 115 157 203 249 297 358
#     4   9  18  33  55  83 116 151 186 233 292 351
#     4  11  21  36  61  92 125 159 199 247 302 361
#     4  12  25  41  63  91 123 161 201 251 310 363
#
# _framework density 20.299444000000001
#
# number of rings (size 3 to 8) (size 9 to 14) (size 15 to 20)
#    0.000    1.714    1.429    3.000    0.000    6.571 
#    0.000    7.143    0.000    0.000    0.000    0.000 
#    0.000    0.000    0.000    0.000    0.000    0.000 
#
# Total GULP energy -347303.382122 kJ/mol
# GULP energy per Si atom -12403.692219 kJ/mol
# Density = 2.025324 g / cm^3
# Si number density = 20.299444 Si / 1000 Ang^3
#
#
#
# Elastic Constant Matrix: (Units=GPa)
#
#
# Indices 1 2 3 4 5 6 
#
# 1 93.3714 40.7337 45.7310 0.0000 13.0889 0.0000
# 2 40.7337 98.0986 59.9249 0.0000 8.0977 0.0000
# 3 45.7310 59.9249 143.2862 0.0000 20.0908 0.0000
# 4 0.0000 0.0000 0.0000 36.7912 0.0000 1.8729
# 5 13.0889 8.0977 20.0908 0.0000 30.1266 0.0000
# 6 0.0000 0.0000 0.0000 1.8729 0.0000 26.8962
#
#
#
# Elastic Compliance Matrix: (Units=1/GPa)
#
#
# Indices 1 2 3 4 5 6 
#
# 1 0.014143 -0.004199 -0.002266 0.000000 -0.003505 0.000000
# 2 -0.004199 0.014939 -0.005075 0.000000 0.001193 0.000000
# 3 -0.002266 -0.005075 0.010475 0.000000 -0.004637 0.000000
# 4 0.000000 0.000000 0.000000 0.027277 0.000000 -0.001899
# 5 -0.003505 0.001193 -0.004637 0.000000 0.037487 0.000000
# 6 0.000000 0.000000 0.000000 -0.001899 0.000000 0.037312
#
#
# Mechanical properties :
#
#
# Convention : Reuss Voigt Hill
#
# Bulk Modulus (GPa) = 60.69268 69.72615 65.20941
# Shear Modulus (GPa) = 29.37613 31.32056 30.34835
#
# Velocity S-wave (km/s) = 3.80826 3.93227 3.87076
# Velocity P-wave (km/s) = 7.02144 7.41892 7.22292
#
# Compressibility (1/GPa) = 0.01647645
#
# Stress axis : x y z
#
# Youngs Moduli (GPa) = 70.70635 66.93921 95.46573
#
# Poissons Ratio (x) = 0.28107 0.21637
# Poissons Ratio (y) = 0.29689 0.48448
# Poissons Ratio (z) = 0.16025 0.33971
#
# Static dielectric constant tensor:
#      x y z
#    x 3.825320 0.000000 0.152850 
#    y 0.000000 3.601560 0.000000 
#    z 0.152850 0.000000 3.687370 
# 
# 
# High freq. dielectric constant tensor:
#      x y z
#    x 1.788260 0.000000 0.011700 
#    y 0.000000 1.786040 0.000000 
#    z 0.011700 0.000000 1.802720 
# 
# From -- ./inp_files/237361.got.cif
#   From: 2010.06.25/outbox.cif.g09.slc.cpg/sg12_119_cif.got.tgz:237361.got - 2010.06.28 00:19:55.
