data_PCOD8107283
_publ_section_title
;
Structure prediction by ZEFSAII (Michael W. Deem and Ramdas Pophale) SiO2 
 PCOD8107283
Probable space group: C 2/M
;
_chemical_formula_sum "Si O2"
_cell_formula_units_Z 56
_cell_length_a 18.498211
_cell_length_b 8.570657
_cell_length_c 18.438502
_cell_angle_alpha 90.000000
_cell_angle_beta 69.051138
_cell_angle_gamma 90.000000
_cell_volume 2730.045033
_symmetry_space_group_name_H-M "C 2/M"
_symmetry_group_IT_number 12
_symmetry_cell_setting 'monoclinic'
loop_
_space_group_symop_operation_xyz
x,y,z
-x,y,-z
-x,-y,-z
x,-y,z
1/2+x,1/2+y,z
1/2-x,1/2+y,-z
1/2-x,1/2-y,-z
1/2+x,1/2-y,z
loop_
_atom_site_type_symbol
_atom_site_label
_atom_site_fract_x
_atom_site_fract_y
_atom_site_fract_z
Si Si1 0.217187 0.680724 0.939070
Si Si2 0.433172 0.327553 0.967317
Si Si3 0.577151 0.183112 0.515580
Si Si4 0.476237 0.685159 0.794120
Si Si5 0.677577 0.314570 0.225978
Si Si6 0.214524 0.815575 0.373242
Si Si7 0.619577 0.683721 0.651197
O O1 0.233595 0.500000 0.932764
O O2 0.260183 0.753804 0.853743
O O3 0.250000 0.750000 0.000000
O O4 0.126756 0.716676 0.970043
O O5 0.397246 0.500000 0.964421
O O6 0.462136 0.252356 0.881000
O O7 0.500000 0.346160 0.000000
O O8 0.500000 0.234843 0.500000
O O9 0.654020 0.223833 0.443907
O O10 0.579428 0.278820 0.589192
O O11 0.575783 0.000000 0.533044
O O12 0.476007 0.500000 0.794652
O O13 0.407518 0.747012 0.766438
O O14 0.559346 0.742175 0.734664
O O15 0.679185 0.500000 0.226022
O O16 0.701010 0.252658 0.296625
O O17 0.301062 0.777365 0.367877
O O18 0.200410 0.000000 0.385641
O O19 0.636326 0.500000 0.650527
#
# Coordination Sequence:
#
# PCOD8107283 Si02
#       7
#     8   8   8   8   8   8   8
#     4  11  21  37  60  86 118 157 201 251 301 353
#     4  10  21  37  59  85 119 159 200 248 301 353
#     4  11  24  43  66  92 123 154 192 244 295 347
#     4   9  18  36  58  83 116 155 199 245 292 349
#     4   9  19  36  59  84 115 154 198 248 298 349
#     4  11  23  40  63  90 121 158 198 242 295 352
#     4  11  23  39  63  91 122 159 199 241 291 352
#
# _framework density 20.512481999999999
#
# number of rings (size 3 to 8) (size 9 to 14) (size 15 to 20)
#    0.000    1.714    1.429    3.000    2.000    2.571 
#    0.000    3.571    0.000    0.000    0.000    0.000 
#    0.000    0.000    0.000    0.000    0.000    0.000 
#
# Total GULP energy -347196.230410 kJ/mol
# GULP energy per Si atom -12399.865372 kJ/mol
# Density = 2.046580 g / cm^3
# Si number density = 20.512482 Si / 1000 Ang^3
#
#
#
# Elastic Constant Matrix: (Units=GPa)
#
#
# Indices 1 2 3 4 5 6 
#
# 1 116.4448 7.2947 37.5521 0.0000 -8.9296 0.0000
# 2 7.2947 32.4004 7.3617 0.0001 -1.1232 0.0002
# 3 37.5521 7.3617 112.1521 0.0000 -11.7038 0.0000
# 4 0.0000 0.0001 0.0000 23.4725 0.0000 -2.3848
# 5 -8.9296 -1.1232 -11.7038 0.0000 44.7474 0.0000
# 6 0.0000 0.0002 0.0000 -2.3848 0.0000 14.2933
#
#
#
# Elastic Compliance Matrix: (Units=1/GPa)
#
#
# Indices 1 2 3 4 5 6 
#
# 1 0.009749 -0.001463 -0.003052 0.000000 0.001110 0.000000
# 2 -0.001463 0.031553 -0.001572 0.000000 0.000089 0.000000
# 3 -0.003052 -0.001572 0.010254 0.000000 0.002033 0.000000
# 4 0.000000 0.000000 0.000000 0.043338 0.000000 0.007231
# 5 0.001110 0.000089 0.002033 0.000000 0.023103 0.000000
# 6 0.000000 0.000000 0.000000 0.007231 0.000000 0.071169
#
#
# Mechanical properties :
#
#
# Convention : Reuss Voigt Hill
#
# Bulk Modulus (GPa) = 25.39256 40.60159 32.99708
# Shear Modulus (GPa) = 23.31346 30.42187 26.86766
#
# Velocity S-wave (km/s) = 3.37493 3.85527 3.62307
# Velocity P-wave (km/s) = 5.25289 6.29715 5.79857
#
# Compressibility (1/GPa) = 0.03938161
#
# Stress axis : x y z
#
# Youngs Moduli (GPa) = 102.57569 31.69224 97.52416
#
# Poissons Ratio (x) = 0.04636 0.29768
# Poissons Ratio (y) = 0.15006 0.15332
# Poissons Ratio (z) = 0.31310 0.04982
#
# Static dielectric constant tensor:
#      x y z
#    x 1.139740 0.000050 2.939970 
#    y 0.000050 4.210020 -0.000060 
#    z 2.939970 -0.000060 0.718840 
# 
# 
# High freq. dielectric constant tensor:
#      x y z
#    x 1.812610 0.000000 -0.002700 
#    y 0.000000 1.773190 0.000000 
#    z -0.002700 0.000000 1.819500 
# 
# From -- ./inp_files/275333.got.cif
#   From: 2010.06.25/outbox.cif.g09.slc.cpg/sg12_138_cif.got.tgz:275333.got - 2010.06.28 00:19:55.
