data_PCOD8107763
_publ_section_title
;
Structure prediction by ZEFSAII (Michael W. Deem and Ramdas Pophale) SiO2 
 PCOD8107763
Probable space group: C 2/M
;
_chemical_formula_sum "Si O2"
_cell_formula_units_Z 56
_cell_length_a 33.570573
_cell_length_b 8.672429
_cell_length_c 12.451852
_cell_angle_alpha 90.000000
_cell_angle_beta 59.204183
_cell_angle_gamma 90.000000
_cell_volume 3114.047584
_symmetry_space_group_name_H-M "C 2/M"
_symmetry_group_IT_number 12
_symmetry_cell_setting 'monoclinic'
loop_
_space_group_symop_operation_xyz
x,y,z
-x,y,-z
-x,-y,-z
x,-y,z
1/2+x,1/2+y,z
1/2-x,1/2+y,-z
1/2-x,1/2-y,-z
1/2+x,1/2-y,z
loop_
_atom_site_type_symbol
_atom_site_label
_atom_site_fract_x
_atom_site_fract_y
_atom_site_fract_z
Si Si1 0.901033 0.179067 0.111296
Si Si2 0.040510 0.177871 0.174033
Si Si3 0.944200 0.320421 0.253948
Si Si4 0.110841 0.820138 0.479171
Si Si5 0.950285 0.679783 0.615906
Si Si6 0.301319 0.681499 0.315901
Si Si7 0.708039 0.319640 0.429816
O O1 0.933184 0.276899 0.146778
O O2 0.847863 0.237207 0.191354
O O3 0.905047 0.000000 0.139049
O O4 0.918258 0.207600 0.966949
O O5 0.060040 0.222735 0.263400
O O6 0.997580 0.285676 0.203965
O O7 0.024629 0.000000 0.194698
O O8 0.935021 0.500000 0.287987
O O9 0.911961 0.219351 0.375507
O O10 0.089303 0.717906 0.415076
O O11 0.165422 0.778940 0.410078
O O12 0.102663 0.000000 0.466436
O O13 0.949227 0.500000 0.645155
O O14 0.000000 0.729125 0.500000
O O15 0.298064 0.500000 0.317910
O O16 0.302880 0.745667 0.435800
O O17 0.255679 0.746804 0.318814
O O18 0.715208 0.500000 0.427313
#
# Coordination Sequence:
#
# PCOD8107763 Si02
#       7
#     8   8   8   8   8   8   8
#     4  10  21  38  56  79 110 147 186 220 262 324
#     4  11  23  38  58  78 105 148 189 222 264 320
#     4  12  23  34  52  81 114 146 180 221 272 320
#     4  11  21  36  58  80 109 145 183 223 267 320
#     4  11  23  38  56  81 110 139 179 230 275 316
#     4   9  17  32  53  78 110 141 173 217 267 318
#     4   9  18  32  52  80 109 138 175 219 267 318
#
# _framework density 17.983025999999999
#
# number of rings (size 3 to 8) (size 9 to 14) (size 15 to 20)
#    0.000    1.571    2.857    3.000    0.000    5.143 
#    0.000    0.000    0.000    0.857    0.000    0.000 
#    0.000    0.000    0.000    0.000    0.000    0.000 
#
# Total GULP energy -347295.067954 kJ/mol
# GULP energy per Si atom -12403.395284 kJ/mol
# Density = 1.794210 g / cm^3
# Si number density = 17.983026 Si / 1000 Ang^3
#
#
#
# Elastic Constant Matrix: (Units=GPa)
#
#
# Indices 1 2 3 4 5 6 
#
# 1 94.4494 29.1212 34.6772 0.0000 1.8951 0.0000
# 2 29.1212 39.7228 21.4598 0.0000 -1.5990 0.0000
# 3 34.6772 21.4598 77.2040 0.0000 8.6539 0.0000
# 4 0.0000 0.0000 0.0000 19.1383 0.0000 -1.0095
# 5 1.8951 -1.5990 8.6539 0.0000 23.8061 0.0000
# 6 0.0000 0.0000 0.0000 -1.0095 0.0000 31.3465
#
#
#
# Elastic Compliance Matrix: (Units=1/GPa)
#
#
# Indices 1 2 3 4 5 6 
#
# 1 0.014787 -0.008559 -0.004239 0.000000 -0.000211 0.000000
# 2 -0.008559 0.035206 -0.006550 0.000000 0.005427 0.000000
# 3 -0.004239 -0.006550 0.017398 0.000000 -0.006427 0.000000
# 4 0.000000 0.000000 0.000000 0.052340 0.000000 0.001686
# 5 -0.000211 0.005427 -0.006427 0.000000 0.044724 0.000000
# 6 0.000000 0.000000 0.000000 0.001686 0.000000 0.031956
#
#
# Mechanical properties :
#
#
# Convention : Reuss Voigt Hill
#
# Bulk Modulus (GPa) = 34.84923 42.43250 38.64087
# Shear Modulus (GPa) = 20.43551 23.26604 21.85078
#
# Velocity S-wave (km/s) = 3.37468 3.60081 3.48958
# Velocity P-wave (km/s) = 5.88265 6.39804 6.14575
#
# Compressibility (1/GPa) = 0.02869504
#
# Stress axis : x y z
#
# Youngs Moduli (GPa) = 67.62552 28.40411 57.47859
#
# Poissons Ratio (x) = 0.24311 0.24366
# Poissons Ratio (y) = 0.57881 0.37648
# Poissons Ratio (z) = 0.28668 0.18604
#
# Static dielectric constant tensor:
#      x y z
#    x 3.378130 0.000000 -0.145660 
#    y 0.000000 3.272900 0.000000 
#    z -0.145660 0.000000 3.265110 
# 
# 
# High freq. dielectric constant tensor:
#      x y z
#    x 1.695650 0.000000 -0.009290 
#    y 0.000000 1.699160 0.000000 
#    z -0.009290 0.000000 1.674940 
# 
# From -- ./inp_files/187221.got.cif
#   From: 2010.06.25/outbox.cif.g09.slc.cpg/sg12_94_cif.got.tgz:187221.got - 2010.06.28 00:19:55.
