data_PCOD8107512
_publ_section_title
;
Structure prediction by ZEFSAII (Michael W. Deem and Ramdas Pophale) SiO2 
 PCOD8107512
Probable space group: C 2/M
;
_chemical_formula_sum "Si O2"
_cell_formula_units_Z 64
_cell_length_a 11.555919
_cell_length_b 19.910786
_cell_length_c 17.124011
_cell_angle_alpha 90.000000
_cell_angle_beta 53.347275
_cell_angle_gamma 90.000000
_cell_volume 3160.953583
_symmetry_space_group_name_H-M "C 2/M"
_symmetry_group_IT_number 12
_symmetry_cell_setting 'monoclinic'
loop_
_space_group_symop_operation_xyz
x,y,z
-x,y,-z
-x,-y,-z
x,-y,z
1/2+x,1/2+y,z
1/2-x,1/2+y,-z
1/2-x,1/2-y,-z
1/2+x,1/2-y,z
loop_
_atom_site_type_symbol
_atom_site_label
_atom_site_fract_x
_atom_site_fract_y
_atom_site_fract_z
Si Si1 0.311387 0.857969 0.782210
Si Si2 0.425439 0.341367 0.802138
Si Si3 0.574509 0.797708 0.746856
Si Si4 0.229051 0.113952 0.426433
Si Si5 0.466216 0.576815 0.629411
Si Si6 0.140598 0.726988 0.889215
Si Si7 0.959289 0.075444 0.099643
Si Si8 0.005558 0.575563 0.408341
O O1 0.439592 0.848604 0.791815
O O2 0.197062 0.797765 0.833474
O O3 0.215464 0.924781 0.831104
O O4 0.386486 0.867564 0.667883
O O5 0.531358 0.278634 0.743918
O O6 0.424420 0.390136 0.728291
O O7 0.265028 0.313163 0.885003
O O8 0.472650 0.380851 0.859297
O O9 0.706059 0.816294 0.634939
O O10 0.608719 0.812867 0.822861
O O11 0.171300 0.073680 0.373493
O O12 0.352533 0.075788 0.425065
O O13 0.093875 0.122200 0.539878
O O14 0.518785 0.500000 0.621910
O O15 0.000000 0.735019 0.000000
O O16 0.017701 0.000000 0.085031
O O17 0.000000 0.107350 0.000000
O O18 0.067544 0.500000 0.375236
O O19 0.000000 0.596520 0.500000
#
# Coordination Sequence:
#
# PCOD8107512 Si02
#       8
#     8   8   8   8   8   8   8   8
#     4  10  22  38  61  90 122 161 209 254 314 372
#     4  11  24  40  66  94 125 164 211 264 312 378
#     4  10  22  40  63  91 124 161 207 265 317 370
#     4  10  21  40  61  93 124 161 209 257 312 369
#     4  11  22  39  66  93 124 167 210 254 311 377
#     4  11  23  41  66  92 119 160 211 265 321 371
#     4  11  24  41  62  91 130 167 209 261 315 375
#     4  10  21  37  60  90 127 168 210 251 306 381
#
# _framework density 20.247056000000001
#
# number of rings (size 3 to 8) (size 9 to 14) (size 15 to 20)
#    0.000    1.500    2.500    2.625    3.500    1.500 
#    0.000    2.500    0.000    1.500    0.000    0.000 
#    0.000    0.000    0.000    0.000    0.000    0.000 
#
# Total GULP energy -396465.608000 kJ/mol
# GULP energy per Si atom -12389.550250 kJ/mol
# Density = 2.020097 g / cm^3
# Si number density = 20.247056 Si / 1000 Ang^3
#
#
#
# Elastic Constant Matrix: (Units=GPa)
#
#
# Indices 1 2 3 4 5 6 
#
# 1 110.8159 48.2950 71.2322 0.0000 4.5606 0.0000
# 2 48.2950 89.1422 61.8558 0.0000 -0.5735 0.0000
# 3 71.2322 61.8558 145.4079 0.0000 -1.4337 0.0000
# 4 0.0000 0.0000 0.0000 29.2510 0.0000 0.6080
# 5 4.5606 -0.5735 -1.4337 0.0000 34.9990 0.0000
# 6 0.0000 0.0000 0.0000 0.6080 0.0000 18.6148
#
#
#
# Elastic Compliance Matrix: (Units=1/GPa)
#
#
# Indices 1 2 3 4 5 6 
#
# 1 0.014290 -0.004091 -0.005281 0.000000 -0.002145 0.000000
# 2 -0.004091 0.017087 -0.005259 0.000000 0.000598 0.000000
# 3 -0.005281 -0.005259 0.011712 0.000000 0.001082 0.000000
# 4 0.000000 0.000000 0.000000 0.034210 0.000000 -0.001117
# 5 -0.002145 0.000598 0.001082 0.000000 0.028906 0.000000
# 6 0.000000 0.000000 0.000000 -0.001117 0.000000 0.053757
#
#
# Mechanical properties :
#
#
# Convention : Reuss Voigt Hill
#
# Bulk Modulus (GPa) = 72.32123 78.68135 75.50129
# Shear Modulus (GPa) = 25.79526 27.50516 26.65021
#
# Velocity S-wave (km/s) = 3.57322 3.68975 3.63195
# Velocity P-wave (km/s) = 7.26779 7.55628 7.41344
#
# Compressibility (1/GPa) = 0.01382720
#
# Stress axis : x y z
#
# Youngs Moduli (GPa) = 69.97920 58.52235 85.38192
#
# Poissons Ratio (x) = 0.23942 0.45091
# Poissons Ratio (y) = 0.28630 0.44901
# Poissons Ratio (z) = 0.36957 0.30776
#
# Static dielectric constant tensor:
#      x y z
#    x 3.908020 0.000000 -0.074350 
#    y 0.000000 3.597340 0.000000 
#    z -0.074350 0.000000 3.691460 
# 
# 
# High freq. dielectric constant tensor:
#      x y z
#    x 1.807690 0.000000 -0.000060 
#    y 0.000000 1.777760 0.000000 
#    z -0.000060 0.000000 1.789540 
# 
# From -- ./inp_files/265044.got.cif
#   From: 2010.06.25/outbox.cif.g09.slc.cpg/sg12_133_cif.got.tgz:265044.got - 2010.06.28 00:19:55.
