data_PCOD8107949
_publ_section_title
;
Structure prediction by ZEFSAII (Michael W. Deem and Ramdas Pophale) SiO2 
 PCOD8107949
Probable space group: C 2/M
;
_chemical_formula_sum "Si O2"
_cell_formula_units_Z 56
_cell_length_a 19.699974
_cell_length_b 8.983153
_cell_length_c 25.985358
_cell_angle_alpha 90.000000
_cell_angle_beta 39.627605
_cell_angle_gamma 90.000000
_cell_volume 2932.948011
_symmetry_space_group_name_H-M "C 2/M"
_symmetry_group_IT_number 12
_symmetry_cell_setting 'monoclinic'
loop_
_space_group_symop_operation_xyz
x,y,z
-x,y,-z
-x,-y,-z
x,-y,z
1/2+x,1/2+y,z
1/2-x,1/2+y,-z
1/2-x,1/2-y,-z
1/2+x,1/2-y,z
loop_
_atom_site_type_symbol
_atom_site_label
_atom_site_fract_x
_atom_site_fract_y
_atom_site_fract_z
Si Si1 0.288888 0.676303 0.823928
Si Si2 0.418205 0.674243 0.092695
Si Si3 0.538745 0.831175 0.830619
Si Si4 0.689471 0.829338 0.080815
Si Si5 0.683403 0.828988 0.495217
Si Si6 0.999613 0.671388 0.672970
Si Si7 0.170476 0.326915 0.658150
O O1 0.286423 0.500000 0.830277
O O2 0.189174 0.731395 0.848992
O O3 0.279179 0.747860 0.885460
O O4 0.395776 0.726238 0.732504
O O5 0.391983 0.500000 0.106830
O O6 0.470363 0.717710 0.116795
O O7 0.500000 0.718279 0.000000
O O8 0.435925 0.816969 0.854637
O O9 0.638322 0.789988 0.735659
O O10 0.549056 0.000000 0.845588
O O11 0.727120 0.000000 0.062624
O O12 0.750000 0.750000 0.000000
O O13 0.750000 0.750000 0.500000
O O14 0.558763 0.810164 0.582954
O O15 0.718337 0.757129 0.420157
O O16 0.715730 0.000000 0.475229
O O17 0.965324 0.500000 0.702278
O O18 0.076947 0.724621 0.673901
O O19 0.191354 0.500000 0.637893
#
# Coordination Sequence:
#
# PCOD8107949 Si02
#       7
#     8   8   8   8   8   8   8
#     4  12  24  37  58  85 113 149 191 234 282 337
#     4  11  25  43  61  81 109 148 192 238 286 341
#     4  10  21  38  59  82 113 149 185 231 284 338
#     4  11  22  38  58  83 115 146 182 232 287 337
#     4   9  17  28  47  77 113 150 184 226 276 328
#     4   9  17  33  53  78 115 152 185 227 281 330
#     4   9  17  32  53  80 114 150 183 225 282 334
#
# _framework density 19.093416999999999
#
# number of rings (size 3 to 8) (size 9 to 14) (size 15 to 20)
#    0.000    1.857    1.429    4.286    0.000    8.000 
#    0.000    0.000    0.000    0.857    0.000    6.000 
#    0.000    0.000    0.000    0.000    0.000    0.000 
#
# Total GULP energy -347195.054753 kJ/mol
# GULP energy per Si atom -12399.823384 kJ/mol
# Density = 1.904996 g / cm^3
# Si number density = 19.093417 Si / 1000 Ang^3
#
#
#
# Elastic Constant Matrix: (Units=GPa)
#
#
# Indices 1 2 3 4 5 6 
#
# 1 38.8267 18.8366 7.2911 0.0013 2.3256 -0.0046
# 2 18.8366 110.1332 50.7581 0.0015 -0.0785 -0.0046
# 3 7.2911 50.7581 111.4084 0.0001 10.4943 -0.0011
# 4 0.0013 0.0015 0.0001 36.7846 0.0000 2.7273
# 5 2.3256 -0.0785 10.4943 0.0000 23.9055 0.0016
# 6 -0.0046 -0.0046 -0.0011 2.7273 0.0016 27.3181
#
#
#
# Elastic Compliance Matrix: (Units=1/GPa)
#
#
# Indices 1 2 3 4 5 6 
#
# 1 0.028324 -0.005226 0.000822 -0.000001 -0.003134 0.000004
# 2 -0.005226 0.012595 -0.005683 0.000000 0.003045 0.000001
# 3 0.000822 -0.005683 0.012018 0.000000 -0.005374 0.000000
# 4 -0.000001 0.000000 0.000000 0.027388 0.000000 -0.002734
# 5 -0.003134 0.003045 -0.005374 0.000000 0.044505 -0.000003
# 6 0.000004 0.000001 0.000000 -0.002734 -0.000003 0.036879
#
#
# Mechanical properties :
#
#
# Convention : Reuss Voigt Hill
#
# Bulk Modulus (GPa) = 30.52150 46.01555 38.26852
# Shear Modulus (GPa) = 25.93319 29.83381 27.88350
#
# Velocity S-wave (km/s) = 3.68941 3.95716 3.82563
# Velocity P-wave (km/s) = 5.84543 6.71054 6.29287
#
# Compressibility (1/GPa) = 0.03276379
#
# Stress axis : x y z
#
# Youngs Moduli (GPa) = 35.30588 79.39589 83.21060
#
# Poissons Ratio (x) = 0.41489 -0.06843
# Poissons Ratio (y) = 0.18449 0.47290
# Poissons Ratio (z) = -0.02903 0.45122
#
# Static dielectric constant tensor:
#      x y z
#    x 3.107200 -0.000020 -0.026920 
#    y -0.000020 3.636450 -0.000030 
#    z -0.026920 -0.000030 3.914840 
# 
# 
# High freq. dielectric constant tensor:
#      x y z
#    x 1.700680 0.000000 0.008190 
#    y 0.000000 1.747200 0.000000 
#    z 0.008190 0.000000 1.762350 
# 
# From -- ./inp_files/362998.got.cif
#   From: 2010.06.25/outbox.cif.g09.slc.cpg/sg12_182_cif.got.tgz:362998.got - 2010.06.28 00:19:55.
