data_PCOD8107685
_publ_section_title
;
Structure prediction by ZEFSAII (Michael W. Deem and Ramdas Pophale) SiO2 
 PCOD8107685
Probable space group: C 2/M
;
_chemical_formula_sum "Si O2"
_cell_formula_units_Z 64
_cell_length_a 33.019909
_cell_length_b 8.738184
_cell_length_c 13.745717
_cell_angle_alpha 90.000000
_cell_angle_beta 126.518904
_cell_angle_gamma 90.000000
_cell_volume 3187.403997
_symmetry_space_group_name_H-M "C 2/M"
_symmetry_group_IT_number 12
_symmetry_cell_setting 'monoclinic'
loop_
_space_group_symop_operation_xyz
x,y,z
-x,y,-z
-x,-y,-z
x,-y,z
1/2+x,1/2+y,z
1/2-x,1/2+y,-z
1/2-x,1/2-y,-z
1/2+x,1/2-y,z
loop_
_atom_site_type_symbol
_atom_site_label
_atom_site_fract_x
_atom_site_fract_y
_atom_site_fract_z
Si Si1 0.076876 0.321802 0.972396
Si Si2 0.347259 0.319277 0.272133
Si Si3 0.751754 0.675822 0.227677
Si Si4 0.977963 0.822626 0.750523
Si Si5 0.286349 0.179499 0.631236
Si Si6 0.660118 0.675744 0.961075
Si Si7 0.454589 0.318725 0.499686
Si Si8 0.392521 0.323291 0.785163
O O1 0.079118 0.500000 0.001149
O O2 0.121555 0.282702 0.962704
O O3 0.024021 0.281930 0.848341
O O4 0.081948 0.226563 0.078156
O O5 0.341961 0.500000 0.279358
O O6 0.306702 0.237987 0.282083
O O7 0.338497 0.271225 0.148331
O O8 0.401683 0.256781 0.383051
O O9 0.755819 0.500000 0.264939
O O10 0.728037 0.768513 0.281933
O O11 0.715975 0.697391 0.083186
O O12 0.961287 0.767119 0.620240
O O13 0.931336 0.794465 0.754365
O O14 0.994876 0.000000 0.774763
O O15 0.250000 0.250000 0.500000
O O16 0.343317 0.226622 0.689682
O O17 0.281290 0.000000 0.617540
O O18 0.641829 0.500000 0.944091
O O19 0.500000 0.249321 0.500000
O O20 0.454804 0.500000 0.491117
O O21 0.376958 0.500000 0.771757
#
# Coordination Sequence:
#
# PCOD8107685 Si02
#       8
#     8   8   8   8   8   8   8   8
#     4  12  24  38  61  91 123 163 209 262 318 372
#     4  10  21  37  63  94 123 163 212 264 313 370
#     4  11  23  40  62  92 128 168 209 256 312 374
#     4  10  22  39  62  89 121 164 206 255 313 377
#     4  12  26  44  67  94 128 168 210 257 311 373
#     4  10  21  39  63  89 124 167 211 257 313 376
#     4   9  18  36  62  91 121 157 206 252 302 369
#     4  11  23  41  64  92 125 163 209 257 313 377
#
# _framework density 20.079035000000001
#
# number of rings (size 3 to 8) (size 9 to 14) (size 15 to 20)
#    0.000    1.375    1.250    4.500    1.750    5.500 
#    0.000    0.625    0.000    1.500    0.000    0.000 
#    0.000    0.000    0.000    0.000    0.000    0.000 
#
# Total GULP energy -397002.800041 kJ/mol
# GULP energy per Si atom -12406.337501 kJ/mol
# Density = 2.003333 g / cm^3
# Si number density = 20.079035 Si / 1000 Ang^3
#
#
#
# Elastic Constant Matrix: (Units=GPa)
#
#
# Indices 1 2 3 4 5 6 
#
# 1 104.7533 30.9575 23.1558 0.0000 20.0325 0.0000
# 2 30.9575 79.1311 15.2043 0.0000 13.5180 0.0000
# 3 23.1558 15.2043 100.6920 0.0000 23.7603 0.0000
# 4 0.0000 0.0000 0.0000 30.3348 0.0000 2.7464
# 5 20.0325 13.5180 23.7603 0.0000 28.2145 0.0000
# 6 0.0000 0.0000 0.0000 2.7464 0.0000 39.4176
#
#
#
# Elastic Compliance Matrix: (Units=1/GPa)
#
#
# Indices 1 2 3 4 5 6 
#
# 1 0.011916 -0.003463 -0.000764 0.000000 -0.006158 0.000000
# 2 -0.003463 0.014805 -0.000431 0.000000 -0.004271 0.000000
# 3 -0.000764 -0.000431 0.012474 0.000000 -0.009756 0.000000
# 4 0.000000 0.000000 0.000000 0.033175 0.000000 -0.002311
# 5 -0.006158 -0.004271 -0.009756 0.000000 0.050077 0.000000
# 6 0.000000 0.000000 0.000000 -0.002311 0.000000 0.025530
#
#
# Mechanical properties :
#
#
# Convention : Reuss Voigt Hill
#
# Bulk Modulus (GPa) = 33.46979 47.02350 40.24665
# Shear Modulus (GPa) = 29.89478 33.94396 31.91937
#
# Velocity S-wave (km/s) = 3.86276 4.11605 3.99141
# Velocity P-wave (km/s) = 6.04977 6.78669 6.42880
#
# Compressibility (1/GPa) = 0.02987769
#
# Stress axis : x y z
#
# Youngs Moduli (GPa) = 83.91944 67.54677 80.16547
#
# Poissons Ratio (x) = 0.23392 0.06128
# Poissons Ratio (y) = 0.29062 0.03457
# Poissons Ratio (z) = 0.06415 0.02913
#
# Static dielectric constant tensor:
#      x y z
#    x 3.728840 0.000000 -0.033430 
#    y 0.000000 3.500070 0.000000 
#    z -0.033430 0.000000 3.913870 
# 
# 
# High freq. dielectric constant tensor:
#      x y z
#    x 1.797090 0.000000 0.000920 
#    y 0.000000 1.769550 0.000000 
#    z 0.000920 0.000000 1.799430 
# 
# From -- ./inp_files/249949.got.cif
#   From: 2010.06.25/outbox.cif.g09.slc.cpg/sg12_125_cif.got.tgz:249949.got - 2010.06.28 00:19:55.
