data_PCOD8107937
_publ_section_title
;
Structure prediction by ZEFSAII (Michael W. Deem and Ramdas Pophale) SiO2 
 PCOD8107937
Probable space group: C 2/M
;
_chemical_formula_sum "Si O2"
_cell_formula_units_Z 56
_cell_length_a 15.514860
_cell_length_b 8.659320
_cell_length_c 21.184636
_cell_angle_alpha 90.000000
_cell_angle_beta 90.008272
_cell_angle_gamma 90.000000
_cell_volume 2846.116360
_symmetry_space_group_name_H-M "C 2/M"
_symmetry_group_IT_number 12
_symmetry_cell_setting 'monoclinic'
loop_
_space_group_symop_operation_xyz
x,y,z
-x,y,-z
-x,-y,-z
x,-y,z
1/2+x,1/2+y,z
1/2-x,1/2+y,-z
1/2-x,1/2-y,-z
1/2+x,1/2-y,z
loop_
_atom_site_type_symbol
_atom_site_label
_atom_site_fract_x
_atom_site_fract_y
_atom_site_fract_z
Si Si1 0.403591 0.816834 0.999961
Si Si2 0.500043 0.816800 0.654416
Si Si3 0.839015 0.317800 0.571165
Si Si4 0.661103 0.182192 0.571191
Si Si5 0.659746 0.816706 0.134262
Si Si6 0.340364 0.816710 0.134196
Si Si7 0.499938 0.681804 0.791412
O O1 0.354581 0.758078 0.937587
O O2 0.409151 0.000000 0.999926
O O3 0.500000 0.747221 0.000000
O O4 0.354528 0.758182 0.062320
O O5 0.416735 0.763094 0.615235
O O6 0.583409 0.763244 0.615292
O O7 0.500061 0.721570 0.718233
O O8 0.499993 0.000000 0.667622
O O9 0.832442 0.500000 0.571091
O O10 0.750050 0.250089 0.598590
O O11 0.855277 0.256234 0.499981
O O12 0.667843 0.000000 0.571098
O O13 0.750075 0.749987 0.158978
O O14 0.584719 0.754023 0.178115
O O15 0.660287 0.000000 0.138759
O O16 0.415490 0.753929 0.177943
O O17 0.339880 0.000000 0.138741
O O18 0.499892 0.500000 0.802099
#
# Coordination Sequence:
#
# PCOD8107937 Si02
#       7
#     8   8   8   8   8   8   8
#     4   9  17  34  62  91 118 150 186 235 294 351
#     4  10  21  38  59  81 112 155 195 233 286 344
#     4   9  18  34  58  87 116 146 184 231 284 342
#     4   9  18  34  58  87 116 146 184 231 284 342
#     4  11  22  40  64  89 119 153 193 240 295 352
#     4  11  22  40  64  89 119 153 193 240 295 352
#     4  12  26  42  58  83 117 157 204 247 290 343
#
# _framework density 19.675934000000002
#
# number of rings (size 3 to 8) (size 9 to 14) (size 15 to 20)
#    0.000    1.857    1.429    3.000    0.000    4.000 
#    0.000    5.714    0.000    4.286    0.000    0.000 
#    0.000    0.000    0.000    0.000    0.000    0.000 
#
# Total GULP energy -347271.318186 kJ/mol
# GULP energy per Si atom -12402.547078 kJ/mol
# Density = 1.963115 g / cm^3
# Si number density = 19.675934 Si / 1000 Ang^3
#
#
#
# Elastic Constant Matrix: (Units=GPa)
#
#
# Indices 1 2 3 4 5 6 
#
# 1 198.5195 48.6738 83.1805 0.0000 -0.1566 0.0000
# 2 48.6738 66.6888 38.2565 0.0000 -0.0222 0.0000
# 3 83.1805 38.2565 123.9218 0.0000 -0.1175 0.0000
# 4 0.0000 0.0000 0.0000 22.9638 0.0000 -0.0125
# 5 -0.1566 -0.0222 -0.1175 0.0000 12.2109 0.0000
# 6 0.0000 0.0000 0.0000 -0.0125 0.0000 31.5033
#
#
#
# Elastic Compliance Matrix: (Units=1/GPa)
#
#
# Indices 1 2 3 4 5 6 
#
# 1 0.007516 -0.003149 -0.004073 0.000000 0.000051 0.000000
# 2 -0.003149 0.019542 -0.003919 0.000000 -0.000043 0.000000
# 3 -0.004073 -0.003919 0.012013 0.000000 0.000056 0.000000
# 4 0.000000 0.000000 0.000000 0.043547 0.000000 0.000017
# 5 0.000051 -0.000043 0.000056 0.000000 0.081895 0.000000
# 6 0.000000 0.000000 0.000000 0.000017 0.000000 0.031743
#
#
# Mechanical properties :
#
#
# Convention : Reuss Voigt Hill
#
# Bulk Modulus (GPa) = 59.56267 81.03905 70.30086
# Shear Modulus (GPa) = 22.30812 27.93689 25.12251
#
# Velocity S-wave (km/s) = 3.37081 3.77218 3.57713
# Velocity P-wave (km/s) = 6.74443 7.76201 7.27104
#
# Compressibility (1/GPa) = 0.01678904
#
# Stress axis : x y z
#
# Youngs Moduli (GPa) = 133.05026 51.17268 83.24169
#
# Poissons Ratio (x) = 0.16116 0.33902
# Poissons Ratio (y) = 0.41901 0.32622
# Poissons Ratio (z) = 0.54187 0.20054
#
# Static dielectric constant tensor:
#      x y z
#    x 3.495050 0.000000 -0.000440 
#    y 0.000000 3.367380 0.000000 
#    z -0.000440 0.000000 3.713140 
# 
# 
# High freq. dielectric constant tensor:
#      x y z
#    x 1.784260 0.000000 -0.000010 
#    y 0.000000 1.750930 0.000000 
#    z -0.000010 0.000000 1.765930 
# 
# From -- ./inp_files/308957.got.cif
#   From: 2010.06.25/outbox.cif.g09.slc.cpg/sg12_155_cif.got.tgz:308957.got - 2010.06.28 00:19:55.
