data_PCOD8107309
_publ_section_title
;
Structure prediction by ZEFSAII (Michael W. Deem and Ramdas Pophale) SiO2 
 PCOD8107309
Probable space group: C 2/M
;
_chemical_formula_sum "Si O2"
_cell_formula_units_Z 56
_cell_length_a 14.699416
_cell_length_b 11.101622
_cell_length_c 18.511569
_cell_angle_alpha 90.000000
_cell_angle_beta 79.716685
_cell_angle_gamma 90.000000
_cell_volume 2972.330293
_symmetry_space_group_name_H-M "C 2/M"
_symmetry_group_IT_number 12
_symmetry_cell_setting 'monoclinic'
loop_
_space_group_symop_operation_xyz
x,y,z
-x,y,-z
-x,-y,-z
x,-y,z
1/2+x,1/2+y,z
1/2-x,1/2+y,-z
1/2-x,1/2-y,-z
1/2+x,1/2-y,z
loop_
_atom_site_type_symbol
_atom_site_label
_atom_site_fract_x
_atom_site_fract_y
_atom_site_fract_z
Si Si1 0.962262 0.362820 0.669914
Si Si2 0.352452 0.000000 0.050567
Si Si3 0.704088 0.138106 0.414042
Si Si4 0.168233 0.362249 0.587128
Si Si5 0.041631 0.500000 0.097724
Si Si6 0.544727 0.638632 0.922029
Si Si7 0.267368 0.242295 0.082424
Si Si8 0.070432 0.733002 0.175052
O O1 0.952189 0.500000 0.699624
O O2 0.886914 0.336805 0.619545
O O3 0.945438 0.267277 0.736959
O O4 0.062828 0.339552 0.623444
O O5 0.298373 0.891753 0.093693
O O6 0.458147 0.000000 0.055101
O O7 0.359863 0.000000 0.960844
O O8 0.774105 0.249796 0.386205
O O9 0.674209 0.146444 0.500724
O O10 0.742860 0.000000 0.392982
O O11 0.199447 0.500000 0.607021
O O12 0.027998 0.612503 0.150195
O O13 0.538981 0.500000 0.937692
O O14 0.652241 0.670790 0.900402
O O15 0.486428 0.662429 0.857473
O O16 0.500000 0.704597 0.000000
O O17 0.178709 0.264856 0.143509
O O18 0.250000 0.250000 0.000000
#
# Coordination Sequence:
#
# PCOD8107309 Si02
#       8
#     8   4   8   8   4   8   8   8
#     4  10  21  37  59  86 120 156 192 235 286 349
#     4  11  22  38  60  80 103 138 195 249 285 333
#     4   9  18  36  63  93 120 155 200 239 283 345
#     4   9  18  36  63  91 121 157 197 241 285 339
#     4  11  20  38  60  79 105 141 193 242 284 340
#     4  11  24  41  58  81 112 146 190 244 300 350
#     4  12  24  36  59  82 105 141 189 240 289 339
#     4  12  24  39  56  84 114 151 188 238 293 345
#
# _framework density 18.840437000000001
#
# number of rings (size 3 to 8) (size 9 to 14) (size 15 to 20)
#    0.000    1.429    5.000    0.429    3.000    2.857 
#    0.000    3.571    0.000    3.429    0.000    0.000 
#    0.000    0.000    0.000    0.000    0.000    0.000 
#
# Total GULP energy -346954.148312 kJ/mol
# GULP energy per Si atom -12391.219583 kJ/mol
# Density = 1.879756 g / cm^3
# Si number density = 18.840437 Si / 1000 Ang^3
#
#
#
# Elastic Constant Matrix: (Units=GPa)
#
#
# Indices 1 2 3 4 5 6 
#
# 1 133.2390 52.9654 39.6176 0.0000 -9.7871 0.0000
# 2 52.9654 111.4761 30.0257 0.0000 -2.9799 0.0000
# 3 39.6176 30.0257 48.8657 0.0000 -2.9661 0.0000
# 4 0.0000 0.0000 0.0000 22.1451 0.0000 -0.8366
# 5 -9.7871 -2.9799 -2.9661 0.0000 17.4338 0.0000
# 6 0.0000 0.0000 0.0000 -0.8366 0.0000 14.4133
#
#
#
# Elastic Compliance Matrix: (Units=1/GPa)
#
#
# Indices 1 2 3 4 5 6 
#
# 1 0.011180 -0.003383 -0.006708 0.000000 0.004556 0.000000
# 2 -0.003383 0.011782 -0.004537 0.000000 -0.000657 0.000000
# 3 -0.006708 -0.004537 0.028712 0.000000 0.000343 0.000000
# 4 0.000000 0.000000 0.000000 0.045256 0.000000 0.002627
# 5 0.004556 -0.000657 0.000343 0.000000 0.059864 0.000000
# 6 0.000000 0.000000 0.000000 0.002627 0.000000 0.069533
#
#
# Mechanical properties :
#
#
# Convention : Reuss Voigt Hill
#
# Bulk Modulus (GPa) = 44.60931 59.86647 52.23789
# Shear Modulus (GPa) = 19.00741 22.19656 20.60199
#
# Velocity S-wave (km/s) = 3.17971 3.43612 3.31040
# Velocity P-wave (km/s) = 6.09996 6.89834 6.51140
#
# Compressibility (1/GPa) = 0.02241685
#
# Stress axis : x y z
#
# Youngs Moduli (GPa) = 89.44911 84.87303 34.82913
#
# Poissons Ratio (x) = 0.28713 0.23365
# Poissons Ratio (y) = 0.30261 0.15801
# Poissons Ratio (z) = 0.60007 0.38505
#
# Static dielectric constant tensor:
#      x y z
#    x 3.561620 0.000000 -0.056020 
#    y 0.000000 3.873640 0.000000 
#    z -0.056020 0.000000 3.335190 
# 
# 
# High freq. dielectric constant tensor:
#      x y z
#    x 1.734540 0.000000 -0.000780 
#    y 0.000000 1.736810 0.000000 
#    z -0.000780 0.000000 1.715220 
# 
# From -- ./inp_files/268673.got.cif
#   From: 2010.06.25/outbox.cif.g09.slc.cpg/sg12_135_cif.got.tgz:268673.got - 2010.06.28 00:19:55.
