data_PCOD8107588
_publ_section_title
;
Structure prediction by ZEFSAII (Michael W. Deem and Ramdas Pophale) SiO2 
 PCOD8107588
Probable space group: C 2/M
;
_chemical_formula_sum "Si O2"
_cell_formula_units_Z 64
_cell_length_a 14.377453
_cell_length_b 18.743246
_cell_length_c 12.945754
_cell_angle_alpha 90.000000
_cell_angle_beta 120.056213
_cell_angle_gamma 90.000000
_cell_volume 3019.523843
_symmetry_space_group_name_H-M "C 2/M"
_symmetry_group_IT_number 12
_symmetry_cell_setting 'monoclinic'
loop_
_space_group_symop_operation_xyz
x,y,z
-x,y,-z
-x,-y,-z
x,-y,z
1/2+x,1/2+y,z
1/2-x,1/2+y,-z
1/2-x,1/2-y,-z
1/2+x,1/2-y,z
loop_
_atom_site_type_symbol
_atom_site_label
_atom_site_fract_x
_atom_site_fract_y
_atom_site_fract_z
Si Si1 0.249333 0.582548 0.225968
Si Si2 0.284162 0.183906 0.133503
Si Si3 0.980173 0.317632 0.371739
Si Si4 0.975647 0.151016 0.369627
Si Si5 0.881831 0.916357 0.908494
Si Si6 0.877120 0.692835 0.964388
Si Si7 0.342222 0.918080 0.597656
Si Si8 0.659667 0.416044 0.344881
O O1 0.266961 0.500000 0.203342
O O2 0.356049 0.629399 0.270102
O O3 0.156225 0.616225 0.101938
O O4 0.217325 0.587468 0.327170
O O5 0.357951 0.165241 0.272886
O O6 0.204969 0.117950 0.061912
O O7 0.206964 0.248920 0.125008
O O8 0.363618 0.196609 0.081071
O O9 0.000921 0.234066 0.365514
O O10 0.000000 0.340999 0.500000
O O11 0.056147 0.365859 0.341984
O O12 0.000000 0.128173 0.500000
O O13 0.050858 0.106926 0.337450
O O14 0.844920 0.889404 0.775170
O O15 0.878342 0.000000 0.921627
O O16 0.000000 0.886765 0.000000
O O17 0.000000 0.710108 0.000000
O O18 0.263525 0.887490 0.464351
O O19 0.378014 0.000000 0.596159
O O20 0.663681 0.500000 0.350376
#
# Coordination Sequence:
#
# PCOD8107588 Si02
#       8
#     8   8   8   8   8   8   8   8
#     4  11  23  41  66  96 130 168 216 269 324 386
#     4  11  24  44  66  92 129 174 214 262 332 386
#     4  11  24  41  63  97 128 166 218 267 319 382
#     4  11  22  39  62  98 134 168 215 269 329 385
#     4  10  23  40  61  92 124 164 220 273 322 381
#     4  11  25  44  67  93 128 173 218 263 323 396
#     4  10  22  40  63  93 129 172 213 261 327 391
#     4  10  21  37  61  91 127 172 213 259 328 389
#
# _framework density 21.195395000000001
#
# number of rings (size 3 to 8) (size 9 to 14) (size 15 to 20)
#    0.000    1.375    2.500    2.250    1.750    4.500 
#    0.000    0.000    0.000    0.000    0.000    0.000 
#    0.000    0.000    0.000    0.000    0.000    0.000 
#
# Total GULP energy -396815.132390 kJ/mol
# GULP energy per Si atom -12400.472887 kJ/mol
# Density = 2.114715 g / cm^3
# Si number density = 21.195395 Si / 1000 Ang^3
#
#
#
# Elastic Constant Matrix: (Units=GPa)
#
#
# Indices 1 2 3 4 5 6 
#
# 1 142.3231 137.7229 -40.1396 0.0000 55.7356 0.0000
# 2 137.7229 465.9031 -290.9488 0.0000 145.1574 0.0000
# 3 -40.1396 -290.9488 383.6622 0.0000 -89.5613 0.0000
# 4 0.0000 0.0000 0.0000 30.3780 0.0000 8.0430
# 5 55.7356 145.1574 -89.5613 0.0000 76.6793 0.0000
# 6 0.0000 0.0000 0.0000 8.0430 0.0000 34.0977
#
#
#
# Elastic Compliance Matrix: (Units=1/GPa)
#
#
# Indices 1 2 3 4 5 6 
#
# 1 0.011606 -0.003615 -0.002611 0.000000 -0.004642 0.000000
# 2 -0.003615 0.008357 0.003959 0.000000 -0.008568 0.000000
# 3 -0.002611 0.003959 0.005539 0.000000 0.000873 0.000000
# 4 0.000000 0.000000 0.000000 0.035111 0.000000 -0.008282
# 5 -0.004642 -0.008568 0.000873 0.000000 0.033656 0.000000
# 6 0.000000 0.000000 0.000000 -0.008282 0.000000 0.031281
#
#
# Mechanical properties :
#
#
# Convention : Reuss Voigt Hill
#
# Bulk Modulus (GPa) = 47.68876 67.23970 57.46423
# Shear Modulus (GPa) = 36.47712 107.24792 71.86252
#
# Velocity S-wave (km/s) = 4.15299 7.12106 5.82910
# Velocity P-wave (km/s) = 6.74869 9.97022 8.51323
#
# Compressibility (1/GPa) = 0.02096930
#
# Stress axis : x y z
#
# Youngs Moduli (GPa) = 86.16371 119.66499 180.52494
#
# Poissons Ratio (x) = 0.43254 0.47128
# Poissons Ratio (y) = 0.31145 -0.71469
# Poissons Ratio (z) = 0.22494 -0.47375
#
# Static dielectric constant tensor:
#      x y z
#    x 3.735530 0.000000 0.061470 
#    y 0.000000 3.792730 0.000000 
#    z 0.061470 0.000000 4.031450 
# 
# 
# High freq. dielectric constant tensor:
#      x y z
#    x 1.830880 0.000000 0.005620 
#    y 0.000000 1.830440 0.000000 
#    z 0.005620 0.000000 1.840680 
# 
# From -- ./inp_files/216830.got.cif
#   From: 2010.06.25/outbox.cif.g09.slc.cpg/sg12_109_cif.got.tgz:216830.got - 2010.06.28 00:19:55.
