data_PCOD8107950
_publ_section_title
;
Structure prediction by ZEFSAII (Michael W. Deem and Ramdas Pophale) SiO2 
 PCOD8107950
Probable space group: C 2/M
;
_chemical_formula_sum "Si O2"
_cell_formula_units_Z 56
_cell_length_a 20.509814
_cell_length_b 8.736564
_cell_length_c 17.418777
_cell_angle_alpha 90.000000
_cell_angle_beta 105.596538
_cell_angle_gamma 90.000000
_cell_volume 3006.262954
_symmetry_space_group_name_H-M "C 2/M"
_symmetry_group_IT_number 12
_symmetry_cell_setting 'monoclinic'
loop_
_space_group_symop_operation_xyz
x,y,z
-x,y,-z
-x,-y,-z
x,-y,z
1/2+x,1/2+y,z
1/2-x,1/2+y,-z
1/2-x,1/2-y,-z
1/2+x,1/2-y,z
loop_
_atom_site_type_symbol
_atom_site_label
_atom_site_fract_x
_atom_site_fract_y
_atom_site_fract_z
Si Si1 0.903804 0.681502 0.420150
Si Si2 0.188870 0.319956 0.741545
Si Si3 0.181036 0.823636 0.006557
Si Si4 0.408574 0.677380 0.167063
Si Si5 0.171529 0.679789 0.164788
Si Si6 0.948602 0.318640 0.762168
Si Si7 0.953424 0.318603 0.592952
O O1 0.907653 0.500000 0.418365
O O2 0.838243 0.734398 0.351031
O O3 0.902064 0.738261 0.508818
O O4 0.971591 0.746635 0.400888
O O5 0.203414 0.500000 0.749412
O O6 0.131988 0.280623 0.785786
O O7 0.256819 0.229535 0.779015
O O8 0.122051 0.796387 0.926759
O O9 0.196656 0.000000 0.025364
O O10 0.250000 0.750000 0.000000
O O11 0.155810 0.752425 0.077850
O O12 0.403611 0.500000 0.189823
O O13 0.485603 0.731463 0.187085
O O14 0.172673 0.500000 0.154345
O O15 0.113547 0.733080 0.204826
O O16 0.961648 0.500000 0.769797
O O17 0.930321 0.263191 0.669718
O O18 0.955658 0.500000 0.591880
#
# Coordination Sequence:
#
# PCOD8107950 Si02
#       7
#     8   8   8   8   8   8   8
#     4   8  14  25  51  85 109 136 185 236 272 321
#     4  11  20  34  58  85 111 147 191 231 276 335
#     4  11  23  39  60  84 111 146 186 234 282 332
#     4  11  23  37  58  85 113 142 182 236 285 332
#     4  11  24  39  56  82 116 151 187 231 282 334
#     4  10  21  38  59  82 113 153 191 226 276 338
#     4   8  13  27  51  81 111 140 182 233 274 319
#
# _framework density 18.627780000000001
#
# number of rings (size 3 to 8) (size 9 to 14) (size 15 to 20)
#    0.000    2.000    2.857    2.571    0.000    3.429 
#    0.000    3.571    0.000    2.571    0.000    0.000 
#    0.000    0.000    0.000    0.000    0.000    0.000 
#
# Total GULP energy -347120.817765 kJ/mol
# GULP energy per Si atom -12397.172063 kJ/mol
# Density = 1.858538 g / cm^3
# Si number density = 18.627780 Si / 1000 Ang^3
#
#
#
# Elastic Constant Matrix: (Units=GPa)
#
#
# Indices 1 2 3 4 5 6 
#
# 1 83.0868 14.8953 61.3224 0.0000 -12.5177 0.0000
# 2 14.8953 41.4496 34.0501 0.0000 -6.3122 0.0000
# 3 61.3224 34.0501 161.5019 0.0000 -8.3664 0.0000
# 4 0.0000 0.0000 0.0000 21.7094 0.0000 3.7739
# 5 -12.5177 -6.3122 -8.3664 0.0000 30.6602 0.0000
# 6 0.0000 0.0000 0.0000 3.7739 0.0000 22.6261
#
#
#
# Elastic Compliance Matrix: (Units=1/GPa)
#
#
# Indices 1 2 3 4 5 6 
#
# 1 0.017573 -0.000293 -0.006331 0.000000 0.005386 0.000000
# 2 -0.000293 0.029779 -0.005940 0.000000 0.004390 0.000000
# 3 -0.006331 -0.005940 0.009789 0.000000 -0.001136 0.000000
# 4 0.000000 0.000000 0.000000 0.047438 0.000000 -0.007912
# 5 0.005386 0.004390 -0.001136 0.000000 0.035408 0.000000
# 6 0.000000 0.000000 0.000000 -0.007912 0.000000 0.045516
#
#
# Mechanical properties :
#
#
# Convention : Reuss Voigt Hill
#
# Bulk Modulus (GPa) = 31.23831 56.28599 43.76215
# Shear Modulus (GPa) = 22.59340 26.71720 24.65530
#
# Velocity S-wave (km/s) = 3.48643 3.79128 3.64205
# Velocity P-wave (km/s) = 5.74570 7.03184 6.42106
#
# Compressibility (1/GPa) = 0.03201198
#
# Stress axis : x y z
#
# Youngs Moduli (GPa) = 56.90665 33.58080 102.15214
#
# Poissons Ratio (x) = 0.00985 0.64677
# Poissons Ratio (y) = 0.01670 0.60674
# Poissons Ratio (z) = 0.36030 0.19945
#
# Static dielectric constant tensor:
#      x y z
#    x 3.344020 0.000000 0.008120 
#    y 0.000000 3.260560 0.000000 
#    z 0.008120 0.000000 3.999020 
# 
# 
# High freq. dielectric constant tensor:
#      x y z
#    x 1.702550 0.000000 0.004210 
#    y 0.000000 1.703520 0.000000 
#    z 0.004210 0.000000 1.747220 
# 
# From -- ./inp_files/275656.got.cif
#   From: 2010.06.25/outbox.cif.g09.slc.cpg/sg12_138_cif.got.tgz:275656.got - 2010.06.28 00:19:55.
