data_PCOD8107346
_publ_section_title
;
Structure prediction by ZEFSAII (Michael W. Deem and Ramdas Pophale) SiO2 
 PCOD8107346
Probable space group: C 2/M
;
_chemical_formula_sum "Si O2"
_cell_formula_units_Z 48
_cell_length_a 19.800559
_cell_length_b 8.640079
_cell_length_c 26.592125
_cell_angle_alpha 90.000000
_cell_angle_beta 32.578799
_cell_angle_gamma 90.000000
_cell_volume 2449.632092
_symmetry_space_group_name_H-M "C 2/M"
_symmetry_group_IT_number 12
_symmetry_cell_setting 'monoclinic'
loop_
_space_group_symop_operation_xyz
x,y,z
-x,y,-z
-x,-y,-z
x,-y,z
1/2+x,1/2+y,z
1/2-x,1/2+y,-z
1/2-x,1/2-y,-z
1/2+x,1/2-y,z
loop_
_atom_site_type_symbol
_atom_site_label
_atom_site_fract_x
_atom_site_fract_y
_atom_site_fract_z
Si Si1 0.137398 0.819360 0.930592
Si Si2 0.559951 0.821390 0.593174
Si Si3 0.642944 0.818100 0.033116
Si Si4 0.202634 0.819305 0.256492
Si Si5 0.799286 0.318992 0.395085
Si Si6 0.122749 0.682759 0.763075
O O1 0.237623 0.781049 0.825182
O O2 0.141281 0.000000 0.940528
O O3 0.174664 0.725369 0.956387
O O4 0.000000 0.764655 0.000000
O O5 0.444447 0.715312 0.648908
O O6 0.676094 0.778269 0.485036
O O7 0.593907 0.788642 0.630149
O O8 0.525085 0.000000 0.606784
O O9 0.508398 0.747307 0.134360
O O10 0.641814 0.000000 0.040049
O O11 0.750000 0.750000 0.000000
O O12 0.265452 0.767399 0.269677
O O13 0.226507 0.000000 0.231232
O O14 0.763622 0.500000 0.415477
O O15 0.849781 0.255051 0.310188
O O16 0.111219 0.500000 0.767977
#
# Coordination Sequence:
#
# PCOD8107346 Si02
#       6
#     8   8   8   8   8   8
#     4  11  23  40  61  86 120 159 198 244 298 352
#     4  10  21  37  59  88 118 149 190 244 299 351
#     4  11  23  40  61  89 122 158 202 247 296 350
#     4  11  22  38  61  87 116 154 200 242 291 356
#     4   9  19  39  62  82 112 154 195 237 290 355
#     4   9  20  38  60  84 114 154 197 242 289 344
#
# _framework density 19.594778000000002
#
# number of rings (size 3 to 8) (size 9 to 14) (size 15 to 20)
#    0.000    1.833    1.667    2.000    2.333    2.000 
#    0.000    6.667    0.000    0.000    0.000    0.000 
#    0.000    0.000    0.000    0.000    0.000    0.000 
#
# Total GULP energy -297706.376410 kJ/mol
# GULP energy per Si atom -12404.432350 kJ/mol
# Density = 1.955018 g / cm^3
# Si number density = 19.594778 Si / 1000 Ang^3
#
#
#
# Elastic Constant Matrix: (Units=GPa)
#
#
# Indices 1 2 3 4 5 6 
#
# 1 145.9781 33.1520 62.4816 0.0058 1.1204 -0.0138
# 2 33.1520 48.4314 19.2847 0.0035 -3.9031 -0.0069
# 3 62.4816 19.2847 90.4630 -0.0021 6.8459 0.0056
# 4 0.0058 0.0035 -0.0021 31.7253 -0.0008 -2.5939
# 5 1.1204 -3.9031 6.8459 -0.0008 43.0297 0.0065
# 6 -0.0138 -0.0069 0.0056 -2.5939 0.0065 28.0013
#
#
#
# Elastic Compliance Matrix: (Units=1/GPa)
#
#
# Indices 1 2 3 4 5 6 
#
# 1 0.010648 -0.004728 -0.006370 -0.000001 0.000307 0.000005
# 2 -0.004728 0.025012 -0.002275 -0.000002 0.002754 0.000004
# 3 -0.006370 -0.002275 0.016136 0.000002 -0.002608 -0.000006
# 4 -0.000001 -0.000002 0.000002 0.031761 0.000000 0.002942
# 5 0.000307 0.002754 -0.002608 0.000000 0.023896 -0.000004
# 6 0.000005 0.000004 -0.000006 0.002942 -0.000004 0.035985
#
#
# Mechanical properties :
#
#
# Convention : Reuss Voigt Hill
#
# Bulk Modulus (GPa) = 39.91884 57.18991 48.55438
# Shear Modulus (GPa) = 28.00584 31.88155 29.94369
#
# Velocity S-wave (km/s) = 3.78464 4.03804 3.91339
# Velocity P-wave (km/s) = 6.28605 7.14077 6.72700
#
# Compressibility (1/GPa) = 0.02505083
#
# Stress axis : x y z
#
# Youngs Moduli (GPa) = 93.91353 39.98132 61.97240
#
# Poissons Ratio (x) = 0.18902 0.39476
# Poissons Ratio (y) = 0.44398 0.14099
# Poissons Ratio (z) = 0.59822 0.09096
#
# Static dielectric constant tensor:
#      x y z
#    x 3.679020 0.000000 -0.070660 
#    y 0.000000 3.398660 0.000010 
#    z -0.070660 0.000010 3.536510 
# 
# 
# High freq. dielectric constant tensor:
#      x y z
#    x 1.773410 0.000000 0.000200 
#    y 0.000000 1.752500 0.000000 
#    z 0.000200 0.000000 1.767440 
# 
# From -- ./inp_files/248812.got.cif
#   From: 2010.06.25/outbox.cif.g09.slc.cpg/sg12_125_cif.got.tgz:248812.got - 2010.06.28 00:19:55.
