data_PCOD8107106
_publ_section_title
;
Structure prediction by ZEFSAII (Michael W. Deem and Ramdas Pophale) SiO2 
 PCOD8107106
Probable space group: C 2/M
;
_chemical_formula_sum "Si O2"
_cell_formula_units_Z 48
_cell_length_a 10.135333
_cell_length_b 9.095684
_cell_length_c 26.609132
_cell_angle_alpha 90.000000
_cell_angle_beta 89.818458
_cell_angle_gamma 90.000000
_cell_volume 2453.024658
_symmetry_space_group_name_H-M "C 2/M"
_symmetry_group_IT_number 12
_symmetry_cell_setting 'monoclinic'
loop_
_space_group_symop_operation_xyz
x,y,z
-x,y,-z
-x,-y,-z
x,-y,z
1/2+x,1/2+y,z
1/2-x,1/2+y,-z
1/2-x,1/2-y,-z
1/2+x,1/2-y,z
loop_
_atom_site_type_symbol
_atom_site_label
_atom_site_fract_x
_atom_site_fract_y
_atom_site_fract_z
Si Si1 0.367545 0.672504 0.527833
Si Si2 0.592707 0.171347 0.698234
Si Si3 0.346184 0.671282 0.198377
Si Si4 0.860814 0.829255 0.642442
Si Si5 0.631095 0.672916 0.027355
Si Si6 0.614435 0.329510 0.142617
O O1 0.500000 0.721413 0.500000
O O2 0.343135 0.500000 0.524831
O O3 0.250000 0.750000 0.500000
O O4 0.374770 0.725247 0.585317
O O5 0.624412 0.248603 0.750083
O O6 0.711121 0.200544 0.659291
O O7 0.458099 0.235570 0.676556
O O8 0.572194 0.000000 0.708486
O O9 0.327115 0.500000 0.209395
O O10 0.464797 0.700296 0.159558
O O11 0.211566 0.732973 0.175843
O O12 0.898918 0.000000 0.648243
O O13 0.648710 0.500000 0.021850
O O14 0.625894 0.721646 0.085195
O O15 0.500000 0.727959 0.000000
O O16 0.750000 0.750000 0.000000
O O17 0.652240 0.500000 0.149545
#
# Coordination Sequence:
#
# PCOD8107106 Si02
#       6
#     8   8   8   8   8   8
#     4  10  21  37  58  84 113 147 188 232 278 331
#     4  11  23  38  58  84 113 147 187 230 279 334
#     4  11  23  39  60  84 112 148 188 231 280 332
#     4  10  22  39  57  82 116 149 185 231 280 332
#     4  10  21  38  59  84 115 149 186 229 277 329
#     4  10  22  39  58  83 115 148 185 231 278 328
#
# _framework density 19.567679999999999
#
# number of rings (size 3 to 8) (size 9 to 14) (size 15 to 20)
#    0.000    1.667    0.000    4.000    0.000   10.000 
#    0.000    0.000    0.000    0.000    0.000    0.000 
#    0.000    0.000    0.000    0.000    0.000    0.000 
#
# Total GULP energy -297746.673486 kJ/mol
# GULP energy per Si atom -12406.111395 kJ/mol
# Density = 1.952314 g / cm^3
# Si number density = 19.567680 Si / 1000 Ang^3
#
#
#
# Elastic Constant Matrix: (Units=GPa)
#
#
# Indices 1 2 3 4 5 6 
#
# 1 84.7170 36.4621 16.1339 0.0000 11.9743 0.0000
# 2 36.4621 66.6330 33.7532 0.0000 7.1172 0.0000
# 3 16.1339 33.7532 110.7518 0.0000 4.4715 0.0000
# 4 0.0000 0.0000 0.0000 30.3439 0.0000 2.0147
# 5 11.9743 7.1172 4.4715 0.0000 43.3593 0.0000
# 6 0.0000 0.0000 0.0000 2.0147 0.0000 36.8486
#
#
#
# Elastic Compliance Matrix: (Units=1/GPa)
#
#
# Indices 1 2 3 4 5 6 
#
# 1 0.015831 -0.008556 0.000423 0.000000 -0.003011 0.000000
# 2 -0.008556 0.022616 -0.005615 0.000000 -0.000770 0.000000
# 3 0.000423 -0.005615 0.010691 0.000000 -0.000298 0.000000
# 4 0.000000 0.000000 0.000000 0.033076 0.000000 -0.001808
# 5 -0.003011 -0.000770 -0.000298 0.000000 0.024052 0.000000
# 6 0.000000 0.000000 0.000000 -0.001808 0.000000 0.027237
#
#
# Mechanical properties :
#
#
# Convention : Reuss Voigt Hill
#
# Bulk Modulus (GPa) = 46.20553 48.31114 47.25834
# Shear Modulus (GPa) = 29.72428 33.82721 31.77574
#
# Velocity S-wave (km/s) = 3.90173 4.16231 4.03412
# Velocity P-wave (km/s) = 6.63042 6.91684 6.77514
#
# Compressibility (1/GPa) = 0.02164243
#
# Stress axis : x y z
#
# Youngs Moduli (GPa) = 63.16539 44.21664 93.53754
#
# Poissons Ratio (x) = 0.37830 -0.03954
# Poissons Ratio (y) = 0.54042 0.52522
# Poissons Ratio (z) = -0.02670 0.24828
#
# Static dielectric constant tensor:
#      x y z
#    x 3.676610 0.000000 0.003550 
#    y 0.000000 3.578290 0.000000 
#    z 0.003550 0.000000 4.129850 
# 
# 
# High freq. dielectric constant tensor:
#      x y z
#    x 1.776540 0.000000 -0.002830 
#    y 0.000000 1.760790 0.000000 
#    z -0.002830 0.000000 1.781740 
# 
# From -- ./inp_files/334637.got.cif
#   From: 2010.06.25/outbox.cif.g09.slc.cpg/sg12_168_cif.got.tgz:334637.got - 2010.06.28 00:19:55.
