data_PCOD8107048
_publ_section_title
;
Structure prediction by ZEFSAII (Michael W. Deem and Ramdas Pophale) SiO2 
 PCOD8107048
Probable space group: C 2/M
;
_chemical_formula_sum "Si O2"
_cell_formula_units_Z 64
_cell_length_a 25.140714
_cell_length_b 9.329775
_cell_length_c 15.050284
_cell_angle_alpha 90.000000
_cell_angle_beta 71.095624
_cell_angle_gamma 90.000000
_cell_volume 3339.738297
_symmetry_space_group_name_H-M "C 2/M"
_symmetry_group_IT_number 12
_symmetry_cell_setting 'monoclinic'
loop_
_space_group_symop_operation_xyz
x,y,z
-x,y,-z
-x,-y,-z
x,-y,z
1/2+x,1/2+y,z
1/2-x,1/2+y,-z
1/2-x,1/2-y,-z
1/2+x,1/2-y,z
loop_
_atom_site_type_symbol
_atom_site_label
_atom_site_fract_x
_atom_site_fract_y
_atom_site_fract_z
Si Si1 0.610494 0.832375 0.087217
Si Si2 0.586993 0.163369 0.590864
Si Si3 0.000394 0.169195 0.103427
Si Si4 0.017039 0.840765 0.389166
Si Si5 0.106649 0.664320 0.773662
Si Si6 0.187844 0.333778 0.882186
Si Si7 0.800340 0.664043 0.812087
Si Si8 0.120091 0.665240 0.380830
O O1 0.553614 0.740738 0.123295
O O2 0.648440 0.793331 0.151337
O O3 0.594660 0.000000 0.093488
O O4 0.644009 0.785650 0.980939
O O5 0.531573 0.257896 0.636912
O O6 0.623926 0.180932 0.660252
O O7 0.622496 0.210684 0.483945
O O8 0.566931 0.000000 0.589184
O O9 0.944224 0.231258 0.176696
O O10 0.002594 0.000000 0.118426
O O11 0.000000 0.208638 0.000000
O O12 0.075258 0.756884 0.349614
O O13 0.000000 0.848546 0.500000
O O14 0.023695 0.000000 0.344980
O O15 0.088970 0.500000 0.804895
O O16 0.161325 0.706759 0.801139
O O17 0.201653 0.500000 0.883286
O O18 0.246257 0.255089 0.864605
O O19 0.783492 0.500000 0.836795
O O20 0.819903 0.691360 0.699230
O O21 0.102126 0.500000 0.380821
#
# Coordination Sequence:
#
# PCOD8107048 Si02
#       8
#     8   8   8   8   8   8   8   8
#     4  10  21  38  59  82 110 146 184 221 271 333
#     4   9  18  33  54  76 104 145 186 222 263 321
#     4  11  23  37  56  86 118 146 177 223 278 328
#     4   9  17  29  47  73 106 140 173 218 274 322
#     4  10  21  37  58  81 109 149 189 222 267 330
#     4  10  21  38  58  79 106 142 185 231 276 324
#     4  10  22  37  57  82 108 142 185 231 275 322
#     4   9  18  34  52  75 107 142 184 227 268 318
#
# _framework density 19.163177000000001
#
# number of rings (size 3 to 8) (size 9 to 14) (size 15 to 20)
#    0.000    2.250    1.250    1.125    1.750    4.500 
#    0.000    0.625    0.000    0.000    0.000    0.000 
#    0.000    0.000    0.000    0.000    0.000    0.000 
#
# Total GULP energy -396771.697799 kJ/mol
# GULP energy per Si atom -12399.115556 kJ/mol
# Density = 1.911956 g / cm^3
# Si number density = 19.163177 Si / 1000 Ang^3
#
#
#
# Elastic Constant Matrix: (Units=GPa)
#
#
# Indices 1 2 3 4 5 6 
#
# 1 77.7163 38.1791 24.4019 0.0000 0.3367 0.0000
# 2 38.1791 69.5274 21.6872 0.0000 -2.2412 0.0000
# 3 24.4019 21.6872 69.6441 0.0000 17.6313 0.0000
# 4 0.0000 0.0000 0.0000 19.0432 0.0000 -4.1499
# 5 0.3367 -2.2412 17.6313 0.0000 21.2882 0.0000
# 6 0.0000 0.0000 0.0000 -4.1499 0.0000 28.7433
#
#
#
# Elastic Compliance Matrix: (Units=1/GPa)
#
#
# Indices 1 2 3 4 5 6 
#
# 1 0.018519 -0.008724 -0.004385 0.000000 0.002421 0.000000
# 2 -0.008724 0.020995 -0.005157 0.000000 0.006620 0.000000
# 3 -0.004385 -0.005157 0.022296 0.000000 -0.018940 0.000000
# 4 0.000000 0.000000 0.000000 0.054218 0.000000 0.007828
# 5 0.002421 0.006620 -0.018940 0.000000 0.063319 0.000000
# 6 0.000000 0.000000 0.000000 0.007828 0.000000 0.035921
#
#
# Mechanical properties :
#
#
# Convention : Reuss Voigt Hill
#
# Bulk Modulus (GPa) = 39.55891 42.82490 41.19190
# Shear Modulus (GPa) = 19.21407 22.65625 20.93516
#
# Velocity S-wave (km/s) = 3.16991 3.44216 3.30884
# Velocity P-wave (km/s) = 5.83830 6.18013 6.01164
#
# Compressibility (1/GPa) = 0.02527876
#
# Stress axis : x y z
#
# Youngs Moduli (GPa) = 53.99798 47.63013 44.85133
#
# Poissons Ratio (x) = 0.41550 0.19668
# Poissons Ratio (y) = 0.47105 0.23131
# Poissons Ratio (z) = 0.23678 0.24564
#
# Static dielectric constant tensor:
#      x y z
#    x 3.272820 0.000000 0.173540 
#    y 0.000000 3.552770 0.000000 
#    z 0.173540 0.000000 3.685930 
# 
# 
# High freq. dielectric constant tensor:
#      x y z
#    x 1.722700 0.000000 0.011320 
#    y 0.000000 1.741220 0.000000 
#    z 0.011320 0.000000 1.755570 
# 
# From -- ./inp_files/243906.got.cif
#   From: 2010.06.25/outbox.cif.g09.slc.cpg/sg12_122_cif.got.tgz:243906.got - 2010.06.28 00:19:55.
