data_PCOD8107251
_publ_section_title
;
Structure prediction by ZEFSAII (Michael W. Deem and Ramdas Pophale) SiO2 
 PCOD8107251
Probable space group: C 2/M
;
_chemical_formula_sum "Si O2"
_cell_formula_units_Z 56
_cell_length_a 20.429654
_cell_length_b 9.017866
_cell_length_c 15.831360
_cell_angle_alpha 90.000000
_cell_angle_beta 103.967020
_cell_angle_gamma 90.000000
_cell_volume 2830.410221
_symmetry_space_group_name_H-M "C 2/M"
_symmetry_group_IT_number 12
_symmetry_cell_setting 'monoclinic'
loop_
_space_group_symop_operation_xyz
x,y,z
-x,y,-z
-x,-y,-z
x,-y,z
1/2+x,1/2+y,z
1/2-x,1/2+y,-z
1/2-x,1/2-y,-z
1/2+x,1/2-y,z
loop_
_atom_site_type_symbol
_atom_site_label
_atom_site_fract_x
_atom_site_fract_y
_atom_site_fract_z
Si Si1 0.821850 0.174674 0.118386
Si Si2 0.530374 0.823559 0.276835
Si Si3 0.596780 0.676349 0.693772
Si Si4 0.324155 0.170580 0.611451
Si Si5 0.689346 0.828652 0.589970
Si Si6 0.538675 0.172497 0.091903
Si Si7 0.828318 0.670973 0.952933
O O1 0.861116 0.232942 0.212197
O O2 0.744122 0.228355 0.101715
O O3 0.827719 0.000000 0.113295
O O4 0.854062 0.244190 0.044363
O O5 0.478279 0.742600 0.322737
O O6 0.605460 0.776268 0.327102
O O7 0.517879 0.763767 0.176986
O O8 0.521347 0.000000 0.281652
O O9 0.593114 0.500000 0.686429
O O10 0.632323 0.739217 0.621998
O O11 0.328224 0.195453 0.512960
O O12 0.263777 0.265775 0.633442
O O13 0.309389 0.000000 0.629467
O O14 0.687184 0.000000 0.615724
O O15 0.618688 0.198494 0.105514
O O16 0.520458 0.000000 0.086916
O O17 0.500000 0.247796 0.000000
O O18 0.824317 0.500000 0.977388
#
# Coordination Sequence:
#
# PCOD8107251 Si02
#       7
#     8   8   8   8   8   8   8
#     4   9  19  33  50  74 106 143 183 228 279 331
#     4  10  21  37  59  83 112 150 191 233 280 337
#     4  11  23  37  55  81 115 152 189 233 284 335
#     4   9  20  39  62  87 114 146 185 232 285 340
#     4  10  21  38  61  87 114 146 187 233 282 339
#     4   9  17  29  50  79 106 139 182 225 270 324
#     4   9  17  31  52  75 101 138 185 233 276 329
#
# _framework density 19.785115999999999
#
# number of rings (size 3 to 8) (size 9 to 14) (size 15 to 20)
#    0.000    2.429    0.000    1.714    2.000    4.000 
#    0.000    3.571    0.000    2.571    0.000    0.000 
#    0.000    0.000    0.000    0.000    0.000    0.000 
#
# Total GULP energy -347207.925407 kJ/mol
# GULP energy per Si atom -12400.283050 kJ/mol
# Density = 1.974008 g / cm^3
# Si number density = 19.785116 Si / 1000 Ang^3
#
#
#
# Elastic Constant Matrix: (Units=GPa)
#
#
# Indices 1 2 3 4 5 6 
#
# 1 120.9400 40.1974 51.9101 0.0000 -6.2252 0.0000
# 2 40.1974 51.7615 29.8446 0.0000 -3.6375 0.0000
# 3 51.9101 29.8446 67.2504 0.0000 -1.8512 0.0000
# 4 0.0000 0.0000 0.0000 25.4575 0.0000 -3.4418
# 5 -6.2252 -3.6375 -1.8512 0.0000 34.0981 0.0000
# 6 0.0000 0.0000 0.0000 -3.4418 0.0000 31.5530
#
#
#
# Elastic Compliance Matrix: (Units=1/GPa)
#
#
# Indices 1 2 3 4 5 6 
#
# 1 0.013726 -0.006010 -0.007888 0.000000 0.001437 0.000000
# 2 -0.006010 0.028752 -0.008078 0.000000 0.001531 0.000000
# 3 -0.007888 -0.008078 0.024517 0.000000 -0.000971 0.000000
# 4 0.000000 0.000000 0.000000 0.039869 0.000000 0.004349
# 5 0.001437 0.001531 -0.000971 0.000000 0.029700 0.000000
# 6 0.000000 0.000000 0.000000 0.004349 0.000000 0.032167
#
#
# Mechanical properties :
#
#
# Convention : Reuss Voigt Hill
#
# Bulk Modulus (GPa) = 43.39977 53.76181 48.58079
# Shear Modulus (GPa) = 22.68957 26.08838 24.38898
#
# Velocity S-wave (km/s) = 3.39012 3.63517 3.51478
# Velocity P-wave (km/s) = 6.10795 6.69710 6.40930
#
# Compressibility (1/GPa) = 0.02304159
#
# Stress axis : x y z
#
# Youngs Moduli (GPa) = 72.85468 34.77974 40.78817
#
# Poissons Ratio (x) = 0.20904 0.32174
# Poissons Ratio (y) = 0.43788 0.32950
# Poissons Ratio (z) = 0.57469 0.28096
#
# Static dielectric constant tensor:
#      x y z
#    x 3.706880 0.000000 0.066100 
#    y 0.000000 3.364200 0.000000 
#    z 0.066100 0.000000 3.660960 
# 
# 
# High freq. dielectric constant tensor:
#      x y z
#    x 1.782790 0.000000 -0.001900 
#    y 0.000000 1.746520 0.000000 
#    z -0.001900 0.000000 1.769230 
# 
# From -- ./inp_files/231048.got.cif
#   From: 2010.06.25/outbox.cif.g09.slc.cpg/sg12_116_cif.got.tgz:231048.got - 2010.06.28 00:19:55.
