data_PCOD8107266
_publ_section_title
;
Structure prediction by ZEFSAII (Michael W. Deem and Ramdas Pophale) SiO2 
 PCOD8107266
Probable space group: C 2/M
;
_chemical_formula_sum "Si O2"
_cell_formula_units_Z 56
_cell_length_a 32.269712
_cell_length_b 13.283157
_cell_length_c 16.487921
_cell_angle_alpha 90.000000
_cell_angle_beta 23.741183
_cell_angle_gamma 90.000000
_cell_volume 2845.393627
_symmetry_space_group_name_H-M "C 2/M"
_symmetry_group_IT_number 12
_symmetry_cell_setting 'monoclinic'
loop_
_space_group_symop_operation_xyz
x,y,z
-x,y,-z
-x,-y,-z
x,-y,z
1/2+x,1/2+y,z
1/2-x,1/2+y,-z
1/2-x,1/2-y,-z
1/2+x,1/2-y,z
loop_
_atom_site_type_symbol
_atom_site_label
_atom_site_fract_x
_atom_site_fract_y
_atom_site_fract_z
Si Si1 0.799655 0.688002 0.790869
Si Si2 0.937540 0.607728 0.030971
Si Si3 0.504168 0.116149 0.634890
Si Si4 0.831845 0.118989 0.125181
Si Si5 0.472292 0.257557 0.254362
Si Si6 0.750837 0.735839 0.402035
Si Si7 0.232532 0.386432 0.981391
O O1 0.917017 0.647941 0.577742
O O2 0.745524 0.657685 0.804663
O O3 0.741504 0.635898 0.970950
O O4 0.794432 0.809510 0.812239
O O5 0.929797 0.500000 0.000129
O O6 0.822002 0.642017 0.253861
O O7 0.001960 0.682240 0.862558
O O8 0.000000 0.595804 0.000000
O O9 0.524693 0.195863 0.668518
O O10 0.388852 0.129901 0.811122
O O11 0.524454 0.000000 0.625064
O O12 0.796344 0.165135 0.275239
O O13 0.826832 0.000000 0.143025
O O14 0.947077 0.150536 0.892258
O O15 0.358615 0.297220 0.438739
O O16 0.750000 0.750000 0.500000
O O17 0.266432 0.500000 0.898051
#
# Coordination Sequence:
#
# PCOD8107266 Si02
#       7
#     8   8   8   8   8   8   8
#     4  11  21  38  64  92 125 157 207 251 295 357
#     4  10  21  37  59  85 111 145 191 242 297 352
#     4  11  21  37  62  91 118 158 206 250 299 353
#     4  11  24  40  62  89 121 162 201 245 303 365
#     4  11  22  39  58  85 121 152 193 251 298 356
#     4  11  23  40  61  85 119 152 196 250 300 355
#     4  10  22  39  62  90 126 163 200 249 304 355
#
# _framework density 19.680931999999999
#
# number of rings (size 3 to 8) (size 9 to 14) (size 15 to 20)
#    0.000    1.286    4.286    2.143    0.000    2.857 
#    0.000    1.429    0.000    1.714    0.000    0.000 
#    0.000    0.000    0.000    0.000    0.000    0.000 
#
# Total GULP energy -347155.173694 kJ/mol
# GULP energy per Si atom -12398.399061 kJ/mol
# Density = 1.963614 g / cm^3
# Si number density = 19.680932 Si / 1000 Ang^3
#
#
#
# Elastic Constant Matrix: (Units=GPa)
#
#
# Indices 1 2 3 4 5 6 
#
# 1 81.6044 33.2792 18.6767 0.0000 3.8332 0.0000
# 2 33.2792 122.1307 32.5765 0.0000 -0.0644 0.0000
# 3 18.6767 32.5765 83.4040 0.0000 -6.1726 0.0000
# 4 0.0000 0.0000 0.0000 -2.6871 0.0000 -16.7814
# 5 3.8332 -0.0644 -6.1726 0.0000 28.8119 0.0000
# 6 0.0000 0.0000 0.0000 -16.7814 0.0000 13.8771
#
#
#
# Elastic Compliance Matrix: (Units=1/GPa)
#
#
# Indices 1 2 3 4 5 6 
#
# 1 0.014188 -0.003319 -0.002053 0.000000 -0.002335 0.000000
# 2 -0.003319 0.009933 -0.003152 0.000000 -0.000211 0.000000
# 3 -0.002053 -0.003152 0.013921 0.000000 0.003249 0.000000
# 4 0.000000 0.000000 0.000000 -0.043515 0.000000 -0.052622
# 5 -0.002335 -0.000211 0.003249 0.000000 0.035714 0.000000
# 6 0.000000 0.000000 0.000000 -0.052622 0.000000 0.008426
#
#
# Mechanical properties :
#
#
# Convention : Reuss Voigt Hill
#
# Bulk Modulus (GPa) = 47.63668 50.68932 49.16300
# Shear Modulus (GPa) = 79.72654 21.50748 50.61701
#
# Velocity S-wave (km/s) = 6.37161 3.30935 5.07687
# Velocity P-wave (km/s) = 8.85364 6.35719 7.70717
#
# Compressibility (1/GPa) = 0.02099223
#
# Stress axis : x y z
#
# Youngs Moduli (GPa) = 70.48414 100.67330 71.83287
#
# Poissons Ratio (x) = 0.33418 0.14749
# Poissons Ratio (y) = 0.23397 0.22642
# Poissons Ratio (z) = 0.14472 0.31733
#
# Static dielectric constant tensor:
#      x y z
#    x 3.670530 0.000000 0.043290 
#    y 0.000000 3.755830 0.000000 
#    z 0.043290 0.000000 3.889700 
# 
# 
# High freq. dielectric constant tensor:
#      x y z
#    x 1.774850 0.000000 0.000920 
#    y 0.000000 1.765430 0.000000 
#    z 0.000920 0.000000 1.769590 
# 
# From -- ./inp_files/250988.got.cif
#   From: 2010.06.25/outbox.cif.g09.slc.cpg/sg12_126_cif.got.tgz:250988.got - 2010.06.28 00:19:55.
