data_PCOD8107972
_publ_section_title
;
Structure prediction by ZEFSAII (Michael W. Deem and Ramdas Pophale) SiO2 
 PCOD8107972
Probable space group: C 2/M
;
_chemical_formula_sum "Si O2"
_cell_formula_units_Z 40
_cell_length_a 17.872193
_cell_length_b 8.686067
_cell_length_c 13.678695
_cell_angle_alpha 90.000000
_cell_angle_beta 109.016477
_cell_angle_gamma 90.000000
_cell_volume 2007.579386
_symmetry_space_group_name_H-M "C 2/M"
_symmetry_group_IT_number 12
_symmetry_cell_setting 'monoclinic'
loop_
_space_group_symop_operation_xyz
x,y,z
-x,y,-z
-x,-y,-z
x,-y,z
1/2+x,1/2+y,z
1/2-x,1/2+y,-z
1/2-x,1/2-y,-z
1/2+x,1/2-y,z
loop_
_atom_site_type_symbol
_atom_site_label
_atom_site_fract_x
_atom_site_fract_y
_atom_site_fract_z
Si Si1 0.316517 0.679918 0.596356
Si Si2 0.480622 0.819221 0.600902
Si Si3 0.723245 0.318425 0.199564
Si Si4 0.113108 0.181203 0.791968
Si Si5 0.083486 0.182398 0.999278
O O1 0.313994 0.500000 0.580199
O O2 0.250000 0.750000 0.500000
O O3 0.402366 0.737289 0.604118
O O4 0.300103 0.725413 0.700731
O O5 0.500000 0.763047 0.500000
O O6 0.553390 0.775003 0.699759
O O7 0.466074 0.000000 0.597905
O O8 0.740498 0.500000 0.194901
O O9 0.798859 0.219668 0.203222
O O10 0.652689 0.260203 0.100032
O O11 0.101083 0.239193 0.897493
O O12 0.096723 0.000000 0.774444
O O13 0.079248 0.000000 0.001329
O O14 0.000000 0.252763 0.000000
#
# Coordination Sequence:
#
# PCOD8107972 Si02
#       5
#     8   8   8   8   8
#     4  11  23  39  61  87 115 151 192 234 283 336
#     4  11  24  41  60  83 114 152 191 233 285 341
#     4  10  21  38  59  83 116 155 190 229 282 341
#     4  11  22  36  59  88 115 148 191 237 284 334
#     4   9  18  35  58  83 113 150 191 233 280 337
#
# _framework density 19.924492999999998
#
# number of rings (size 3 to 8) (size 9 to 14) (size 15 to 20)
#    0.000    1.600    0.000    4.800    0.000   11.200 
#    0.000    1.000    0.000    4.200    0.000    0.000 
#    0.000    0.000    0.000    0.000    0.000    0.000 
#
# Total GULP energy -248097.083016 kJ/mol
# GULP energy per Si atom -12404.854151 kJ/mol
# Density = 1.987914 g / cm^3
# Si number density = 19.924493 Si / 1000 Ang^3
#
#
#
# Elastic Constant Matrix: (Units=GPa)
#
#
# Indices 1 2 3 4 5 6 
#
# 1 164.0290 22.6035 83.2890 0.0000 -7.4704 0.0000
# 2 22.6035 24.5171 40.4013 0.0000 -16.6152 0.0000
# 3 83.2890 40.4013 185.7137 0.0000 -0.8692 0.0000
# 4 0.0000 0.0000 0.0000 17.1754 0.0000 2.7793
# 5 -7.4704 -16.6152 -0.8692 0.0000 44.8893 0.0000
# 6 0.0000 0.0000 0.0000 2.7793 0.0000 36.2561
#
#
#
# Elastic Compliance Matrix: (Units=1/GPa)
#
#
# Indices 1 2 3 4 5 6 
#
# 1 0.007988 -0.001556 -0.003241 0.000000 0.000691 0.000000
# 2 -0.001556 0.103219 -0.021581 0.000000 0.037528 0.000000
# 3 -0.003241 -0.021581 0.011494 0.000000 -0.008305 0.000000
# 4 0.000000 0.000000 0.000000 0.058954 0.000000 -0.004519
# 5 0.000691 0.037528 -0.008305 0.000000 0.036122 0.000000
# 6 0.000000 0.000000 0.000000 -0.004519 0.000000 0.027928
#
#
# Mechanical properties :
#
#
# Convention : Reuss Voigt Hill
#
# Bulk Modulus (GPa) = 14.29705 74.09414 44.19560
# Shear Modulus (GPa) = 15.53878 34.86191 25.20034
#
# Velocity S-wave (km/s) = 2.79567 4.18748 3.56025
# Velocity P-wave (km/s) = 4.19669 7.78769 6.25541
#
# Compressibility (1/GPa) = 0.06994450
#
# Stress axis : x y z
#
# Youngs Moduli (GPa) = 125.18977 9.68815 87.00168
#
# Poissons Ratio (x) = 0.01508 0.28194
# Poissons Ratio (y) = 0.19483 1.87761
# Poissons Ratio (z) = 0.40569 0.20908
#
# Static dielectric constant tensor:
#      x y z
#    x 3.730080 0.000000 -0.118410 
#    y 0.000000 3.440540 0.000000 
#    z -0.118410 0.000000 3.911420 
# 
# 
# High freq. dielectric constant tensor:
#      x y z
#    x 1.797950 0.000000 0.000290 
#    y 0.000000 1.762120 0.000000 
#    z 0.000290 0.000000 1.799650 
# 
# From -- ./inp_files/151704.got.cif
#   From: 2010.06.25/outbox.cif.g09.slc.cpg/sg12_76_cif.got.tgz:151704.got - 2010.06.28 00:19:55.
