data_PCOD8107425
_publ_section_title
;
Structure prediction by ZEFSAII (Michael W. Deem and Ramdas Pophale) SiO2 
 PCOD8107425
Probable space group: C 2/M
;
_chemical_formula_sum "Si O2"
_cell_formula_units_Z 48
_cell_length_a 21.877360
_cell_length_b 11.283487
_cell_length_c 16.872942
_cell_angle_alpha 90.000000
_cell_angle_beta 143.253394
_cell_angle_gamma 90.000000
_cell_volume 2491.904910
_symmetry_space_group_name_H-M "C 2/M"
_symmetry_group_IT_number 12
_symmetry_cell_setting 'monoclinic'
loop_
_space_group_symop_operation_xyz
x,y,z
-x,y,-z
-x,-y,-z
x,-y,z
1/2+x,1/2+y,z
1/2-x,1/2+y,-z
1/2-x,1/2-y,-z
1/2+x,1/2-y,z
loop_
_atom_site_type_symbol
_atom_site_label
_atom_site_fract_x
_atom_site_fract_y
_atom_site_fract_z
Si Si1 0.661254 0.000000 0.201194
Si Si2 0.610993 0.864073 0.591818
Si Si3 0.590002 0.234621 0.871066
Si Si4 0.048818 0.500000 0.924723
Si Si5 0.779088 0.363373 0.131029
Si Si6 0.118550 0.135783 0.337829
Si Si7 0.761146 0.788534 0.387382
O O1 0.726758 0.883114 0.286349
O O2 0.562347 0.000000 0.153201
O O3 0.635646 0.000000 0.081898
O O4 0.500000 0.813890 0.500000
O O5 0.689644 0.849995 0.745490
O O6 0.650314 0.792415 0.557199
O O7 0.600258 0.000000 0.553573
O O8 0.559435 0.114156 0.881690
O O9 0.640759 0.208113 0.839239
O O10 0.490786 0.312870 0.751594
O O11 0.666610 0.308865 0.005966
O O12 0.777692 0.500000 0.102545
O O13 0.195473 0.143370 0.491501
O O14 0.164703 0.207392 0.311412
O O15 0.106487 0.000000 0.299241
#
# Coordination Sequence:
#
# PCOD8107425 Si02
#       7
#     4   8   8   4   8   8   8
#     4  11  22  40  61  88 123 156 196 245 294 355
#     4  10  21  39  60  86 115 155 195 244 290 350
#     4  11  21  38  60  89 118 158 198 242 294 353
#     4  11  22  38  62  88 120 163 198 241 297 350
#     4  10  21  37  60  85 119 154 200 243 291 346
#     4  11  23  38  61  88 119 155 197 249 296 352
#     4  11  22  40  61  87 119 156 198 243 299 353
#
# _framework density 19.262373
#
# number of rings (size 3 to 8) (size 9 to 14) (size 15 to 20)
#    0.000    1.333    3.333    3.000    0.000    0.000 
#    1.500    0.417    0.000    4.000    0.000    0.000 
#    0.000    0.000    0.000    0.000    0.000    0.000 
#
# Total GULP energy -297767.872869 kJ/mol
# GULP energy per Si atom -12406.994703 kJ/mol
# Density = 1.921853 g / cm^3
# Si number density = 19.262373 Si / 1000 Ang^3
#
#
#
# Elastic Constant Matrix: (Units=GPa)
#
#
# Indices 1 2 3 4 5 6 
#
# 1 63.8730 21.2933 0.7289 0.0000 12.4988 0.0000
# 2 21.2933 107.6712 24.8928 0.0000 9.2708 0.0000
# 3 0.7289 24.8928 52.5108 0.0000 11.4387 0.0000
# 4 0.0000 0.0000 0.0000 25.9951 0.0000 13.5034
# 5 12.4988 9.2708 11.4387 0.0000 32.4652 0.0000
# 6 0.0000 0.0000 0.0000 13.5034 0.0000 10.0644
#
#
#
# Elastic Compliance Matrix: (Units=1/GPa)
#
#
# Indices 1 2 3 4 5 6 
#
# 1 0.018231 -0.003701 0.003033 0.000000 -0.007030 0.000000
# 2 -0.003701 0.011236 -0.005293 0.000000 0.000081 0.000000
# 3 0.003033 -0.005293 0.023218 0.000000 -0.007837 0.000000
# 4 0.000000 0.000000 0.000000 0.126943 0.000000 -0.170320
# 5 -0.007030 0.000081 -0.007837 0.000000 0.036247 0.000000
# 6 0.000000 0.000000 0.000000 -0.170320 0.000000 0.327879
#
#
# Mechanical properties :
#
#
# Convention : Reuss Voigt Hill
#
# Bulk Modulus (GPa) = 24.53215 35.32055 29.92635
# Shear Modulus (GPa) = 8.78328 25.51426 17.14877
#
# Velocity S-wave (km/s) = 2.13769 3.64341 2.98698
# Velocity P-wave (km/s) = 4.34239 6.00629 5.24080
#
# Compressibility (1/GPa) = 0.04076284
#
# Stress axis : x y z
#
# Youngs Moduli (GPa) = 54.85131 88.99818 43.07048
#
# Poissons Ratio (x) = 0.32941 -0.13063
# Poissons Ratio (y) = 0.20302 0.22796
# Poissons Ratio (z) = -0.16636 0.47105
#
# Static dielectric constant tensor:
#      x y z
#    x 3.421940 0.000000 0.099130 
#    y 0.000000 3.563260 0.000000 
#    z 0.099130 0.000000 3.475970 
# 
# 
# High freq. dielectric constant tensor:
#      x y z
#    x 1.749880 0.000000 0.006660 
#    y 0.000000 1.758540 0.000000 
#    z 0.006660 0.000000 1.753200 
# 
# From -- ./inp_files/165478.got.cif
#   From: 2010.06.25/outbox.cif.g09.slc.cpg/sg12_83_cif.got.tgz:165478.got - 2010.06.28 00:19:55.
