data_PCOD8107219
_publ_section_title
;
Structure prediction by ZEFSAII (Michael W. Deem and Ramdas Pophale) SiO2 
 PCOD8107219
Probable space group: C 2/M
;
_chemical_formula_sum "Si O2"
_cell_formula_units_Z 56
_cell_length_a 14.504029
_cell_length_b 8.709763
_cell_length_c 23.560146
_cell_angle_alpha 90.000000
_cell_angle_beta 81.022960
_cell_angle_gamma 90.000000
_cell_volume 2939.817901
_symmetry_space_group_name_H-M "C 2/M"
_symmetry_group_IT_number 12
_symmetry_cell_setting 'monoclinic'
loop_
_space_group_symop_operation_xyz
x,y,z
-x,y,-z
-x,-y,-z
x,-y,z
1/2+x,1/2+y,z
1/2-x,1/2+y,-z
1/2-x,1/2-y,-z
1/2+x,1/2-y,z
loop_
_atom_site_type_symbol
_atom_site_label
_atom_site_fract_x
_atom_site_fract_y
_atom_site_fract_z
Si Si1 0.188249 0.178632 0.853833
Si Si2 0.060793 0.824060 0.760075
Si Si3 0.519294 0.821539 0.932962
Si Si4 0.093950 0.320519 0.639232
Si Si5 0.610656 0.678989 0.144525
Si Si6 0.544848 0.680652 0.435238
Si Si7 0.236950 0.319474 0.439533
O O1 0.143638 0.210030 0.796505
O O2 0.114921 0.235763 0.907765
O O3 0.286532 0.264582 0.849137
O O4 0.206172 0.000000 0.862343
O O5 0.073880 0.708960 0.706909
O O6 0.959737 0.788883 0.796725
O O7 0.065747 0.000000 0.738688
O O8 0.429086 0.763877 0.907016
O O9 0.533779 0.000000 0.919060
O O10 0.500000 0.786427 0.000000
O O11 0.105957 0.500000 0.626696
O O12 0.185842 0.231746 0.612131
O O13 0.010940 0.254233 0.610276
O O14 0.614353 0.500000 0.129822
O O15 0.500000 0.720180 0.500000
O O16 0.554366 0.500000 0.425344
O O17 0.642926 0.762053 0.420918
O O18 0.239293 0.500000 0.446547
O O19 0.250000 0.250000 0.500000
#
# Coordination Sequence:
#
# PCOD8107219 Si02
#       7
#     8   8   8   8   8   8   8
#     4  10  21  38  62  88 118 158 200 246 297 349
#     4   9  21  41  60  83 117 154 197 247 295 346
#     4  10  21  37  58  87 123 161 202 248 296 348
#     4  12  25  40  62  90 120 155 193 239 295 354
#     4  10  21  38  62  88 118 158 199 246 298 349
#     4  11  23  40  63  87 115 152 190 235 288 344
#     4  12  24  40  62  87 117 151 190 235 286 348
#
# _framework density 19.048798999999999
#
# number of rings (size 3 to 8) (size 9 to 14) (size 15 to 20)
#    0.000    1.429    1.429    5.143    0.000    6.857 
#    0.000    2.857    0.000    0.000    0.000    0.000 
#    0.000    0.000    0.000    0.000    0.000    0.000 
#
# Total GULP energy -347310.941224 kJ/mol
# GULP energy per Si atom -12403.962187 kJ/mol
# Density = 1.900544 g / cm^3
# Si number density = 19.048799 Si / 1000 Ang^3
#
#
#
# Elastic Constant Matrix: (Units=GPa)
#
#
# Indices 1 2 3 4 5 6 
#
# 1 147.0489 37.8261 50.2709 0.0000 4.3229 0.0000
# 2 37.8261 81.9982 55.1669 0.0000 -1.2960 0.0000
# 3 50.2709 55.1669 112.8609 0.0000 0.1432 0.0000
# 4 0.0000 0.0000 0.0000 39.2104 0.0000 6.6227
# 5 4.3229 -1.2960 0.1432 0.0000 19.8510 0.0000
# 6 0.0000 0.0000 0.0000 6.6227 0.0000 44.8724
#
#
#
# Elastic Compliance Matrix: (Units=1/GPa)
#
#
# Indices 1 2 3 4 5 6 
#
# 1 0.008305 -0.002048 -0.002696 0.000000 -0.001923 0.000000
# 2 -0.002048 0.018707 -0.008234 0.000000 0.001727 0.000000
# 3 -0.002696 -0.008234 0.014086 0.000000 -0.000052 0.000000
# 4 0.000000 0.000000 0.000000 0.026155 0.000000 -0.003860
# 5 -0.001923 0.001727 -0.000052 0.000000 0.050907 0.000000
# 6 0.000000 0.000000 0.000000 -0.003860 0.000000 0.022855
#
#
# Mechanical properties :
#
#
# Convention : Reuss Voigt Hill
#
# Bulk Modulus (GPa) = 66.03796 69.82620 67.93208
# Shear Modulus (GPa) = 29.06636 34.02970 31.54803
#
# Velocity S-wave (km/s) = 3.91050 4.23123 4.07402
# Velocity P-wave (km/s) = 7.42512 7.78506 7.60722
#
# Compressibility (1/GPa) = 0.01514281
#
# Stress axis : x y z
#
# Youngs Moduli (GPa) = 120.40293 53.45543 70.99121
#
# Poissons Ratio (x) = 0.10947 0.19139
# Poissons Ratio (y) = 0.24658 0.58455
# Poissons Ratio (z) = 0.32460 0.44016
#
# Static dielectric constant tensor:
#      x y z
#    x 3.660440 0.000000 0.004690 
#    y 0.000000 3.656760 0.000000 
#    z 0.004690 0.000000 3.416650 
# 
# 
# High freq. dielectric constant tensor:
#      x y z
#    x 1.753370 0.000000 0.001600 
#    y 0.000000 1.757780 0.000000 
#    z 0.001600 0.000000 1.739500 
# 
# From -- ./inp_files/309041.got.cif
#   From: 2010.06.25/outbox.cif.g09.slc.cpg/sg12_155_cif.got.tgz:309041.got - 2010.06.28 00:19:55.
