data_PCOD8107021
_publ_section_title
;
Structure prediction by ZEFSAII (Michael W. Deem and Ramdas Pophale) SiO2 
 PCOD8107021
Probable space group: C 2/M
;
_chemical_formula_sum "Si O2"
_cell_formula_units_Z 40
_cell_length_a 14.603306
_cell_length_b 8.565513
_cell_length_c 19.827581
_cell_angle_alpha 90.000000
_cell_angle_beta 56.864247
_cell_angle_gamma 90.000000
_cell_volume 2076.805046
_symmetry_space_group_name_H-M "C 2/M"
_symmetry_group_IT_number 12
_symmetry_cell_setting 'monoclinic'
loop_
_space_group_symop_operation_xyz
x,y,z
-x,y,-z
-x,-y,-z
x,-y,z
1/2+x,1/2+y,z
1/2-x,1/2+y,-z
1/2-x,1/2-y,-z
1/2+x,1/2-y,z
loop_
_atom_site_type_symbol
_atom_site_label
_atom_site_fract_x
_atom_site_fract_y
_atom_site_fract_z
Si Si1 0.108157 0.315424 0.993383
Si Si2 0.913881 0.179773 0.586450
Si Si3 0.796791 0.319033 0.412587
Si Si4 0.335043 0.182901 0.880887
Si Si5 0.525662 0.683009 0.293334
O O1 0.102316 0.500000 0.992451
O O2 0.115194 0.255752 0.068009
O O3 0.218108 0.260756 0.911024
O O4 0.000000 0.245245 0.000000
O O5 0.791587 0.200979 0.610524
O O6 0.923503 0.250674 0.657450
O O7 0.000000 0.260911 0.500000
O O8 0.949322 0.000000 0.578686
O O9 0.828217 0.500000 0.410480
O O10 0.750000 0.250000 0.500000
O O11 0.897357 0.217559 0.346334
O O12 0.420891 0.223574 0.788905
O O13 0.316150 0.000000 0.892171
O O14 0.547089 0.500000 0.274375
#
# Coordination Sequence:
#
# PCOD8107021 Si02
#       5
#     8   8   8   8   8
#     4   9  19  38  63  85 111 150 188 219 269 341
#     4   9  18  35  56  76 103 145 189 224 271 333
#     4  11  21  36  57  80 107 142 188 235 281 328
#     4  10  21  37  57  86 118 144 181 233 280 323
#     4  11  22  38  58  80 112 151 190 230 276 333
#
# _framework density 19.260354
#
# number of rings (size 3 to 8) (size 9 to 14) (size 15 to 20)
#    0.000    2.000    2.000    1.800    0.000    2.800 
#    0.000   13.000    0.000    0.000    0.000    0.000 
#    0.000    0.000    0.000    0.000    0.000    0.000 
#
# Total GULP energy -248007.365568 kJ/mol
# GULP energy per Si atom -12400.368278 kJ/mol
# Density = 1.921652 g / cm^3
# Si number density = 19.260354 Si / 1000 Ang^3
#
#
#
# Elastic Constant Matrix: (Units=GPa)
#
#
# Indices 1 2 3 4 5 6 
#
# 1 128.3839 19.0888 48.3701 0.0000 -4.8785 0.0000
# 2 19.0888 21.4597 0.7874 0.0000 4.3797 0.0001
# 3 48.3701 0.7874 126.9875 0.0000 -1.7629 0.0000
# 4 0.0000 0.0000 0.0000 33.8218 0.0000 -5.3809
# 5 -4.8785 4.3797 -1.7629 0.0000 26.7138 0.0000
# 6 0.0000 0.0001 0.0000 -5.3809 0.0000 26.5185
#
#
#
# Elastic Compliance Matrix: (Units=1/GPa)
#
#
# Indices 1 2 3 4 5 6 
#
# 1 0.010990 -0.010327 -0.004074 0.000000 0.003431 0.000000
# 2 -0.010327 0.057937 0.003419 0.000000 -0.011159 0.000000
# 3 -0.004074 0.003419 0.009396 0.000000 -0.000685 0.000000
# 4 0.000000 0.000000 0.000000 0.030553 0.000000 0.006200
# 5 0.003431 -0.011159 -0.000685 0.000000 0.039845 0.000000
# 6 0.000000 0.000000 0.000000 0.006200 0.000000 0.038967
#
#
# Mechanical properties :
#
#
# Convention : Reuss Voigt Hill
#
# Bulk Modulus (GPa) = 17.74333 45.92487 31.83410
# Shear Modulus (GPa) = 21.88776 31.31648 26.60212
#
# Velocity S-wave (km/s) = 3.37473 4.03669 3.72046
# Velocity P-wave (km/s) = 4.94140 6.75444 5.91777
#
# Compressibility (1/GPa) = 0.05635922
#
# Stress axis : x y z
#
# Youngs Moduli (GPa) = 90.99137 17.26020 106.42738
#
# Poissons Ratio (x) = 0.17824 0.43364
# Poissons Ratio (y) = 0.93964 -0.36391
# Poissons Ratio (z) = 0.37074 -0.05902
#
# Static dielectric constant tensor:
#      x y z
#    x 3.705470 0.000000 0.199820 
#    y 0.000000 3.363830 0.000000 
#    z 0.199820 0.000000 3.427900 
# 
# 
# High freq. dielectric constant tensor:
#      x y z
#    x 1.758930 0.000000 0.000080 
#    y 0.000000 1.733320 0.000000 
#    z 0.000080 0.000000 1.750480 
# 
# From -- ./inp_files/211211.got.cif
#   From: 2010.06.25/outbox.cif.g09.slc.cpg/sg12_106_cif.got.tgz:211211.got - 2010.06.28 00:19:55.
