data_PCOD8107091
_publ_section_title
;
Structure prediction by ZEFSAII (Michael W. Deem and Ramdas Pophale) SiO2 
 PCOD8107091
Probable space group: C 2/M
;
_chemical_formula_sum "Si O2"
_cell_formula_units_Z 48
_cell_length_a 26.589742
_cell_length_b 9.340941
_cell_length_c 14.976778
_cell_angle_alpha 90.000000
_cell_angle_beta 138.908357
_cell_angle_gamma 90.000000
_cell_volume 2444.915571
_symmetry_space_group_name_H-M "C 2/M"
_symmetry_group_IT_number 12
_symmetry_cell_setting 'monoclinic'
loop_
_space_group_symop_operation_xyz
x,y,z
-x,y,-z
-x,-y,-z
x,-y,z
1/2+x,1/2+y,z
1/2-x,1/2+y,-z
1/2-x,1/2-y,-z
1/2+x,1/2-y,z
loop_
_atom_site_type_symbol
_atom_site_label
_atom_site_fract_x
_atom_site_fract_y
_atom_site_fract_z
Si Si1 0.165318 0.334745 0.541946
Si Si2 0.338288 0.664727 0.792566
Si Si3 0.083783 0.167677 0.584433
Si Si4 0.428550 0.663891 0.090832
Si Si5 0.326725 0.666143 0.119830
Si Si6 0.078693 0.333869 0.247113
O O1 0.159468 0.500000 0.562398
O O2 0.251704 0.278048 0.669087
O O3 0.108282 0.246455 0.527527
O O4 0.141575 0.310529 0.407948
O O5 0.343552 0.500000 0.768232
O O6 0.393618 0.757529 0.805224
O O7 0.364773 0.683907 0.929466
O O8 0.142717 0.206002 0.741658
O O9 0.000000 0.222168 0.500000
O O10 0.081879 0.000000 0.560940
O O11 0.458088 0.500000 0.132406
O O12 0.390897 0.708947 0.133885
O O13 0.498682 0.768618 0.169933
O O14 0.307280 0.500000 0.084984
O O15 0.250000 0.750000 0.000000
O O16 0.066113 0.500000 0.209174
#
# Coordination Sequence:
#
# PCOD8107091 Si02
#       6
#     8   8   8   8   8   8
#     4  10  22  39  58  82 111 145 185 227 275 328
#     4  10  21  38  59  81 108 146 188 225 268 327
#     4  10  21  37  58  84 112 145 186 228 271 322
#     4  10  21  38  59  81 109 148 187 222 268 328
#     4  10  21  37  58  84 113 146 184 226 273 325
#     4  11  23  37  56  84 114 143 180 229 280 326
#
# _framework density 19.632580999999998
#
# number of rings (size 3 to 8) (size 9 to 14) (size 15 to 20)
#    0.000    1.833    0.000    3.500    0.000    9.000 
#    0.000    0.000    0.000    0.000    0.000    0.000 
#    0.000    0.000    0.000    0.000    0.000    0.000 
#
# Total GULP energy -297755.029273 kJ/mol
# GULP energy per Si atom -12406.459553 kJ/mol
# Density = 1.958790 g / cm^3
# Si number density = 19.632581 Si / 1000 Ang^3
#
#
#
# Elastic Constant Matrix: (Units=GPa)
#
#
# Indices 1 2 3 4 5 6 
#
# 1 74.0222 33.2558 -4.9412 0.0000 0.5356 0.0000
# 2 33.2558 62.6897 18.8286 0.0000 4.0487 0.0000
# 3 -4.9412 18.8286 54.4543 0.0000 12.5936 0.0000
# 4 0.0000 0.0000 0.0000 32.8115 0.0000 3.6653
# 5 0.5356 4.0487 12.5936 0.0000 37.7257 0.0000
# 6 0.0000 0.0000 0.0000 3.6653 0.0000 32.7653
#
#
#
# Elastic Compliance Matrix: (Units=1/GPa)
#
#
# Indices 1 2 3 4 5 6 
#
# 1 0.019338 -0.012041 0.006158 0.000000 -0.001038 0.000000
# 2 -0.012041 0.025298 -0.010026 0.000000 0.000803 0.000000
# 3 0.006158 -0.010026 0.024015 0.000000 -0.007028 0.000000
# 4 0.000000 0.000000 0.000000 0.030863 0.000000 -0.003452
# 5 -0.001038 0.000803 -0.007028 0.000000 0.028782 0.000000
# 6 0.000000 0.000000 0.000000 -0.003452 0.000000 0.030906
#
#
# Mechanical properties :
#
#
# Convention : Reuss Voigt Hill
#
# Bulk Modulus (GPa) = 27.14879 31.71697 29.43288
# Shear Modulus (GPa) = 24.59465 30.26202 27.42833
#
# Velocity S-wave (km/s) = 3.54326 3.93035 3.74181
# Velocity P-wave (km/s) = 5.53155 6.06525 5.80453
#
# Compressibility (1/GPa) = 0.03683405
#
# Stress axis : x y z
#
# Youngs Moduli (GPa) = 51.71273 39.52829 41.64110
#
# Poissons Ratio (x) = 0.47595 -0.25643
# Poissons Ratio (y) = 0.62266 0.41748
# Poissons Ratio (z) = -0.31845 0.39630
#
# Static dielectric constant tensor:
#      x y z
#    x 3.427700 0.000000 -0.155900 
#    y 0.000000 3.538310 0.000000 
#    z -0.155900 0.000000 3.658640 
# 
# 
# High freq. dielectric constant tensor:
#      x y z
#    x 1.772270 0.000000 -0.001500 
#    y 0.000000 1.757680 0.000000 
#    z -0.001500 0.000000 1.781940 
# 
# From -- ./inp_files/244616.got.cif
#   From: 2010.06.25/outbox.cif.g09.slc.cpg/sg12_123_cif.got.tgz:244616.got - 2010.06.28 00:19:55.
