data_PCOD8107874
_publ_section_title
;
Structure prediction by ZEFSAII (Michael W. Deem and Ramdas Pophale) SiO2 
 PCOD8107874
Probable space group: C 2/M
;
_chemical_formula_sum "Si O2"
_cell_formula_units_Z 64
_cell_length_a 23.389238
_cell_length_b 9.232200
_cell_length_c 14.794586
_cell_angle_alpha 90.000000
_cell_angle_beta 93.354849
_cell_angle_gamma 90.000000
_cell_volume 3189.181123
_symmetry_space_group_name_H-M "C 2/M"
_symmetry_group_IT_number 12
_symmetry_cell_setting 'monoclinic'
loop_
_space_group_symop_operation_xyz
x,y,z
-x,y,-z
-x,-y,-z
x,-y,z
1/2+x,1/2+y,z
1/2-x,1/2+y,-z
1/2-x,1/2-y,-z
1/2+x,1/2-y,z
loop_
_atom_site_type_symbol
_atom_site_label
_atom_site_fract_x
_atom_site_fract_y
_atom_site_fract_z
Si Si1 0.396555 0.663599 0.991535
Si Si2 0.064464 0.169979 0.486294
Si Si3 0.411847 0.168005 0.168510
Si Si4 0.772386 0.164775 0.916102
Si Si5 0.740002 0.165803 0.265362
Si Si6 0.864414 0.165451 0.332063
Si Si7 0.118436 0.668768 0.323511
Si Si8 0.542366 0.834217 0.146746
O O1 0.414315 0.500000 0.017334
O O2 0.383013 0.748565 0.082451
O O3 0.340982 0.668222 0.923074
O O4 0.447928 0.738487 0.941485
O O5 0.106277 0.212642 0.572031
O O6 0.089128 0.244059 0.400276
O O7 0.000000 0.225865 0.500000
O O8 0.063858 0.000000 0.468104
O O9 0.386827 0.227619 0.258352
O O10 0.479378 0.196208 0.177502
O O11 0.396433 0.000000 0.157965
O O12 0.750211 0.237974 0.822489
O O13 0.749468 0.000000 0.917139
O O14 0.750000 0.250000 0.000000
O O15 0.795685 0.181835 0.334286
O O16 0.684888 0.215215 0.318388
O O17 0.731338 0.000000 0.232228
O O18 0.881006 0.000000 0.308945
O O19 0.112050 0.500000 0.345345
O O20 0.086607 0.710054 0.228313
O O21 0.550770 0.000000 0.117853
#
# Coordination Sequence:
#
# PCOD8107874 Si02
#       8
#     8   8   8   8   8   8   8   8
#     4  11  23  37  55  83 116 152 195 239 290 350
#     4  10  22  40  62  89 121 155 191 237 294 353
#     4  11  23  37  57  85 116 153 196 242 292 346
#     4  11  23  37  56  83 115 155 201 244 289 346
#     4  10  21  39  61  84 115 154 196 242 294 347
#     4  10  22  40  60  85 117 153 195 240 289 348
#     4  10  21  38  62  88 116 152 194 244 297 347
#     4  10  21  38  58  83 116 153 194 240 291 346
#
# _framework density 20.067848000000001
#
# number of rings (size 3 to 8) (size 9 to 14) (size 15 to 20)
#    0.000    1.625    1.250    3.000    0.000    9.750 
#    0.000    0.000    0.000    0.000    0.000    0.000 
#    0.000    0.000    0.000    0.000    0.000    0.000 
#
# Total GULP energy -396959.089725 kJ/mol
# GULP energy per Si atom -12404.971554 kJ/mol
# Density = 2.002217 g / cm^3
# Si number density = 20.067848 Si / 1000 Ang^3
#
#
#
# Elastic Constant Matrix: (Units=GPa)
#
#
# Indices 1 2 3 4 5 6 
#
# 1 91.2899 32.4046 26.9185 0.0000 0.4064 0.0000
# 2 32.4046 94.3031 44.4985 0.0000 -8.9184 0.0000
# 3 26.9185 44.4985 70.3469 0.0000 -11.7325 0.0000
# 4 0.0000 0.0000 0.0000 36.6931 0.0000 -7.5638
# 5 0.4064 -8.9184 -11.7325 0.0000 38.1761 0.0000
# 6 0.0000 0.0000 0.0000 -7.5638 0.0000 26.9855
#
#
#
# Elastic Compliance Matrix: (Units=1/GPa)
#
#
# Indices 1 2 3 4 5 6 
#
# 1 0.013045 -0.003075 -0.003362 0.000000 -0.001890 0.000000
# 2 -0.003075 0.015855 -0.008674 0.000000 0.001071 0.000000
# 3 -0.003362 -0.008674 0.021772 0.000000 0.004701 0.000000
# 4 0.000000 0.000000 0.000000 0.028924 0.000000 0.008107
# 5 -0.001890 0.001071 0.004701 0.000000 0.027909 0.000000
# 6 0.000000 0.000000 0.000000 0.008107 0.000000 0.039329
#
#
# Mechanical properties :
#
#
# Convention : Reuss Voigt Hill
#
# Bulk Modulus (GPa) = 48.89753 51.50923 50.20338
# Shear Modulus (GPa) = 27.19246 30.51217 28.85232
#
# Velocity S-wave (km/s) = 3.68506 3.90353 3.79587
# Velocity P-wave (km/s) = 6.52114 6.78527 6.65452
#
# Compressibility (1/GPa) = 0.02045093
#
# Stress axis : x y z
#
# Youngs Moduli (GPa) = 76.65535 63.07178 45.92963
#
# Poissons Ratio (x) = 0.19395 0.15442
# Poissons Ratio (y) = 0.23572 0.39839
# Poissons Ratio (z) = 0.25772 0.54708
#
# Static dielectric constant tensor:
#      x y z
#    x 3.897290 0.000000 0.194830 
#    y 0.000000 3.679270 0.000000 
#    z 0.194830 0.000000 3.530120 
# 
# 
# High freq. dielectric constant tensor:
#      x y z
#    x 1.800370 0.000000 0.004440 
#    y 0.000000 1.782730 0.000000 
#    z 0.004440 0.000000 1.774880 
# 
# From -- ./inp_files/238758.got.cif
#   From: 2010.06.25/outbox.cif.g09.slc.cpg/sg12_120_cif.got.tgz:238758.got - 2010.06.28 00:19:55.
