data_PCOD8107880
_publ_section_title
;
Structure prediction by ZEFSAII (Michael W. Deem and Ramdas Pophale) SiO2 
 PCOD8107880
Probable space group: C 2/M
;
_chemical_formula_sum "Si O2"
_cell_formula_units_Z 48
_cell_length_a 28.546637
_cell_length_b 9.054629
_cell_length_c 9.791964
_cell_angle_alpha 90.000000
_cell_angle_beta 80.105995
_cell_angle_gamma 90.000000
_cell_volume 2493.376030
_symmetry_space_group_name_H-M "C 2/M"
_symmetry_group_IT_number 12
_symmetry_cell_setting 'monoclinic'
loop_
_space_group_symop_operation_xyz
x,y,z
-x,y,-z
-x,-y,-z
x,-y,z
1/2+x,1/2+y,z
1/2-x,1/2+y,-z
1/2-x,1/2-y,-z
1/2+x,1/2-y,z
loop_
_atom_site_type_symbol
_atom_site_label
_atom_site_fract_x
_atom_site_fract_y
_atom_site_fract_z
Si Si1 0.209756 0.328453 0.703112
Si Si2 0.882413 0.671571 0.776608
Si Si3 0.461774 0.673614 0.129933
Si Si4 0.139024 0.825498 0.939282
Si Si5 0.695698 0.830813 0.402224
Si Si6 0.511698 0.174615 0.342772
O O1 0.207786 0.500000 0.742490
O O2 0.182137 0.237408 0.830583
O O3 0.264219 0.276215 0.677889
O O4 0.186635 0.296744 0.566406
O O5 0.882352 0.500000 0.816788
O O6 0.853195 0.699691 0.652438
O O7 0.935781 0.729782 0.725072
O O8 0.858004 0.761995 0.909958
O O9 0.465095 0.500000 0.152288
O O10 0.410179 0.724103 0.105404
O O11 0.472113 0.754294 0.266217
O O12 0.500000 0.727533 0.000000
O O13 0.143654 0.000000 0.945281
O O14 0.712779 0.000000 0.375576
O O15 0.500000 0.229970 0.500000
O O16 0.507670 0.000000 0.333710
#
# Coordination Sequence:
#
# PCOD8107880 Si02
#       6
#     8   8   8   8   8   8
#     4  10  21  38  62  88 113 146 188 233 285 341
#     4  10  21  38  58  84 115 150 189 233 283 334
#     4  10  21  39  58  80 115 154 191 231 277 331
#     4  11  23  38  58  84 115 152 192 234 280 333
#     4   9  20  39  61  84 116 149 184 233 284 338
#     4  10  22  37  58  87 117 149 189 234 282 335
#
# _framework density 19.251007999999999
#
# number of rings (size 3 to 8) (size 9 to 14) (size 15 to 20)
#    0.000    2.000    1.667    1.000    2.333    4.000 
#    0.000    0.000    0.000    0.000    0.000    0.000 
#    0.000    0.000    0.000    0.000    0.000    0.000 
#
# Total GULP energy -297725.873053 kJ/mol
# GULP energy per Si atom -12405.244711 kJ/mol
# Density = 1.920719 g / cm^3
# Si number density = 19.251008 Si / 1000 Ang^3
#
#
#
# Elastic Constant Matrix: (Units=GPa)
#
#
# Indices 1 2 3 4 5 6 
#
# 1 50.9779 20.1046 17.9948 0.0000 1.1887 0.0000
# 2 20.1046 49.1856 30.4413 0.0000 -0.2941 0.0000
# 3 17.9948 30.4413 102.2796 0.0000 -4.6954 0.0000
# 4 0.0000 0.0000 0.0000 26.3741 0.0000 7.1207
# 5 1.1887 -0.2941 -4.6954 0.0000 35.5867 0.0000
# 6 0.0000 0.0000 0.0000 7.1207 0.0000 23.8258
#
#
#
# Elastic Compliance Matrix: (Units=1/GPa)
#
#
# Indices 1 2 3 4 5 6 
#
# 1 0.023631 -0.008656 -0.001631 0.000000 -0.001076 0.000000
# 2 -0.008656 0.028114 -0.006862 0.000000 -0.000384 0.000000
# 3 -0.001631 -0.006862 0.012180 0.000000 0.001605 0.000000
# 4 0.000000 0.000000 0.000000 0.041244 0.000000 -0.012326
# 5 -0.001076 -0.000384 0.001605 0.000000 0.028345 0.000000
# 6 0.000000 0.000000 0.000000 -0.012326 0.000000 0.045655
#
#
# Mechanical properties :
#
#
# Convention : Reuss Voigt Hill
#
# Bulk Modulus (GPa) = 33.75319 37.72494 35.73907
# Shear Modulus (GPa) = 22.38705 26.08415 24.23560
#
# Velocity S-wave (km/s) = 3.41384 3.68496 3.55198
# Velocity P-wave (km/s) = 5.75416 6.14362 5.95208
#
# Compressibility (1/GPa) = 0.02962683
#
# Stress axis : x y z
#
# Youngs Moduli (GPa) = 42.31749 35.56914 82.10133
#
# Poissons Ratio (x) = 0.30790 0.13387
# Poissons Ratio (y) = 0.36632 0.56340
# Poissons Ratio (z) = 0.06900 0.24408
#
# Static dielectric constant tensor:
#      x y z
#    x 3.507190 0.000000 0.030080 
#    y 0.000000 3.431610 0.000000 
#    z 0.030080 0.000000 3.552700 
# 
# 
# High freq. dielectric constant tensor:
#      x y z
#    x 1.750050 0.000000 0.002380 
#    y 0.000000 1.745450 0.000000 
#    z 0.002380 0.000000 1.756320 
# 
# From -- ./inp_files/108738.got.cif
#   From: 2010.06.25/outbox.cif.g09.slc.cpg/sg12_55_cif.got.tgz:108738.got - 2010.06.28 00:19:55.
