data_PCOD8107782
_publ_section_title
;
Structure prediction by ZEFSAII (Michael W. Deem and Ramdas Pophale) SiO2 
 PCOD8107782
Probable space group: C 2/M
;
_chemical_formula_sum "Si O2"
_cell_formula_units_Z 32
_cell_length_a 5.007718
_cell_length_b 13.626436
_cell_length_c 23.093184
_cell_angle_alpha 90.000000
_cell_angle_beta 101.975854
_cell_angle_gamma 90.000000
_cell_volume 1541.520191
_symmetry_space_group_name_H-M "C 2/M"
_symmetry_group_IT_number 12
_symmetry_cell_setting 'monoclinic'
loop_
_space_group_symop_operation_xyz
x,y,z
-x,y,-z
-x,-y,-z
x,-y,z
1/2+x,1/2+y,z
1/2-x,1/2+y,-z
1/2-x,1/2-y,-z
1/2+x,1/2-y,z
loop_
_atom_site_type_symbol
_atom_site_label
_atom_site_fract_x
_atom_site_fract_y
_atom_site_fract_z
Si Si1 0.874793 0.500000 0.852006
Si Si2 0.131782 0.313828 0.560235
Si Si3 0.458271 0.186008 0.932339
Si Si4 0.207173 0.682003 0.689660
Si Si5 0.199911 0.000000 0.226097
O O1 0.853865 0.595193 0.890841
O O2 0.625043 0.500000 0.795902
O O3 0.157355 0.500000 0.829884
O O4 0.438919 0.282881 0.557966
O O5 0.131639 0.366053 0.623203
O O6 0.000000 0.376129 0.500000
O O7 0.739851 0.226261 0.918917
O O8 0.500000 0.150155 0.000000
O O9 0.498108 0.734464 0.699868
O O10 0.206814 0.596074 0.735787
#
# Coordination Sequence:
#
# PCOD8107782 Si02
#       5
#     4   8   8   8   4
#     4  12  25  40  60  86 119 152 188 234 272 324
#     4   8  14  27  50  76 100 134 179 227 284 336
#     4  10  22  41  65  91 117 147 185 230 282 333
#     4  10  21  38  57  78 112 150 186 237 285 328
#     4  12  26  38  56  86 114 154 200 224 268 340
#
# _framework density 20.758728999999999
#
# number of rings (size 3 to 8) (size 9 to 14) (size 15 to 20)
#    0.000    2.000    0.000    3.375    0.000    6.000 
#    0.000    5.625    0.000    0.000    0.000   19.250 
#    0.000    0.000    0.000    0.000    0.000    0.000 
#
# Total GULP energy -198322.696872 kJ/mol
# GULP energy per Si atom -12395.168555 kJ/mol
# Density = 2.071148 g / cm^3
# Si number density = 20.758729 Si / 1000 Ang^3
#
#
#
# Elastic Constant Matrix: (Units=GPa)
#
#
# Indices 1 2 3 4 5 6 
#
# 1 78.7890 -1.0996 13.1607 0.0000 -3.6192 0.0000
# 2 -1.0996 70.9945 57.9240 0.0000 -3.3568 0.0000
# 3 13.1607 57.9240 119.9413 0.0000 1.6235 0.0000
# 4 0.0000 0.0000 0.0000 -143.5000 0.0000 -46.3819
# 5 -3.6192 -3.3568 1.6235 0.0000 34.4346 0.0000
# 6 0.0000 0.0000 0.0000 -46.3819 0.0000 -0.6622
#
#
#
# Elastic Compliance Matrix: (Units=1/GPa)
#
#
# Indices 1 2 3 4 5 6 
#
# 1 0.013253 0.002466 -0.002669 0.000000 0.001759 0.000000
# 2 0.002466 0.023976 -0.011892 0.000000 0.003157 0.000000
# 3 -0.002669 -0.011892 0.014402 0.000000 -0.002119 0.000000
# 4 0.000000 0.000000 0.000000 0.000322 0.000000 -0.022556
# 5 0.001759 0.003157 -0.002119 0.000000 0.029633 0.000000
# 6 0.000000 0.000000 0.000000 -0.022556 0.000000 0.069787
#
#
# Mechanical properties :
#
#
# Convention : Reuss Voigt Hill
#
# Bulk Modulus (GPa) = 36.44182 45.52163 40.98173
# Shear Modulus (GPa) = 27.06948 -8.62951 9.21998
#
# Velocity S-wave (km/s) = 3.61502 -2.04110 2.10977
# Velocity P-wave (km/s) = 5.91756 4.05238 5.07145
#
# Compressibility (1/GPa) = 0.02744100
#
# Stress axis : x y z
#
# Youngs Moduli (GPa) = 75.45362 41.70882 69.43451
#
# Poissons Ratio (x) = -0.10286 0.18532
# Poissons Ratio (y) = -0.18607 0.82572
# Poissons Ratio (z) = 0.20138 0.49600
#
# Static dielectric constant tensor:
#      x y z
#    x 3.854040 0.000000 0.011650 
#    y 0.000000 3.201080 0.000000 
#    z 0.011650 0.000000 4.201990 
# 
# 
# High freq. dielectric constant tensor:
#      x y z
#    x 1.832200 0.000000 -0.000440 
#    y 0.000000 1.762600 0.000000 
#    z -0.000440 0.000000 1.837400 
# 
# From -- ./inp_files/297283.got.cif
#   From: 2010.06.25/outbox.cif.g09.slc.cpg/sg12_149_cif.got.tgz:297283.got - 2010.06.28 00:19:55.
