data_PCOD8107306
_publ_section_title
;
Structure prediction by ZEFSAII (Michael W. Deem and Ramdas Pophale) SiO2 
 PCOD8107306
Probable space group: C 2/M
;
_chemical_formula_sum "Si O2"
_cell_formula_units_Z 56
_cell_length_a 31.017706
_cell_length_b 8.887984
_cell_length_c 11.835981
_cell_angle_alpha 90.000000
_cell_angle_beta 59.962616
_cell_angle_gamma 90.000000
_cell_volume 2824.776592
_symmetry_space_group_name_H-M "C 2/M"
_symmetry_group_IT_number 12
_symmetry_cell_setting 'monoclinic'
loop_
_space_group_symop_operation_xyz
x,y,z
-x,y,-z
-x,-y,-z
x,-y,z
1/2+x,1/2+y,z
1/2-x,1/2+y,-z
1/2-x,1/2-y,-z
1/2+x,1/2-y,z
loop_
_atom_site_type_symbol
_atom_site_label
_atom_site_fract_x
_atom_site_fract_y
_atom_site_fract_z
Si Si1 0.398641 0.820483 0.873315
Si Si2 0.829530 0.172975 0.405392
Si Si3 0.261927 0.171589 0.323952
Si Si4 0.514720 0.321742 0.107251
Si Si5 0.573789 0.824213 0.644076
Si Si6 0.786155 0.326579 0.039812
Si Si7 0.055127 0.676696 0.419429
O O1 0.432163 0.749209 0.928567
O O2 0.415945 0.758786 0.727432
O O3 0.402300 0.000000 0.878994
O O4 0.342257 0.761771 0.963811
O O5 0.793432 0.205437 0.558513
O O6 0.801463 0.216252 0.327558
O O7 0.877926 0.275662 0.350363
O O8 0.846207 0.000000 0.377584
O O9 0.261355 0.202913 0.192833
O O10 0.277314 0.000000 0.332719
O O11 0.518615 0.500000 0.109736
O O12 0.474038 0.264071 0.249150
O O13 0.500000 0.269923 0.000000
O O14 0.583322 0.785220 0.499440
O O15 0.563437 0.000000 0.675059
O O16 0.788707 0.500000 0.004226
O O17 0.750000 0.250000 0.000000
O O18 0.050345 0.500000 0.407383
O O19 0.000000 0.748065 0.500000
#
# Coordination Sequence:
#
# PCOD8107306 Si02
#       7
#     8   8   8   8   8   8   8
#     4  10  21  40  63  87 116 158 204 244 293 352
#     4  10  21  37  59  86 119 153 193 248 301 347
#     4   9  20  40  59  83 118 156 201 245 293 356
#     4  11  25  42  59  87 125 158 197 244 296 354
#     4  11  22  37  62  89 117 153 195 239 291 355
#     4  10  23  40  61  88 119 157 203 249 294 354
#     4   9  17  34  58  84 114 145 189 241 282 337
#
# _framework density 19.824577000000001
#
# number of rings (size 3 to 8) (size 9 to 14) (size 15 to 20)
#    0.000    2.000    1.429    1.286    4.000    2.857 
#    0.000    2.143    0.000    0.000    0.000    0.000 
#    0.000    0.000    0.000    0.000    0.000    0.000 
#
# Total GULP energy -347248.513873 kJ/mol
# GULP energy per Si atom -12401.732638 kJ/mol
# Density = 1.977946 g / cm^3
# Si number density = 19.824577 Si / 1000 Ang^3
#
#
#
# Elastic Constant Matrix: (Units=GPa)
#
#
# Indices 1 2 3 4 5 6 
#
# 1 141.0648 43.9818 53.0245 0.0000 -3.5949 0.0000
# 2 43.9818 47.1201 34.6508 0.0000 4.9275 0.0000
# 3 53.0245 34.6508 82.0713 0.0000 6.4356 0.0000
# 4 0.0000 0.0000 0.0000 23.9024 0.0000 1.4023
# 5 -3.5949 4.9275 6.4356 0.0000 30.9621 0.0000
# 6 0.0000 0.0000 0.0000 1.4023 0.0000 32.8631
#
#
#
# Elastic Compliance Matrix: (Units=1/GPa)
#
#
# Indices 1 2 3 4 5 6 
#
# 1 0.011155 -0.007645 -0.004245 0.000000 0.003394 0.000000
# 2 -0.007645 0.036170 -0.009974 0.000000 -0.004571 0.000000
# 3 -0.004245 -0.009974 0.019368 0.000000 -0.002931 0.000000
# 4 0.000000 0.000000 0.000000 0.041942 0.000000 -0.001790
# 5 0.003394 -0.004571 -0.002931 0.000000 0.034028 0.000000
# 6 0.000000 0.000000 0.000000 -0.001790 0.000000 0.030506
#
#
# Mechanical properties :
#
#
# Convention : Reuss Voigt Hill
#
# Bulk Modulus (GPa) = 43.54341 59.28562 51.41451
# Shear Modulus (GPa) = 22.26655 26.78546 24.52600
#
# Velocity S-wave (km/s) = 3.35502 3.67975 3.52113
# Velocity P-wave (km/s) = 6.08443 6.92994 6.52090
#
# Compressibility (1/GPa) = 0.02296559
#
# Stress axis : x y z
#
# Youngs Moduli (GPa) = 89.64787 27.64687 51.63125
#
# Poissons Ratio (x) = 0.21136 0.21919
# Poissons Ratio (y) = 0.68535 0.51495
# Poissons Ratio (z) = 0.38058 0.27574
#
# Static dielectric constant tensor:
#      x y z
#    x 3.637380 0.000000 -0.113790 
#    y 0.000000 3.425860 0.000000 
#    z -0.113790 0.000000 4.038160 
# 
# 
# High freq. dielectric constant tensor:
#      x y z
#    x 1.778820 0.000000 0.001070 
#    y 0.000000 1.754530 0.000000 
#    z 0.001070 0.000000 1.781400 
# 
# From -- ./inp_files/187182.got.cif
#   From: 2010.06.25/outbox.cif.g09.slc.cpg/sg12_94_cif.got.tgz:187182.got - 2010.06.28 00:19:55.
