data_PCOD8107262
_publ_section_title
;
Structure prediction by ZEFSAII (Michael W. Deem and Ramdas Pophale) SiO2 
 PCOD8107262
Probable space group: C 2/M
;
_chemical_formula_sum "Si O2"
_cell_formula_units_Z 32
_cell_length_a 16.070976
_cell_length_b 14.884101
_cell_length_c 22.258371
_cell_angle_alpha 90.000000
_cell_angle_beta 162.877008
_cell_angle_gamma 90.000000
_cell_volume 1567.585444
_symmetry_space_group_name_H-M "C 2/M"
_symmetry_group_IT_number 12
_symmetry_cell_setting 'monoclinic'
loop_
_space_group_symop_operation_xyz
x,y,z
-x,y,-z
-x,-y,-z
x,-y,z
1/2+x,1/2+y,z
1/2-x,1/2+y,-z
1/2-x,1/2-y,-z
1/2+x,1/2-y,z
loop_
_atom_site_type_symbol
_atom_site_label
_atom_site_fract_x
_atom_site_fract_y
_atom_site_fract_z
Si Si1 0.303143 0.103116 0.809789
Si Si2 0.605666 0.603251 0.005858
Si Si3 0.724054 0.814075 0.425777
Si Si4 0.935156 0.749106 0.805201
O O1 0.381609 0.159091 0.805457
O O2 0.977098 0.114509 0.603474
O O3 0.364605 0.000000 0.836676
O O4 0.500000 0.136937 0.000000
O O5 0.576611 0.500000 0.966185
O O6 0.930191 0.632909 0.223660
O O7 0.500000 0.619139 0.000000
O O8 0.396190 0.661663 0.818789
O O9 0.750000 0.750000 0.500000
O O10 0.761937 0.754737 0.390446
O O11 0.250000 0.750000 0.000000
#
# Coordination Sequence:
#
# PCOD8107262 Si02
#       4
#     8   8   8   8
#     4  11  23  39  61  90 123 158 201 252 303 359
#     4  10  21  39  62  88 120 157 198 245 299 362
#     4  11  22  38  61  88 122 161 200 245 302 360
#     4  10  21  37  59  84 116 156 195 244 298 354
#
# _framework density 20.41356
#
# number of rings (size 3 to 8) (size 9 to 14) (size 15 to 20)
#    0.000    1.500    0.000    6.750    0.000    6.000 
#    0.000    2.500    0.000    6.000    0.000    0.000 
#    0.000    0.000    0.000    0.000    0.000    0.000 
#
# Total GULP energy -198399.326803 kJ/mol
# GULP energy per Si atom -12399.957925 kJ/mol
# Density = 2.036710 g / cm^3
# Si number density = 20.413560 Si / 1000 Ang^3
#
#
#
# Elastic Constant Matrix: (Units=GPa)
#
#
# Indices 1 2 3 4 5 6 
#
# 1 138.9466 73.1507 42.9417 0.1390 -25.7689 0.0014
# 2 73.1507 127.4461 35.9413 -0.0979 -19.7838 -0.0007
# 3 42.9417 35.9413 105.1538 0.3293 -12.3439 -0.3050
# 4 0.1390 -0.0979 0.3293 31.3255 -0.1449 6.9203
# 5 -25.7689 -19.7838 -12.3439 -0.1449 46.8306 0.0675
# 6 0.0014 -0.0007 -0.3050 6.9203 0.0675 30.5188
#
#
#
# Elastic Compliance Matrix: (Units=1/GPa)
#
#
# Indices 1 2 3 4 5 6 
#
# 1 0.011374 -0.005320 -0.002431 -0.000020 0.003371 -0.000028
# 2 -0.005320 0.011594 -0.001609 0.000093 0.001547 -0.000040
# 3 -0.002431 -0.001609 0.011162 -0.000138 0.000924 0.000141
# 4 -0.000020 0.000093 -0.000138 0.033609 0.000107 -0.007623
# 5 0.003371 0.001547 0.000924 0.000107 0.024106 -0.000068
# 6 -0.000028 -0.000040 0.000141 -0.007623 -0.000068 0.034497
#
#
# Mechanical properties :
#
#
# Convention : Reuss Voigt Hill
#
# Bulk Modulus (GPa) = 64.89178 75.06821 69.97999
# Shear Modulus (GPa) = 33.28951 36.36918 34.82934
#
# Velocity S-wave (km/s) = 4.04264 4.22550 4.13508
# Velocity P-wave (km/s) = 7.32449 7.78845 7.56003
#
# Compressibility (1/GPa) = 0.01541027
#
# Stress axis : x y z
#
# Youngs Moduli (GPa) = 87.91969 86.25312 89.59035
#
# Poissons Ratio (x) = 0.45883 0.21779
# Poissons Ratio (y) = 0.46770 0.14417
# Poissons Ratio (z) = 0.21373 0.13880
#
# Static dielectric constant tensor:
#      x y z
#    x 4.104240 0.002430 -0.303540 
#    y 0.002430 3.830290 -0.000940 
#    z -0.303540 -0.000940 4.126400 
# 
# 
# High freq. dielectric constant tensor:
#      x y z
#    x 1.818420 0.000000 0.001390 
#    y 0.000000 1.793000 -0.000120 
#    z 0.001390 -0.000120 1.803850 
# 
# From -- ./inp_files/57683.got.cif
#   From: 2010.06.25/outbox.cif.g09.slc.cpg/sg12_29_cif.got.tgz:57683.got - 2010.06.28 00:19:55.
