data_PCOD8107158
_publ_section_title
;
Structure prediction by ZEFSAII (Michael W. Deem and Ramdas Pophale) SiO2 
 PCOD8107158
Probable space group: C 2/M
;
_chemical_formula_sum "Si O2"
_cell_formula_units_Z 56
_cell_length_a 18.697261
_cell_length_b 8.904190
_cell_length_c 18.072261
_cell_angle_alpha 90.000000
_cell_angle_beta 74.514058
_cell_angle_gamma 90.000000
_cell_volume 2899.512280
_symmetry_space_group_name_H-M "C 2/M"
_symmetry_group_IT_number 12
_symmetry_cell_setting 'monoclinic'
loop_
_space_group_symop_operation_xyz
x,y,z
-x,y,-z
-x,-y,-z
x,-y,z
1/2+x,1/2+y,z
1/2-x,1/2+y,-z
1/2-x,1/2-y,-z
1/2+x,1/2-y,z
loop_
_atom_site_type_symbol
_atom_site_label
_atom_site_fract_x
_atom_site_fract_y
_atom_site_fract_z
Si Si1 0.346305 0.174084 0.306840
Si Si2 0.570836 0.673959 0.430331
Si Si3 0.611353 0.173193 0.871859
Si Si4 0.035132 0.826288 0.126026
Si Si5 0.494959 0.326438 0.301221
Si Si6 0.222245 0.677693 0.432205
Si Si7 0.824060 0.175917 0.006661
O O1 0.353490 0.202701 0.217819
O O2 0.419973 0.230099 0.328611
O O3 0.274691 0.266406 0.351655
O O4 0.335091 0.000000 0.329214
O O5 0.500000 0.709607 0.500000
O O6 0.594251 0.500000 0.430492
O O7 0.550834 0.717130 0.351471
O O8 0.638145 0.775841 0.438760
O O9 0.526725 0.227500 0.897172
O O10 0.658873 0.267160 0.916272
O O11 0.613857 0.000000 0.893516
O O12 0.037743 0.792666 0.212904
O O13 0.016564 0.000000 0.115543
O O14 0.112718 0.778101 0.069315
O O15 0.471076 0.500000 0.314012
O O16 0.226829 0.500000 0.437898
O O17 0.250000 0.750000 0.500000
O O18 0.812899 0.000000 0.012832
O O19 0.750000 0.250000 0.000000
#
# Coordination Sequence:
#
# PCOD8107158 Si02
#       7
#     8   8   8   8   8   8   8
#     4  10  21  38  60  86 116 147 184 231 280 334
#     4  10  21  37  58  85 116 150 187 229 280 335
#     4  10  21  37  59  85 112 146 187 232 282 336
#     4   9  19  36  57  81 110 148 190 230 279 338
#     4   9  18  35  59  84 113 148 185 229 282 339
#     4  12  25  40  60  85 115 151 190 232 278 330
#     4  11  23  37  54  79 113 151 191 237 286 337
#
# _framework density 19.313593999999998
#
# number of rings (size 3 to 8) (size 9 to 14) (size 15 to 20)
#    0.000    1.857    0.000    3.857    0.000    7.714 
#    0.000    2.857    0.000    0.000    0.000    0.000 
#    0.000    0.000    0.000    0.000    0.000    0.000 
#
# Total GULP energy -347347.673789 kJ/mol
# GULP energy per Si atom -12405.274064 kJ/mol
# Density = 1.926964 g / cm^3
# Si number density = 19.313594 Si / 1000 Ang^3
#
#
#
# Elastic Constant Matrix: (Units=GPa)
#
#
# Indices 1 2 3 4 5 6 
#
# 1 150.9550 78.0724 76.6611 0.0000 4.8910 0.0000
# 2 78.0724 115.9276 60.1429 0.0000 -4.6294 0.0000
# 3 76.6611 60.1429 96.9064 0.0000 2.8027 0.0000
# 4 0.0000 0.0000 0.0000 28.8720 0.0000 -0.3780
# 5 4.8910 -4.6294 2.8027 0.0000 35.8803 0.0000
# 6 0.0000 0.0000 0.0000 -0.3780 0.0000 40.7200
#
#
#
# Elastic Compliance Matrix: (Units=1/GPa)
#
#
# Indices 1 2 3 4 5 6 
#
# 1 0.012865 -0.005143 -0.006931 0.000000 -0.001876 0.000000
# 2 -0.005143 0.014965 -0.005307 0.000000 0.003046 0.000000
# 3 -0.006931 -0.005307 0.019132 0.000000 -0.001234 0.000000
# 4 0.000000 0.000000 0.000000 0.034640 0.000000 0.000322
# 5 -0.001876 0.003046 -0.001234 0.000000 0.028616 0.000000
# 6 0.000000 0.000000 0.000000 0.000322 0.000000 0.024561
#
#
# Mechanical properties :
#
#
# Convention : Reuss Voigt Hill
#
# Bulk Modulus (GPa) = 81.97398 88.17129 85.07264
# Shear Modulus (GPa) = 28.80068 31.02196 29.91132
#
# Velocity S-wave (km/s) = 3.86581 4.01212 3.93965
# Velocity P-wave (km/s) = 7.90328 8.19844 8.05221
#
# Compressibility (1/GPa) = 0.01219899
#
# Stress axis : x y z
#
# Youngs Moduli (GPa) = 77.72887 66.82405 52.26924
#
# Poissons Ratio (x) = 0.34369 0.36229
# Poissons Ratio (y) = 0.39978 0.27739
# Poissons Ratio (z) = 0.53875 0.35463
#
# Static dielectric constant tensor:
#      x y z
#    x 3.446050 0.000000 -0.006560 
#    y 0.000000 3.591320 0.000000 
#    z -0.006560 0.000000 3.749070 
# 
# 
# High freq. dielectric constant tensor:
#      x y z
#    x 1.750010 0.000000 0.001690 
#    y 0.000000 1.755570 0.000000 
#    z 0.001690 0.000000 1.765850 
# 
# From -- ./inp_files/275171.got.cif
#   From: 2010.06.25/outbox.cif.g09.slc.cpg/sg12_138_cif.got.tgz:275171.got - 2010.06.28 00:19:55.
