data_PCOD8107318
_publ_section_title
;
Structure prediction by ZEFSAII (Michael W. Deem and Ramdas Pophale) SiO2 
 PCOD8107318
Probable space group: C 2/M
;
_chemical_formula_sum "Si O2"
_cell_formula_units_Z 56
_cell_length_a 23.806266
_cell_length_b 8.920301
_cell_length_c 15.461384
_cell_angle_alpha 90.000000
_cell_angle_beta 60.746565
_cell_angle_gamma 90.000000
_cell_volume 2864.626619
_symmetry_space_group_name_H-M "C 2/M"
_symmetry_group_IT_number 12
_symmetry_cell_setting 'monoclinic'
loop_
_space_group_symop_operation_xyz
x,y,z
-x,y,-z
-x,-y,-z
x,-y,z
1/2+x,1/2+y,z
1/2-x,1/2+y,-z
1/2-x,1/2-y,-z
1/2+x,1/2-y,z
loop_
_atom_site_type_symbol
_atom_site_label
_atom_site_fract_x
_atom_site_fract_y
_atom_site_fract_z
Si Si1 0.981358 0.676951 0.918835
Si Si2 0.216921 0.328053 0.153034
Si Si3 0.284221 0.677132 0.393046
Si Si4 0.567544 0.323352 0.707728
Si Si5 0.663059 0.827549 0.005941
Si Si6 0.812161 0.823099 0.656433
Si Si7 0.945928 0.177943 0.475853
O O1 0.988910 0.500000 0.906123
O O2 0.026630 0.747074 0.812754
O O3 0.908724 0.729128 0.956743
O O4 0.000000 0.735226 0.000000
O O5 0.217538 0.500000 0.182854
O O6 0.290281 0.274237 0.086661
O O7 0.180472 0.224919 0.249743
O O8 0.177113 0.304864 0.095951
O O9 0.276647 0.500000 0.405196
O O10 0.250000 0.750000 0.500000
O O11 0.358573 0.724914 0.335562
O O12 0.250773 0.739322 0.332109
O O13 0.559469 0.500000 0.722302
O O14 0.542793 0.268850 0.631518
O O15 0.672783 0.000000 0.970678
O O16 0.875518 0.767206 0.558362
O O17 0.802779 0.000000 0.654682
O O18 0.000000 0.246149 0.500000
O O19 0.948235 0.000000 0.479262
#
# Coordination Sequence:
#
# PCOD8107318 Si02
#       7
#     8   8   8   8   8   8   8
#     4  10  23  41  60  85 117 155 197 241 294 353
#     4  10  21  37  59  87 117 150 195 247 294 345
#     4  11  22  39  60  86 119 153 194 240 286 340
#     4  10  22  40  61  87 117 152 197 243 288 346
#     4   9  20  40  60  82 117 155 196 243 295 355
#     4  11  22  37  60  88 118 154 195 238 294 353
#     4   9  19  37  59  86 120 156 195 236 284 350
#
# _framework density 19.548795999999999
#
# number of rings (size 3 to 8) (size 9 to 14) (size 15 to 20)
#    0.000    2.000    1.429    1.286    4.000    2.571 
#    0.000    0.000    0.000    2.143    0.000    0.000 
#    0.000    0.000    0.000    0.000    0.000    0.000 
#
# Total GULP energy -347273.041162 kJ/mol
# GULP energy per Si atom -12402.608613 kJ/mol
# Density = 1.950430 g / cm^3
# Si number density = 19.548796 Si / 1000 Ang^3
#
#
#
# Elastic Constant Matrix: (Units=GPa)
#
#
# Indices 1 2 3 4 5 6 
#
# 1 152.1561 40.1260 71.3170 0.0000 -5.5669 0.0000
# 2 40.1260 44.9672 36.1623 0.0000 -3.0701 -0.0001
# 3 71.3170 36.1623 148.6685 0.0000 0.7719 0.0000
# 4 0.0000 0.0000 0.0000 38.0084 0.0000 0.5858
# 5 -5.5669 -3.0701 0.7719 0.0000 24.6323 0.0000
# 6 0.0000 -0.0001 0.0000 0.5858 0.0000 26.4309
#
#
#
# Elastic Compliance Matrix: (Units=1/GPa)
#
#
# Indices 1 2 3 4 5 6 
#
# 1 0.009711 -0.005976 -0.003213 0.000000 0.001551 0.000000
# 2 -0.005976 0.031657 -0.004848 0.000000 0.002747 0.000000
# 3 -0.003213 -0.004848 0.009455 0.000000 -0.001627 0.000000
# 4 0.000000 0.000000 0.000000 0.026319 0.000000 -0.000583
# 5 0.001551 0.002747 -0.001627 0.000000 0.041341 0.000000
# 6 0.000000 0.000000 0.000000 -0.000583 0.000000 0.037847
#
#
# Mechanical properties :
#
#
# Convention : Reuss Voigt Hill
#
# Bulk Modulus (GPa) = 43.95590 71.22247 57.58919
# Shear Modulus (GPa) = 26.04350 31.02675 28.53512
#
# Velocity S-wave (km/s) = 3.65393 3.98822 3.82473
# Velocity P-wave (km/s) = 6.35104 7.59738 7.00199
#
# Compressibility (1/GPa) = 0.02275007
#
# Stress axis : x y z
#
# Youngs Moduli (GPa) = 102.97963 31.58853 105.76149
#
# Poissons Ratio (x) = 0.18876 0.33979
# Poissons Ratio (y) = 0.61537 0.51273
# Poissons Ratio (z) = 0.33085 0.15314
#
# Static dielectric constant tensor:
#      x y z
#    x 4.070260 0.000000 0.287850 
#    y 0.000000 3.406120 0.000000 
#    z 0.287850 0.000000 3.823210 
# 
# 
# High freq. dielectric constant tensor:
#      x y z
#    x 1.772510 0.000000 0.004980 
#    y 0.000000 1.745390 0.000000 
#    z 0.004980 0.000000 1.770350 
# 
# From -- ./inp_files/238329.got.cif
#   From: 2010.06.25/outbox.cif.g09.slc.cpg/sg12_120_cif.got.tgz:238329.got - 2010.06.28 00:19:55.
