data_PCOD8107263
_publ_section_title
;
Structure prediction by ZEFSAII (Michael W. Deem and Ramdas Pophale) SiO2 
 PCOD8107263
Probable space group: C 2/M
;
_chemical_formula_sum "Si O2"
_cell_formula_units_Z 64
_cell_length_a 11.187862
_cell_length_b 18.271386
_cell_length_c 20.959784
_cell_angle_alpha 90.000000
_cell_angle_beta 132.244566
_cell_angle_gamma 90.000000
_cell_volume 3171.776102
_symmetry_space_group_name_H-M "C 2/M"
_symmetry_group_IT_number 12
_symmetry_cell_setting 'monoclinic'
loop_
_space_group_symop_operation_xyz
x,y,z
-x,y,-z
-x,-y,-z
x,-y,z
1/2+x,1/2+y,z
1/2-x,1/2+y,-z
1/2-x,1/2-y,-z
1/2+x,1/2-y,z
loop_
_atom_site_type_symbol
_atom_site_label
_atom_site_fract_x
_atom_site_fract_y
_atom_site_fract_z
Si Si1 0.152042 0.705681 0.516945
Si Si2 0.986378 0.340981 0.866291
Si Si3 0.853472 0.869189 0.691000
Si Si4 0.192066 0.920469 0.790282
Si Si5 0.027840 0.419743 0.622936
Si Si6 0.540292 0.672155 0.135186
Si Si7 0.151684 0.588433 0.803611
Si Si8 0.262766 0.082662 0.963735
O O1 0.250000 0.750000 0.500000
O O2 0.286559 0.689367 0.617488
O O3 0.000000 0.744477 0.500000
O O4 0.083076 0.634273 0.457061
O O5 0.075554 0.365990 0.834055
O O6 0.797504 0.361665 0.789507
O O7 0.990119 0.257128 0.890083
O O8 0.064787 0.385912 0.952911
O O9 0.710568 0.923187 0.661302
O O10 0.925376 0.827229 0.777237
O O11 0.000830 0.911679 0.710688
O O12 0.242288 0.913731 0.881367
O O13 0.239005 0.000000 0.780439
O O14 0.951573 0.500000 0.586852
O O15 0.036251 0.399186 0.700762
O O16 0.679901 0.630141 0.147078
O O17 0.378738 0.630606 0.055518
O O18 0.174166 0.500000 0.823990
O O19 0.246352 0.000000 0.983088
#
# Coordination Sequence:
#
# PCOD8107263 Si02
#       8
#     8   8   8   8   8   8   8   8
#     4  10  22  38  62  91 124 160 200 248 308 365
#     4  12  24  36  61  86 122 157 204 247 307 371
#     4   9  20  37  61  87 115 152 203 243 297 356
#     4  10  21  37  59  84 117 153 193 246 303 360
#     4   9  19  38  63  90 119 155 199 249 294 354
#     4  10  23  38  60  87 118 155 202 257 302 352
#     4  10  22  41  62  87 122 162 203 247 307 368
#     4  10  21  41  61  82 116 156 203 251 305 361
#
# _framework density 20.177969000000001
#
# number of rings (size 3 to 8) (size 9 to 14) (size 15 to 20)
#    0.000    2.000    0.000    2.625    5.250    9.250 
#    2.250    1.250    0.000    0.375    0.000    0.000 
#    0.000    0.000    0.000    0.000    0.000    0.000 
#
# Total GULP energy -396538.229618 kJ/mol
# GULP energy per Si atom -12391.819676 kJ/mol
# Density = 2.013204 g / cm^3
# Si number density = 20.177969 Si / 1000 Ang^3
#
#
#
# Elastic Constant Matrix: (Units=GPa)
#
#
# Indices 1 2 3 4 5 6 
#
# 1 104.2677 54.9777 20.6486 0.0000 14.6792 0.0000
# 2 54.9777 127.3735 17.0491 0.0000 12.8302 0.0000
# 3 20.6486 17.0491 67.6075 0.0000 13.8269 0.0000
# 4 0.0000 0.0000 0.0000 16.8128 0.0000 2.5077
# 5 14.6792 12.8302 13.8269 0.0000 26.1880 0.0000
# 6 0.0000 0.0000 0.0000 2.5077 0.0000 28.3843
#
#
#
# Elastic Compliance Matrix: (Units=1/GPa)
#
#
# Indices 1 2 3 4 5 6 
#
# 1 0.013181 -0.005035 -0.001961 0.000000 -0.003886 0.000000
# 2 -0.005035 0.010303 -0.000678 0.000000 -0.001867 0.000000
# 3 -0.001961 -0.000678 0.017117 0.000000 -0.007606 0.000000
# 4 0.000000 0.000000 0.000000 0.060273 0.000000 -0.005325
# 5 -0.003886 -0.001867 -0.007606 0.000000 0.045294 0.000000
# 6 0.000000 0.000000 0.000000 -0.005325 0.000000 0.035701
#
#
# Mechanical properties :
#
#
# Convention : Reuss Voigt Hill
#
# Bulk Modulus (GPa) = 39.60226 53.84437 46.72331
# Shear Modulus (GPa) = 24.31475 28.04859 26.18167
#
# Velocity S-wave (km/s) = 3.47510 3.73240 3.60604
# Velocity P-wave (km/s) = 5.98087 6.73179 6.36741
#
# Compressibility (1/GPa) = 0.02525109
#
# Stress axis : x y z
#
# Youngs Moduli (GPa) = 75.86551 97.05691 58.42195
#
# Poissons Ratio (x) = 0.48872 0.11458
# Poissons Ratio (y) = 0.38201 0.03964
# Poissons Ratio (z) = 0.14879 0.06585
#
# Static dielectric constant tensor:
#      x y z
#    x 3.814850 0.000000 0.127910 
#    y 0.000000 3.620270 0.000000 
#    z 0.127910 0.000000 3.750060 
# 
# 
# High freq. dielectric constant tensor:
#      x y z
#    x 1.788760 0.000000 0.006060 
#    y 0.000000 1.784010 0.000000 
#    z 0.006060 0.000000 1.786390 
# 
# From -- ./inp_files/306247.got.cif
#   From: 2010.06.25/outbox.cif.g09.slc.cpg/sg12_154_cif.got.tgz:306247.got - 2010.06.28 00:19:55.
