data_PCOD8107752
_publ_section_title
;
Structure prediction by ZEFSAII (Michael W. Deem and Ramdas Pophale) SiO2 
 PCOD8107752
Probable space group: C 2/M
;
_chemical_formula_sum "Si O2"
_cell_formula_units_Z 40
_cell_length_a 16.615265
_cell_length_b 28.435653
_cell_length_c 8.142970
_cell_angle_alpha 90.000000
_cell_angle_beta 147.722775
_cell_angle_gamma 90.000000
_cell_volume 2054.508015
_symmetry_space_group_name_H-M "C 2/M"
_symmetry_group_IT_number 12
_symmetry_cell_setting 'monoclinic'
loop_
_space_group_symop_operation_xyz
x,y,z
-x,y,-z
-x,-y,-z
x,-y,z
1/2+x,1/2+y,z
1/2-x,1/2+y,-z
1/2-x,1/2-y,-z
1/2+x,1/2-y,z
loop_
_atom_site_type_symbol
_atom_site_label
_atom_site_fract_x
_atom_site_fract_y
_atom_site_fract_z
Si Si1 0.110068 0.797212 0.438753
Si Si2 0.438312 0.945166 0.073466
Si Si3 0.290164 0.292604 0.763506
Si Si4 0.127347 0.624228 0.611420
Si Si5 0.835045 0.108017 0.264997
O O1 0.191979 0.751755 0.655715
O O2 0.155023 0.794002 0.327048
O O3 0.161114 0.842738 0.629139
O O4 0.928439 0.794978 0.131590
O O5 0.553794 0.921058 0.398543
O O6 0.439656 0.000000 0.114270
O O7 0.500000 0.933651 0.000000
O O8 0.265841 0.926794 0.796390
O O9 0.185908 0.338535 0.582232
O O10 0.000000 0.649863 0.500000
O O11 0.263452 0.609946 0.962393
O O12 0.000000 0.088527 0.500000
#
# Coordination Sequence:
#
# PCOD8107752 Si02
#       5
#     8   8   8   8   8
#     4  10  22  36  58  82 122 163 207 246 293 354
#     4  10  23  44  68  90 116 157 204 249 304 372
#     4  10  21  38  55  85 117 166 209 246 291 350
#     4  10  22  37  60  87 118 157 196 245 305 360
#     4  11  22  39  60  92 126 156 197 251 308 356
#
# _framework density 19.469380999999998
#
# number of rings (size 3 to 8) (size 9 to 14) (size 15 to 20)
#    0.000    1.800    2.000    1.200    5.600    5.600 
#    0.000    0.000    0.000    2.400    0.000    0.000 
#    0.000    0.000    0.000    0.000    0.000    0.000 
#
# Total GULP energy -247812.724896 kJ/mol
# GULP energy per Si atom -12390.636245 kJ/mol
# Density = 1.942507 g / cm^3
# Si number density = 19.469381 Si / 1000 Ang^3
#
#
#
# Elastic Constant Matrix: (Units=GPa)
#
#
# Indices 1 2 3 4 5 6 
#
# 1 80.5036 54.6349 46.1595 0.0000 23.2467 0.0000
# 2 54.6349 126.4744 65.0021 0.0000 13.8574 0.0000
# 3 46.1595 65.0021 139.4892 0.0000 16.7524 0.0000
# 4 0.0000 0.0000 0.0000 27.1123 0.0000 10.0914
# 5 23.2467 13.8574 16.7524 0.0000 33.4028 0.0000
# 6 0.0000 0.0000 0.0000 10.0914 0.0000 16.2240
#
#
#
# Elastic Compliance Matrix: (Units=1/GPa)
#
#
# Indices 1 2 3 4 5 6 
#
# 1 0.021761 -0.006805 -0.002714 0.000000 -0.010961 0.000000
# 2 -0.006805 0.012652 -0.003812 0.000000 0.001399 0.000000
# 3 -0.002714 -0.003812 0.010031 0.000000 -0.001561 0.000000
# 4 0.000000 0.000000 0.000000 0.047995 0.000000 -0.029853
# 5 -0.010961 0.001399 -0.001561 0.000000 0.037768 0.000000
# 6 0.000000 0.000000 0.000000 -0.029853 0.000000 0.080206
#
#
# Mechanical properties :
#
#
# Convention : Reuss Voigt Hill
#
# Bulk Modulus (GPa) = 56.23368 75.34003 65.78686
# Shear Modulus (GPa) = 20.57598 27.39254 23.98426
#
# Velocity S-wave (km/s) = 3.25443 3.75501 3.51365
# Velocity P-wave (km/s) = 6.56259 7.58820 7.09396
#
# Compressibility (1/GPa) = 0.01778294
#
# Stress axis : x y z
#
# Youngs Moduli (GPa) = 45.95378 79.03703 99.69154
#
# Poissons Ratio (x) = 0.53783 0.27054
# Poissons Ratio (y) = 0.31270 0.38004
# Poissons Ratio (z) = 0.12471 0.30130
#
# Static dielectric constant tensor:
#      x y z
#    x 3.815040 0.000000 0.121890 
#    y 0.000000 3.443250 0.000000 
#    z 0.121890 0.000000 3.938890 
# 
# 
# High freq. dielectric constant tensor:
#      x y z
#    x 1.772070 0.000000 0.007390 
#    y 0.000000 1.743630 0.000000 
#    z 0.007390 0.000000 1.769750 
# 
# From -- ./inp_files/39155.got.cif
#   From: 2010.06.25/outbox.cif.g09.slc.cpg/sg12_20_cif.got.tgz:39155.got - 2010.06.28 00:19:55.
