data_PCOD8107709
_publ_section_title
;
Structure prediction by ZEFSAII (Michael W. Deem and Ramdas Pophale) SiO2 
 PCOD8107709
Probable space group: C 2/M
;
_chemical_formula_sum "Si O2"
_cell_formula_units_Z 32
_cell_length_a 8.872906
_cell_length_b 17.985367
_cell_length_c 11.840358
_cell_angle_alpha 90.000000
_cell_angle_beta 127.454959
_cell_angle_gamma 90.000000
_cell_volume 1499.955688
_symmetry_space_group_name_H-M "C 2/M"
_symmetry_group_IT_number 12
_symmetry_cell_setting 'monoclinic'
loop_
_space_group_symop_operation_xyz
x,y,z
-x,y,-z
-x,-y,-z
x,-y,z
1/2+x,1/2+y,z
1/2-x,1/2+y,-z
1/2-x,1/2-y,-z
1/2+x,1/2-y,z
loop_
_atom_site_type_symbol
_atom_site_label
_atom_site_fract_x
_atom_site_fract_y
_atom_site_fract_z
Si Si1 0.213933 0.154586 0.585503
Si Si2 0.907432 0.414576 0.219924
Si Si3 0.219241 0.820611 0.330885
Si Si4 0.638568 0.675005 0.960352
O O1 0.371122 0.099194 0.710123
O O2 0.271375 0.156721 0.480505
O O3 0.232580 0.233121 0.659085
O O4 0.000000 0.123335 0.500000
O O5 0.870608 0.500000 0.232680
O O6 0.847620 0.364753 0.300003
O O7 0.781586 0.392987 0.052350
O O8 0.994550 0.838583 0.209607
O O9 0.500000 0.687537 0.000000
O O10 0.750000 0.750000 0.000000
#
# Coordination Sequence:
#
# PCOD8107709 Si02
#       4
#     8   8   8   8
#     4  11  22  37  63  92 127 166 215 251 302 368
#     4  11  24  42  63  94 129 163 205 260 317 371
#     4  10  21  38  63  93 123 165 211 258 300 372
#     4  10  21  37  64  92 121 160 207 255 310 369
#
# _framework density 21.333962
#
# number of rings (size 3 to 8) (size 9 to 14) (size 15 to 20)
#    0.000    1.500    2.500    3.750    3.500    7.000 
#    0.000    0.000    0.000    5.250    0.000    0.000 
#    0.000    0.000    0.000    0.000    0.000    0.000 
#
# Total GULP energy -198334.759708 kJ/mol
# GULP energy per Si atom -12395.922482 kJ/mol
# Density = 2.128541 g / cm^3
# Si number density = 21.333962 Si / 1000 Ang^3
#
#
#
# Elastic Constant Matrix: (Units=GPa)
#
#
# Indices 1 2 3 4 5 6 
#
# 1 58.0108 36.4827 39.0626 0.0000 43.3304 0.0000
# 2 36.4827 116.3987 49.4810 0.0000 10.1704 0.0000
# 3 39.0626 49.4810 128.9845 0.0000 40.2436 0.0000
# 4 0.0000 0.0000 0.0000 9.1728 0.0000 -3.8945
# 5 43.3304 10.1704 40.2436 0.0000 42.8802 0.0000
# 6 0.0000 0.0000 0.0000 -3.8945 0.0000 25.4694
#
#
#
# Elastic Compliance Matrix: (Units=1/GPa)
#
#
# Indices 1 2 3 4 5 6 
#
# 1 0.149375 -0.041650 0.020861 0.000000 -0.160644 0.000000
# 2 -0.041650 0.021976 -0.010354 0.000000 0.046592 0.000000
# 3 0.020861 -0.010354 0.015863 0.000000 -0.033512 0.000000
# 4 0.000000 0.000000 0.000000 0.116586 0.000000 0.017827
# 5 -0.160644 0.046592 -0.033512 0.000000 0.206052 0.000000
# 6 0.000000 0.000000 0.000000 0.017827 0.000000 0.041989
#
#
# Mechanical properties :
#
#
# Convention : Reuss Voigt Hill
#
# Bulk Modulus (GPa) = 8.00457 61.49407 34.74932
# Shear Modulus (GPa) = 7.62464 27.39567 17.51015
#
# Velocity S-wave (km/s) = 1.89254 3.58737 2.86801
# Velocity P-wave (km/s) = 2.92161 6.78572 5.22407
#
# Compressibility (1/GPa) = 0.12492858
#
# Stress axis : x y z
#
# Youngs Moduli (GPa) = 6.69456 45.50443 63.04027
#
# Poissons Ratio (x) = 1.89527 -1.31511
# Poissons Ratio (y) = 0.27883 0.65270
# Poissons Ratio (z) = -0.13966 0.47114
#
# Static dielectric constant tensor:
#      x y z
#    x 3.720600 0.000000 0.013050 
#    y 0.000000 3.475850 0.000000 
#    z 0.013050 0.000000 2.817040 
# 
# 
# High freq. dielectric constant tensor:
#      x y z
#    x 1.831930 0.000000 0.025820 
#    y 0.000000 1.797490 0.000000 
#    z 0.025820 0.000000 1.862200 
# 
# From -- ./inp_files/45322.got.cif
#   From: 2010.06.25/outbox.cif.g09.slc.cpg/sg12_23_cif.got.tgz:45322.got - 2010.06.28 00:19:55.
