data_PCOD8107400
_publ_section_title
;
Structure prediction by ZEFSAII (Michael W. Deem and Ramdas Pophale) SiO2 
 PCOD8107400
Probable space group: C 2/M
;
_chemical_formula_sum "Si O2"
_cell_formula_units_Z 64
_cell_length_a 18.894012
_cell_length_b 13.513668
_cell_length_c 19.136384
_cell_angle_alpha 90.000000
_cell_angle_beta 138.094999
_cell_angle_gamma 90.000000
_cell_volume 3263.376183
_symmetry_space_group_name_H-M "C 2/M"
_symmetry_group_IT_number 12
_symmetry_cell_setting 'monoclinic'
loop_
_space_group_symop_operation_xyz
x,y,z
-x,y,-z
-x,-y,-z
x,-y,z
1/2+x,1/2+y,z
1/2-x,1/2+y,-z
1/2-x,1/2-y,-z
1/2+x,1/2-y,z
loop_
_atom_site_type_symbol
_atom_site_label
_atom_site_fract_x
_atom_site_fract_y
_atom_site_fract_z
Si Si1 0.189007 0.610912 0.264887
Si Si2 0.174239 0.764408 0.008639
Si Si3 0.523182 0.613918 0.189666
Si Si4 0.994769 0.117898 0.331752
Si Si5 0.265055 0.882998 0.333483
Si Si6 0.032072 0.609181 0.951556
Si Si7 0.303741 0.274154 0.466879
Si Si8 0.794847 0.246265 0.232317
O O1 0.235038 0.500000 0.295496
O O2 0.224409 0.662107 0.361818
O O3 0.223200 0.667097 0.219925
O O4 0.061947 0.610678 0.173984
O O5 0.135393 0.653891 0.993055
O O6 0.071243 0.831819 0.920573
O O7 0.250000 0.750000 0.000000
O O8 0.238300 0.798141 0.124420
O O9 0.501905 0.500000 0.159963
O O10 0.519223 0.637827 0.268719
O O11 0.638869 0.643526 0.244530
O O12 0.091967 0.159462 0.448332
O O13 0.896910 0.185370 0.282662
O O14 0.977794 0.000000 0.333889
O O15 0.324917 0.830221 0.442650
O O16 0.316837 0.838209 0.300947
O O17 0.285402 0.000000 0.352769
O O18 0.067996 0.500000 0.999242
O O19 0.000000 0.665439 0.000000
O O20 0.250000 0.250000 0.500000
#
# Coordination Sequence:
#
# PCOD8107400 Si02
#       8
#     8   8   8   8   8   8   8   8
#     4  10  21  37  59  91 123 155 201 257 313 369
#     4  12  23  37  60  90 128 162 202 252 309 365
#     4  10  22  40  64  92 122 163 211 255 305 370
#     4  11  23  41  65  94 125 159 206 264 318 367
#     4  10  23  43  65  90 126 167 208 255 309 374
#     4  10  21  37  61  88 118 157 201 249 308 370
#     4  11  22  38  66  93 123 160 210 259 312 367
#     4  11  23  39  62  93 126 165 203 254 308 373
#
# _framework density 19.611591000000001
#
# number of rings (size 3 to 8) (size 9 to 14) (size 15 to 20)
#    0.000    1.375    3.750    2.250    0.000    4.000 
#    0.000    5.625    0.000    0.000    0.000    0.000 
#    0.000    0.000    0.000    0.000    0.000    0.000 
#
# Total GULP energy -396638.704941 kJ/mol
# GULP energy per Si atom -12394.959529 kJ/mol
# Density = 1.956695 g / cm^3
# Si number density = 19.611591 Si / 1000 Ang^3
#
#
#
# Elastic Constant Matrix: (Units=GPa)
#
#
# Indices 1 2 3 4 5 6 
#
# 1 99.1314 42.6624 39.3883 0.0000 -11.4194 0.0000
# 2 42.6624 115.4324 49.2393 0.0000 -9.1857 0.0000
# 3 39.3883 49.2393 114.4421 0.0000 -16.9545 0.0000
# 4 0.0000 0.0000 0.0000 27.4574 0.0000 1.3509
# 5 -11.4194 -9.1857 -16.9545 0.0000 34.2693 0.0000
# 6 0.0000 0.0000 0.0000 1.3509 0.0000 31.0059
#
#
#
# Elastic Compliance Matrix: (Units=1/GPa)
#
#
# Indices 1 2 3 4 5 6 
#
# 1 0.012862 -0.003468 -0.002630 0.000000 0.002055 0.000000
# 2 -0.003468 0.011558 -0.003768 0.000000 0.000078 0.000000
# 3 -0.002630 -0.003768 0.011854 0.000000 0.003978 0.000000
# 4 0.000000 0.000000 0.000000 0.036498 0.000000 -0.001590
# 5 0.002055 0.000078 0.003978 0.000000 0.031855 0.000000
# 6 0.000000 0.000000 0.000000 -0.001590 0.000000 0.032321
#
#
# Mechanical properties :
#
#
# Convention : Reuss Voigt Hill
#
# Bulk Modulus (GPa) = 60.45255 65.73179 63.09217
# Shear Modulus (GPa) = 30.82723 31.72756 31.27740
#
# Velocity S-wave (km/s) = 3.96901 4.02655 3.99788
# Velocity P-wave (km/s) = 7.20388 7.43014 7.31788
#
# Compressibility (1/GPa) = 0.01654190
#
# Stress axis : x y z
#
# Youngs Moduli (GPa) = 77.74854 86.51797 84.36167
#
# Poissons Ratio (x) = 0.30006 0.22188
# Poissons Ratio (y) = 0.26965 0.31785
# Poissons Ratio (z) = 0.20449 0.32598
#
# Static dielectric constant tensor:
#      x y z
#    x 3.512500 0.000000 -0.025360 
#    y 0.000000 3.739170 0.000000 
#    z -0.025360 0.000000 3.665300 
# 
# 
# High freq. dielectric constant tensor:
#      x y z
#    x 1.760140 0.000000 -0.007090 
#    y 0.000000 1.768680 0.000000 
#    z -0.007090 0.000000 1.770410 
# 
# From -- ./inp_files/278180.got.cif
#   From: 2010.06.25/outbox.cif.g09.slc.cpg/sg12_140_cif.got.tgz:278180.got - 2010.06.28 00:19:55.
