data_PCOD8107888
_publ_section_title
;
Structure prediction by ZEFSAII (Michael W. Deem and Ramdas Pophale) SiO2 
 PCOD8107888
Probable space group: C 2/M
;
_chemical_formula_sum "Si O2"
_cell_formula_units_Z 44
_cell_length_a 28.658469
_cell_length_b 11.393290
_cell_length_c 16.909005
_cell_angle_alpha 90.000000
_cell_angle_beta 157.444229
_cell_angle_gamma 90.000000
_cell_volume 2117.771137
_symmetry_space_group_name_H-M "C 2/M"
_symmetry_group_IT_number 12
_symmetry_cell_setting 'monoclinic'
loop_
_space_group_symop_operation_xyz
x,y,z
-x,y,-z
-x,-y,-z
x,-y,z
1/2+x,1/2+y,z
1/2-x,1/2+y,-z
1/2-x,1/2-y,-z
1/2+x,1/2-y,z
loop_
_atom_site_type_symbol
_atom_site_label
_atom_site_fract_x
_atom_site_fract_y
_atom_site_fract_z
Si Si1 0.862533 0.716565 0.580147
Si Si2 0.351448 0.135142 0.390358
Si Si3 0.092099 0.131076 0.930719
Si Si4 0.000000 0.784313 0.500000
Si Si5 0.321855 0.628474 0.106854
Si Si6 0.870127 0.367529 0.762634
O O1 0.886355 0.645309 0.537105
O O2 0.859587 0.630676 0.650674
O O3 0.736595 0.786126 0.370371
O O4 0.974291 0.801179 0.775544
O O5 0.447957 0.203070 0.488107
O O6 0.356096 0.000000 0.371410
O O7 0.216437 0.185952 0.161034
O O8 0.095424 0.133974 0.841158
O O9 0.077274 0.000000 0.940523
O O10 0.097285 0.872999 0.688456
O O11 0.250607 0.500000 0.994725
O O12 0.250000 0.750000 0.000000
O O13 0.849312 0.500000 0.760339
O O14 0.000000 0.321694 0.000000
#
# Coordination Sequence:
#
# PCOD8107888 Si02
#       6
#     8   8   8   4   8   8
#     4  11  21  39  63  87 118 156 203 248 309 379
#     4  11  23  37  59  90 125 164 210 258 306 365
#     4  10  21  38  58  84 120 160 204 253 305 365
#     4  12  22  40  60  88 127 170 209 258 307 364
#     4  11  23  41  62  89 126 169 217 261 306 362
#     4  10  22  40  62  89 119 151 192 252 316 377
#
# _framework density 20.776561000000001
#
# number of rings (size 3 to 8) (size 9 to 14) (size 15 to 20)
#    0.000    1.273    3.636    2.727    0.000    0.727 
#    0.000    0.000    0.000    8.727    0.000    0.000 
#    0.000    0.000    0.000    0.000    0.000    0.000 
#
# Total GULP energy -272671.718562 kJ/mol
# GULP energy per Si atom -12394.169026 kJ/mol
# Density = 2.072927 g / cm^3
# Si number density = 20.776561 Si / 1000 Ang^3
#
#
#
# Elastic Constant Matrix: (Units=GPa)
#
#
# Indices 1 2 3 4 5 6 
#
# 1 82.2137 12.0255 11.1724 0.0000 -10.8293 0.0000
# 2 12.0255 100.9359 32.6196 0.0000 9.7302 0.0000
# 3 11.1724 32.6196 100.4724 0.0000 -2.9304 0.0000
# 4 0.0000 0.0000 0.0000 26.4463 0.0000 -0.3495
# 5 -10.8293 9.7302 -2.9304 0.0000 38.7217 0.0000
# 6 0.0000 0.0000 0.0000 -0.3495 0.0000 2.4246
#
#
#
# Elastic Compliance Matrix: (Units=1/GPa)
#
#
# Indices 1 2 3 4 5 6 
#
# 1 0.013046 -0.001687 -0.000786 0.000000 0.004013 0.000000
# 2 -0.001687 0.011661 -0.003706 0.000000 -0.003682 0.000000
# 3 -0.000786 -0.003706 0.011289 0.000000 0.001566 0.000000
# 4 0.000000 0.000000 0.000000 0.037885 0.000000 0.005461
# 5 0.004013 -0.003682 0.001566 0.000000 0.027991 0.000000
# 6 0.000000 0.000000 0.000000 0.005461 0.000000 0.413224
#
#
# Mechanical properties :
#
#
# Convention : Reuss Voigt Hill
#
# Bulk Modulus (GPa) = 42.30424 43.91744 43.11084
# Shear Modulus (GPa) = 9.34000 28.70547 19.02273
#
# Velocity S-wave (km/s) = 2.12255 3.72106 3.02915
# Velocity P-wave (km/s) = 5.13933 6.29647 5.74710
#
# Compressibility (1/GPa) = 0.02363829
#
# Stress axis : x y z
#
# Youngs Moduli (GPa) = 76.65422 85.75721 88.58086
#
# Poissons Ratio (x) = 0.14468 0.06961
# Poissons Ratio (y) = 0.12933 0.32825
# Poissons Ratio (z) = 0.06024 0.31778
#
# Static dielectric constant tensor:
#      x y z
#    x 3.484320 0.000000 0.235650 
#    y 0.000000 3.731440 0.000000 
#    z 0.235650 0.000000 2.972810 
# 
# 
# High freq. dielectric constant tensor:
#      x y z
#    x 1.808380 0.000000 -0.014280 
#    y 0.000000 1.810470 0.000000 
#    z -0.014280 0.000000 1.819840 
# 
# From -- ./inp_files/296530.got.cif
#   From: 2010.06.25/outbox.cif.g09.slc.cpg/sg12_149_cif.got.tgz:296530.got - 2010.06.28 00:19:55.
