data_PCOD8107806
_publ_section_title
;
Structure prediction by ZEFSAII (Michael W. Deem and Ramdas Pophale) SiO2 
 PCOD8107806
Probable space group: C 2/M
;
_chemical_formula_sum "Si O2"
_cell_formula_units_Z 56
_cell_length_a 19.195087
_cell_length_b 8.834544
_cell_length_c 21.154779
_cell_angle_alpha 90.000000
_cell_angle_beta 54.523032
_cell_angle_gamma 90.000000
_cell_volume 2921.414781
_symmetry_space_group_name_H-M "C 2/M"
_symmetry_group_IT_number 12
_symmetry_cell_setting 'monoclinic'
loop_
_space_group_symop_operation_xyz
x,y,z
-x,y,-z
-x,-y,-z
x,-y,z
1/2+x,1/2+y,z
1/2-x,1/2+y,-z
1/2-x,1/2-y,-z
1/2+x,1/2-y,z
loop_
_atom_site_type_symbol
_atom_site_label
_atom_site_fract_x
_atom_site_fract_y
_atom_site_fract_z
Si Si1 0.167930 0.323294 0.865373
Si Si2 0.341610 0.323641 0.449821
Si Si3 0.904393 0.172140 0.284753
Si Si4 0.098582 0.331192 0.461280
Si Si5 0.001443 0.676900 0.873400
Si Si6 0.323906 0.679159 0.004139
Si Si7 0.762574 0.328775 0.707784
O O1 0.171497 0.500000 0.879384
O O2 0.075173 0.279009 0.885232
O O3 0.187153 0.229764 0.917916
O O4 0.242355 0.282673 0.776435
O O5 0.327359 0.500000 0.450539
O O6 0.250000 0.250000 0.500000
O O7 0.398174 0.268381 0.360090
O O8 0.391034 0.284844 0.487321
O O9 0.968330 0.280988 0.213013
O O10 0.809521 0.183729 0.307325
O O11 0.938948 0.000000 0.262178
O O12 0.132459 0.500000 0.461469
O O13 0.149461 0.275980 0.371967
O O14 0.000000 0.336746 0.500000
O O15 0.980476 0.500000 0.888000
O O16 0.916856 0.770115 0.932166
O O17 0.316470 0.500000 0.003483
O O18 0.250000 0.750000 0.000000
O O19 0.769138 0.500000 0.730671
#
# Coordination Sequence:
#
# PCOD8107806 Si02
#       7
#     8   8   8   8   8   8   8
#     4  10  21  38  62  91 118 150 193 239 286 341
#     4  11  21  35  58  85 116 153 197 245 294 345
#     4   9  18  34  56  84 115 149 193 245 293 340
#     4  10  21  38  57  81 116 158 199 243 293 347
#     4  10  21  38  62  91 120 151 191 238 285 341
#     4  12  25  42  63  87 119 156 192 233 288 345
#     4   9  17  34  57  82 114 151 195 242 290 342
#
# _framework density 19.168796
#
# number of rings (size 3 to 8) (size 9 to 14) (size 15 to 20)
#    0.000    1.857    1.429    3.000    0.000    5.429 
#    2.571    0.000    0.000    0.000    0.000    0.000 
#    0.000    0.000    0.000    0.000    0.000    0.000 
#
# Total GULP energy -347232.167074 kJ/mol
# GULP energy per Si atom -12401.148824 kJ/mol
# Density = 1.912517 g / cm^3
# Si number density = 19.168796 Si / 1000 Ang^3
#
#
#
# Elastic Constant Matrix: (Units=GPa)
#
#
# Indices 1 2 3 4 5 6 
#
# 1 84.5861 46.1865 65.8356 0.0000 4.2117 0.0000
# 2 46.1865 95.3391 58.1143 0.0001 7.7127 0.0000
# 3 65.8356 58.1143 152.3632 0.0000 4.0261 -0.0001
# 4 0.0000 0.0001 0.0000 35.3427 0.0000 2.8740
# 5 4.2117 7.7127 4.0261 0.0000 25.2932 0.0000
# 6 0.0000 0.0000 -0.0001 2.8740 0.0000 28.7300
#
#
#
# Elastic Compliance Matrix: (Units=1/GPa)
#
#
# Indices 1 2 3 4 5 6 
#
# 1 0.019980 -0.005707 -0.006442 0.000000 -0.000561 0.000000
# 2 -0.005707 0.015585 -0.003392 0.000000 -0.003262 0.000000
# 3 -0.006442 -0.003392 0.010630 0.000000 0.000415 0.000000
# 4 0.000000 0.000000 0.000000 0.028526 0.000000 -0.002854
# 5 -0.000561 -0.003262 0.000415 0.000000 0.040559 0.000000
# 6 0.000000 0.000000 0.000000 -0.002854 0.000000 0.035092
#
#
# Mechanical properties :
#
#
# Convention : Reuss Voigt Hill
#
# Bulk Modulus (GPa) = 66.16938 74.72903 70.44920
# Shear Modulus (GPa) = 26.81066 28.68332 27.74699
#
# Velocity S-wave (km/s) = 3.74393 3.87247 3.80874
# Velocity P-wave (km/s) = 7.29956 7.68532 7.49492
#
# Compressibility (1/GPa) = 0.01511273
#
# Stress axis : x y z
#
# Youngs Moduli (GPa) = 50.04905 64.16234 94.07687
#
# Poissons Ratio (x) = 0.36620 0.60602
# Poissons Ratio (y) = 0.28565 0.31913
# Poissons Ratio (z) = 0.32240 0.21765
#
# Static dielectric constant tensor:
#      x y z
#    x 3.492970 0.000000 0.204830 
#    y 0.000000 3.828860 0.000000 
#    z 0.204830 0.000000 3.848680 
# 
# 
# High freq. dielectric constant tensor:
#      x y z
#    x 1.724640 0.000000 0.001420 
#    y 0.000000 1.746970 0.000000 
#    z 0.001420 0.000000 1.763150 
# 
# From -- ./inp_files/319703.got.cif
#   From: 2010.06.25/outbox.cif.g09.slc.cpg/sg12_160_cif.got.tgz:319703.got - 2010.06.28 00:19:55.
