data_PCOD8107574
_publ_section_title
;
Structure prediction by ZEFSAII (Michael W. Deem and Ramdas Pophale) SiO2 
 PCOD8107574
Probable space group: C 2/M
;
_chemical_formula_sum "Si O2"
_cell_formula_units_Z 56
_cell_length_a 17.015412
_cell_length_b 23.711484
_cell_length_c 9.093071
_cell_angle_alpha 90.000000
_cell_angle_beta 128.827034
_cell_angle_gamma 90.000000
_cell_volume 2858.069499
_symmetry_space_group_name_H-M "C 2/M"
_symmetry_group_IT_number 12
_symmetry_cell_setting 'monoclinic'
loop_
_space_group_symop_operation_xyz
x,y,z
-x,y,-z
-x,-y,-z
x,-y,z
1/2+x,1/2+y,z
1/2-x,1/2+y,-z
1/2-x,1/2-y,-z
1/2+x,1/2-y,z
loop_
_atom_site_type_symbol
_atom_site_label
_atom_site_fract_x
_atom_site_fract_y
_atom_site_fract_z
Si Si1 0.230316 0.065671 0.355521
Si Si2 0.391891 0.339875 0.950997
Si Si3 0.216081 0.267909 0.118456
Si Si4 0.896000 0.841541 0.309014
Si Si5 0.458721 0.938166 0.612171
Si Si6 0.782485 0.064841 0.321081
Si Si7 0.413748 0.873136 0.014687
O O1 0.161366 0.103080 0.166860
O O2 0.345731 0.087018 0.478362
O O3 0.193413 0.074380 0.478881
O O4 0.220485 0.000000 0.295838
O O5 0.321218 0.285541 0.827905
O O6 0.500000 0.333494 0.000000
O O7 0.402108 0.340061 0.139553
O O8 0.314090 0.300808 0.294595
O O9 0.250000 0.250000 0.000000
O O10 0.124398 0.311095 0.992150
O O11 0.868296 0.904864 0.325357
O O12 0.000000 0.821651 0.500000
O O13 0.500000 0.945707 0.500000
O O14 0.539017 0.898258 0.783247
O O15 0.454311 0.000000 0.684859
O O16 0.787415 0.000000 0.283319
O O17 0.671728 0.086665 0.150963
O O18 0.500000 0.866550 0.000000
#
# Coordination Sequence:
#
# PCOD8107574 Si02
#       7
#     8   8   8   8   8   8   8
#     4  10  22  40  60  91 124 157 202 249 299 364
#     4  11  23  43  64  86 124 157 201 252 303 357
#     4   9  22  41  60  88 121 154 204 253 297 363
#     4  10  22  42  63  88 119 156 203 253 297 358
#     4  10  22  36  57  92 130 161 200 244 299 369
#     4  10  21  37  61  90 123 159 202 248 299 362
#     4  11  20  37  62  89 122 162 202 249 306 353
#
# _framework density 19.593646
#
# number of rings (size 3 to 8) (size 9 to 14) (size 15 to 20)
#    0.000    1.857    1.429    1.714    6.000    1.714 
#    5.143    3.571    0.000    0.000    0.000    0.000 
#    0.000    0.000    0.000    0.000    0.000    0.000 
#
# Total GULP energy -347105.705473 kJ/mol
# GULP energy per Si atom -12396.632338 kJ/mol
# Density = 1.954905 g / cm^3
# Si number density = 19.593646 Si / 1000 Ang^3
#
#
#
# Elastic Constant Matrix: (Units=GPa)
#
#
# Indices 1 2 3 4 5 6 
#
# 1 75.6840 26.3653 30.6393 0.0000 4.4966 0.0000
# 2 26.3653 114.6780 48.2317 0.0000 5.4973 0.0000
# 3 30.6393 48.2317 103.5589 0.0000 9.7896 0.0000
# 4 0.0000 0.0000 0.0000 25.1302 0.0000 -2.7668
# 5 4.4966 5.4973 9.7896 0.0000 31.2625 0.0000
# 6 0.0000 0.0000 0.0000 -2.7668 0.0000 29.2786
#
#
#
# Elastic Compliance Matrix: (Units=1/GPa)
#
#
# Indices 1 2 3 4 5 6 
#
# 1 0.015394 -0.002012 -0.003547 0.000000 -0.000750 0.000000
# 2 -0.002012 0.011111 -0.004557 0.000000 -0.000237 0.000000
# 3 -0.003547 -0.004557 0.013092 0.000000 -0.002788 0.000000
# 4 0.000000 0.000000 0.000000 0.040211 0.000000 0.003800
# 5 -0.000750 -0.000237 -0.002788 0.000000 0.033010 0.000000
# 6 0.000000 0.000000 0.000000 0.003800 0.000000 0.034514
#
#
# Mechanical properties :
#
#
# Convention : Reuss Voigt Hill
#
# Bulk Modulus (GPa) = 51.63839 56.04375 53.84107
# Shear Modulus (GPa) = 28.73288 29.71324 29.22306
#
# Velocity S-wave (km/s) = 3.83356 3.89842 3.86613
# Velocity P-wave (km/s) = 6.78283 6.99490 6.88968
#
# Compressibility (1/GPa) = 0.01936544
#
# Stress axis : x y z
#
# Youngs Moduli (GPa) = 64.96053 90.00460 76.38440
#
# Poissons Ratio (x) = 0.18105 0.27092
# Poissons Ratio (y) = 0.13067 0.34809
# Poissons Ratio (z) = 0.23040 0.41016
#
# Static dielectric constant tensor:
#      x y z
#    x 3.756490 0.000000 0.115550 
#    y 0.000000 4.037850 0.000000 
#    z 0.115550 0.000000 3.399460 
# 
# 
# High freq. dielectric constant tensor:
#      x y z
#    x 1.779810 0.000000 0.005810 
#    y 0.000000 1.770210 0.000000 
#    z 0.005810 0.000000 1.748020 
# 
# From -- ./inp_files/65300.got.cif
#   From: 2010.06.25/outbox.cif.g09.slc.cpg/sg12_33_cif.got.tgz:65300.got - 2010.06.28 00:19:55.
