data_PCOD8107414
_publ_section_title
;
Structure prediction by ZEFSAII (Michael W. Deem and Ramdas Pophale) SiO2 
 PCOD8107414
Probable space group: C 2/M
;
_chemical_formula_sum "Si O2"
_cell_formula_units_Z 48
_cell_length_a 10.019407
_cell_length_b 15.798546
_cell_length_c 31.760220
_cell_angle_alpha 90.000000
_cell_angle_beta 153.368132
_cell_angle_gamma 90.000000
_cell_volume 2253.559809
_symmetry_space_group_name_H-M "C 2/M"
_symmetry_group_IT_number 12
_symmetry_cell_setting 'monoclinic'
loop_
_space_group_symop_operation_xyz
x,y,z
-x,y,-z
-x,-y,-z
x,-y,z
1/2+x,1/2+y,z
1/2-x,1/2+y,-z
1/2-x,1/2-y,-z
1/2+x,1/2-y,z
loop_
_atom_site_type_symbol
_atom_site_label
_atom_site_fract_x
_atom_site_fract_y
_atom_site_fract_z
Si Si1 0.435625 0.673775 0.690762
Si Si2 0.850312 0.500000 0.591586
Si Si3 0.587218 0.591532 0.084908
Si Si4 0.664154 0.649745 0.905862
Si Si5 0.846584 0.500000 0.412054
Si Si6 0.087093 0.666272 0.893647
Si Si7 0.662259 0.828185 0.699619
O O1 0.345180 0.586604 0.642398
O O2 0.476925 0.752935 0.670391
O O3 0.203357 0.698643 0.662248
O O4 0.739614 0.652690 0.800695
O O5 0.500000 0.500000 0.500000
O O6 0.925053 0.500000 0.562817
O O7 0.983063 0.416329 0.651405
O O8 0.713683 0.500000 0.109143
O O9 0.555443 0.596519 0.126118
O O10 0.820485 0.656365 0.129841
O O11 0.258476 0.601193 0.971764
O O12 0.691170 0.740351 0.936327
O O13 0.490355 0.657226 0.812619
O O14 0.000000 0.610640 0.000000
O O15 0.000000 0.500000 0.500000
#
# Coordination Sequence:
#
# PCOD8107414 Si02
#       7
#     8   4   8   8   4   8   8
#     4  10  23  41  67  94 132 167 209 263 316 376
#     4  10  24  50  71  93 129 169 201 275 329 381
#     4  11  23  35  54  88 123 164 227 260 297 365
#     4  11  22  37  60  86 130 170 216 254 310 362
#     4  10  24  46  68 102 127 162 209 257 332 400
#     4  10  21  37  60  81 125 174 213 253 309 358
#     4  10  24  42  66  97 130 168 221 255 320 384
#
# _framework density 21.299634000000001
#
# number of rings (size 3 to 8) (size 9 to 14) (size 15 to 20)
#    0.000    1.667    1.667    2.500   12.833    2.333 
#    3.000    3.333    0.000    0.000    0.000    0.000 
#    0.000    0.000    0.000    0.000    0.000    0.000 
#
# Total GULP energy -297405.799913 kJ/mol
# GULP energy per Si atom -12391.908330 kJ/mol
# Density = 2.125115 g / cm^3
# Si number density = 21.299634 Si / 1000 Ang^3
#
#
#
# Elastic Constant Matrix: (Units=GPa)
#
#
# Indices 1 2 3 4 5 6 
#
# 1 101.5564 50.5471 24.7872 0.0005 -2.2363 -0.0001
# 2 50.5471 137.3043 40.5930 -0.0011 1.9917 -0.0004
# 3 24.7872 40.5930 67.0435 0.0037 6.7913 0.0002
# 4 0.0005 -0.0011 0.0037 11.5776 0.0013 -3.4065
# 5 -2.2363 1.9917 6.7913 0.0013 31.0799 -0.0003
# 6 -0.0001 -0.0004 0.0002 -3.4065 -0.0003 32.4996
#
#
#
# Elastic Compliance Matrix: (Units=1/GPa)
#
#
# Indices 1 2 3 4 5 6 
#
# 1 0.012401 -0.003878 -0.002405 0.000000 0.001666 0.000000
# 2 -0.003878 0.010096 -0.004689 0.000003 0.000099 0.000000
# 3 -0.002405 -0.004689 0.019053 -0.000006 -0.004036 -0.000001
# 4 0.000000 0.000003 -0.000006 0.089123 -0.000003 0.009342
# 5 0.001666 0.000099 -0.004036 -0.000003 0.033171 0.000000
# 6 0.000000 0.000000 -0.000001 0.009342 0.000000 0.031749
#
#
# Mechanical properties :
#
#
# Convention : Reuss Voigt Hill
#
# Bulk Modulus (GPa) = 51.00916 59.75098 55.38007
# Shear Modulus (GPa) = 22.31436 27.69652 25.00544
#
# Velocity S-wave (km/s) = 3.24024 3.60992 3.43006
# Velocity P-wave (km/s) = 6.16435 6.74454 6.46096
#
# Compressibility (1/GPa) = 0.01960432
#
# Stress axis : x y z
#
# Youngs Moduli (GPa) = 80.63965 99.05315 52.48586
#
# Poissons Ratio (x) = 0.38415 0.12625
# Poissons Ratio (y) = 0.31274 0.24609
# Poissons Ratio (z) = 0.19397 0.46443
#
# Static dielectric constant tensor:
#      x y z
#    x 3.891620 0.000000 0.043050 
#    y 0.000000 3.961300 0.000000 
#    z 0.043050 0.000000 3.504600 
# 
# 
# High freq. dielectric constant tensor:
#      x y z
#    x 1.844150 0.000000 0.001030 
#    y 0.000000 1.842190 0.000000 
#    z 0.001030 0.000000 1.802900 
# 
# From -- ./inp_files/373045.got.cif
#   From: 2010.06.25/outbox.cif.g09.slc.cpg/sg12_187_cif.got.tgz:373045.got - 2010.06.28 00:19:55.
