data_PCOD8107786
_publ_section_title
;
Structure prediction by ZEFSAII (Michael W. Deem and Ramdas Pophale) SiO2 
 PCOD8107786
Probable space group: C 2/M
;
_chemical_formula_sum "Si O2"
_cell_formula_units_Z 64
_cell_length_a 24.463017
_cell_length_b 8.839745
_cell_length_c 20.176500
_cell_angle_alpha 90.000000
_cell_angle_beta 54.068096
_cell_angle_gamma 90.000000
_cell_volume 3532.870948
_symmetry_space_group_name_H-M "C 2/M"
_symmetry_group_IT_number 12
_symmetry_cell_setting 'monoclinic'
loop_
_space_group_symop_operation_xyz
x,y,z
-x,y,-z
-x,-y,-z
x,-y,z
1/2+x,1/2+y,z
1/2-x,1/2+y,-z
1/2-x,1/2-y,-z
1/2+x,1/2-y,z
loop_
_atom_site_type_symbol
_atom_site_label
_atom_site_fract_x
_atom_site_fract_y
_atom_site_fract_z
Si Si1 0.425645 0.822365 0.796504
Si Si2 0.080553 0.323017 0.700090
Si Si3 0.820892 0.178615 0.969275
Si Si4 0.659300 0.820886 0.264236
Si Si5 0.188748 0.326355 0.385954
Si Si6 0.819708 0.822265 0.472867
Si Si7 0.304377 0.678617 0.127002
Si Si8 0.844289 0.826238 0.238805
O O1 0.502763 0.775748 0.749992
O O2 0.382241 0.737386 0.882231
O O3 0.402227 0.770660 0.739347
O O4 0.413732 0.000000 0.814875
O O5 0.091389 0.500000 0.680078
O O6 0.120046 0.230683 0.616633
O O7 0.105865 0.279444 0.755121
O O8 0.814032 0.000000 0.966564
O O9 0.750000 0.250000 0.000000
O O10 0.837912 0.225087 0.033449
O O11 0.650511 0.766437 0.346703
O O12 0.728530 0.752897 0.184366
O O13 0.665674 0.000000 0.262453
O O14 0.170123 0.500000 0.414762
O O15 0.162850 0.223891 0.464504
O O16 0.268823 0.308905 0.320176
O O17 0.750000 0.750000 0.500000
O O18 0.811906 0.000000 0.472393
O O19 0.297739 0.500000 0.138360
O O20 0.347744 0.732866 0.159963
O O21 0.868145 0.000000 0.228037
#
# Coordination Sequence:
#
# PCOD8107786 Si02
#       8
#     8   8   8   8   8   8   8   8
#     4  10  21  38  57  79 111 148 183 221 267 321
#     4  11  23  37  55  80 111 146 181 220 269 324
#     4  11  20  33  56  84 112 142 182 228 271 318
#     4   8  14  30  55  79 106 140 178 218 262 315
#     4   9  17  31  56  84 105 134 178 225 267 312
#     4  12  23  36  56  81 110 141 178 224 269 318
#     4   8  15  29  53  81 106 136 179 223 265 316
#     4   9  17  32  55  79 105 141 180 221 266 316
#
# _framework density 18.115576999999998
#
# number of rings (size 3 to 8) (size 9 to 14) (size 15 to 20)
#    0.000    2.250    2.500    3.375    0.000    1.000 
#    0.000    3.125    0.000    7.500    0.000    0.000 
#    0.000    0.000    0.000    0.000    0.000    0.000 
#
# Total GULP energy -396691.816251 kJ/mol
# GULP energy per Si atom -12396.619258 kJ/mol
# Density = 1.807435 g / cm^3
# Si number density = 18.115577 Si / 1000 Ang^3
#
#
#
# Elastic Constant Matrix: (Units=GPa)
#
#
# Indices 1 2 3 4 5 6 
#
# 1 138.3514 44.9059 81.2888 0.0004 20.1104 -0.0009
# 2 44.9059 75.9637 53.8554 0.0009 1.6037 -0.0003
# 3 81.2888 53.8554 130.7926 -0.0001 19.5815 0.0003
# 4 0.0004 0.0009 -0.0001 29.0016 -0.0005 2.4675
# 5 20.1104 1.6037 19.5815 -0.0005 31.7855 0.0002
# 6 -0.0009 -0.0003 0.0003 2.4675 0.0002 24.5395
#
#
#
# Elastic Compliance Matrix: (Units=1/GPa)
#
#
# Indices 1 2 3 4 5 6 
#
# 1 0.012149 -0.003067 -0.005685 0.000000 -0.004030 0.000001
# 2 -0.003067 0.019879 -0.007072 0.000000 0.005294 0.000000
# 3 -0.005685 -0.007072 0.014871 0.000000 -0.005207 0.000000
# 4 0.000000 0.000000 0.000000 0.034778 0.000001 -0.003497
# 5 -0.004030 0.005294 -0.005207 0.000001 0.036952 0.000000
# 6 0.000001 0.000000 0.000000 -0.003497 0.000000 0.041102
#
#
# Mechanical properties :
#
#
# Convention : Reuss Voigt Hill
#
# Bulk Modulus (GPa) = 65.56622 78.35643 71.96133
# Shear Modulus (GPa) = 25.45022 28.06916 26.75969
#
# Velocity S-wave (km/s) = 3.75224 3.94057 3.84756
# Velocity P-wave (km/s) = 7.41918 8.00323 7.71673
#
# Compressibility (1/GPa) = 0.01525176
#
# Stress axis : x y z
#
# Youngs Moduli (GPa) = 82.30985 50.30409 67.24718
#
# Poissons Ratio (x) = 0.15426 0.38229
# Poissons Ratio (y) = 0.25241 0.47558
# Poissons Ratio (z) = 0.46792 0.35576
#
# Static dielectric constant tensor:
#      x y z
#    x 3.575430 0.000000 0.341900 
#    y 0.000000 3.151410 -0.000010 
#    z 0.341900 -0.000010 3.531980 
# 
# 
# High freq. dielectric constant tensor:
#      x y z
#    x 1.699380 0.000000 0.027190 
#    y 0.000000 1.679290 0.000000 
#    z 0.027190 0.000000 1.697450 
# 
# From -- ./inp_files/326866.got.cif
#   From: 2010.06.25/outbox.cif.g09.slc.cpg/sg12_164_cif.got.tgz:326866.got - 2010.06.28 00:19:55.
