data_PCOD8107762
_publ_section_title
;
Structure prediction by ZEFSAII (Michael W. Deem and Ramdas Pophale) SiO2 
 PCOD8107762
Probable space group: C 2/M
;
_chemical_formula_sum "Si O2"
_cell_formula_units_Z 40
_cell_length_a 27.202188
_cell_length_b 11.173410
_cell_length_c 16.647900
_cell_angle_alpha 90.000000
_cell_angle_beta 23.445497
_cell_angle_gamma 90.000000
_cell_volume 2013.248351
_symmetry_space_group_name_H-M "C 2/M"
_symmetry_group_IT_number 12
_symmetry_cell_setting 'monoclinic'
loop_
_space_group_symop_operation_xyz
x,y,z
-x,y,-z
-x,-y,-z
x,-y,z
1/2+x,1/2+y,z
1/2-x,1/2+y,-z
1/2-x,1/2-y,-z
1/2+x,1/2-y,z
loop_
_atom_site_type_symbol
_atom_site_label
_atom_site_fract_x
_atom_site_fract_y
_atom_site_fract_z
Si Si1 0.297684 0.134860 0.978820
Si Si2 0.997918 0.141147 0.873589
Si Si3 0.053503 0.275891 0.634108
Si Si4 0.106331 0.135881 0.397989
Si Si5 0.186198 0.862480 0.719432
O O1 0.445908 0.137033 0.763697
O O2 0.263909 0.000000 0.994298
O O3 0.250000 0.250000 0.000000
O O4 0.237801 0.146473 0.156676
O O5 0.992653 0.192434 0.792161
O O6 0.120790 0.188367 0.736753
O O7 0.997087 0.000000 0.863308
O O8 0.878618 0.189216 0.102535
O O9 0.111846 0.203141 0.473521
O O10 0.167016 0.347061 0.502983
O O11 0.000000 0.191487 0.500000
O O12 0.070745 0.000000 0.471380
O O13 0.151075 0.000000 0.772653
#
# Coordination Sequence:
#
# PCOD8107762 Si02
#       5
#     8   8   8   8   8
#     4  11  24  41  59  83 115 154 195 243 295 341
#     4   9  19  35  57  83 113 150 186 225 281 350
#     4  12  20  34  60  86 109 147 196 239 281 336
#     4  10  21  38  56  78 113 153 192 238 292 346
#     4   9  19  36  54  81 118 146 180 234 288 334
#
# _framework density 19.868387999999999
#
# number of rings (size 3 to 8) (size 9 to 14) (size 15 to 20)
#    0.000    1.800    2.000    4.200    0.000    0.800 
#    0.000    3.000    0.000    0.000    0.000   16.800 
#    0.000    0.000    0.000    0.000    0.000    0.000 
#
# Total GULP energy -247830.026731 kJ/mol
# GULP energy per Si atom -12391.501337 kJ/mol
# Density = 1.982317 g / cm^3
# Si number density = 19.868388 Si / 1000 Ang^3
#
#
#
# Elastic Constant Matrix: (Units=GPa)
#
#
# Indices 1 2 3 4 5 6 
#
# 1 67.0546 33.2252 20.4305 0.0000 8.1980 0.0000
# 2 33.2252 83.1505 25.5980 0.0000 7.7928 0.0000
# 3 20.4305 25.5980 98.1729 0.0000 -12.8459 0.0000
# 4 0.0000 0.0000 0.0000 16.3348 0.0000 7.3357
# 5 8.1980 7.7928 -12.8459 0.0000 44.1213 0.0000
# 6 0.0000 0.0000 0.0000 7.3357 0.0000 23.1298
#
#
#
# Elastic Compliance Matrix: (Units=1/GPa)
#
#
# Indices 1 2 3 4 5 6 
#
# 1 0.019421 -0.006613 -0.002741 0.000000 -0.003239 0.000000
# 2 -0.006613 0.015848 -0.003079 0.000000 -0.002467 0.000000
# 3 -0.002741 -0.003079 0.012160 0.000000 0.004594 0.000000
# 4 0.000000 0.000000 0.000000 0.071387 0.000000 -0.022640
# 5 -0.003239 -0.002467 0.004594 0.000000 0.025040 0.000000
# 6 0.000000 0.000000 0.000000 -0.022640 0.000000 0.050415
#
#
# Mechanical properties :
#
#
# Convention : Reuss Voigt Hill
#
# Bulk Modulus (GPa) = 44.31927 45.20949 44.76438
# Shear Modulus (GPa) = 22.05977 27.99213 25.02595
#
# Velocity S-wave (km/s) = 3.33572 3.75757 3.55292
# Velocity P-wave (km/s) = 6.09844 6.45211 6.27776
#
# Compressibility (1/GPa) = 0.02256355
#
# Stress axis : x y z
#
# Youngs Moduli (GPa) = 51.49061 63.10053 82.23407
#
# Poissons Ratio (x) = 0.41727 0.22542
# Poissons Ratio (y) = 0.34050 0.25318
# Poissons Ratio (z) = 0.14114 0.19427
#
# Static dielectric constant tensor:
#      x y z
#    x 3.549500 0.000000 0.019590 
#    y 0.000000 3.397070 0.000000 
#    z 0.019590 0.000000 3.708140 
# 
# 
# High freq. dielectric constant tensor:
#      x y z
#    x 1.769420 0.000000 0.000060 
#    y 0.000000 1.750840 0.000000 
#    z 0.000060 0.000000 1.789990 
# 
# From -- ./inp_files/140253.got.cif
#   From: 2010.06.25/outbox.cif.g09.slc.cpg/sg12_71_cif.got.tgz:140253.got - 2010.06.28 00:19:55.
