data_PCOD8107640
_publ_section_title
;
Structure prediction by ZEFSAII (Michael W. Deem and Ramdas Pophale) SiO2 
 PCOD8107640
Probable space group: C 2/M
;
_chemical_formula_sum "Si O2"
_cell_formula_units_Z 64
_cell_length_a 18.702398
_cell_length_b 14.803231
_cell_length_c 22.257603
_cell_angle_alpha 90.000000
_cell_angle_beta 151.254777
_cell_angle_gamma 90.000000
_cell_volume 2963.474071
_symmetry_space_group_name_H-M "C 2/M"
_symmetry_group_IT_number 12
_symmetry_cell_setting 'monoclinic'
loop_
_space_group_symop_operation_xyz
x,y,z
-x,y,-z
-x,-y,-z
x,-y,z
1/2+x,1/2+y,z
1/2-x,1/2+y,-z
1/2-x,1/2-y,-z
1/2+x,1/2-y,z
loop_
_atom_site_type_symbol
_atom_site_label
_atom_site_fract_x
_atom_site_fract_y
_atom_site_fract_z
Si Si1 0.894927 0.107265 0.369136
Si Si2 0.447410 0.274757 0.604021
Si Si3 0.156712 0.102735 0.238711
Si Si4 0.821174 0.150409 0.976661
Si Si5 0.858408 0.605333 0.273925
Si Si6 0.383821 0.159841 0.072100
Si Si7 0.137320 0.240029 0.328003
Si Si8 0.071183 0.400582 0.110333
O O1 0.723485 0.142481 0.249572
O O2 0.000000 0.145608 0.500000
O O3 0.945374 0.149477 0.343607
O O4 0.908649 0.000000 0.376998
O O5 0.500738 0.172206 0.627765
O O6 0.285106 0.292386 0.456663
O O7 0.445175 0.296013 0.673147
O O8 0.264687 0.132829 0.264002
O O9 0.186576 0.159750 0.320290
O O10 0.189770 0.000000 0.279924
O O11 0.986988 0.114072 0.093214
O O12 0.743115 0.120088 0.858770
O O13 0.735864 0.110445 0.972857
O O14 0.812792 0.258102 0.981224
O O15 0.909801 0.500000 0.314628
O O16 0.524350 0.191966 0.214089
O O17 0.447442 0.090133 0.070678
O O18 0.116213 0.500000 0.120717
O O19 0.000000 0.347753 0.000000
#
# Coordination Sequence:
#
# PCOD8107640 Si02
#       8
#     8   8   8   8   8   8   8   8
#     4  10  23  42  66  96 125 165 218 260 318 392
#     4  11  24  41  67  90 125 169 208 269 321 377
#     4  10  23  40  63  92 126 165 211 266 315 375
#     4  10  21  37  62  91 121 162 210 255 310 381
#     4  11  24  41  62  96 131 169 215 259 317 381
#     4  10  21  38  60  89 124 163 209 257 319 383
#     4  10  23  43  60  92 121 159 219 256 317 389
#     4  10  23  38  57  91 128 161 205 261 320 384
#
# _framework density 21.596274000000001
#
# number of rings (size 3 to 8) (size 9 to 14) (size 15 to 20)
#    0.000    1.750    1.250    1.500    7.000    3.000 
#    0.000    4.375    0.000    0.000    0.000    0.000 
#    0.000    0.000    0.000    0.000    0.000    0.000 
#
# Total GULP energy -396649.656616 kJ/mol
# GULP energy per Si atom -12395.301769 kJ/mol
# Density = 2.154712 g / cm^3
# Si number density = 21.596274 Si / 1000 Ang^3
#
#
#
# Elastic Constant Matrix: (Units=GPa)
#
#
# Indices 1 2 3 4 5 6 
#
# 1 152.0783 22.2574 21.9835 -0.0042 -3.8358 -0.0014
# 2 22.2574 38.8193 4.2671 0.0026 -8.4255 -0.0025
# 3 21.9835 4.2671 84.7359 -0.0089 -3.3796 -0.0063
# 4 -0.0042 0.0026 -0.0089 8.9179 -0.0020 1.8609
# 5 -3.8358 -8.4255 -3.3796 -0.0020 31.2378 -0.0001
# 6 -0.0014 -0.0025 -0.0063 1.8609 -0.0001 22.1631
#
#
#
# Elastic Compliance Matrix: (Units=1/GPa)
#
#
# Indices 1 2 3 4 5 6 
#
# 1 0.007424 -0.004152 -0.001733 0.000003 -0.000396 -0.000001
# 2 -0.004152 0.029784 -0.000123 -0.000010 0.007510 0.000004
# 3 -0.001733 -0.000123 0.012300 0.000011 0.001085 0.000002
# 4 0.000003 -0.000010 0.000011 0.114134 0.000006 -0.009583
# 5 -0.000396 0.007510 0.001085 0.000006 0.034107 0.000001
# 6 -0.000001 0.000004 0.000002 -0.009583 0.000001 0.045925
#
#
# Mechanical properties :
#
#
# Convention : Reuss Voigt Hill
#
# Bulk Modulus (GPa) = 26.67157 41.40549 34.03853
# Shear Modulus (GPa) = 18.64372 27.60548 23.12460
#
# Velocity S-wave (km/s) = 2.94136 3.57914 3.27581
# Velocity P-wave (km/s) = 4.89002 6.02449 5.48666
#
# Compressibility (1/GPa) = 0.03749311
#
# Stress axis : x y z
#
# Youngs Moduli (GPa) = 134.70390 33.57453 81.29842
#
# Poissons Ratio (x) = 0.13940 0.14086
# Poissons Ratio (y) = 0.55927 0.01001
# Poissons Ratio (z) = 0.23340 0.00414
#
# Static dielectric constant tensor:
#      x y z
#    x 4.236690 0.000000 0.042320 
#    y 0.000000 3.623910 0.000000 
#    z 0.042320 0.000000 4.047480 
# 
# 
# High freq. dielectric constant tensor:
#      x y z
#    x 1.866920 0.000000 0.001300 
#    y 0.000000 1.822440 0.000000 
#    z 0.001300 0.000000 1.855870 
# 
# From -- ./inp_files/317388.got.cif
#   From: 2010.06.25/outbox.cif.g09.slc.cpg/sg12_159_cif.got.tgz:317388.got - 2010.06.28 00:19:55.
