data_PCOD8107729
_publ_section_title
;
Structure prediction by ZEFSAII (Michael W. Deem and Ramdas Pophale) SiO2 
 PCOD8107729
Probable space group: C 2/M
;
_chemical_formula_sum "Si O2"
_cell_formula_units_Z 32
_cell_length_a 10.019144
_cell_length_b 16.549924
_cell_length_c 11.857986
_cell_angle_alpha 90.000000
_cell_angle_beta 45.963109
_cell_angle_gamma 90.000000
_cell_volume 1413.518305
_symmetry_space_group_name_H-M "C 2/M"
_symmetry_group_IT_number 12
_symmetry_cell_setting 'monoclinic'
loop_
_space_group_symop_operation_xyz
x,y,z
-x,y,-z
-x,-y,-z
x,-y,z
1/2+x,1/2+y,z
1/2-x,1/2+y,-z
1/2-x,1/2-y,-z
1/2+x,1/2-y,z
loop_
_atom_site_type_symbol
_atom_site_label
_atom_site_fract_x
_atom_site_fract_y
_atom_site_fract_z
Si Si1 0.412693 0.500000 0.429233
Si Si2 0.880035 0.589829 0.896997
Si Si3 0.508750 0.000000 0.361528
Si Si4 0.552349 0.341019 0.225852
Si Si5 0.368673 0.773160 0.175115
O O1 0.500000 0.500000 0.500000
O O2 0.194048 0.500000 0.573188
O O3 0.469293 0.420960 0.327471
O O4 0.884464 0.500000 0.949949
O O5 0.887193 0.578855 0.754601
O O6 0.060988 0.637537 0.832139
O O7 0.696351 0.637452 0.041291
O O8 0.500000 0.000000 0.500000
O O9 0.384374 0.288286 0.271543
O O10 0.656928 0.285122 0.257619
O O11 0.500000 0.738035 0.000000
#
# Coordination Sequence:
#
# PCOD8107729 Si02
#       5
#     4   8   4   8   8
#     4  12  25  44  67  96 128 178 222 256 311 404
#     4   9  19  39  66  95 126 168 216 262 324 376
#     4  10  23  40  61  96 134 168 212 270 319 376
#     4  11  23  42  68  99 128 168 218 268 323 380
#     4  10  21  37  66  97 131 159 214 275 322 375
#
# _framework density 22.638545000000001
#
# number of rings (size 3 to 8) (size 9 to 14) (size 15 to 20)
#    0.750    1.000    1.250    4.500    1.750    5.500 
#    0.000    8.125    0.000    0.000    0.000    0.000 
#    0.000    0.000    0.000    0.000    0.000    0.000 
#
# Total GULP energy -198255.633078 kJ/mol
# GULP energy per Si atom -12390.977067 kJ/mol
# Density = 2.258702 g / cm^3
# Si number density = 22.638545 Si / 1000 Ang^3
#
#
#
# Elastic Constant Matrix: (Units=GPa)
#
#
# Indices 1 2 3 4 5 6 
#
# 1 113.9449 69.0134 38.6047 0.0001 23.0981 0.0002
# 2 69.0134 140.2179 29.4100 0.0000 15.5508 0.0001
# 3 38.6047 29.4100 83.1612 -0.0001 16.6289 0.0007
# 4 0.0001 0.0000 -0.0001 -1.6229 0.0000 13.9906
# 5 23.0981 15.5508 16.6289 0.0000 30.0758 -0.0004
# 6 0.0002 0.0001 0.0007 13.9906 -0.0004 31.4592
#
#
#
# Elastic Compliance Matrix: (Units=1/GPa)
#
#
# Indices 1 2 3 4 5 6 
#
# 1 0.014804 -0.005836 -0.003528 0.000000 -0.006401 0.000000
# 2 -0.005836 0.010217 -0.000836 0.000000 -0.000338 0.000000
# 3 -0.003528 -0.000836 0.014987 -0.000001 -0.005144 0.000000
# 4 0.000000 0.000000 -0.000001 -0.127472 0.000001 0.056690
# 5 -0.006401 -0.000338 -0.005144 0.000001 0.041184 0.000000
# 6 0.000000 0.000000 0.000000 0.056690 0.000000 0.006576
#
#
# Mechanical properties :
#
#
# Convention : Reuss Voigt Hill
#
# Bulk Modulus (GPa) = 51.00401 67.93114 59.46758
# Shear Modulus (GPa) = -391.67445 25.33547 -183.16949
#
# Velocity S-wave (km/s) = -13.16768 3.34897 -9.00478
# Velocity P-wave (km/s) = 14.44317 6.71015 9.04375
#
# Compressibility (1/GPa) = 0.01960630
#
# Stress axis : x y z
#
# Youngs Moduli (GPa) = 67.54880 97.87325 66.72384
#
# Poissons Ratio (x) = 0.57123 0.23542
# Poissons Ratio (y) = 0.39424 0.05581
# Poissons Ratio (z) = 0.23833 0.08186
#
# Static dielectric constant tensor:
#      x y z
#    x 4.015070 0.000000 0.104560 
#    y 0.000000 4.029600 0.000000 
#    z 0.104560 0.000000 3.947720 
# 
# 
# High freq. dielectric constant tensor:
#      x y z
#    x 1.882770 0.000000 0.010660 
#    y 0.000000 1.900820 0.000000 
#    z 0.010660 0.000000 1.871910 
# 
# From -- ./inp_files/118427.got.cif
#   From: 2010.06.25/outbox.cif.g09.slc.cpg/sg12_60_cif.got.tgz:118427.got - 2010.06.28 00:19:55.
