data_PCOD8107487
_publ_section_title
;
Structure prediction by ZEFSAII (Michael W. Deem and Ramdas Pophale) SiO2 
 PCOD8107487
Probable space group: C 2/M
;
_chemical_formula_sum "Si O2"
_cell_formula_units_Z 48
_cell_length_a 14.532371
_cell_length_b 15.302286
_cell_length_c 10.241373
_cell_angle_alpha 90.000000
_cell_angle_beta 81.657568
_cell_angle_gamma 90.000000
_cell_volume 2253.362435
_symmetry_space_group_name_H-M "C 2/M"
_symmetry_group_IT_number 12
_symmetry_cell_setting 'monoclinic'
loop_
_space_group_symop_operation_xyz
x,y,z
-x,y,-z
-x,-y,-z
x,-y,z
1/2+x,1/2+y,z
1/2-x,1/2+y,-z
1/2-x,1/2-y,-z
1/2+x,1/2-y,z
loop_
_atom_site_type_symbol
_atom_site_label
_atom_site_fract_x
_atom_site_fract_y
_atom_site_fract_z
Si Si1 0.705001 0.097488 0.227442
Si Si2 0.065026 0.282151 0.876567
Si Si3 0.904152 0.094534 0.724295
Si Si4 0.723893 0.099682 0.921953
Si Si5 0.093257 0.093917 0.835070
Si Si6 0.946070 0.724439 0.639481
O O1 0.809542 0.100851 0.265324
O O2 0.640333 0.160618 0.323214
O O3 0.662923 0.000000 0.245092
O O4 0.714317 0.127685 0.074541
O O5 0.159193 0.337943 0.846886
O O6 0.085049 0.182393 0.921973
O O7 0.015767 0.281770 0.746938
O O8 0.000000 0.326627 0.000000
O O9 0.830521 0.112887 0.855356
O O10 0.904461 0.177462 0.627058
O O11 0.008054 0.087770 0.755670
O O12 0.880783 0.000000 0.661148
O O13 0.691623 0.000000 0.907327
O O14 0.097710 0.000000 0.915874
O O15 0.000000 0.694301 0.500000
#
# Coordination Sequence:
#
# PCOD8107487 Si02
#       6
#     8   8   8   8   8   8
#     4  10  21  37  60  89 121 159 199 246 300 350
#     4  11  22  37  60  88 118 158 200 244 296 348
#     4   9  20  39  61  89 122 157 197 245 300 355
#     4  10  21  37  61  91 120 154 200 251 297 350
#     4   9  20  35  56  90 124 151 192 247 300 351
#     4  11  24  41  61  88 123 160 199 245 297 357
#
# _framework density 21.301499
#
# number of rings (size 3 to 8) (size 9 to 14) (size 15 to 20)
#    0.000    2.000    1.667    1.000    4.667    3.333 
#    0.000    7.500    0.000    8.000    0.000    0.000 
#    0.000    0.000    0.000    0.000    0.000    0.000 
#
# Total GULP energy -297351.845412 kJ/mol
# GULP energy per Si atom -12389.660226 kJ/mol
# Density = 2.125302 g / cm^3
# Si number density = 21.301499 Si / 1000 Ang^3
#
#
#
# Elastic Constant Matrix: (Units=GPa)
#
#
# Indices 1 2 3 4 5 6 
#
# 1 126.0201 67.0423 45.2683 0.0000 -22.8271 0.0000
# 2 67.0423 113.0051 29.6720 0.0000 -11.9690 0.0000
# 3 45.2683 29.6720 91.8093 0.0000 -19.4240 0.0000
# 4 0.0000 0.0000 0.0000 16.2413 0.0000 -11.0369
# 5 -22.8271 -11.9690 -19.4240 0.0000 25.9581 0.0000
# 6 0.0000 0.0000 0.0000 -11.0369 0.0000 37.1002
#
#
#
# Elastic Compliance Matrix: (Units=1/GPa)
#
#
# Indices 1 2 3 4 5 6 
#
# 1 0.013860 -0.006657 -0.003271 0.000000 0.006671 0.000000
# 2 -0.006657 0.013008 -0.001059 0.000000 -0.000649 0.000000
# 3 -0.003271 -0.001059 0.014418 0.000000 0.007424 0.000000
# 4 0.000000 0.000000 0.000000 0.077173 0.000000 0.022958
# 5 0.006671 -0.000649 0.007424 0.000000 0.049646 0.000000
# 6 0.000000 0.000000 0.000000 0.022958 0.000000 0.033784
#
#
# Mechanical properties :
#
#
# Convention : Reuss Voigt Hill
#
# Bulk Modulus (GPa) = 51.78204 68.31108 60.04656
# Shear Modulus (GPa) = 21.71066 28.45002 25.08034
#
# Velocity S-wave (km/s) = 3.19597 3.65853 3.43505
# Velocity P-wave (km/s) = 6.16286 7.06999 6.63195
#
# Compressibility (1/GPa) = 0.01931171
#
# Stress axis : x y z
#
# Youngs Moduli (GPa) = 72.14775 76.87510 69.35835
#
# Poissons Ratio (x) = 0.51179 0.22688
# Poissons Ratio (y) = 0.48032 0.07344
# Poissons Ratio (z) = 0.23600 0.08140
#
# Static dielectric constant tensor:
#      x y z
#    x 4.021320 0.000000 -0.205960 
#    y 0.000000 4.568070 0.000000 
#    z -0.205960 0.000000 3.193160 
# 
# 
# High freq. dielectric constant tensor:
#      x y z
#    x 1.846690 0.000000 -0.022480 
#    y 0.000000 1.859910 0.000000 
#    z -0.022480 0.000000 1.770970 
# 
# From -- ./inp_files/142699.got.cif
#   From: 2010.06.25/outbox.cif.g09.slc.cpg/sg12_72_cif.got.tgz:142699.got - 2010.06.28 00:19:55.
