data_PCOD8107865
_publ_section_title
;
Structure prediction by ZEFSAII (Michael W. Deem and Ramdas Pophale) SiO2 
 PCOD8107865
Probable space group: C 2/M
;
_chemical_formula_sum "Si O2"
_cell_formula_units_Z 56
_cell_length_a 29.379301
_cell_length_b 8.936330
_cell_length_c 21.415309
_cell_angle_alpha 90.000000
_cell_angle_beta 31.015382
_cell_angle_gamma 90.000000
_cell_volume 2897.065559
_symmetry_space_group_name_H-M "C 2/M"
_symmetry_group_IT_number 12
_symmetry_cell_setting 'monoclinic'
loop_
_space_group_symop_operation_xyz
x,y,z
-x,y,-z
-x,-y,-z
x,-y,z
1/2+x,1/2+y,z
1/2-x,1/2+y,-z
1/2-x,1/2-y,-z
1/2+x,1/2-y,z
loop_
_atom_site_type_symbol
_atom_site_label
_atom_site_fract_x
_atom_site_fract_y
_atom_site_fract_z
Si Si1 0.776077 0.675187 0.874295
Si Si2 0.884481 0.328937 0.272997
Si Si3 0.962698 0.171998 0.975290
Si Si4 0.069871 0.670917 0.642902
Si Si5 0.285694 0.324961 0.603164
Si Si6 0.222885 0.324584 0.814244
Si Si7 0.386123 0.324686 0.847677
O O1 0.793513 0.500000 0.850793
O O2 0.778503 0.741750 0.802107
O O3 0.855334 0.749130 0.819648
O O4 0.682253 0.713437 0.016553
O O5 0.904632 0.500000 0.228766
O O6 0.873120 0.315854 0.360723
O O7 0.795756 0.271446 0.344007
O O8 0.964399 0.222608 0.159640
O O9 0.937397 0.000000 0.991931
O O10 0.877759 0.273344 0.066170
O O11 0.000000 0.196507 0.000000
O O12 0.046650 0.500000 0.654677
O O13 0.126601 0.737667 0.519699
O O14 0.979798 0.760823 0.757940
O O15 0.302852 0.500000 0.574092
O O16 0.266357 0.282325 0.697218
O O17 0.225643 0.500000 0.823766
O O18 0.393428 0.500000 0.827383
#
# Coordination Sequence:
#
# PCOD8107865 Si02
#       7
#     8   8   8   8   8   8   8
#     4  10  21  38  63  92 119 145 182 234 288 338
#     4  10  21  38  58  82 113 153 196 236 285 343
#     4  11  22  34  53  83 116 149 188 236 284 329
#     4  11  23  37  58  85 113 149 194 242 287 332
#     4  10  22  39  57  79 113 156 197 235 279 338
#     4  11  22  37  59  84 116 156 193 230 283 345
#     4  10  21  39  62  87 117 150 186 230 284 343
#
# _framework density 19.329903999999999
#
# number of rings (size 3 to 8) (size 9 to 14) (size 15 to 20)
#    0.000    1.571    1.429    3.429    0.000    7.429 
#    0.000    0.714    0.000    4.286    0.000    0.000 
#    0.000    0.000    0.000    0.000    0.000    0.000 
#
# Total GULP energy -347379.894582 kJ/mol
# GULP energy per Si atom -12406.424807 kJ/mol
# Density = 1.928591 g / cm^3
# Si number density = 19.329904 Si / 1000 Ang^3
#
#
#
# Elastic Constant Matrix: (Units=GPa)
#
#
# Indices 1 2 3 4 5 6 
#
# 1 107.5318 53.8524 35.7088 -0.0082 12.2073 0.0059
# 2 53.8524 72.7159 30.3523 -0.0077 1.4873 0.0067
# 3 35.7088 30.3523 74.2101 -0.0026 4.7643 0.0056
# 4 -0.0082 -0.0077 -0.0026 35.4248 0.0028 -2.5900
# 5 12.2073 1.4873 4.7643 0.0028 20.5408 -0.0044
# 6 0.0059 0.0067 0.0056 -2.5900 -0.0044 38.4352
#
#
#
# Elastic Compliance Matrix: (Units=1/GPa)
#
#
# Indices 1 2 3 4 5 6 
#
# 1 0.016765 -0.010976 -0.003034 0.000002 -0.008465 -0.000001
# 2 -0.010976 0.023773 -0.004821 0.000002 0.005920 -0.000001
# 3 -0.003034 -0.004821 0.017023 0.000000 -0.001796 -0.000001
# 4 0.000002 0.000002 0.000000 0.028369 -0.000005 0.001912
# 5 -0.008465 0.005920 -0.001796 -0.000005 0.053702 0.000006
# 6 -0.000001 -0.000001 -0.000001 0.001912 0.000006 0.026147
#
#
# Mechanical properties :
#
#
# Convention : Reuss Voigt Hill
#
# Bulk Modulus (GPa) = 50.26141 54.92054 52.59098
# Shear Modulus (GPa) = 23.80115 27.84978 25.82547
#
# Velocity S-wave (km/s) = 3.51281 3.79985 3.65915
# Velocity P-wave (km/s) = 6.52008 6.90838 6.71704
#
# Compressibility (1/GPa) = 0.01989598
#
# Stress axis : x y z
#
# Youngs Moduli (GPa) = 59.64749 42.06538 58.74528
#
# Poissons Ratio (x) = 0.46172 0.17825
# Poissons Ratio (y) = 0.65471 0.28324
# Poissons Ratio (z) = 0.18099 0.20282
#
# Static dielectric constant tensor:
#      x y z
#    x 3.674710 -0.000010 0.081820 
#    y -0.000010 3.582450 0.000020 
#    z 0.081820 0.000020 3.356120 
# 
# 
# High freq. dielectric constant tensor:
#      x y z
#    x 1.758260 0.000000 0.005560 
#    y 0.000000 1.762060 0.000000 
#    z 0.005560 0.000000 1.740620 
# 
# From -- ./inp_files/238234.got.cif
#   From: 2010.06.25/outbox.cif.g09.slc.cpg/sg12_120_cif.got.tgz:238234.got - 2010.06.28 00:19:55.
