data_PCOD8107055
_publ_section_title
;
Structure prediction by ZEFSAII (Michael W. Deem and Ramdas Pophale) SiO2 
 PCOD8107055
Probable space group: C 2/M
;
_chemical_formula_sum "Si O2"
_cell_formula_units_Z 56
_cell_length_a 18.523654
_cell_length_b 8.837192
_cell_length_c 24.507699
_cell_angle_alpha 90.000000
_cell_angle_beta 133.229963
_cell_angle_gamma 90.000000
_cell_volume 2923.068139
_symmetry_space_group_name_H-M "C 2/M"
_symmetry_group_IT_number 12
_symmetry_cell_setting 'monoclinic'
loop_
_space_group_symop_operation_xyz
x,y,z
-x,y,-z
-x,-y,-z
x,-y,z
1/2+x,1/2+y,z
1/2-x,1/2+y,-z
1/2-x,1/2-y,-z
1/2+x,1/2-y,z
loop_
_atom_site_type_symbol
_atom_site_label
_atom_site_fract_x
_atom_site_fract_y
_atom_site_fract_z
Si Si1 0.200440 0.165989 0.317336
Si Si2 0.002738 0.829866 0.065211
Si Si3 0.587063 0.179228 0.584407
Si Si4 0.785371 0.166734 0.801336
Si Si5 0.998102 0.678546 0.238018
Si Si6 0.643470 0.822363 0.934271
Si Si7 0.408836 0.321926 0.295338
O O1 0.309160 0.223985 0.393731
O O2 0.229672 0.145795 0.269894
O O3 0.110473 0.281355 0.278693
O O4 0.171909 0.000000 0.326929
O O5 0.919302 0.720251 0.045045
O O6 0.108321 0.757014 0.134594
O O7 0.991866 0.000000 0.084653
O O8 0.000000 0.838043 0.000000
O O9 0.500000 0.236038 0.500000
O O10 0.568680 0.258655 0.633147
O O11 0.582678 0.000000 0.591934
O O12 0.700996 0.274817 0.781990
O O13 0.779660 0.000000 0.827084
O O14 0.990463 0.500000 0.240141
O O15 0.916999 0.735682 0.150939
O O16 0.983253 0.754937 0.288924
O O17 0.658524 0.000000 0.938283
O O18 0.750000 0.750000 0.000000
O O19 0.419672 0.500000 0.301771
#
# Coordination Sequence:
#
# PCOD8107055 Si02
#       7
#     8   8   8   8   8   8   8
#     4   9  17  33  59  86 111 145 186 229 279 334
#     4  10  21  37  58  82 110 146 189 237 291 348
#     4   9  19  39  65  91 121 154 187 227 280 342
#     4   9  18  35  56  79 111 148 188 234 285 343
#     4  11  23  39  58  81 114 154 196 240 288 344
#     4  11  25  41  58  81 113 153 197 246 298 347
#     4  11  23  36  57  87 118 150 191 238 282 335
#
# _framework density 19.157952999999999
#
# number of rings (size 3 to 8) (size 9 to 14) (size 15 to 20)
#    0.000    2.000    1.429    3.000    2.000    5.143 
#    0.000    0.714    0.000    0.000    0.000    0.000 
#    0.000    0.000    0.000    0.000    0.000    0.000 
#
# Total GULP energy -346986.938787 kJ/mol
# GULP energy per Si atom -12392.390671 kJ/mol
# Density = 1.911435 g / cm^3
# Si number density = 19.157953 Si / 1000 Ang^3
#
#
#
# Elastic Constant Matrix: (Units=GPa)
#
#
# Indices 1 2 3 4 5 6 
#
# 1 97.3983 44.0116 52.3489 0.0000 9.1653 0.0000
# 2 44.0116 84.0949 40.1268 0.0000 1.8856 0.0000
# 3 52.3489 40.1268 110.9183 0.0000 26.3960 0.0000
# 4 0.0000 0.0000 0.0000 23.4896 0.0000 1.9347
# 5 9.1653 1.8856 26.3960 0.0000 32.0936 0.0000
# 6 0.0000 0.0000 0.0000 1.9347 0.0000 41.5709
#
#
#
# Elastic Compliance Matrix: (Units=1/GPa)
#
#
# Indices 1 2 3 4 5 6 
#
# 1 0.015712 -0.005625 -0.005460 0.000000 0.000334 0.000000
# 2 -0.005625 0.016872 -0.004470 0.000000 0.004292 0.000000
# 3 -0.005460 -0.004470 0.015885 0.000000 -0.011243 0.000000
# 4 0.000000 0.000000 0.000000 0.042736 0.000000 -0.001989
# 5 0.000334 0.004292 -0.011243 0.000000 0.040059 0.000000
# 6 0.000000 0.000000 0.000000 -0.001989 0.000000 0.024148
#
#
# Mechanical properties :
#
#
# Convention : Reuss Voigt Hill
#
# Bulk Modulus (GPa) = 57.60802 62.82068 60.21435
# Shear Modulus (GPa) = 25.99979 29.82576 27.91277
#
# Velocity S-wave (km/s) = 3.68792 3.94995 3.82118
# Velocity P-wave (km/s) = 6.94763 7.32564 7.13914
#
# Compressibility (1/GPa) = 0.01735870
#
# Stress axis : x y z
#
# Youngs Moduli (GPa) = 63.64496 59.26919 62.95100
#
# Poissons Ratio (x) = 0.33341 0.34371
# Poissons Ratio (y) = 0.35802 0.28141
# Poissons Ratio (z) = 0.34750 0.26495
#
# Static dielectric constant tensor:
#      x y z
#    x 3.507480 0.000000 0.223350 
#    y 0.000000 3.464630 0.000000 
#    z 0.223350 0.000000 3.438110 
# 
# 
# High freq. dielectric constant tensor:
#      x y z
#    x 1.744040 0.000000 0.016660 
#    y 0.000000 1.734750 0.000000 
#    z 0.016660 0.000000 1.741810 
# 
# From -- ./inp_files/342299.got.cif
#   From: 2010.06.25/outbox.cif.g09.slc.cpg/sg12_172_cif.got.tgz:342299.got - 2010.06.28 00:19:55.
