data_PCOD8107065
_publ_section_title
;
Structure prediction by ZEFSAII (Michael W. Deem and Ramdas Pophale) SiO2 
 PCOD8107065
Probable space group: C 2/M
;
_chemical_formula_sum "Si O2"
_cell_formula_units_Z 56
_cell_length_a 27.041212
_cell_length_b 14.467767
_cell_length_c 7.551429
_cell_angle_alpha 90.000000
_cell_angle_beta 73.784133
_cell_angle_gamma 90.000000
_cell_volume 2836.781695
_symmetry_space_group_name_H-M "C 2/M"
_symmetry_group_IT_number 12
_symmetry_cell_setting 'monoclinic'
loop_
_space_group_symop_operation_xyz
x,y,z
-x,y,-z
-x,-y,-z
x,-y,z
1/2+x,1/2+y,z
1/2-x,1/2+y,-z
1/2-x,1/2-y,-z
1/2+x,1/2-y,z
loop_
_atom_site_type_symbol
_atom_site_label
_atom_site_fract_x
_atom_site_fract_y
_atom_site_fract_z
Si Si1 0.661436 0.899427 0.638646
Si Si2 0.661437 0.899427 0.038479
Si Si3 0.725741 0.396102 0.568108
Si Si4 0.274259 0.603898 0.019588
Si Si5 0.624142 0.708575 0.087453
Si Si6 0.124142 0.791426 0.664262
Si Si7 0.439249 0.606832 0.560751
O O1 0.644311 0.913146 0.855689
O O2 0.720999 0.867154 0.577872
O O3 0.625648 0.816484 0.600306
O O4 0.654169 0.000000 0.547426
O O5 0.721000 0.867155 0.980126
O O6 0.654170 0.000000 0.144233
O O7 0.625649 0.816485 0.148397
O O8 0.710472 0.500000 0.529382
O O9 0.679312 0.331890 0.551332
O O10 0.735771 0.386776 0.764230
O O11 0.289530 0.500000 0.950324
O O12 0.320689 0.668110 0.909955
O O13 0.580365 0.656175 0.240597
O O14 0.614382 0.696404 0.885618
O O15 0.080365 0.843826 0.598672
O O16 0.500000 0.616004 0.500000
O O17 0.421808 0.500000 0.578194
#
# Coordination Sequence:
#
# PCOD8107065 Si02
#       7
#     8   8   8   8   8   8   8
#     4   9  18  31  50  81 118 156 191 222 264 325
#     4   9  18  31  50  81 118 156 191 222 264 325
#     4   9  17  28  46  77 114 152 191 225 268 328
#     4   9  17  28  46  77 114 152 191 225 268 328
#     4  10  21  37  58  82 114 151 187 231 283 335
#     4  10  21  37  58  82 114 151 187 231 283 335
#     4  11  26  44  63  87 107 135 188 244 294 345
#
# _framework density 19.740680999999999
#
# number of rings (size 3 to 8) (size 9 to 14) (size 15 to 20)
#    0.000    2.429    0.000    1.714    4.000    2.286 
#    0.000    1.429    0.000    1.714    0.000    4.000 
#    0.000    0.000    0.000    0.000    0.000    0.000 
#
# Total GULP energy -346937.994081 kJ/mol
# GULP energy per Si atom -12390.642646 kJ/mol
# Density = 1.969575 g / cm^3
# Si number density = 19.740681 Si / 1000 Ang^3
#
#
#
# Elastic Constant Matrix: (Units=GPa)
#
#
# Indices 1 2 3 4 5 6 
#
# 1 64.4633 70.3180 27.6209 0.0000 2.2276 0.0000
# 2 70.3180 145.9050 47.8178 0.0000 -10.0224 0.0000
# 3 27.6209 47.8178 63.2968 0.0000 -2.7485 0.0000
# 4 0.0000 0.0000 0.0000 17.7375 0.0000 -3.1698
# 5 2.2276 -10.0224 -2.7485 0.0000 18.7060 0.0000
# 6 0.0000 0.0000 0.0000 -3.1698 0.0000 24.8542
#
#
#
# Elastic Compliance Matrix: (Units=1/GPa)
#
#
# Indices 1 2 3 4 5 6 
#
# 1 0.036484 -0.017462 -0.003345 0.000000 -0.014192 0.000000
# 2 -0.017462 0.017757 -0.005326 0.000000 0.010811 0.000000
# 3 -0.003345 -0.005326 0.021311 0.000000 0.000676 0.000000
# 4 0.000000 0.000000 0.000000 0.057693 0.000000 0.007358
# 5 -0.014192 0.010811 0.000676 0.000000 0.061040 0.000000
# 6 0.000000 0.000000 0.000000 0.007358 0.000000 0.041173
#
#
# Mechanical properties :
#
#
# Convention : Reuss Voigt Hill
#
# Bulk Modulus (GPa) = 42.94214 62.79761 52.86988
# Shear Modulus (GPa) = 16.92123 20.78676 18.85400
#
# Velocity S-wave (km/s) = 2.93093 3.24850 3.09380
# Velocity P-wave (km/s) = 5.76664 6.77869 6.29305
#
# Compressibility (1/GPa) = 0.02328715
#
# Stress axis : x y z
#
# Youngs Moduli (GPa) = 27.40904 56.31451 46.92410
#
# Poissons Ratio (x) = 0.98336 0.15698
# Poissons Ratio (y) = 0.47861 0.24990
# Poissons Ratio (z) = 0.09169 0.29991
#
# Static dielectric constant tensor:
#      x y z
#    x 3.229240 0.000000 0.218790 
#    y 0.000000 4.245170 0.000000 
#    z 0.218790 0.000000 3.720400 
# 
# 
# High freq. dielectric constant tensor:
#      x y z
#    x 1.718200 0.000000 0.017130 
#    y 0.000000 1.794840 0.000000 
#    z 0.017130 0.000000 1.756650 
# 
# From -- ./inp_files/96283.got.cif
#   From: 2010.06.25/outbox.cif.g09.slc.cpg/sg12_49_cif.got.tgz:96283.got - 2010.06.28 00:19:55.
