data_PCOD8107634
_publ_section_title
;
Structure prediction by ZEFSAII (Michael W. Deem and Ramdas Pophale) SiO2 
 PCOD8107634
Probable space group: C 2/M
;
_chemical_formula_sum "Si O2"
_cell_formula_units_Z 56
_cell_length_a 16.366915
_cell_length_b 14.192813
_cell_length_c 20.193068
_cell_angle_alpha 90.000000
_cell_angle_beta 145.689443
_cell_angle_gamma 90.000000
_cell_volume 2644.045316
_symmetry_space_group_name_H-M "C 2/M"
_symmetry_group_IT_number 12
_symmetry_cell_setting 'monoclinic'
loop_
_space_group_symop_operation_xyz
x,y,z
-x,y,-z
-x,-y,-z
x,-y,z
1/2+x,1/2+y,z
1/2-x,1/2+y,-z
1/2-x,1/2-y,-z
1/2+x,1/2-y,z
loop_
_atom_site_type_symbol
_atom_site_label
_atom_site_fract_x
_atom_site_fract_y
_atom_site_fract_z
Si Si1 0.870564 0.106818 0.239712
Si Si2 0.357592 0.606237 0.659164
Si Si3 0.869988 0.387245 0.207151
Si Si4 0.028538 0.609493 0.445526
Si Si5 0.652822 0.611802 0.629704
Si Si6 0.936637 0.291646 0.777188
Si Si7 0.685521 0.239945 0.028903
O O1 0.841527 0.150019 0.291951
O O2 0.770202 0.155929 0.119493
O O3 0.042572 0.115429 0.339342
O O4 0.819738 0.000000 0.204454
O O5 0.369852 0.500000 0.697277
O O6 0.191686 0.629223 0.529829
O O7 0.415554 0.680511 0.750975
O O8 0.858904 0.500000 0.192292
O O9 0.923257 0.354164 0.316059
O O10 0.978068 0.343952 0.224716
O O11 0.712971 0.337380 0.088699
O O12 0.996498 0.500000 0.431153
O O13 0.000000 0.655407 0.500000
O O14 0.500000 0.647622 0.500000
O O15 0.666160 0.500000 0.633064
O O16 0.783188 0.657314 0.676690
O O17 0.018661 0.291617 0.904024
O O18 0.750000 0.250000 0.000000
#
# Coordination Sequence:
#
# PCOD8107634 Si02
#       7
#     8   8   8   8   8   8   8
#     4  10  21  40  64  89 124 167 210 259 314 374
#     4  10  21  38  62  89 123 166 211 259 316 377
#     4  10  21  37  62  90 125 166 206 262 320 376
#     4   9  20  38  59  87 121 160 208 257 311 375
#     4  10  24  43  65  96 132 166 206 260 318 377
#     4  11  23  40  61  94 127 166 213 261 312 374
#     4  10  21  39  58  87 123 159 214 258 305 367
#
# _framework density 21.179666999999998
#
# number of rings (size 3 to 8) (size 9 to 14) (size 15 to 20)
#    0.000    2.000    2.857    0.429    2.000    7.429 
#    0.000    1.429    0.000    0.000    0.000    6.000 
#    0.000    0.000    0.000    0.000    0.000    0.000 
#
# Total GULP energy -346947.113104 kJ/mol
# GULP energy per Si atom -12390.968325 kJ/mol
# Density = 2.113146 g / cm^3
# Si number density = 21.179667 Si / 1000 Ang^3
#
#
#
# Elastic Constant Matrix: (Units=GPa)
#
#
# Indices 1 2 3 4 5 6 
#
# 1 75.9508 25.0717 41.9916 0.0011 -10.1160 0.0010
# 2 25.0717 85.2757 45.1669 0.0014 -6.5398 0.0002
# 3 41.9916 45.1669 135.1337 -0.0013 -15.3256 -0.0029
# 4 0.0011 0.0014 -0.0013 36.6561 0.0001 2.0848
# 5 -10.1160 -6.5398 -15.3256 0.0001 38.0647 -0.0005
# 6 0.0010 0.0002 -0.0029 2.0848 -0.0005 0.8256
#
#
#
# Elastic Compliance Matrix: (Units=1/GPa)
#
#
# Indices 1 2 3 4 5 6 
#
# 1 0.016545 -0.002555 -0.004022 0.000001 0.002339 -0.000036
# 2 -0.002555 0.014655 -0.004082 0.000000 0.000195 -0.000016
# 3 -0.004022 -0.004082 0.010283 -0.000002 0.002370 0.000049
# 4 0.000001 0.000000 -0.000002 0.031856 -0.000002 -0.080441
# 5 0.002339 0.000195 0.002370 -0.000002 0.027880 0.000027
# 6 -0.000036 -0.000016 0.000049 -0.080441 0.000027 1.414378
#
#
# Mechanical properties :
#
#
# Convention : Reuss Voigt Hill
#
# Bulk Modulus (GPa) = 49.59093 57.86897 53.72995
# Shear Modulus (GPa) = 3.23910 27.38462 15.31186
#
# Velocity S-wave (km/s) = 1.23801 3.59969 2.69169
# Velocity P-wave (km/s) = 5.05062 6.68275 5.92317
#
# Compressibility (1/GPa) = 0.02016498
#
# Stress axis : x y z
#
# Youngs Moduli (GPa) = 60.44145 68.23635 97.24661
#
# Poissons Ratio (x) = 0.17432 0.39114
# Poissons Ratio (y) = 0.15441 0.39699
# Poissons Ratio (z) = 0.24310 0.27856
#
# Static dielectric constant tensor:
#      x y z
#    x 3.795720 0.000000 0.075810 
#    y 0.000000 3.970760 0.000000 
#    z 0.075810 0.000000 4.216050 
# 
# 
# High freq. dielectric constant tensor:
#      x y z
#    x 1.815060 0.000000 -0.003780 
#    y 0.000000 1.839320 0.000000 
#    z -0.003780 0.000000 1.832600 
# 
# From -- ./inp_files/316741.got.cif
#   From: 2010.06.25/outbox.cif.g09.slc.cpg/sg12_159_cif.got.tgz:316741.got - 2010.06.28 00:19:55.
