data_PCOD8107416
_publ_section_title
;
Structure prediction by ZEFSAII (Michael W. Deem and Ramdas Pophale) SiO2 
 PCOD8107416
Probable space group: C 2/M
;
_chemical_formula_sum "Si O2"
_cell_formula_units_Z 48
_cell_length_a 29.704139
_cell_length_b 8.542167
_cell_length_c 18.923842
_cell_angle_alpha 90.000000
_cell_angle_beta 150.351454
_cell_angle_gamma 90.000000
_cell_volume 2375.293543
_symmetry_space_group_name_H-M "C 2/M"
_symmetry_group_IT_number 12
_symmetry_cell_setting 'monoclinic'
loop_
_space_group_symop_operation_xyz
x,y,z
-x,y,-z
-x,-y,-z
x,-y,z
1/2+x,1/2+y,z
1/2-x,1/2+y,-z
1/2-x,1/2-y,-z
1/2+x,1/2-y,z
loop_
_atom_site_type_symbol
_atom_site_label
_atom_site_fract_x
_atom_site_fract_y
_atom_site_fract_z
Si Si1 0.965547 0.822631 0.381782
Si Si2 0.259778 0.685971 0.434923
Si Si3 0.392642 0.682084 0.024861
Si Si4 0.255086 0.677104 0.082743
Si Si5 0.598486 0.815972 0.115072
Si Si6 0.541066 0.313837 0.338147
O O1 0.858746 0.820317 0.245904
O O2 0.000000 0.735573 0.500000
O O3 0.002146 0.742580 0.359049
O O4 0.003343 0.000000 0.432104
O O5 0.258036 0.500000 0.435251
O O6 0.250000 0.750000 0.500000
O O7 0.177737 0.753017 0.274197
O O8 0.355714 0.743983 0.532949
O O9 0.403478 0.500000 0.021695
O O10 0.478311 0.745624 0.187570
O O11 0.300388 0.710680 0.941382
O O12 0.381765 0.778853 0.938734
O O13 0.216199 0.500000 0.031107
O O14 0.250000 0.750000 0.000000
O O15 0.596701 0.000000 0.124003
O O16 0.500000 0.742421 0.000000
O O17 0.533042 0.500000 0.329331
#
# Coordination Sequence:
#
# PCOD8107416 Si02
#       6
#     8   8   8   8   8   8
#     4   9  18  32  55  82 109 144 189 232 269 324
#     4  10  21  37  60  83 112 147 185 230 277 335
#     4  11  22  37  58  84 115 149 191 236 277 333
#     4  11  21  36  59  85 114 150 190 233 283 334
#     4  10  22  39  59  87 117 145 183 234 289 341
#     4   9  18  34  54  80 109 145 191 230 269 325
#
# _framework density 20.208029
#
# number of rings (size 3 to 8) (size 9 to 14) (size 15 to 20)
#    0.000    2.000    1.667    2.000    2.333    1.000 
#    0.000    0.833    0.000    2.000    0.000    0.000 
#    0.000    0.000    0.000    0.000    0.000    0.000 
#
# Total GULP energy -297540.278241 kJ/mol
# GULP energy per Si atom -12397.511593 kJ/mol
# Density = 2.016203 g / cm^3
# Si number density = 20.208029 Si / 1000 Ang^3
#
#
#
# Elastic Constant Matrix: (Units=GPa)
#
#
# Indices 1 2 3 4 5 6 
#
# 1 135.1099 -3.5891 80.4447 0.0000 -1.9245 0.0000
# 2 -3.5891 13.4752 16.5687 0.0000 4.3081 0.0000
# 3 80.4447 16.5687 167.9160 0.0000 -12.6025 0.0000
# 4 0.0000 0.0000 0.0000 16.5624 0.0000 -2.1431
# 5 -1.9245 4.3081 -12.6025 0.0000 44.2390 0.0000
# 6 0.0000 0.0000 0.0000 -2.1431 0.0000 29.8152
#
#
#
# Elastic Compliance Matrix: (Units=1/GPa)
#
#
# Indices 1 2 3 4 5 6 
#
# 1 0.012030 0.013031 -0.007260 0.000000 -0.002814 0.000000
# 2 0.013031 0.103975 -0.017596 0.000000 -0.014571 0.000000
# 3 -0.007260 -0.017596 0.011521 0.000000 0.004680 0.000000
# 4 0.000000 0.000000 0.000000 0.060945 0.000000 0.004381
# 5 -0.002814 -0.014571 0.004680 0.000000 0.025234 0.000000
# 6 0.000000 0.000000 0.000000 0.004381 0.000000 0.033855
#
#
# Mechanical properties :
#
#
# Convention : Reuss Voigt Hill
#
# Bulk Modulus (GPa) = 9.62689 55.92776 32.77732
# Shear Modulus (GPa) = 16.34863 32.99510 24.67187
#
# Velocity S-wave (km/s) = 2.84741 4.04514 3.49792
# Velocity P-wave (km/s) = 3.94773 7.03944 5.70693
#
# Compressibility (1/GPa) = 0.10387572
#
# Stress axis : x y z
#
# Youngs Moduli (GPa) = 83.12307 9.61771 86.79686
#
# Poissons Ratio (x) = -0.12533 0.63019
# Poissons Ratio (y) = -1.08319 1.52728
# Poissons Ratio (z) = 0.60351 0.16923
#
# Static dielectric constant tensor:
#      x y z
#    x 3.738950 0.000000 0.022480 
#    y 0.000000 3.295330 0.000000 
#    z 0.022480 0.000000 3.949050 
# 
# 
# High freq. dielectric constant tensor:
#      x y z
#    x 1.803700 0.000000 -0.001730 
#    y 0.000000 1.745500 0.000000 
#    z -0.001730 0.000000 1.805140 
# 
# From -- ./inp_files/244721.got.cif
#   From: 2010.06.25/outbox.cif.g09.slc.cpg/sg12_123_cif.got.tgz:244721.got - 2010.06.28 00:19:55.
