data_PCOD8107253
_publ_section_title
;
Structure prediction by ZEFSAII (Michael W. Deem and Ramdas Pophale) SiO2 
 PCOD8107253
Probable space group: C 2/M
;
_chemical_formula_sum "Si O2"
_cell_formula_units_Z 64
_cell_length_a 14.738749
_cell_length_b 28.023159
_cell_length_c 8.812290
_cell_angle_alpha 90.000000
_cell_angle_beta 112.636126
_cell_angle_gamma 90.000000
_cell_volume 3359.332649
_symmetry_space_group_name_H-M "C 2/M"
_symmetry_group_IT_number 12
_symmetry_cell_setting 'monoclinic'
loop_
_space_group_symop_operation_xyz
x,y,z
-x,y,-z
-x,-y,-z
x,-y,z
1/2+x,1/2+y,z
1/2-x,1/2+y,-z
1/2-x,1/2-y,-z
1/2+x,1/2-y,z
loop_
_atom_site_type_symbol
_atom_site_label
_atom_site_fract_x
_atom_site_fract_y
_atom_site_fract_z
Si Si1 0.881136 0.445002 0.207538
Si Si2 0.479408 0.869984 0.812940
Si Si3 0.910107 0.120182 0.046299
Si Si4 0.751639 0.370420 0.629555
Si Si5 0.581307 0.202358 0.678573
Si Si6 0.241977 0.630626 0.707256
Si Si7 0.279439 0.553734 0.146782
Si Si8 0.086370 0.811944 0.676977
O O1 0.898905 0.500000 0.267898
O O2 0.819605 0.417516 0.297288
O O3 0.985471 0.417955 0.253670
O O4 0.821700 0.441986 0.011582
O O5 0.366828 0.857808 0.705115
O O6 0.546424 0.825186 0.806886
O O7 0.500000 0.879179 0.000000
O O8 0.826822 0.140285 0.882422
O O9 0.870882 0.074337 0.111216
O O10 0.941375 0.160774 0.186208
O O11 0.000000 0.103626 0.000000
O O12 0.714042 0.375032 0.432981
O O13 0.733901 0.420286 0.701881
O O14 0.690094 0.329623 0.675916
O O15 0.500000 0.196639 0.500000
O O16 0.678555 0.178614 0.673824
O O17 0.600977 0.257090 0.731399
O O18 0.306741 0.500000 0.203029
O O19 0.000000 0.820036 0.500000
#
# Coordination Sequence:
#
# PCOD8107253 Si02
#       8
#     8   8   8   8   8   8   8   8
#     4   9  19  35  56  84 119 155 191 230 279 340
#     4  11  21  36  57  84 117 154 188 233 280 340
#     4  10  21  39  60  84 114 151 194 235 286 335
#     4  11  21  37  58  85 116 148 191 236 285 335
#     4  10  21  40  58  82 118 151 189 233 288 342
#     4  10  21  37  59  83 118 155 186 237 284 341
#     4   9  19  36  58  85 116 151 192 236 282 335
#     4  10  23  41  60  84 111 148 193 244 286 335
#
# _framework density 19.051402
#
# number of rings (size 3 to 8) (size 9 to 14) (size 15 to 20)
#    0.000    2.000    2.500    0.750    1.750    3.000 
#    2.250    0.625    0.000   12.750    0.000    0.000 
#    0.000    0.000    0.000    0.000    0.000    0.000 
#
# Total GULP energy -396850.367172 kJ/mol
# GULP energy per Si atom -12401.573974 kJ/mol
# Density = 1.900804 g / cm^3
# Si number density = 19.051402 Si / 1000 Ang^3
#
#
#
# Elastic Constant Matrix: (Units=GPa)
#
#
# Indices 1 2 3 4 5 6 
#
# 1 106.8708 51.3557 24.1517 0.0000 -9.4092 0.0000
# 2 51.3557 132.1001 30.6298 0.0000 -0.6170 0.0000
# 3 24.1517 30.6298 73.2372 0.0000 -13.3660 0.0000
# 4 0.0000 0.0000 0.0000 22.3079 0.0000 3.0845
# 5 -9.4092 -0.6170 -13.3660 0.0000 32.9189 0.0000
# 6 0.0000 0.0000 0.0000 3.0845 0.0000 15.9590
#
#
#
# Elastic Compliance Matrix: (Units=1/GPa)
#
#
# Indices 1 2 3 4 5 6 
#
# 1 0.012027 -0.004271 -0.001693 0.000000 0.002670 0.000000
# 2 -0.004271 0.009957 -0.003180 0.000000 -0.002325 0.000000
# 3 -0.001693 -0.003180 0.016679 0.000000 0.006229 0.000000
# 4 0.000000 0.000000 0.000000 0.046058 0.000000 -0.008902
# 5 0.002670 -0.002325 0.006229 0.000000 0.033626 0.000000
# 6 0.000000 0.000000 0.000000 -0.008902 0.000000 0.064381
#
#
# Mechanical properties :
#
#
# Convention : Reuss Voigt Hill
#
# Bulk Modulus (GPa) = 49.07775 58.27585 53.67680
# Shear Modulus (GPa) = 24.06066 27.97520 26.01793
#
# Velocity S-wave (km/s) = 3.55763 3.83614 3.69951
# Velocity P-wave (km/s) = 6.53393 7.09059 6.81794
#
# Compressibility (1/GPa) = 0.02037583
#
# Stress axis : x y z
#
# Youngs Moduli (GPa) = 83.14639 100.43339 59.95446
#
# Poissons Ratio (x) = 0.42892 0.10149
# Poissons Ratio (y) = 0.35509 0.19067
# Poissons Ratio (z) = 0.14074 0.31940
#
# Static dielectric constant tensor:
#      x y z
#    x 4.260430 0.000000 0.107310 
#    y 0.000000 3.490270 0.000000 
#    z 0.107310 0.000000 3.555740 
# 
# 
# High freq. dielectric constant tensor:
#      x y z
#    x 1.743390 0.000000 -0.006310 
#    y 0.000000 1.734690 0.000000 
#    z -0.006310 0.000000 1.743170 
# 
# From -- ./inp_files/67027.got.cif
#   From: 2010.06.25/outbox.cif.g09.slc.cpg/sg12_34_cif.got.tgz:67027.got - 2010.06.28 00:19:55.
