data_PCOD8107538
_publ_section_title
;
Structure prediction by ZEFSAII (Michael W. Deem and Ramdas Pophale) SiO2 
 PCOD8107538
Probable space group: C 2/M
;
_chemical_formula_sum "Si O2"
_cell_formula_units_Z 56
_cell_length_a 12.526793
_cell_length_b 27.727950
_cell_length_c 15.059737
_cell_angle_alpha 90.000000
_cell_angle_beta 29.520684
_cell_angle_gamma 90.000000
_cell_volume 2577.453678
_symmetry_space_group_name_H-M "C 2/M"
_symmetry_group_IT_number 12
_symmetry_cell_setting 'monoclinic'
loop_
_space_group_symop_operation_xyz
x,y,z
-x,y,-z
-x,-y,-z
x,-y,z
1/2+x,1/2+y,z
1/2-x,1/2+y,-z
1/2-x,1/2-y,-z
1/2+x,1/2-y,z
loop_
_atom_site_type_symbol
_atom_site_label
_atom_site_fract_x
_atom_site_fract_y
_atom_site_fract_z
Si Si1 0.124152 0.608712 0.053819
Si Si2 0.103016 0.707728 0.012262
Si Si3 0.218959 0.553918 0.289924
Si Si4 0.477771 0.444151 0.268269
Si Si5 0.199917 0.943935 0.420379
Si Si6 0.480433 0.768068 0.292945
Si Si7 0.237750 0.855452 0.862970
O O1 0.262406 0.633475 0.032907
O O2 0.896201 0.587765 0.245693
O O3 0.098342 0.650322 0.999795
O O4 0.267813 0.566413 0.907271
O O5 0.351904 0.724075 0.835246
O O6 0.956552 0.717232 0.206498
O O7 0.000000 0.732858 0.000000
O O8 0.281808 0.500000 0.206220
O O9 0.392594 0.574615 0.234773
O O10 0.194361 0.593761 0.231487
O O11 0.000000 0.547629 0.500000
O O12 0.434322 0.500000 0.304644
O O13 0.354333 0.422427 0.442883
O O14 0.000000 0.935830 0.500000
O O15 0.266481 0.000000 0.375268
O O16 0.585084 0.811871 0.277124
O O17 0.250000 0.750000 0.500000
O O18 0.000000 0.838946 0.000000
#
# Coordination Sequence:
#
# PCOD8107538 Si02
#       7
#     8   8   8   8   8   8   8
#     4  11  23  39  65  94 130 174 221 278 336 405
#     4  10  24  45  67  98 133 167 218 289 347 414
#     4  10  21  37  60  96 139 179 219 266 328 402
#     4  10  21  38  61  92 134 179 225 276 331 403
#     4  10  23  41  61  90 131 180 236 288 332 395
#     4  10  24  48  72  98 132 174 225 283 350 417
#     4  11  22  42  65  99 136 174 219 273 336 410
#
# _framework density 21.726870999999999
#
# number of rings (size 3 to 8) (size 9 to 14) (size 15 to 20)
#    0.000    1.714    1.429    1.714    2.000    6.571 
#    5.143    2.143    0.000    0.000    0.000    0.000 
#    0.000    0.000    0.000    0.000    0.000    0.000 
#
# Total GULP energy -346904.594692 kJ/mol
# GULP energy per Si atom -12389.449810 kJ/mol
# Density = 2.167742 g / cm^3
# Si number density = 21.726871 Si / 1000 Ang^3
#
#
#
# Elastic Constant Matrix: (Units=GPa)
#
#
# Indices 1 2 3 4 5 6 
#
# 1 87.0848 49.0594 25.2114 0.0030 0.6961 0.0021
# 2 49.0594 88.8157 55.7252 -0.0019 -6.9920 0.0017
# 3 25.2114 55.7252 126.5444 0.0022 -13.0960 0.0022
# 4 0.0030 -0.0019 0.0022 41.7684 -0.0009 -3.1206
# 5 0.6961 -6.9920 -13.0960 -0.0009 27.3186 -0.0020
# 6 0.0021 0.0017 0.0022 -3.1206 -0.0020 19.9011
#
#
#
# Elastic Compliance Matrix: (Units=1/GPa)
#
#
# Indices 1 2 3 4 5 6 
#
# 1 0.016943 -0.010056 0.000780 -0.000002 -0.002631 -0.000002
# 2 -0.010056 0.021540 -0.007244 0.000002 0.002296 0.000001
# 3 0.000780 -0.007244 0.011304 -0.000001 0.003545 -0.000001
# 4 -0.000002 0.000002 -0.000001 0.024225 0.000001 0.003799
# 5 -0.002631 0.002296 0.003545 0.000001 0.038959 0.000004
# 6 -0.000002 0.000001 -0.000001 0.003799 0.000004 0.050844
#
#
# Mechanical properties :
#
#
# Convention : Reuss Voigt Hill
#
# Bulk Modulus (GPa) = 59.71062 62.49297 61.10179
# Shear Modulus (GPa) = 24.69907 29.29423 26.99665
#
# Velocity S-wave (km/s) = 3.37530 3.67590 3.52880
# Velocity P-wave (km/s) = 6.53699 6.84410 6.69231
#
# Compressibility (1/GPa) = 0.01674744
#
# Stress axis : x y z
#
# Youngs Moduli (GPa) = 59.02134 46.42598 88.46552
#
# Poissons Ratio (x) = 0.46684 -0.06902
# Poissons Ratio (y) = 0.59349 0.64086
# Poissons Ratio (z) = -0.04605 0.33632
#
# Static dielectric constant tensor:
#      x y z
#    x 4.022750 0.000040 0.006050 
#    y 0.000040 4.289310 -0.000010 
#    z 0.006050 -0.000010 3.742990 
# 
# 
# High freq. dielectric constant tensor:
#      x y z
#    x 1.860320 0.000000 -0.002720 
#    y 0.000000 1.856010 0.000000 
#    z -0.002720 0.000000 1.845310 
# 
# From -- ./inp_files/210015.got.cif
#   From: 2010.06.25/outbox.cif.g09.slc.cpg/sg12_106_cif.got.tgz:210015.got - 2010.06.28 00:19:55.
