data_PCOD8107913
_publ_section_title
;
Structure prediction by ZEFSAII (Michael W. Deem and Ramdas Pophale) SiO2 
 PCOD8107913
Probable space group: C 2/M
;
_chemical_formula_sum "Si O2"
_cell_formula_units_Z 64
_cell_length_a 9.622664
_cell_length_b 21.750134
_cell_length_c 21.453220
_cell_angle_alpha 90.000000
_cell_angle_beta 44.782885
_cell_angle_gamma 90.000000
_cell_volume 3162.880560
_symmetry_space_group_name_H-M "C 2/M"
_symmetry_group_IT_number 12
_symmetry_cell_setting 'monoclinic'
loop_
_space_group_symop_operation_xyz
x,y,z
-x,y,-z
-x,-y,-z
x,-y,z
1/2+x,1/2+y,z
1/2-x,1/2+y,-z
1/2-x,1/2-y,-z
1/2+x,1/2-y,z
loop_
_atom_site_type_symbol
_atom_site_label
_atom_site_fract_x
_atom_site_fract_y
_atom_site_fract_z
Si Si1 0.316827 0.356924 0.801652
Si Si2 0.948552 0.568719 0.944666
Si Si3 0.135219 0.838695 0.009748
Si Si4 0.415931 0.261142 0.863375
Si Si5 0.497116 0.835230 0.568527
Si Si6 0.157035 0.929150 0.647511
Si Si7 0.816532 0.222833 0.685458
Si Si8 0.933720 0.875806 0.454605
O O1 0.286525 0.314147 0.871458
O O2 0.494747 0.405990 0.749341
O O3 0.384555 0.309136 0.727161
O O4 0.114274 0.393339 0.853543
O O5 0.932836 0.500000 0.921104
O O6 0.741071 0.603280 0.007176
O O7 0.000000 0.564086 0.000000
O O8 0.288302 0.795217 0.926018
O O9 0.006665 0.797797 0.099592
O O10 0.000000 0.868056 0.000000
O O11 0.581956 0.233756 0.764571
O O12 0.500000 0.800947 0.500000
O O13 0.362493 0.895228 0.597540
O O14 0.406057 0.790572 0.649155
O O15 0.711165 0.850291 0.528023
O O16 0.068933 0.920686 0.604983
O O17 0.199394 0.000000 0.645812
O O18 0.900595 0.178079 0.604856
O O19 0.000000 0.907436 0.500000
#
# Coordination Sequence:
#
# PCOD8107913 Si02
#       8
#     8   8   8   8   8   8   8   8
#     4  11  21  38  62  95 118 157 208 251 302 363
#     4  11  23  41  64  86 121 167 210 248 294 366
#     4  11  24  40  61  96 128 159 203 253 312 362
#     4  11  22  37  62  92 131 161 195 251 312 376
#     4  10  21  38  58  89 123 158 203 249 302 361
#     4  10  22  41  64  86 118 164 210 252 294 355
#     4  11  21  35  59  90 123 160 194 247 314 361
#     4  10  23  37  57  89 122 158 201 253 304 361
#
# _framework density 20.234718999999998
#
# number of rings (size 3 to 8) (size 9 to 14) (size 15 to 20)
#    0.000    1.375    3.750    1.875    3.500    2.750 
#    0.000    0.000    0.000    0.000    0.000    0.000 
#    0.000    0.000    0.000    0.000    0.000    0.000 
#
# Total GULP energy -396449.703573 kJ/mol
# GULP energy per Si atom -12389.053237 kJ/mol
# Density = 2.018866 g / cm^3
# Si number density = 20.234719 Si / 1000 Ang^3
#
#
#
# Elastic Constant Matrix: (Units=GPa)
#
#
# Indices 1 2 3 4 5 6 
#
# 1 89.6199 35.5397 17.1239 0.0012 -0.4019 -0.0006
# 2 35.5397 130.2491 38.2648 0.0006 -1.3589 -0.0004
# 3 17.1239 38.2648 59.6730 0.0016 -12.7902 -0.0012
# 4 0.0012 0.0006 0.0016 104.3454 -0.0035 -62.4643
# 5 -0.4019 -1.3589 -12.7902 -0.0035 26.2443 0.0025
# 6 -0.0006 -0.0004 -0.0012 -62.4643 0.0025 65.8568
#
#
#
# Elastic Compliance Matrix: (Units=1/GPa)
#
#
# Indices 1 2 3 4 5 6 
#
# 1 0.012678 -0.002886 -0.001986 0.000000 -0.000923 0.000000
# 2 -0.002886 0.010298 -0.006332 0.000000 -0.002597 0.000000
# 3 -0.001986 -0.006332 0.023797 0.000000 0.011239 0.000000
# 4 0.000000 0.000000 0.000000 0.022174 0.000001 0.021031
# 5 -0.000923 -0.002597 0.011239 0.000001 0.043432 0.000000
# 6 0.000000 0.000000 0.000000 0.021031 0.000000 0.035132
#
#
# Mechanical properties :
#
#
# Convention : Reuss Voigt Hill
#
# Bulk Modulus (GPa) = 41.03970 51.26653 46.15311
# Shear Modulus (GPa) = 28.08355 51.86354 39.97355
#
# Velocity S-wave (km/s) = 3.72948 5.06820 4.44947
# Velocity P-wave (km/s) = 6.23468 7.72268 7.01822
#
# Compressibility (1/GPa) = 0.02436665
#
# Stress axis : x y z
#
# Youngs Moduli (GPa) = 78.87824 97.10492 42.02167
#
# Poissons Ratio (x) = 0.28020 0.08343
# Poissons Ratio (y) = 0.22761 0.26609
# Poissons Ratio (z) = 0.15661 0.61489
#
# Static dielectric constant tensor:
#      x y z
#    x 3.610790 0.000000 0.004470 
#    y 0.000000 3.635950 0.000000 
#    z 0.004470 0.000000 3.928010 
# 
# 
# High freq. dielectric constant tensor:
#      x y z
#    x 1.772420 0.000000 -0.003220 
#    y 0.000000 1.779550 0.000000 
#    z -0.003220 0.000000 1.801600 
# 
# From -- ./inp_files/302301.got.cif
#   From: 2010.06.25/outbox.cif.g09.slc.cpg/sg12_152_cif.got.tgz:302301.got - 2010.06.28 00:19:55.
