data_PCOD8107476
_publ_section_title
;
Structure prediction by ZEFSAII (Michael W. Deem and Ramdas Pophale) SiO2 
 PCOD8107476
Probable space group: C 2/M
;
_chemical_formula_sum "Si O2"
_cell_formula_units_Z 44
_cell_length_a 5.691618
_cell_length_b 27.360112
_cell_length_c 15.946344
_cell_angle_alpha 90.000000
_cell_angle_beta 124.804722
_cell_angle_gamma 90.000000
_cell_volume 2038.975203
_symmetry_space_group_name_H-M "C 2/M"
_symmetry_group_IT_number 12
_symmetry_cell_setting 'monoclinic'
loop_
_space_group_symop_operation_xyz
x,y,z
-x,y,-z
-x,-y,-z
x,-y,z
1/2+x,1/2+y,z
1/2-x,1/2+y,-z
1/2-x,1/2-y,-z
1/2+x,1/2-y,z
loop_
_atom_site_type_symbol
_atom_site_label
_atom_site_fract_x
_atom_site_fract_y
_atom_site_fract_z
Si Si1 0.315733 0.872079 0.092707
Si Si2 0.225975 0.555583 0.388391
Si Si3 0.772365 0.945340 0.201642
Si Si4 0.257995 0.373600 0.737049
Si Si5 0.000000 0.295433 0.000000
Si Si6 0.510101 0.272934 0.785775
O O1 0.469282 0.923825 0.111617
O O2 0.345593 0.854126 0.194140
O O3 0.463211 0.828529 0.073961
O O4 0.000000 0.881467 0.000000
O O5 0.500000 0.566510 0.500000
O O6 0.107509 0.500000 0.382242
O O7 0.318075 0.559406 0.310630
O O8 0.999031 0.598828 0.365397
O O9 0.012645 0.915976 0.200994
O O10 0.789130 0.000000 0.172665
O O11 0.416132 0.326437 0.729583
O O12 0.297985 0.268150 0.087317
O O13 0.202708 0.248350 0.748146
#
# Coordination Sequence:
#
# PCOD8107476 Si02
#       6
#     8   8   8   8   4   8
#     4  11  20  36  58  82 124 169 206 256 309 374
#     4   9  20  39  66  98 124 153 200 258 322 387
#     4  10  21  37  60  88 122 164 204 249 314 385
#     4  11  22  38  61  86 129 160 205 262 320 376
#     4  12  22  40  59  88 120 168 217 274 318 362
#     4  12  26  40  64  94 125 170 222 272 322 375
#
# _framework density 21.579466
#
# number of rings (size 3 to 8) (size 9 to 14) (size 15 to 20)
#    0.000    1.273    3.636    2.182    2.545    1.818 
#    0.000    5.909    0.000    1.091    0.000    0.000 
#    0.000    0.000    0.000    0.000    0.000    0.000 
#
# Total GULP energy -272581.553587 kJ/mol
# GULP energy per Si atom -12390.070618 kJ/mol
# Density = 2.153035 g / cm^3
# Si number density = 21.579466 Si / 1000 Ang^3
#
#
#
# Elastic Constant Matrix: (Units=GPa)
#
#
# Indices 1 2 3 4 5 6 
#
# 1 92.8485 39.0433 5.3727 0.0000 19.7159 0.0000
# 2 39.0433 121.1101 22.2760 0.0000 21.7303 0.0000
# 3 5.3727 22.2760 66.0917 0.0000 26.9198 0.0000
# 4 0.0000 0.0000 0.0000 74.6821 0.0000 7.0121
# 5 19.7159 21.7303 26.9198 0.0000 25.8069 0.0000
# 6 0.0000 0.0000 0.0000 7.0121 0.0000 36.4735
#
#
#
# Elastic Compliance Matrix: (Units=1/GPa)
#
#
# Indices 1 2 3 4 5 6 
#
# 1 0.014952 -0.003241 0.005943 0.000000 -0.014893 0.000000
# 2 -0.003241 0.010429 -0.001188 0.000000 -0.005067 0.000000
# 3 0.005943 -0.001188 0.028671 0.000000 -0.033448 0.000000
# 4 0.000000 0.000000 0.000000 0.013636 0.000000 -0.002622
# 5 -0.014893 -0.005067 -0.033448 0.000000 0.089283 0.000000
# 6 0.000000 0.000000 0.000000 -0.002622 0.000000 0.027921
#
#
# Mechanical properties :
#
#
# Convention : Reuss Voigt Hill
#
# Bulk Modulus (GPa) = 17.51923 45.93714 31.72819
# Shear Modulus (GPa) = 24.88899 41.61640 33.25269
#
# Velocity S-wave (km/s) = 3.39981 4.39625 3.92974
# Velocity P-wave (km/s) = 4.85259 6.86317 5.94351
#
# Compressibility (1/GPa) = 0.05708012
#
# Stress axis : x y z
#
# Youngs Moduli (GPa) = 66.88224 95.88305 34.87803
#
# Poissons Ratio (x) = 0.31076 -0.20728
# Poissons Ratio (y) = 0.21677 0.04144
# Poissons Ratio (z) = -0.39748 0.11392
#
# Static dielectric constant tensor:
#      x y z
#    x 4.151890 0.000000 0.167580 
#    y 0.000000 4.181340 0.000000 
#    z 0.167580 0.000000 3.595120 
# 
# 
# High freq. dielectric constant tensor:
#      x y z
#    x 1.860840 0.000000 0.019140 
#    y 0.000000 1.860130 0.000000 
#    z 0.019140 0.000000 1.802560 
# 
# From -- ./inp_files/191864.got.cif
#   From: 2010.06.25/outbox.cif.g09.slc.cpg/sg12_96_cif.got.tgz:191864.got - 2010.06.28 00:19:55.
