data_PCOD8107526
_publ_section_title
;
Structure prediction by ZEFSAII (Michael W. Deem and Ramdas Pophale) SiO2 
 PCOD8107526
Probable space group: C 2/M
;
_chemical_formula_sum "Si O2"
_cell_formula_units_Z 64
_cell_length_a 14.996519
_cell_length_b 8.695836
_cell_length_c 27.566628
_cell_angle_alpha 90.000000
_cell_angle_beta 59.202079
_cell_angle_gamma 90.000000
_cell_volume 3087.932013
_symmetry_space_group_name_H-M "C 2/M"
_symmetry_group_IT_number 12
_symmetry_cell_setting 'monoclinic'
loop_
_space_group_symop_operation_xyz
x,y,z
-x,y,-z
-x,-y,-z
x,-y,z
1/2+x,1/2+y,z
1/2-x,1/2+y,-z
1/2-x,1/2-y,-z
1/2+x,1/2-y,z
loop_
_atom_site_type_symbol
_atom_site_label
_atom_site_fract_x
_atom_site_fract_y
_atom_site_fract_z
Si Si1 0.473105 0.681144 0.295505
Si Si2 0.398061 0.674948 0.212423
Si Si3 0.112552 0.829510 0.990247
Si Si4 0.109579 0.320845 0.494291
Si Si5 0.944771 0.677349 0.895126
Si Si6 0.327667 0.178142 0.414397
Si Si7 0.312053 0.175331 0.771669
Si Si8 0.721777 0.678267 0.120401
O O1 0.490099 0.500000 0.290309
O O2 0.438530 0.741743 0.252135
O O3 0.385922 0.722184 0.358340
O O4 0.580397 0.762969 0.279901
O O5 0.435694 0.500000 0.195702
O O6 0.441835 0.766916 0.153405
O O7 0.273142 0.686002 0.247377
O O8 0.175390 0.714117 0.938735
O O9 0.164320 0.000000 0.976788
O O10 0.106316 0.768355 0.046319
O O11 0.000000 0.841059 0.000000
O O12 0.126739 0.500000 0.477938
O O13 0.206888 0.226964 0.445942
O O14 0.113299 0.290548 0.551074
O O15 0.000000 0.266189 0.500000
O O16 0.950178 0.500000 0.907763
O O17 0.871670 0.712565 0.870087
O O18 0.334048 0.000000 0.398946
O O19 0.265364 0.281408 0.827093
O O20 0.324940 0.000000 0.785975
O O21 0.693450 0.500000 0.122011
#
# Coordination Sequence:
#
# PCOD8107526 Si02
#       8
#     8   8   8   8   8   8   8   8
#     4  11  23  41  63  88 124 168 208 251 302 364
#     4  10  23  42  63  87 120 160 202 251 309 369
#     4  11  24  41  60  84 116 152 193 245 305 371
#     4   9  19  38  63  90 124 167 209 249 303 365
#     4  12  24  39  62  88 116 152 197 250 305 366
#     4  10  21  37  60  91 126 162 205 259 304 352
#     4  11  23  41  64  90 119 157 204 255 309 365
#     4  12  24  40  61  86 118 153 195 246 306 372
#
# _framework density 20.725846000000001
#
# number of rings (size 3 to 8) (size 9 to 14) (size 15 to 20)
#    0.000    1.250    1.250    4.875    0.000    7.250 
#    0.000    5.000    0.000    0.000    0.000    0.000 
#    0.000    0.000    0.000    0.000    0.000    0.000 
#
# Total GULP energy -396837.189599 kJ/mol
# GULP energy per Si atom -12401.162175 kJ/mol
# Density = 2.067867 g / cm^3
# Si number density = 20.725846 Si / 1000 Ang^3
#
#
#
# Elastic Constant Matrix: (Units=GPa)
#
#
# Indices 1 2 3 4 5 6 
#
# 1 99.7139 27.5166 26.0207 0.0000 -17.7952 0.0000
# 2 27.5166 87.1534 25.9185 0.0001 -5.2005 0.0001
# 3 26.0207 25.9185 97.6094 0.0000 -13.4957 0.0000
# 4 0.0000 0.0001 0.0000 36.7270 0.0000 -5.4982
# 5 -17.7952 -5.2005 -13.4957 0.0000 24.2446 0.0000
# 6 0.0000 0.0001 0.0000 -5.4982 0.0000 29.6266
#
#
#
# Elastic Compliance Matrix: (Units=1/GPa)
#
#
# Indices 1 2 3 4 5 6 
#
# 1 0.012660 -0.003093 -0.001474 0.000000 0.007809 0.000000
# 2 -0.003093 0.013232 -0.002828 0.000000 -0.001006 0.000000
# 3 -0.001474 -0.002828 0.012085 0.000000 0.005039 0.000000
# 4 0.000000 0.000000 0.000000 0.028006 0.000000 0.005197
# 5 0.007809 -0.001006 0.005039 0.000000 0.049567 0.000000
# 6 0.000000 0.000000 0.000000 0.005197 0.000000 0.034718
#
#
# Mechanical properties :
#
#
# Convention : Reuss Voigt Hill
#
# Bulk Modulus (GPa) = 43.12692 49.26535 46.19613
# Shear Modulus (GPa) = 28.93731 31.78769 30.36250
#
# Velocity S-wave (km/s) = 3.74062 3.92053 3.83163
# Velocity P-wave (km/s) = 6.28568 6.65700 6.47400
#
# Compressibility (1/GPa) = 0.02318738
#
# Stress axis : x y z
#
# Youngs Moduli (GPa) = 78.98636 75.57713 82.74396
#
# Poissons Ratio (x) = 0.23375 0.12197
# Poissons Ratio (y) = 0.24430 0.23400
# Poissons Ratio (z) = 0.11643 0.21373
#
# Static dielectric constant tensor:
#      x y z
#    x 3.129090 0.000000 -1.440580 
#    y 0.000000 3.862460 0.000000 
#    z -1.440580 0.000000 0.907930 
# 
# 
# High freq. dielectric constant tensor:
#      x y z
#    x 1.819880 0.000000 -0.006880 
#    y 0.000000 1.815480 0.000000 
#    z -0.006880 0.000000 1.803910 
# 
# From -- ./inp_files/374989.got.cif
#   From: 2010.06.25/outbox.cif.g09.slc.cpg/sg12_188_cif.got.tgz:374989.got - 2010.06.28 00:19:55.
