data_PCOD8107956
_publ_section_title
;
Structure prediction by ZEFSAII (Michael W. Deem and Ramdas Pophale) SiO2 
 PCOD8107956
Probable space group: C 2/M
;
_chemical_formula_sum "Si O2"
_cell_formula_units_Z 56
_cell_length_a 18.398101
_cell_length_b 8.912266
_cell_length_c 18.340825
_cell_angle_alpha 90.000000
_cell_angle_beta 75.589985
_cell_angle_gamma 90.000000
_cell_volume 2912.711177
_symmetry_space_group_name_H-M "C 2/M"
_symmetry_group_IT_number 12
_symmetry_cell_setting 'monoclinic'
loop_
_space_group_symop_operation_xyz
x,y,z
-x,y,-z
-x,-y,-z
x,-y,z
1/2+x,1/2+y,z
1/2-x,1/2+y,-z
1/2-x,1/2-y,-z
1/2+x,1/2-y,z
loop_
_atom_site_type_symbol
_atom_site_label
_atom_site_fract_x
_atom_site_fract_y
_atom_site_fract_z
Si Si1 0.975424 0.829842 0.428256
Si Si2 0.305890 0.332948 0.433797
Si Si3 0.082456 0.673775 0.008681
Si Si4 0.507558 0.177333 0.272714
Si Si5 0.126761 0.825159 0.145220
Si Si6 0.295734 0.173476 0.142232
Si Si7 0.643906 0.321719 0.732486
O O1 0.886324 0.827306 0.451006
O O2 0.000000 0.763750 0.500000
O O3 0.009079 0.726677 0.356468
O O4 0.005324 0.000000 0.409804
O O5 0.274711 0.500000 0.434749
O O6 0.250000 0.250000 0.500000
O O7 0.311852 0.263863 0.350720
O O8 0.090146 0.500000 0.029659
O O9 0.142062 0.717712 0.932227
O O10 0.097672 0.777366 0.073703
O O11 0.000000 0.709969 0.000000
O O12 0.584760 0.231538 0.217790
O O13 0.438496 0.248490 0.245072
O O14 0.501070 0.000000 0.268860
O O15 0.214899 0.789256 0.128914
O O16 0.110058 0.000000 0.160893
O O17 0.307974 0.274705 0.210117
O O18 0.302916 0.000000 0.163149
O O19 0.632635 0.500000 0.731673
#
# Coordination Sequence:
#
# PCOD8107956 Si02
#       7
#     8   8   8   8   8   8   8
#     4   9  19  37  58  80 109 145 186 233 283 333
#     4   9  19  34  53  79 109 142 180 224 273 326
#     4  10  21  38  60  85 113 146 187 234 280 329
#     4  11  22  37  58  82 111 148 191 237 283 333
#     4  11  23  38  57  83 116 152 190 230 276 333
#     4  10  22  38  57  85 118 150 184 227 281 334
#     4  10  21  38  59  83 112 147 189 233 280 337
#
# _framework density 19.226073
#
# number of rings (size 3 to 8) (size 9 to 14) (size 15 to 20)
#    0.000    2.000    0.000    4.286    0.000    7.429 
#    0.000    4.286    0.000    0.000    0.000    0.000 
#    0.000    0.000    0.000    0.000    0.000    0.000 
#
# Total GULP energy -347288.522665 kJ/mol
# GULP energy per Si atom -12403.161524 kJ/mol
# Density = 1.918231 g / cm^3
# Si number density = 19.226073 Si / 1000 Ang^3
#
#
#
# Elastic Constant Matrix: (Units=GPa)
#
#
# Indices 1 2 3 4 5 6 
#
# 1 97.9817 43.3348 68.9810 0.0000 -2.3640 0.0000
# 2 43.3348 90.5837 52.3241 0.0000 -2.5412 0.0000
# 3 68.9810 52.3241 126.3839 0.0000 -3.4800 0.0000
# 4 0.0000 0.0000 0.0000 37.2600 0.0000 1.9392
# 5 -2.3640 -2.5412 -3.4800 0.0000 42.1529 0.0000
# 6 0.0000 0.0000 0.0000 1.9392 0.0000 28.9444
#
#
#
# Elastic Compliance Matrix: (Units=1/GPa)
#
#
# Indices 1 2 3 4 5 6 
#
# 1 0.017494 -0.003749 -0.007994 0.000000 0.000095 0.000000
# 2 -0.003749 0.015319 -0.004286 0.000000 0.000359 0.000000
# 3 -0.007994 -0.004286 0.014062 0.000000 0.000454 0.000000
# 4 0.000000 0.000000 0.000000 0.026932 0.000000 -0.001804
# 5 0.000095 0.000359 0.000454 0.000000 0.023788 0.000000
# 6 0.000000 0.000000 0.000000 -0.001804 0.000000 0.034670
#
#
# Mechanical properties :
#
#
# Convention : Reuss Voigt Hill
#
# Bulk Modulus (GPa) = 67.48580 71.58102 69.53341
# Shear Modulus (GPa) = 29.54007 31.69208 30.61608
#
# Velocity S-wave (km/s) = 3.92402 4.06444 3.99485
# Velocity P-wave (km/s) = 7.46378 7.70314 7.58440
#
# Compressibility (1/GPa) = 0.01481793
#
# Stress axis : x y z
#
# Youngs Moduli (GPa) = 57.16234 65.27901 71.11217
#
# Poissons Ratio (x) = 0.24473 0.56844
# Poissons Ratio (y) = 0.21430 0.30479
# Poissons Ratio (z) = 0.45693 0.27979
#
# Static dielectric constant tensor:
#      x y z
#    x 3.563200 0.000000 0.006860 
#    y 0.000000 3.491280 0.000000 
#    z 0.006860 0.000000 3.641380 
# 
# 
# High freq. dielectric constant tensor:
#      x y z
#    x 1.748040 0.000000 -0.000470 
#    y 0.000000 1.745480 0.000000 
#    z -0.000470 0.000000 1.760290 
# 
# From -- ./inp_files/275345.got.cif
#   From: 2010.06.25/outbox.cif.g09.slc.cpg/sg12_138_cif.got.tgz:275345.got - 2010.06.28 00:19:55.
