data_PCOD8107097
_publ_section_title
;
Structure prediction by ZEFSAII (Michael W. Deem and Ramdas Pophale) SiO2 
 PCOD8107097
Probable space group: C 2/M
;
_chemical_formula_sum "Si O2"
_cell_formula_units_Z 56
_cell_length_a 18.787115
_cell_length_b 8.957648
_cell_length_c 29.127815
_cell_angle_alpha 90.000000
_cell_angle_beta 143.599400
_cell_angle_gamma 90.000000
_cell_volume 2908.904924
_symmetry_space_group_name_H-M "C 2/M"
_symmetry_group_IT_number 12
_symmetry_cell_setting 'monoclinic'
loop_
_space_group_symop_operation_xyz
x,y,z
-x,y,-z
-x,-y,-z
x,-y,z
1/2+x,1/2+y,z
1/2-x,1/2+y,-z
1/2-x,1/2-y,-z
1/2+x,1/2-y,z
loop_
_atom_site_type_symbol
_atom_site_label
_atom_site_fract_x
_atom_site_fract_y
_atom_site_fract_z
Si Si1 0.581114 0.827979 0.126788
Si Si2 0.281031 0.825053 0.563910
Si Si3 0.859874 0.325146 0.427006
Si Si4 0.723536 0.672714 0.125334
Si Si5 0.834552 0.825000 0.007471
Si Si6 0.053395 0.328427 0.698544
Si Si7 0.309875 0.672454 0.307712
O O1 0.624644 0.770075 0.100074
O O2 0.467519 0.735300 0.084191
O O3 0.683669 0.801684 0.217487
O O4 0.545645 0.000000 0.103781
O O5 0.250000 0.750000 0.500000
O O6 0.200301 0.755173 0.561379
O O7 0.420501 0.793314 0.647585
O O8 0.254031 0.000000 0.546805
O O9 0.834730 0.500000 0.417820
O O10 0.802493 0.264079 0.350651
O O11 0.000000 0.287696 0.500000
O O12 0.690397 0.500000 0.115838
O O13 0.856579 0.709468 0.213019
O O14 0.717779 0.717646 0.069409
O O15 0.835355 0.000000 0.015975
O O16 0.750000 0.750000 0.000000
O O17 0.065889 0.500000 0.689532
O O18 0.082738 0.230314 0.668966
O O19 0.334108 0.500000 0.331343
#
# Coordination Sequence:
#
# PCOD8107097 Si02
#       7
#     8   8   8   8   8   8   8
#     4  10  21  37  58  84 113 145 184 229 276 332
#     4  11  23  38  58  84 114 149 187 229 279 333
#     4  11  24  40  58  82 113 149 188 231 280 333
#     4   9  19  37  59  81 108 144 185 227 274 331
#     4  11  23  37  55  81 113 149 188 233 283 332
#     4   9  19  37  59  82 110 144 181 225 278 332
#     4  10  21  37  59  86 113 144 184 229 276 329
#
# _framework density 19.251232000000002
#
# number of rings (size 3 to 8) (size 9 to 14) (size 15 to 20)
#    0.000    1.857    0.000    3.429    0.000   11.429 
#    0.000    2.857    0.000    0.000    0.000    0.000 
#    0.000    0.000    0.000    0.000    0.000    0.000 
#
# Total GULP energy -347349.985578 kJ/mol
# GULP energy per Si atom -12405.356628 kJ/mol
# Density = 1.920742 g / cm^3
# Si number density = 19.251232 Si / 1000 Ang^3
#
#
#
# Elastic Constant Matrix: (Units=GPa)
#
#
# Indices 1 2 3 4 5 6 
#
# 1 168.4548 87.6092 74.9290 0.0000 -0.1581 0.0000
# 2 87.6092 113.1208 62.4425 0.0000 0.1248 0.0000
# 3 74.9290 62.4425 85.2766 0.0000 -1.8281 0.0000
# 4 0.0000 0.0000 0.0000 32.3536 0.0000 -1.3454
# 5 -0.1581 0.1248 -1.8281 0.0000 35.8503 0.0000
# 6 0.0000 0.0000 0.0000 -1.3454 0.0000 40.0473
#
#
#
# Elastic Compliance Matrix: (Units=1/GPa)
#
#
# Indices 1 2 3 4 5 6 
#
# 1 0.011535 -0.005599 -0.006041 0.000000 -0.000238 0.000000
# 2 -0.005599 0.017568 -0.007955 0.000000 -0.000491 0.000000
# 3 -0.006041 -0.007955 0.022884 0.000000 0.001168 0.000000
# 4 0.000000 0.000000 0.000000 0.030952 0.000000 0.001040
# 5 -0.000238 -0.000491 0.001168 0.000000 0.027954 0.000000
# 6 0.000000 0.000000 0.000000 0.001040 0.000000 0.025005
#
#
# Mechanical properties :
#
#
# Convention : Reuss Voigt Hill
#
# Bulk Modulus (GPa) = 78.13654 90.75708 84.44681
# Shear Modulus (GPa) = 27.87809 31.10833 29.49321
#
# Velocity S-wave (km/s) = 3.80955 4.02420 3.91834
# Velocity P-wave (km/s) = 7.74765 8.29688 8.02696
#
# Compressibility (1/GPa) = 0.01279811
#
# Stress axis : x y z
#
# Youngs Moduli (GPa) = 86.69511 56.92233 43.69835
#
# Poissons Ratio (x) = 0.31869 0.26397
# Poissons Ratio (y) = 0.48537 0.34762
# Poissons Ratio (z) = 0.52369 0.45282
#
# Static dielectric constant tensor:
#      x y z
#    x 3.162620 0.000000 0.383330 
#    y 0.000000 3.687460 0.000000 
#    z 0.383330 0.000000 2.629890 
# 
# 
# High freq. dielectric constant tensor:
#      x y z
#    x 1.749220 0.000000 0.001710 
#    y 0.000000 1.760140 0.000000 
#    z 0.001710 0.000000 1.760190 
# 
# From -- ./inp_files/363104.got.cif
#   From: 2010.06.25/outbox.cif.g09.slc.cpg/sg12_182_cif.got.tgz:363104.got - 2010.06.28 00:19:55.
