data_PCOD8107859
_publ_section_title
;
Structure prediction by ZEFSAII (Michael W. Deem and Ramdas Pophale) SiO2 
 PCOD8107859
Probable space group: C 2/M
;
_chemical_formula_sum "Si O2"
_cell_formula_units_Z 56
_cell_length_a 24.794916
_cell_length_b 9.271387
_cell_length_c 14.417470
_cell_angle_alpha 90.000000
_cell_angle_beta 69.580532
_cell_angle_gamma 90.000000
_cell_volume 3106.073809
_symmetry_space_group_name_H-M "C 2/M"
_symmetry_group_IT_number 12
_symmetry_cell_setting 'monoclinic'
loop_
_space_group_symop_operation_xyz
x,y,z
-x,y,-z
-x,-y,-z
x,-y,z
1/2+x,1/2+y,z
1/2-x,1/2+y,-z
1/2-x,1/2-y,-z
1/2+x,1/2-y,z
loop_
_atom_site_type_symbol
_atom_site_label
_atom_site_fract_x
_atom_site_fract_y
_atom_site_fract_z
Si Si1 0.755143 0.165844 0.591748
Si Si2 0.551943 0.230772 0.917592
Si Si3 0.370659 0.158060 0.289389
Si Si4 0.053944 0.158481 0.103128
Si Si5 0.443119 0.666366 0.385713
Si Si6 0.371953 0.333806 0.612769
Si Si7 0.939729 0.328055 0.722039
O O1 0.750000 0.250000 0.500000
O O2 0.696882 0.189074 0.685961
O O3 0.809133 0.221707 0.618876
O O4 0.766222 0.000000 0.559280
O O5 0.599226 0.147735 0.829750
O O6 0.516089 0.335182 0.868424
O O7 0.500000 0.135953 0.000000
O O8 0.583544 0.314354 0.983965
O O9 0.396164 0.280025 0.340013
O O10 0.378735 0.000000 0.331166
O O11 0.074567 0.277045 0.164949
O O12 0.070863 0.000000 0.129415
O O13 0.458445 0.500000 0.355613
O O14 0.417542 0.683870 0.503058
O O15 0.499819 0.762364 0.346520
O O16 0.370173 0.500000 0.647424
O O17 0.389650 0.229904 0.685833
O O18 0.942905 0.500000 0.716964
#
# Coordination Sequence:
#
# PCOD8107859 Si02
#       7
#     8   8   8   8   8   8   8
#     4  10  21  38  58  81 111 151 193 235 277 322
#     4   8  18  31  54  85 113 144 180 220 281 337
#     4  11  21  33  56  87 119 147 181 233 286 330
#     4   9  18  34  55  79 109 143 179 221 271 334
#     4  11  21  34  55  80 109 148 189 227 273 337
#     4  10  22  39  55  75 107 152 196 230 271 329
#     4  12  24  35  53  82 113 147 183 231 289 336
#
# _framework density 18.029191000000001
#
# number of rings (size 3 to 8) (size 9 to 14) (size 15 to 20)
#    0.857    0.857    2.857    3.000    0.000    4.857 
#    0.000    0.000    0.000    0.857    0.000    0.000 
#    0.000    0.000    0.000    0.000    0.000    0.000 
#
# Total GULP energy -346895.375038 kJ/mol
# GULP energy per Si atom -12389.120537 kJ/mol
# Density = 1.798816 g / cm^3
# Si number density = 18.029191 Si / 1000 Ang^3
#
#
#
# Elastic Constant Matrix: (Units=GPa)
#
#
# Indices 1 2 3 4 5 6 
#
# 1 113.2385 54.7285 42.6236 0.0000 16.3299 0.0000
# 2 54.7285 118.0733 42.8496 0.0000 16.9711 0.0000
# 3 42.6236 42.8496 82.7797 0.0000 11.8161 0.0000
# 4 0.0000 0.0000 0.0000 20.4535 0.0000 3.4615
# 5 16.3299 16.9711 11.8161 0.0000 29.1773 0.0000
# 6 0.0000 0.0000 0.0000 3.4615 0.0000 25.7236
#
#
#
# Elastic Compliance Matrix: (Units=1/GPa)
#
#
# Indices 1 2 3 4 5 6 
#
# 1 0.012734 -0.003978 -0.004044 0.000000 -0.003175 0.000000
# 2 -0.003978 0.012159 -0.003772 0.000000 -0.003318 0.000000
# 3 -0.004044 -0.003772 0.016429 0.000000 -0.002196 0.000000
# 4 0.000000 0.000000 0.000000 0.050031 0.000000 -0.006732
# 5 -0.003175 -0.003318 -0.002196 0.000000 0.038870 0.000000
# 6 0.000000 0.000000 0.000000 -0.006732 0.000000 0.039781
#
#
# Mechanical properties :
#
#
# Convention : Reuss Voigt Hill
#
# Bulk Modulus (GPa) = 56.39285 66.05499 61.22392
# Shear Modulus (GPa) = 25.06242 26.66353 25.86298
#
# Velocity S-wave (km/s) = 3.73245 3.84983 3.79160
# Velocity P-wave (km/s) = 7.06551 7.51525 7.29385
#
# Compressibility (1/GPa) = 0.01773275
#
# Stress axis : x y z
#
# Youngs Moduli (GPa) = 78.53160 82.24311 60.86979
#
# Poissons Ratio (x) = 0.32718 0.24617
# Poissons Ratio (y) = 0.31242 0.22959
# Poissons Ratio (z) = 0.31759 0.31021
#
# Static dielectric constant tensor:
#      x y z
#    x 3.294760 0.000000 -0.005170 
#    y 0.000000 3.258450 0.000000 
#    z -0.005170 0.000000 3.359330 
# 
# 
# High freq. dielectric constant tensor:
#      x y z
#    x 1.675410 0.000000 0.007980 
#    y 0.000000 1.694340 0.000000 
#    z 0.007980 0.000000 1.693810 
# 
# From -- ./inp_files/237325.got.cif
#   From: 2010.06.25/outbox.cif.g09.slc.cpg/sg12_119_cif.got.tgz:237325.got - 2010.06.28 00:19:55.
