data_PCOD8107473
_publ_section_title
;
Structure prediction by ZEFSAII (Michael W. Deem and Ramdas Pophale) SiO2 
 PCOD8107473
Probable space group: C 2/M
;
_chemical_formula_sum "Si O2"
_cell_formula_units_Z 48
_cell_length_a 23.221689
_cell_length_b 13.402533
_cell_length_c 13.157280
_cell_angle_alpha 90.000000
_cell_angle_beta 144.216008
_cell_angle_gamma 90.000000
_cell_volume 2394.434496
_symmetry_space_group_name_H-M "C 2/M"
_symmetry_group_IT_number 12
_symmetry_cell_setting 'monoclinic'
loop_
_space_group_symop_operation_xyz
x,y,z
-x,y,-z
-x,-y,-z
x,-y,z
1/2+x,1/2+y,z
1/2-x,1/2+y,-z
1/2-x,1/2-y,-z
1/2+x,1/2-y,z
loop_
_atom_site_type_symbol
_atom_site_label
_atom_site_fract_x
_atom_site_fract_y
_atom_site_fract_z
Si Si1 0.125586 0.382073 0.929617
Si Si2 0.885898 0.388598 0.317166
Si Si3 0.614870 0.385845 0.167417
Si Si4 0.455610 0.117691 0.831473
Si Si5 0.244874 0.755200 0.744908
Si Si6 0.266757 0.616221 0.462466
O O1 0.136820 0.500000 0.957582
O O2 0.130942 0.348530 0.820759
O O3 0.021820 0.346448 0.831191
O O4 0.217217 0.331837 0.116630
O O5 0.840214 0.500000 0.265592
O O6 0.841532 0.312266 0.334167
O O7 0.000000 0.395181 0.500000
O O8 0.637724 0.500000 0.171525
O O9 0.665996 0.316906 0.157844
O O10 0.655825 0.361441 0.338120
O O11 0.500000 0.362705 0.000000
O O12 0.342169 0.151600 0.656116
O O13 0.459540 0.000000 0.844179
O O14 0.500000 0.163030 0.000000
O O15 0.201715 0.818613 0.589301
O O16 0.265926 0.500000 0.430289
#
# Coordination Sequence:
#
# PCOD8107473 Si02
#       6
#     8   8   8   8   8   8
#     4  10  21  37  60  88 122 154 192 247 302 351
#     4  10  24  43  60  83 116 158 205 253 296 343
#     4  10  24  41  55  82 126 167 199 238 295 363
#     4   9  16  30  56  91 120 148 183 236 304 355
#     4  12  22  36  64  89 117 154 201 247 296 356
#     4  10  21  37  60  92 126 155 195 246 301 357
#
# _framework density 20.046488
#
# number of rings (size 3 to 8) (size 9 to 14) (size 15 to 20)
#    0.000    1.833    1.667    2.000    4.667    1.333 
#    0.000    0.000    0.000    2.000    0.000    0.000 
#    0.000    0.000    0.000    0.000    0.000    0.000 
#
# Total GULP energy -297619.205530 kJ/mol
# GULP energy per Si atom -12400.800230 kJ/mol
# Density = 2.000086 g / cm^3
# Si number density = 20.046488 Si / 1000 Ang^3
#
#
#
# Elastic Constant Matrix: (Units=GPa)
#
#
# Indices 1 2 3 4 5 6 
#
# 1 103.4052 51.7470 33.7041 0.0000 0.4814 0.0000
# 2 51.7470 78.3876 21.6433 0.0000 -5.1369 0.0000
# 3 33.7041 21.6433 122.5348 0.0000 4.3258 0.0000
# 4 0.0000 0.0000 0.0000 8.0742 0.0000 -4.5335
# 5 0.4814 -5.1369 4.3258 0.0000 19.6892 0.0000
# 6 0.0000 0.0000 0.0000 -4.5335 0.0000 40.6218
#
#
#
# Elastic Compliance Matrix: (Units=1/GPa)
#
#
# Indices 1 2 3 4 5 6 
#
# 1 0.015252 -0.009552 -0.002426 0.000000 -0.002332 0.000000
# 2 -0.009552 0.019721 -0.001054 0.000000 0.005610 0.000000
# 3 -0.002426 -0.001054 0.009093 0.000000 -0.002213 0.000000
# 4 0.000000 0.000000 0.000000 0.132132 0.000000 0.014746
# 5 -0.002332 0.005610 -0.002213 0.000000 0.052796 0.000000
# 6 0.000000 0.000000 0.000000 0.014746 0.000000 0.026263
#
#
# Mechanical properties :
#
#
# Convention : Reuss Voigt Hill
#
# Bulk Modulus (GPa) = 55.54709 57.61293 56.58001
# Shear Modulus (GPa) = 17.40215 26.82592 22.11403
#
# Velocity S-wave (km/s) = 2.94953 3.66209 3.32495
# Velocity P-wave (km/s) = 6.27447 6.83252 6.55943
#
# Compressibility (1/GPa) = 0.01800274
#
# Stress axis : x y z
#
# Youngs Moduli (GPa) = 65.56457 50.70658 109.98059
#
# Poissons Ratio (x) = 0.48433 0.26679
# Poissons Ratio (y) = 0.62625 0.11594
# Poissons Ratio (z) = 0.15905 0.05345
#
# Static dielectric constant tensor:
#      x y z
#    x 3.679360 0.000000 -0.133420 
#    y 0.000000 3.850400 0.000000 
#    z -0.133420 0.000000 3.645020 
# 
# 
# High freq. dielectric constant tensor:
#      x y z
#    x 1.767220 0.000000 -0.008350 
#    y 0.000000 1.795760 0.000000 
#    z -0.008350 0.000000 1.783190 
# 
# From -- ./inp_files/167551.got.cif
#   From: 2010.06.25/outbox.cif.g09.slc.cpg/sg12_84_cif.got.tgz:167551.got - 2010.06.28 00:19:55.
