data_PCOD8107915
_publ_section_title
;
Structure prediction by ZEFSAII (Michael W. Deem and Ramdas Pophale) SiO2 
 PCOD8107915
Probable space group: C 2/M
;
_chemical_formula_sum "Si O2"
_cell_formula_units_Z 64
_cell_length_a 29.207177
_cell_length_b 19.039033
_cell_length_c 9.191706
_cell_angle_alpha 90.000000
_cell_angle_beta 140.517795
_cell_angle_gamma 90.000000
_cell_volume 3249.955695
_symmetry_space_group_name_H-M "C 2/M"
_symmetry_group_IT_number 12
_symmetry_cell_setting 'monoclinic'
loop_
_space_group_symop_operation_xyz
x,y,z
-x,y,-z
-x,-y,-z
x,-y,z
1/2+x,1/2+y,z
1/2-x,1/2+y,-z
1/2-x,1/2-y,-z
1/2+x,1/2-y,z
loop_
_atom_site_type_symbol
_atom_site_label
_atom_site_fract_x
_atom_site_fract_y
_atom_site_fract_z
Si Si1 0.214659 0.417318 0.225885
Si Si2 0.411374 0.162691 0.937160
Si Si3 0.918737 0.793509 0.455240
Si Si4 0.072866 0.654532 0.354776
Si Si5 0.421770 0.307799 0.118942
Si Si6 0.315912 0.578539 0.726505
Si Si7 0.288164 0.923216 0.276561
Si Si8 0.232360 0.171426 0.903576
O O1 0.207084 0.500000 0.163730
O O2 0.145688 0.395339 0.152367
O O3 0.289157 0.405271 0.497269
O O4 0.216757 0.364546 0.092787
O O5 0.405938 0.182580 0.753553
O O6 0.490257 0.129468 0.161305
O O7 0.398611 0.235043 0.990029
O O8 0.913837 0.712583 0.489541
O O9 0.909475 0.799788 0.259654
O O10 0.850150 0.833261 0.356307
O O11 0.993493 0.825520 0.698685
O O12 0.126542 0.591184 0.522695
O O13 0.376692 0.369083 0.932776
O O14 0.348675 0.500000 0.818289
O O15 0.241351 0.583457 0.632647
O O16 0.276470 0.000000 0.182670
O O17 0.238127 0.872053 0.063914
O O18 0.250000 0.250000 0.000000
#
# Coordination Sequence:
#
# PCOD8107915 Si02
#       8
#     8   8   8   8   8   8   8   8
#     4  11  25  42  60  89 126 161 200 248 302 366
#     4  10  22  37  62  89 120 157 201 248 301 356
#     4  10  21  38  59  90 120 151 198 253 307 350
#     4  10  21  38  58  92 120 154 200 247 301 360
#     4  10  21  39  62  88 119 155 200 257 300 358
#     4  10  22  40  60  86 120 160 206 249 304 364
#     4  11  22  38  59  87 122 156 198 247 298 360
#     4  12  23  39  64  90 118 157 202 249 299 357
#
# _framework density 19.692577
#
# number of rings (size 3 to 8) (size 9 to 14) (size 15 to 20)
#    0.000    1.500    3.750    1.125    1.750    1.000 
#    0.000    3.750    0.000    3.000    0.000    0.000 
#    0.000    0.000    0.000    0.000    0.000    0.000 
#
# Total GULP energy -396595.458938 kJ/mol
# GULP energy per Si atom -12393.608092 kJ/mol
# Density = 1.964776 g / cm^3
# Si number density = 19.692577 Si / 1000 Ang^3
#
#
#
# Elastic Constant Matrix: (Units=GPa)
#
#
# Indices 1 2 3 4 5 6 
#
# 1 73.8575 43.8626 28.6615 0.0000 12.1999 0.0000
# 2 43.8626 127.7001 59.2310 0.0000 8.3050 0.0000
# 3 28.6615 59.2310 93.2721 0.0000 12.8376 0.0000
# 4 0.0000 0.0000 0.0000 28.8423 0.0000 -0.9816
# 5 12.1999 8.3050 12.8376 0.0000 34.3675 0.0000
# 6 0.0000 0.0000 0.0000 -0.9816 0.0000 24.8728
#
#
#
# Elastic Compliance Matrix: (Units=1/GPa)
#
#
# Indices 1 2 3 4 5 6 
#
# 1 0.017962 -0.005109 -0.001653 0.000000 -0.004524 0.000000
# 2 -0.005109 0.012554 -0.006572 0.000000 0.001235 0.000000
# 3 -0.001653 -0.006572 0.015922 0.000000 -0.003773 0.000000
# 4 0.000000 0.000000 0.000000 0.034718 0.000000 0.001370
# 5 -0.004524 0.001235 -0.003773 0.000000 0.031814 0.000000
# 6 0.000000 0.000000 0.000000 0.001370 0.000000 0.040259
#
#
# Mechanical properties :
#
#
# Convention : Reuss Voigt Hill
#
# Bulk Modulus (GPa) = 50.57973 62.03777 56.30875
# Shear Modulus (GPa) = 26.81164 28.48815 27.64989
#
# Velocity S-wave (km/s) = 3.69387 3.80760 3.75117
# Velocity P-wave (km/s) = 6.62822 7.13456 6.88605
#
# Compressibility (1/GPa) = 0.01977077
#
# Stress axis : x y z
#
# Youngs Moduli (GPa) = 55.67193 79.65788 62.80676
#
# Poissons Ratio (x) = 0.40697 0.10379
# Poissons Ratio (y) = 0.28443 0.41277
# Poissons Ratio (z) = 0.09200 0.52352
#
# Static dielectric constant tensor:
#      x y z
#    x 3.727100 0.000000 0.053910 
#    y 0.000000 3.433270 0.000000 
#    z 0.053910 0.000000 3.750930 
# 
# 
# High freq. dielectric constant tensor:
#      x y z
#    x 1.769730 0.000000 0.000750 
#    y 0.000000 1.752570 0.000000 
#    z 0.000750 0.000000 1.779390 
# 
# From -- ./inp_files/112856.got.cif
#   From: 2010.06.25/outbox.cif.g09.slc.cpg/sg12_57_cif.got.tgz:112856.got - 2010.06.28 00:19:55.
