data_PCOD8107028
_publ_section_title
;
Structure prediction by ZEFSAII (Michael W. Deem and Ramdas Pophale) SiO2 
 PCOD8107028
Probable space group: C 2/M
;
_chemical_formula_sum "Si O2"
_cell_formula_units_Z 40
_cell_length_a 30.087306
_cell_length_b 8.765151
_cell_length_c 7.679774
_cell_angle_alpha 90.000000
_cell_angle_beta 76.357009
_cell_angle_gamma 90.000000
_cell_volume 1968.162803
_symmetry_space_group_name_H-M "C 2/M"
_symmetry_group_IT_number 12
_symmetry_cell_setting 'monoclinic'
loop_
_space_group_symop_operation_xyz
x,y,z
-x,y,-z
-x,-y,-z
x,-y,z
1/2+x,1/2+y,z
1/2-x,1/2+y,-z
1/2-x,1/2-y,-z
1/2+x,1/2-y,z
loop_
_atom_site_type_symbol
_atom_site_label
_atom_site_fract_x
_atom_site_fract_y
_atom_site_fract_z
Si Si1 0.792727 0.674853 0.368768
Si Si2 0.797375 0.176635 0.008941
Si Si3 0.052867 0.177024 0.431729
Si Si4 0.888916 0.679328 0.914677
Si Si5 0.106577 0.672807 0.687467
O O1 0.781004 0.500000 0.323678
O O2 0.750000 0.750000 0.500000
O O3 0.803699 0.788377 0.203710
O O4 0.840501 0.676493 0.429995
O O5 0.795372 0.000000 0.967190
O O6 0.750000 0.250000 0.000000
O O7 0.842432 0.247235 0.876789
O O8 0.070063 0.270669 0.248315
O O9 0.077480 0.219932 0.589194
O O10 0.000000 0.217114 0.500000
O O11 0.061307 0.000000 0.386593
O O12 0.881761 0.500000 0.914888
O O13 0.898592 0.728904 0.106395
O O14 0.088083 0.500000 0.689095
#
# Coordination Sequence:
#
# PCOD8107028 Si02
#       5
#     8   8   8   8   8
#     4  10  21  37  57  86 121 160 204 249 303 364
#     4  11  22  37  58  86 121 161 203 248 302 365
#     4  11  25  42  63  93 125 162 208 256 313 375
#     4  10  22  42  65  90 123 160 206 258 311 371
#     4   9  21  41  63  88 121 161 206 256 308 367
#
# _framework density 20.323521
#
# number of rings (size 3 to 8) (size 9 to 14) (size 15 to 20)
#    0.000    1.800    0.000    4.800    2.800    7.200 
#    0.000    4.000    0.000    0.000    0.000    0.000 
#    0.000    0.000    0.000    0.000    0.000    0.000 
#
# Total GULP energy -247882.219083 kJ/mol
# GULP energy per Si atom -12394.110954 kJ/mol
# Density = 2.027726 g / cm^3
# Si number density = 20.323521 Si / 1000 Ang^3
#
#
#
# Elastic Constant Matrix: (Units=GPa)
#
#
# Indices 1 2 3 4 5 6 
#
# 1 127.4573 53.9670 53.6972 0.0000 -6.9887 0.0000
# 2 53.9670 104.5323 40.0920 0.0000 -5.8387 0.0000
# 3 53.6972 40.0920 96.6895 0.0000 -10.6363 0.0000
# 4 0.0000 0.0000 0.0000 34.3431 0.0000 -2.0353
# 5 -6.9887 -5.8387 -10.6363 0.0000 29.9969 0.0000
# 6 0.0000 0.0000 0.0000 -2.0353 0.0000 36.6576
#
#
#
# Elastic Compliance Matrix: (Units=1/GPa)
#
#
# Indices 1 2 3 4 5 6 
#
# 1 0.011602 -0.004180 -0.004685 0.000000 0.000228 0.000000
# 2 -0.004180 0.012891 -0.002971 0.000000 0.000482 0.000000
# 3 -0.004685 -0.002971 0.014560 0.000000 0.003493 0.000000
# 4 0.000000 0.000000 0.000000 0.029214 0.000000 0.001622
# 5 0.000228 0.000482 0.003493 0.000000 0.034722 0.000000
# 6 0.000000 0.000000 0.000000 0.001622 0.000000 0.027370
#
#
# Mechanical properties :
#
#
# Convention : Reuss Voigt Hill
#
# Bulk Modulus (GPa) = 65.01265 69.35463 67.18364
# Shear Modulus (GPa) = 31.41549 32.26105 31.83827
#
# Velocity S-wave (km/s) = 3.93589 3.98851 3.96229
# Velocity P-wave (km/s) = 7.26039 7.44381 7.35268
#
# Compressibility (1/GPa) = 0.01538162
#
# Stress axis : x y z
#
# Youngs Moduli (GPa) = 86.19273 77.57480 68.68067
#
# Poissons Ratio (x) = 0.32428 0.32176
# Poissons Ratio (y) = 0.36030 0.20402
# Poissons Ratio (z) = 0.40380 0.23045
#
# Static dielectric constant tensor:
#      x y z
#    x 3.846030 0.000000 0.072880 
#    y 0.000000 2.989950 0.000000 
#    z 0.072880 0.000000 2.978840 
# 
# 
# High freq. dielectric constant tensor:
#      x y z
#    x 1.799990 0.000000 -0.007990 
#    y 0.000000 1.801390 0.000000 
#    z -0.007990 0.000000 1.786850 
# 
# From -- ./inp_files/107447.got.cif
#   From: 2010.06.25/outbox.cif.g09.slc.cpg/sg12_54_cif.got.tgz:107447.got - 2010.06.28 00:19:55.
