data_PCOD8107427
_publ_section_title
;
Structure prediction by ZEFSAII (Michael W. Deem and Ramdas Pophale) SiO2 
 PCOD8107427
Probable space group: C 2/M
;
_chemical_formula_sum "Si O2"
_cell_formula_units_Z 56
_cell_length_a 20.084519
_cell_length_b 8.960098
_cell_length_c 19.022591
_cell_angle_alpha 90.000000
_cell_angle_beta 59.527797
_cell_angle_gamma 90.000000
_cell_volume 2950.450247
_symmetry_space_group_name_H-M "C 2/M"
_symmetry_group_IT_number 12
_symmetry_cell_setting 'monoclinic'
loop_
_space_group_symop_operation_xyz
x,y,z
-x,y,-z
-x,-y,-z
x,-y,z
1/2+x,1/2+y,z
1/2-x,1/2+y,-z
1/2-x,1/2-y,-z
1/2+x,1/2-y,z
loop_
_atom_site_type_symbol
_atom_site_label
_atom_site_fract_x
_atom_site_fract_y
_atom_site_fract_z
Si Si1 0.138454 0.675773 0.751589
Si Si2 0.198335 0.675014 0.345251
Si Si3 0.916988 0.322467 0.067380
Si Si4 0.136576 0.175999 0.241212
Si Si5 0.769937 0.325078 0.062034
Si Si6 0.979545 0.323767 0.307025
Si Si7 0.935300 0.674838 0.483305
O O1 0.154026 0.500000 0.747029
O O2 0.218423 0.753663 0.690509
O O3 0.105315 0.736236 0.843251
O O4 0.078816 0.720172 0.723239
O O5 0.206259 0.500000 0.327085
O O6 0.149664 0.745319 0.308279
O O7 0.150396 0.709569 0.442062
O O8 0.920386 0.500000 0.067276
O O9 0.852912 0.267994 0.045775
O O10 0.000000 0.256073 0.000000
O O11 0.206751 0.220024 0.153174
O O12 0.058799 0.238556 0.248083
O O13 0.131039 0.000000 0.255564
O O14 0.771465 0.500000 0.048454
O O15 0.750000 0.250000 0.000000
O O16 0.995511 0.500000 0.299463
O O17 0.944088 0.263119 0.399478
O O18 0.950676 0.500000 0.472175
O O19 0.000000 0.747589 0.500000
#
# Coordination Sequence:
#
# PCOD8107427 Si02
#       7
#     8   8   8   8   8   8   8
#     4  10  21  38  58  83 116 149 189 237 285 337
#     4  11  21  36  61  83 111 156 195 230 283 347
#     4   9  18  35  57  80 110 147 182 226 279 332
#     4  11  22  38  58  84 120 151 185 240 289 329
#     4  10  22  38  58  84 115 144 182 233 283 335
#     4  10  21  37  60  86 112 153 199 234 278 344
#     4   9  17  33  55  83 116 146 188 242 284 324
#
# _framework density 18.980153999999999
#
# number of rings (size 3 to 8) (size 9 to 14) (size 15 to 20)
#    0.000    2.000    2.857    0.857    2.000    2.286 
#    0.000    2.143    0.000    0.857    0.000    0.000 
#    0.000    0.000    0.000    0.000    0.000    0.000 
#
# Total GULP energy -347233.979796 kJ/mol
# GULP energy per Si atom -12401.213564 kJ/mol
# Density = 1.893695 g / cm^3
# Si number density = 18.980154 Si / 1000 Ang^3
#
#
#
# Elastic Constant Matrix: (Units=GPa)
#
#
# Indices 1 2 3 4 5 6 
#
# 1 165.3436 36.4001 79.4951 0.0000 -7.0069 0.0001
# 2 36.4001 35.2542 24.7681 0.0000 -4.5313 0.0010
# 3 79.4951 24.7681 113.9525 -0.0001 -0.8489 0.0000
# 4 0.0000 0.0000 -0.0001 25.2143 0.0000 -4.2760
# 5 -7.0069 -4.5313 -0.8489 0.0000 39.7492 0.0000
# 6 0.0001 0.0010 0.0000 -4.2760 0.0000 30.8751
#
#
#
# Elastic Compliance Matrix: (Units=1/GPa)
#
#
# Indices 1 2 3 4 5 6 
#
# 1 0.010277 -0.006440 -0.005762 0.000000 0.000954 0.000000
# 2 -0.006440 0.038054 -0.003756 0.000000 0.003123 -0.000001
# 3 -0.005762 -0.003756 0.013603 0.000000 -0.001153 0.000000
# 4 0.000000 0.000000 0.000000 0.040614 0.000000 0.005625
# 5 0.000954 0.003123 -0.001153 0.000000 0.025657 0.000000
# 6 0.000000 -0.000001 0.000000 0.005625 0.000000 0.033168
#
#
# Mechanical properties :
#
#
# Convention : Reuss Voigt Hill
#
# Bulk Modulus (GPa) = 33.31232 66.20856 49.76044
# Shear Modulus (GPa) = 24.59489 30.76018 27.67753
#
# Velocity S-wave (km/s) = 3.60366 4.03010 3.82283
# Velocity P-wave (km/s) = 5.90799 7.52425 6.76457
#
# Compressibility (1/GPa) = 0.03001893
#
# Stress axis : x y z
#
# Youngs Moduli (GPa) = 97.30878 26.27825 73.51223
#
# Poissons Ratio (x) = 0.16922 0.42360
# Poissons Ratio (y) = 0.62663 0.27609
# Poissons Ratio (z) = 0.56072 0.09869
#
# Static dielectric constant tensor:
#      x y z
#    x 3.597160 0.000000 -0.033440 
#    y 0.000000 3.180640 0.000000 
#    z -0.033440 0.000000 3.685940 
# 
# 
# High freq. dielectric constant tensor:
#      x y z
#    x 1.748110 0.000000 -0.004850 
#    y 0.000000 1.705080 0.000000 
#    z -0.004850 0.000000 1.750700 
# 
# From -- ./inp_files/280900.got.cif
#   From: 2010.06.25/outbox.cif.g09.slc.cpg/sg12_141_cif.got.tgz:280900.got - 2010.06.28 00:19:55.
