data_PCOD8107801
_publ_section_title
;
Structure prediction by ZEFSAII (Michael W. Deem and Ramdas Pophale) SiO2 
 PCOD8107801
Probable space group: C 2/M
;
_chemical_formula_sum "Si O2"
_cell_formula_units_Z 40
_cell_length_a 15.644794
_cell_length_b 25.182402
_cell_length_c 5.042623
_cell_angle_alpha 90.000000
_cell_angle_beta 91.644752
_cell_angle_gamma 90.000000
_cell_volume 1985.841290
_symmetry_space_group_name_H-M "C 2/M"
_symmetry_group_IT_number 12
_symmetry_cell_setting 'monoclinic'
loop_
_space_group_symop_operation_xyz
x,y,z
-x,y,-z
-x,-y,-z
x,-y,z
1/2+x,1/2+y,z
1/2-x,1/2+y,-z
1/2-x,1/2-y,-z
1/2+x,1/2-y,z
loop_
_atom_site_type_symbol
_atom_site_label
_atom_site_fract_x
_atom_site_fract_y
_atom_site_fract_z
Si Si1 0.097089 0.610858 0.943133
Si Si2 0.673295 0.061093 0.442794
Si Si3 0.095133 0.818504 0.101083
Si Si4 0.805792 0.852907 0.403893
Si Si5 0.318037 0.785274 0.857160
O O1 0.109935 0.587436 0.652022
O O2 0.128839 0.566834 0.154243
O O3 0.151518 0.664777 0.967128
O O4 0.000000 0.624969 0.000000
O O5 0.766437 0.088745 0.441089
O O6 0.688470 0.000000 0.513186
O O7 0.118791 0.847181 0.377746
O O8 0.103336 0.755584 0.175880
O O9 0.157986 0.843122 0.887404
O O10 0.000000 0.831269 0.000000
O O11 0.727032 0.809290 0.416000
O O12 0.250000 0.750000 0.000000
#
# Coordination Sequence:
#
# PCOD8107801 Si02
#       5
#     8   8   8   8   8
#     4  11  23  37  56  86 118 144 182 234 279 323
#     4  11  23  40  61  80 106 150 192 229 278 333
#     4  11  21  35  58  86 116 147 181 226 279 330
#     4  10  21  38  57  81 112 147 190 230 268 328
#     4   9  19  36  57  82 115 153 187 218 266 331
#
# _framework density 20.142598
#
# number of rings (size 3 to 8) (size 9 to 14) (size 15 to 20)
#    0.000    1.600    0.000    6.600    0.000    7.200 
#    0.000    8.000    0.000    3.600    0.000    0.000 
#    0.000    0.000    0.000    0.000    0.000    0.000 
#
# Total GULP energy -247849.794026 kJ/mol
# GULP energy per Si atom -12392.489701 kJ/mol
# Density = 2.009675 g / cm^3
# Si number density = 20.142598 Si / 1000 Ang^3
#
#
#
# Elastic Constant Matrix: (Units=GPa)
#
#
# Indices 1 2 3 4 5 6 
#
# 1 95.0373 54.6054 24.0697 0.0000 13.9119 0.0000
# 2 54.6054 120.8250 16.9923 0.0000 0.2818 0.0000
# 3 24.0697 16.9923 83.1193 0.0000 8.7021 0.0000
# 4 0.0000 0.0000 0.0000 20.8749 0.0000 -1.8320
# 5 13.9119 0.2818 8.7021 0.0000 37.6099 0.0000
# 6 0.0000 0.0000 0.0000 -1.8320 0.0000 14.2797
#
#
#
# Elastic Compliance Matrix: (Units=1/GPa)
#
#
# Indices 1 2 3 4 5 6 
#
# 1 0.015851 -0.006777 -0.002660 0.000000 -0.005197 0.000000
# 2 -0.006777 0.011424 -0.000642 0.000000 0.002570 0.000000
# 3 -0.002660 -0.000642 0.013147 0.000000 -0.002053 0.000000
# 4 0.000000 0.000000 0.000000 0.048450 0.000000 0.006216
# 5 -0.005197 0.002570 -0.002053 0.000000 0.028967 0.000000
# 6 0.000000 0.000000 0.000000 0.006216 0.000000 0.070827
#
#
# Mechanical properties :
#
#
# Convention : Reuss Voigt Hill
#
# Bulk Modulus (GPa) = 49.35192 54.47961 51.91577
# Shear Modulus (GPa) = 23.19337 28.10719 25.65028
#
# Velocity S-wave (km/s) = 3.39700 3.73957 3.57239
# Velocity P-wave (km/s) = 6.31986 6.76399 6.54569
#
# Compressibility (1/GPa) = 0.02026264
#
# Stress axis : x y z
#
# Youngs Moduli (GPa) = 63.08858 87.53807 76.06016
#
# Poissons Ratio (x) = 0.59327 0.20236
# Poissons Ratio (y) = 0.42757 0.04882
# Poissons Ratio (z) = 0.16785 0.05619
#
# Static dielectric constant tensor:
#      x y z
#    x 3.742800 0.000000 0.108000 
#    y 0.000000 3.796520 0.000000 
#    z 0.108000 0.000000 3.681270 
# 
# 
# High freq. dielectric constant tensor:
#      x y z
#    x 1.778260 0.000000 0.009300 
#    y 0.000000 1.774030 0.000000 
#    z 0.009300 0.000000 1.794020 
# 
# From -- ./inp_files/11378.got.cif
#   From: 2010.06.25/outbox.cif.g09.slc.cpg/sg12_6_cif.got.tgz:11378.got - 2010.06.28 00:19:55.
