data_PCOD8107612
_publ_section_title
;
Structure prediction by ZEFSAII (Michael W. Deem and Ramdas Pophale) SiO2 
 PCOD8107612
Probable space group: C 2/M
;
_chemical_formula_sum "Si O2"
_cell_formula_units_Z 40
_cell_length_a 14.700145
_cell_length_b 18.425466
_cell_length_c 10.124420
_cell_angle_alpha 90.000000
_cell_angle_beta 38.373136
_cell_angle_gamma 90.000000
_cell_volume 1702.347253
_symmetry_space_group_name_H-M "C 2/M"
_symmetry_group_IT_number 12
_symmetry_cell_setting 'monoclinic'
loop_
_space_group_symop_operation_xyz
x,y,z
-x,y,-z
-x,-y,-z
x,-y,z
1/2+x,1/2+y,z
1/2-x,1/2+y,-z
1/2-x,1/2-y,-z
1/2+x,1/2-y,z
loop_
_atom_site_type_symbol
_atom_site_label
_atom_site_fract_x
_atom_site_fract_y
_atom_site_fract_z
Si Si1 0.331122 0.216518 0.677836
Si Si2 0.494781 0.580364 0.359135
Si Si3 0.186983 0.419167 0.122390
Si Si4 0.903262 0.183137 0.243730
Si Si5 0.423368 0.815233 0.951265
O O1 0.500000 0.238612 0.500000
O O2 0.307546 0.135917 0.762965
O O3 0.262332 0.205760 0.609374
O O4 0.241373 0.282079 0.849050
O O5 0.500000 0.616155 0.500000
O O6 0.424811 0.500000 0.451504
O O7 0.393358 0.622918 0.369260
O O8 0.655162 0.574884 0.119734
O O9 0.133346 0.500000 0.226425
O O10 0.075983 0.386245 0.140127
O O11 0.981779 0.251569 0.224838
O O12 0.000000 0.163333 0.000000
O O13 0.500000 0.837883 0.000000
#
# Coordination Sequence:
#
# PCOD8107612 Si02
#       5
#     8   8   8   8   8
#     4  10  21  39  66  98 122 160 214 269 316 364
#     4  10  21  37  61  94 129 169 213 259 315 379
#     4  11  22  39  63  90 129 171 205 257 321 380
#     4   9  18  39  66  92 121 163 217 265 309 367
#     4   9  20  41  63  90 121 164 214 261 310 370
#
# _framework density 23.496967999999999
#
# number of rings (size 3 to 8) (size 9 to 14) (size 15 to 20)
#    0.000    2.600    4.000    0.600    0.000    2.800 
#    3.600    2.000    0.000    0.000    0.000    0.000 
#    0.000    0.000    0.000    0.000    0.000    0.000 
#
# Total GULP energy -247771.571029 kJ/mol
# GULP energy per Si atom -12388.578551 kJ/mol
# Density = 2.344349 g / cm^3
# Si number density = 23.496968 Si / 1000 Ang^3
#
#
#
# Elastic Constant Matrix: (Units=GPa)
#
#
# Indices 1 2 3 4 5 6 
#
# 1 122.3534 21.0247 29.8787 -0.0029 -30.1159 0.0000
# 2 21.0247 94.7685 5.6419 -0.0033 -10.6283 0.0001
# 3 29.8787 5.6419 69.1561 -0.0026 -25.5955 0.0003
# 4 -0.0029 -0.0033 -0.0026 13.4434 0.0018 18.3992
# 5 -30.1159 -10.6283 -25.5955 0.0018 33.2721 -0.0002
# 6 0.0000 0.0001 0.0003 18.3992 -0.0002 41.8208
#
#
#
# Elastic Compliance Matrix: (Units=1/GPa)
#
#
# Indices 1 2 3 4 5 6 
#
# 1 0.010791 -0.001389 -0.001535 0.000001 0.008142 -0.000001
# 2 -0.001389 0.011139 0.000759 0.000005 0.002884 -0.000002
# 3 -0.001535 0.000759 0.020463 0.000005 0.014595 -0.000002
# 4 0.000001 0.000005 0.000005 0.186964 -0.000004 -0.082255
# 5 0.008142 0.002884 0.014595 -0.000004 0.049574 0.000002
# 6 -0.000001 -0.000002 -0.000002 -0.082255 0.000002 0.060100
#
#
# Mechanical properties :
#
#
# Convention : Reuss Voigt Hill
#
# Bulk Modulus (GPa) = 26.27320 44.37430 35.32375
# Shear Modulus (GPa) = 14.04302 33.02277 23.53290
#
# Velocity S-wave (km/s) = 2.44735 3.75294 3.16813
# Velocity P-wave (km/s) = 4.38084 6.14048 5.33373
#
# Compressibility (1/GPa) = 0.03806160
#
# Stress axis : x y z
#
# Youngs Moduli (GPa) = 92.67106 89.77808 48.86848
#
# Poissons Ratio (x) = 0.12474 0.07502
# Poissons Ratio (y) = 0.12876 -0.03710
# Poissons Ratio (z) = 0.14227 -0.06816
#
# Static dielectric constant tensor:
#      x y z
#    x 4.309300 0.000000 -0.043300 
#    y 0.000000 4.747420 -0.000010 
#    z -0.043300 -0.000010 4.082080 
# 
# 
# High freq. dielectric constant tensor:
#      x y z
#    x 1.941240 0.000000 0.000390 
#    y 0.000000 1.920860 0.000000 
#    z 0.000390 0.000000 1.913310 
# 
# From -- ./inp_files/146859.got.cif
#   From: 2010.06.25/outbox.cif.g09.slc.cpg/sg12_74_cif.got.tgz:146859.got - 2010.06.28 00:19:55.
