data_PCOD8107730
_publ_section_title
;
Structure prediction by ZEFSAII (Michael W. Deem and Ramdas Pophale) SiO2 
 PCOD8107730
Probable space group: C 2/M
;
_chemical_formula_sum "Si O2"
_cell_formula_units_Z 64
_cell_length_a 14.130896
_cell_length_b 33.296197
_cell_length_c 8.816389
_cell_angle_alpha 90.000000
_cell_angle_beta 132.360544
_cell_angle_gamma 90.000000
_cell_volume 3065.153392
_symmetry_space_group_name_H-M "C 2/M"
_symmetry_group_IT_number 12
_symmetry_cell_setting 'monoclinic'
loop_
_space_group_symop_operation_xyz
x,y,z
-x,y,-z
-x,-y,-z
x,-y,z
1/2+x,1/2+y,z
1/2-x,1/2+y,-z
1/2-x,1/2-y,-z
1/2+x,1/2-y,z
loop_
_atom_site_type_symbol
_atom_site_label
_atom_site_fract_x
_atom_site_fract_y
_atom_site_fract_z
Si Si1 0.555844 0.614193 0.720199
Si Si2 0.384204 0.900891 0.774308
Si Si3 0.223652 0.646995 0.842034
Si Si4 0.439582 0.930814 0.285464
Si Si5 0.368359 0.234743 0.216202
Si Si6 0.126577 0.767276 0.447329
Si Si7 0.174038 0.853950 0.383478
Si Si8 0.267522 0.454945 0.154981
O O1 0.500000 0.631170 0.500000
O O2 0.438429 0.613261 0.712791
O O3 0.603403 0.568302 0.753002
O O4 0.674392 0.641415 0.910086
O O5 0.442685 0.926852 0.702459
O O6 0.300494 0.864694 0.616533
O O7 0.297620 0.930703 0.779019
O O8 0.500000 0.882149 0.000000
O O9 0.119106 0.612134 0.731888
O O10 0.141633 0.687347 0.768106
O O11 0.298920 0.648179 0.764930
O O12 0.500000 0.951559 0.500000
O O13 0.328900 0.957935 0.092323
O O14 0.496885 0.243866 0.257777
O O15 0.364656 0.260855 0.364395
O O16 0.250000 0.250000 0.000000
O O17 0.250000 0.750000 0.500000
O O18 0.114175 0.813316 0.385777
O O19 0.302738 0.500000 0.244423
#
# Coordination Sequence:
#
# PCOD8107730 Si02
#       8
#     8   8   8   8   8   8   8   8
#     4  11  24  42  69  99 125 168 224 268 335 392
#     4  10  22  38  65 101 129 172 221 263 330 387
#     4  11  24  42  69  90 127 175 218 278 328 396
#     4  10  21  37  67  99 128 168 219 265 325 388
#     4  11  26  43  64  92 130 175 226 275 338 400
#     4  11  26  43  63  98 134 173 224 278 342 392
#     4  12  23  43  68  93 136 172 221 279 329 404
#     4  10  23  44  66  97 137 171 215 267 331 405
#
# _framework density 20.879868999999999
#
# number of rings (size 3 to 8) (size 9 to 14) (size 15 to 20)
#    0.000    1.250    3.750    1.125    7.000    3.250 
#    0.000    0.000    0.000    6.000    0.000    0.000 
#    0.000    0.000    0.000    0.000    0.000    0.000 
#
# Total GULP energy -396747.341157 kJ/mol
# GULP energy per Si atom -12398.354411 kJ/mol
# Density = 2.083235 g / cm^3
# Si number density = 20.879869 Si / 1000 Ang^3
#
#
#
# Elastic Constant Matrix: (Units=GPa)
#
#
# Indices 1 2 3 4 5 6 
#
# 1 123.9697 53.5579 34.8175 0.0000 20.5583 0.0000
# 2 53.5579 107.5670 29.4790 0.0000 2.0983 0.0000
# 3 34.8175 29.4790 126.1918 0.0000 5.2024 0.0000
# 4 0.0000 0.0000 0.0000 18.3852 0.0000 1.0511
# 5 20.5583 2.0983 5.2024 0.0000 35.0966 0.0000
# 6 0.0000 0.0000 0.0000 1.0511 0.0000 17.2980
#
#
#
# Elastic Compliance Matrix: (Units=1/GPa)
#
#
# Indices 1 2 3 4 5 6 
#
# 1 0.011931 -0.005327 -0.001783 0.000000 -0.006406 0.000000
# 2 -0.005327 0.012313 -0.001514 0.000000 0.002609 0.000000
# 3 -0.001783 -0.001514 0.008777 0.000000 -0.000166 0.000000
# 4 0.000000 0.000000 0.000000 0.054581 0.000000 -0.003316
# 5 -0.006406 0.002609 -0.000166 0.000000 0.032114 0.000000
# 6 0.000000 0.000000 0.000000 -0.003316 0.000000 0.058012
#
#
# Mechanical properties :
#
#
# Convention : Reuss Voigt Hill
#
# Bulk Modulus (GPa) = 63.40287 65.93747 64.67017
# Shear Modulus (GPa) = 24.97086 30.14758 27.55922
#
# Velocity S-wave (km/s) = 3.46197 3.80394 3.63698
# Velocity P-wave (km/s) = 6.81262 7.13731 6.97686
#
# Compressibility (1/GPa) = 0.01577216
#
# Stress axis : x y z
#
# Youngs Moduli (GPa) = 83.81555 81.21617 113.93336
#
# Poissons Ratio (x) = 0.43262 0.20319
# Poissons Ratio (y) = 0.44646 0.17251
# Poissons Ratio (z) = 0.14948 0.12298
#
# Static dielectric constant tensor:
#      x y z
#    x 4.398570 0.000000 0.337470 
#    y 0.000000 4.057590 0.000000 
#    z 0.337470 0.000000 4.235870 
# 
# 
# High freq. dielectric constant tensor:
#      x y z
#    x 1.831190 0.000000 0.007910 
#    y 0.000000 1.794960 0.000000 
#    z 0.007910 0.000000 1.830720 
# 
# From -- ./inp_files/68640.got.cif
#   From: 2010.06.25/outbox.cif.g09.slc.cpg/sg12_35_cif.got.tgz:68640.got - 2010.06.28 00:19:55.
