data_PCOD8107329
_publ_section_title
;
Structure prediction by ZEFSAII (Michael W. Deem and Ramdas Pophale) SiO2 
 PCOD8107329
Probable space group: C 2/M
;
_chemical_formula_sum "Si O2"
_cell_formula_units_Z 48
_cell_length_a 14.879767
_cell_length_b 8.964464
_cell_length_c 18.848953
_cell_angle_alpha 90.000000
_cell_angle_beta 90.355983
_cell_angle_gamma 90.000000
_cell_volume 2514.197020
_symmetry_space_group_name_H-M "C 2/M"
_symmetry_group_IT_number 12
_symmetry_cell_setting 'monoclinic'
loop_
_space_group_symop_operation_xyz
x,y,z
-x,y,-z
-x,-y,-z
x,-y,z
1/2+x,1/2+y,z
1/2-x,1/2+y,-z
1/2-x,1/2-y,-z
1/2+x,1/2-y,z
loop_
_atom_site_type_symbol
_atom_site_label
_atom_site_fract_x
_atom_site_fract_y
_atom_site_fract_z
Si Si1 0.574620 0.326587 0.329061
Si Si2 0.391402 0.823069 0.318194
Si Si3 0.258746 0.672948 0.574877
Si Si4 0.365128 0.828333 0.811078
Si Si5 0.020980 0.674291 0.920602
Si Si6 0.160205 0.173048 0.827825
O O1 0.550127 0.500000 0.322550
O O2 0.486692 0.232561 0.347811
O O3 0.643025 0.296158 0.393402
O O4 0.619583 0.276300 0.256052
O O5 0.315092 0.762494 0.370903
O O6 0.376048 0.759351 0.240409
O O7 0.390723 0.000000 0.312535
O O8 0.240419 0.500000 0.563282
O O9 0.250000 0.750000 0.500000
O O10 0.434932 0.784962 0.872521
O O11 0.265683 0.798947 0.840636
O O12 0.377434 0.000000 0.787390
O O13 0.043895 0.500000 0.917066
O O14 0.108186 0.765020 0.895855
O O15 0.000000 0.725845 0.000000
O O16 0.138358 0.000000 0.817140
#
# Coordination Sequence:
#
# PCOD8107329 Si02
#       6
#     8   8   8   8   8   8
#     4  11  22  38  61  91 119 153 200 247 292 348
#     4  11  22  39  61  88 119 156 198 243 298 357
#     4  10  24  42  61  87 123 158 196 242 298 353
#     4  10  21  37  59  87 119 157 198 242 295 353
#     4  10  22  40  60  85 121 162 200 244 300 355
#     4  11  22  36  59  90 118 153 202 249 293 349
#
# _framework density 19.091581999999999
#
# number of rings (size 3 to 8) (size 9 to 14) (size 15 to 20)
#    0.000    1.500    3.333    1.500    0.000    5.000 
#    0.000    3.333    0.000    0.000    0.000    0.000 
#    0.000    0.000    0.000    0.000    0.000    0.000 
#
# Total GULP energy -297730.294316 kJ/mol
# GULP energy per Si atom -12405.428930 kJ/mol
# Density = 1.904813 g / cm^3
# Si number density = 19.091582 Si / 1000 Ang^3
#
#
#
# Elastic Constant Matrix: (Units=GPa)
#
#
# Indices 1 2 3 4 5 6 
#
# 1 91.9236 28.9062 12.0399 0.0000 -11.3183 0.0000
# 2 28.9062 65.1396 28.7647 0.0000 -4.0724 0.0000
# 3 12.0399 28.7647 88.3397 0.0000 -4.1002 0.0000
# 4 0.0000 0.0000 0.0000 31.8732 0.0000 -4.9493
# 5 -11.3183 -4.0724 -4.1002 0.0000 30.0240 0.0000
# 6 0.0000 0.0000 0.0000 -4.9493 0.0000 32.5458
#
#
#
# Elastic Compliance Matrix: (Units=1/GPa)
#
#
# Indices 1 2 3 4 5 6 
#
# 1 0.013153 -0.005685 0.000254 0.000000 0.004222 0.000000
# 2 -0.005685 0.020468 -0.005898 0.000000 -0.000172 0.000000
# 3 0.000254 -0.005898 0.013257 0.000000 0.001106 0.000000
# 4 0.000000 0.000000 0.000000 0.032133 0.000000 0.004887
# 5 0.004222 -0.000172 0.001106 0.000000 0.035026 0.000000
# 6 0.000000 0.000000 0.000000 0.004887 0.000000 0.031469
#
#
# Mechanical properties :
#
#
# Convention : Reuss Voigt Hill
#
# Bulk Modulus (GPa) = 41.28650 42.75826 42.02238
# Shear Modulus (GPa) = 28.37093 30.60140 29.48617
#
# Velocity S-wave (km/s) = 3.85911 4.00793 3.93422
# Velocity P-wave (km/s) = 6.44433 6.62292 6.53423
#
# Compressibility (1/GPa) = 0.02422099
#
# Stress axis : x y z
#
# Youngs Moduli (GPa) = 76.02923 48.85651 75.43160
#
# Poissons Ratio (x) = 0.27775 -0.01920
# Poissons Ratio (y) = 0.43223 0.44489
# Poissons Ratio (z) = -0.01935 0.28815
#
# Static dielectric constant tensor:
#      x y z
#    x 3.892000 0.000000 -0.069410 
#    y 0.000000 3.504830 0.000000 
#    z -0.069410 0.000000 3.430880 
# 
# 
# High freq. dielectric constant tensor:
#      x y z
#    x 1.760090 0.000000 -0.001310 
#    y 0.000000 1.744710 0.000000 
#    z -0.001310 0.000000 1.736500 
# 
# From -- ./inp_files/267603.got.cif
#   From: 2010.06.25/outbox.cif.g09.slc.cpg/sg12_134_cif.got.tgz:267603.got - 2010.06.28 00:19:55.
