data_PCOD8107153
_publ_section_title
;
Structure prediction by ZEFSAII (Michael W. Deem and Ramdas Pophale) SiO2 
 PCOD8107153
Probable space group: C 2/M
;
_chemical_formula_sum "Si O2"
_cell_formula_units_Z 56
_cell_length_a 22.454817
_cell_length_b 9.536798
_cell_length_c 11.364656
_cell_angle_alpha 90.000000
_cell_angle_beta 70.344564
_cell_angle_gamma 90.000000
_cell_volume 2291.901418
_symmetry_space_group_name_H-M "C 2/M"
_symmetry_group_IT_number 12
_symmetry_cell_setting 'monoclinic'
loop_
_space_group_symop_operation_xyz
x,y,z
-x,y,-z
-x,-y,-z
x,-y,z
1/2+x,1/2+y,z
1/2-x,1/2+y,-z
1/2-x,1/2-y,-z
1/2+x,1/2-y,z
loop_
_atom_site_type_symbol
_atom_site_label
_atom_site_fract_x
_atom_site_fract_y
_atom_site_fract_z
Si Si1 0.540558 0.845928 0.092800
Si Si2 0.953565 0.836597 0.302049
Si Si3 0.797353 0.149627 0.534645
Si Si4 0.075253 0.839804 0.433548
Si Si5 0.617374 0.161129 0.818872
Si Si6 0.753287 0.344129 0.171845
Si Si7 0.143904 0.344396 0.199853
O O1 0.510109 0.717486 0.182960
O O2 0.612033 0.855723 0.093743
O O3 0.508204 0.000000 0.138844
O O4 0.552487 0.822703 0.942197
O O5 0.979728 0.812387 0.424766
O O6 0.892080 0.748525 0.295000
O O7 0.942798 0.000000 0.285417
O O8 0.750000 0.250000 0.500000
O O9 0.873173 0.176627 0.489823
O O10 0.782201 0.145981 0.681487
O O11 0.784771 0.000000 0.482736
O O12 0.094221 0.727971 0.323147
O O13 0.075461 0.000000 0.384087
O O14 0.677122 0.220237 0.851675
O O15 0.632244 0.000000 0.776270
O O16 0.755896 0.500000 0.111375
O O17 0.709172 0.237705 0.127615
O O18 0.159025 0.500000 0.239779
#
# Coordination Sequence:
#
# PCOD8107153 Si02
#       7
#     8   8   8   8   8   8   8
#     4  10  23  41  58  80 114 153 191 233 280 332
#     4  11  23  38  59  87 114 144 189 240 284 329
#     4   9  16  27  45  71 103 136 171 214 265 322
#     4   9  20  37  54  77 112 147 180 227 285 338
#     4  10  21  39  61  83 113 153 189 226 281 341
#     4   9  19  35  55  80 111 147 184 225 279 337
#     4  10  21  37  58  85 114 147 190 233 275 331
#
# _framework density 24.433859999999999
#
# number of rings (size 3 to 8) (size 9 to 14) (size 15 to 20)
#    0.000    2.286    0.000    3.000    0.000    8.571 
#    0.000    2.857    0.000    0.000    0.000    0.000 
#    0.000    0.000    0.000    0.000    0.000    0.000 
#
# Total GULP energy -346911.262815 kJ/mol
# GULP energy per Si atom -12389.687958 kJ/mol
# Density = 2.437825 g / cm^3
# Si number density = 24.433860 Si / 1000 Ang^3
#
#
#
# Elastic Constant Matrix: (Units=GPa)
#
#
# Indices 1 2 3 4 5 6 
#
# 1 84.7083 33.4803 -0.0503 0.0000 8.4822 0.0000
# 2 33.4803 127.4386 35.0201 0.0000 11.4643 0.0000
# 3 -0.0503 35.0201 75.8228 0.0000 6.8658 0.0000
# 4 0.0000 0.0000 0.0000 25.6580 0.0000 -2.3315
# 5 8.4822 11.4643 6.8658 0.0000 35.3661 0.0000
# 6 0.0000 0.0000 0.0000 -2.3315 0.0000 41.4365
#
#
#
# Elastic Compliance Matrix: (Units=1/GPa)
#
#
# Indices 1 2 3 4 5 6 
#
# 1 0.013593 -0.003915 0.002033 0.000000 -0.002386 0.000000
# 2 -0.003915 0.010278 -0.004614 0.000000 -0.001497 0.000000
# 3 0.002033 -0.004614 0.015502 0.000000 -0.002001 0.000000
# 4 0.000000 0.000000 0.000000 0.039175 0.000000 0.002204
# 5 -0.002386 -0.001497 -0.002001 0.000000 0.029722 0.000000
# 6 0.000000 0.000000 0.000000 0.002204 0.000000 0.024257
#
#
# Mechanical properties :
#
#
# Convention : Reuss Voigt Hill
#
# Bulk Modulus (GPa) = 37.90579 47.20779 42.55679
# Shear Modulus (GPa) = 32.40174 35.12675 33.76425
#
# Velocity S-wave (km/s) = 3.64552 3.79572 3.72137
# Velocity P-wave (km/s) = 5.76776 6.21068 5.99331
#
# Compressibility (1/GPa) = 0.02638119
#
# Stress axis : x y z
#
# Youngs Moduli (GPa) = 73.56855 97.29371 64.50623
#
# Poissons Ratio (x) = 0.38092 -0.13116
# Poissons Ratio (y) = 0.28804 0.29764
# Poissons Ratio (z) = -0.14959 0.44893
#
# Static dielectric constant tensor:
#      x y z
#    x 6.087100 0.000000 0.043520 
#    y 0.000000 4.045200 0.000000 
#    z 0.043520 0.000000 4.609570 
# 
# 
# High freq. dielectric constant tensor:
#      x y z
#    x 2.029540 0.000000 -0.007250 
#    y 0.000000 1.946610 0.000000 
#    z -0.007250 0.000000 1.981740 
# 
# From -- ./inp_files/243681.got.cif
#   From: 2010.06.25/outbox.cif.g09.slc.cpg/sg12_122_cif.got.tgz:243681.got - 2010.06.28 00:19:55.
