data_PCOD8107985
_publ_section_title
;
Structure prediction by ZEFSAII (Michael W. Deem and Ramdas Pophale) SiO2 
 PCOD8107985
Probable space group: C 2/M
;
_chemical_formula_sum "Si O2"
_cell_formula_units_Z 56
_cell_length_a 10.032135
_cell_length_b 8.987114
_cell_length_c 31.797828
_cell_angle_alpha 90.000000
_cell_angle_beta 75.849587
_cell_angle_gamma 90.000000
_cell_volume 2779.901072
_symmetry_space_group_name_H-M "C 2/M"
_symmetry_group_IT_number 12
_symmetry_cell_setting 'monoclinic'
loop_
_space_group_symop_operation_xyz
x,y,z
-x,y,-z
-x,-y,-z
x,-y,z
1/2+x,1/2+y,z
1/2-x,1/2+y,-z
1/2-x,1/2-y,-z
1/2+x,1/2-y,z
loop_
_atom_site_type_symbol
_atom_site_label
_atom_site_fract_x
_atom_site_fract_y
_atom_site_fract_z
Si Si1 0.587692 0.173277 0.189127
Si Si2 0.111542 0.324615 0.524445
Si Si3 0.786777 0.828105 0.327097
Si Si4 0.980403 0.671981 0.376556
Si Si5 0.999091 0.672105 0.951774
Si Si6 0.191971 0.827260 0.097720
Si Si7 0.217483 0.326734 0.761511
O O1 0.642209 0.237273 0.141600
O O2 0.659524 0.248906 0.223258
O O3 0.425269 0.203423 0.203562
O O4 0.621904 0.000000 0.188317
O O5 0.129057 0.500000 0.521201
O O6 0.250000 0.250000 0.500000
O O7 0.068534 0.272125 0.574176
O O8 0.000000 0.267720 0.500000
O O9 0.909248 0.771974 0.346960
O O10 0.643518 0.803972 0.362088
O O11 0.789540 0.735523 0.284495
O O12 0.812028 0.000000 0.314274
O O13 0.941557 0.500000 0.371672
O O14 0.956125 0.500000 0.950847
O O15 0.146744 0.701213 0.919882
O O16 0.886266 0.772030 0.937577
O O17 0.000000 0.722185 0.000000
O O18 0.159775 0.000000 0.107186
O O19 0.250923 0.500000 0.756587
#
# Coordination Sequence:
#
# PCOD8107985 Si02
#       7
#     8   8   8   8   8   8   8
#     4  11  24  41  61  86 118 155 193 236 288 343
#     4  10  21  38  59  84 116 152 191 237 286 338
#     4  11  23  39  61  87 115 151 193 235 285 343
#     4  10  22  39  58  84 118 152 189 236 287 339
#     4  10  22  40  60  85 119 155 192 238 290 343
#     4  11  23  38  60  89 117 151 196 240 286 342
#     4  11  24  41  61  87 118 151 191 238 287 341
#
# _framework density 20.144600000000001
#
# number of rings (size 3 to 8) (size 9 to 14) (size 15 to 20)
#    0.000    1.429    0.000    4.714    0.000   13.714 
#    0.000    0.000    0.000    0.000    0.000    0.000 
#    0.000    0.000    0.000    0.000    0.000    0.000 
#
# Total GULP energy -347395.483172 kJ/mol
# GULP energy per Si atom -12406.981542 kJ/mol
# Density = 2.009875 g / cm^3
# Si number density = 20.144600 Si / 1000 Ang^3
#
#
#
# Elastic Constant Matrix: (Units=GPa)
#
#
# Indices 1 2 3 4 5 6 
#
# 1 63.5350 36.0451 -1.2824 0.0000 14.4358 0.0000
# 2 36.0451 82.0172 26.5449 0.0000 -0.4945 0.0000
# 3 -1.2824 26.5449 96.5559 0.0000 3.8000 0.0000
# 4 0.0000 0.0000 0.0000 60.6895 0.0000 21.1058
# 5 14.4358 -0.4945 3.8000 0.0000 38.0314 0.0000
# 6 0.0000 0.0000 0.0000 21.1058 0.0000 50.4293
#
#
#
# Elastic Compliance Matrix: (Units=1/GPa)
#
#
# Indices 1 2 3 4 5 6 
#
# 1 0.025218 -0.012493 0.004169 0.000000 -0.010151 0.000000
# 2 -0.012493 0.019584 -0.005769 0.000000 0.005573 0.000000
# 3 0.004169 -0.005769 0.012111 0.000000 -0.002868 0.000000
# 4 0.000000 0.000000 0.000000 0.019284 0.000000 -0.008071
# 5 -0.010151 0.005573 -0.002868 0.000000 0.030506 0.000000
# 6 0.000000 0.000000 0.000000 -0.008071 0.000000 0.023208
#
#
# Mechanical properties :
#
#
# Convention : Reuss Voigt Hill
#
# Bulk Modulus (GPa) = 34.81198 40.52480 37.66839
# Shear Modulus (GPa) = 29.82002 41.88340 35.85171
#
# Velocity S-wave (km/s) = 3.85164 4.56470 4.22325
# Velocity P-wave (km/s) = 6.09087 6.92406 6.52079
#
# Compressibility (1/GPa) = 0.02872574
#
# Stress axis : x y z
#
# Youngs Moduli (GPa) = 39.65468 51.06221 82.56967
#
# Poissons Ratio (x) = 0.63793 -0.34424
# Poissons Ratio (y) = 0.49542 0.47636
# Poissons Ratio (z) = -0.16532 0.29459
#
# Static dielectric constant tensor:
#      x y z
#    x 3.850170 0.000000 0.063850 
#    y 0.000000 3.776980 0.000000 
#    z 0.063850 0.000000 3.951410 
# 
# 
# High freq. dielectric constant tensor:
#      x y z
#    x 1.799560 0.000000 -0.000620 
#    y 0.000000 1.790920 0.000000 
#    z -0.000620 0.000000 1.804720 
# 
# From -- ./inp_files/357494.got.cif
#   From: 2010.06.25/outbox.cif.g09.slc.cpg/sg12_179_cif.got.tgz:357494.got - 2010.06.28 00:19:55.
