data_PCOD8107403
_publ_section_title
;
Structure prediction by ZEFSAII (Michael W. Deem and Ramdas Pophale) SiO2 
 PCOD8107403
Probable space group: C 2/M
;
_chemical_formula_sum "Si O2"
_cell_formula_units_Z 64
_cell_length_a 17.577429
_cell_length_b 14.566356
_cell_length_c 23.471873
_cell_angle_alpha 90.000000
_cell_angle_beta 148.610737
_cell_angle_gamma 90.000000
_cell_volume 3130.159102
_symmetry_space_group_name_H-M "C 2/M"
_symmetry_group_IT_number 12
_symmetry_cell_setting 'monoclinic'
loop_
_space_group_symop_operation_xyz
x,y,z
-x,y,-z
-x,-y,-z
x,-y,z
1/2+x,1/2+y,z
1/2-x,1/2+y,-z
1/2-x,1/2-y,-z
1/2+x,1/2-y,z
loop_
_atom_site_type_symbol
_atom_site_label
_atom_site_fract_x
_atom_site_fract_y
_atom_site_fract_z
Si Si1 0.686294 0.254750 0.718219
Si Si2 0.422187 0.105096 0.694778
Si Si3 0.113359 0.102236 0.118077
Si Si4 0.885783 0.699571 0.559450
Si Si5 0.030608 0.103634 0.851765
Si Si6 0.274952 0.722732 0.648939
Si Si7 0.356561 0.892745 0.068213
Si Si8 0.933056 0.392611 0.896146
O O1 0.748368 0.168383 0.792975
O O2 0.520802 0.268823 0.633612
O O3 0.691512 0.228854 0.655091
O O4 0.775479 0.346338 0.789182
O O5 0.438723 0.120367 0.637104
O O6 0.300292 0.173500 0.642442
O O7 0.575022 0.125378 0.825523
O O8 0.373022 0.000000 0.674596
O O9 0.030878 0.101142 0.124646
O O10 0.166862 0.000000 0.135280
O O11 0.000000 0.141563 0.000000
O O12 0.750000 0.750000 0.500000
O O13 0.828879 0.665208 0.461161
O O14 0.929841 0.169790 0.749456
O O15 0.030929 0.000000 0.826454
O O16 0.193247 0.148413 0.957832
O O17 0.462078 0.851386 0.086353
O O18 0.340760 0.000000 0.046587
O O19 0.907540 0.500000 0.871715
O O20 0.000000 0.368828 0.000000
#
# Coordination Sequence:
#
# PCOD8107403 Si02
#       8
#     8   8   8   8   8   8   8   8
#     4  11  21  38  61  84 118 163 203 251 309 360
#     4  10  21  39  63  90 121 158 203 255 308 362
#     4   9  19  34  52  82 120 155 196 240 289 357
#     4  10  24  41  58  84 116 154 207 261 304 355
#     4   9  19  34  56  86 123 160 193 242 303 359
#     4  10  21  40  60  87 119 163 209 256 298 363
#     4   9  18  35  59  89 123 157 195 242 302 367
#     4  10  21  37  59  91 126 159 199 244 299 371
#
# _framework density 20.446245000000001
#
# number of rings (size 3 to 8) (size 9 to 14) (size 15 to 20)
#    0.000    2.250    1.250    0.750    1.750    3.500 
#    0.000    2.500    0.000    7.500    0.000    0.000 
#    0.000    0.000    0.000    0.000    0.000    0.000 
#
# Total GULP energy -396644.085375 kJ/mol
# GULP energy per Si atom -12395.127668 kJ/mol
# Density = 2.039971 g / cm^3
# Si number density = 20.446245 Si / 1000 Ang^3
#
#
#
# Elastic Constant Matrix: (Units=GPa)
#
#
# Indices 1 2 3 4 5 6 
#
# 1 75.7679 32.1395 74.9979 0.0010 3.4408 0.0023
# 2 32.1395 69.9816 44.8551 -0.0032 -2.3978 -0.0019
# 3 74.9979 44.8551 154.5466 -0.0117 -6.6802 -0.0044
# 4 0.0010 -0.0032 -0.0117 22.9283 -0.0024 -4.1777
# 5 3.4408 -2.3978 -6.6802 -0.0024 48.9158 -0.0007
# 6 0.0023 -0.0019 -0.0044 -4.1777 -0.0007 18.7708
#
#
#
# Elastic Compliance Matrix: (Units=1/GPa)
#
#
# Indices 1 2 3 4 5 6 
#
# 1 0.027365 -0.005014 -0.011989 -0.000010 -0.003808 -0.000009
# 2 -0.005014 0.018475 -0.002892 0.000002 0.000863 0.000002
# 3 -0.011989 -0.002892 0.013236 0.000008 0.002509 0.000006
# 4 -0.000010 0.000002 0.000008 0.045458 0.000004 0.010117
# 5 -0.003808 0.000863 0.002509 0.000004 0.021096 0.000003
# 6 -0.000009 0.000002 0.000006 0.010117 0.000003 0.055526
#
#
# Mechanical properties :
#
#
# Convention : Reuss Voigt Hill
#
# Bulk Modulus (GPa) = 51.84714 67.14232 59.49473
# Shear Modulus (GPa) = 21.99016 28.00990 25.00003
#
# Velocity S-wave (km/s) = 3.28306 3.70527 3.50053
# Velocity P-wave (km/s) = 6.30746 7.15647 6.74534
#
# Compressibility (1/GPa) = 0.01928747
#
# Stress axis : x y z
#
# Youngs Moduli (GPa) = 36.54298 54.12683 75.54944
#
# Poissons Ratio (x) = 0.27137 0.90577
# Poissons Ratio (y) = 0.18321 0.21848
# Poissons Ratio (z) = 0.43812 0.15653
#
# Static dielectric constant tensor:
#      x y z
#    x 3.796980 0.000000 -0.287040 
#    y 0.000000 3.700760 0.000000 
#    z -0.287040 0.000000 4.088620 
# 
# 
# High freq. dielectric constant tensor:
#      x y z
#    x 1.795190 0.000000 -0.012450 
#    y 0.000000 1.782550 0.000000 
#    z -0.012450 0.000000 1.805950 
# 
# From -- ./inp_files/344072.got.cif
#   From: 2010.06.25/outbox.cif.g09.slc.cpg/sg12_173_cif.got.tgz:344072.got - 2010.06.28 00:19:55.
