data_PCOD8107421
_publ_section_title
;
Structure prediction by ZEFSAII (Michael W. Deem and Ramdas Pophale) SiO2 
 PCOD8107421
Probable space group: C 2/M
;
_chemical_formula_sum "Si O2"
_cell_formula_units_Z 48
_cell_length_a 22.734355
_cell_length_b 9.289394
_cell_length_c 19.275080
_cell_angle_alpha 90.000000
_cell_angle_beta 143.774272
_cell_angle_gamma 90.000000
_cell_volume 2405.637299
_symmetry_space_group_name_H-M "C 2/M"
_symmetry_group_IT_number 12
_symmetry_cell_setting 'monoclinic'
loop_
_space_group_symop_operation_xyz
x,y,z
-x,y,-z
-x,-y,-z
x,-y,z
1/2+x,1/2+y,z
1/2-x,1/2+y,-z
1/2-x,1/2-y,-z
1/2+x,1/2-y,z
loop_
_atom_site_type_symbol
_atom_site_label
_atom_site_fract_x
_atom_site_fract_y
_atom_site_fract_z
Si Si1 0.061791 0.162948 0.218340
Si Si2 0.662678 0.663764 0.452300
Si Si3 0.596221 0.164546 0.636113
Si Si4 0.275782 0.834946 0.369864
Si Si5 0.839845 0.165945 0.171880
Si Si6 0.119395 0.665274 0.928792
O O1 0.070823 0.170746 0.311323
O O2 0.162103 0.217340 0.274841
O O3 0.969446 0.264870 0.109884
O O4 0.038115 0.000000 0.172436
O O5 0.694537 0.500000 0.496734
O O6 0.750000 0.750000 0.500000
O O7 0.644680 0.742200 0.508947
O O8 0.500000 0.207410 0.500000
O O9 0.694718 0.182997 0.682191
O O10 0.604388 0.269823 0.708779
O O11 0.587499 0.000000 0.654097
O O12 0.285097 0.000000 0.403564
O O13 0.872286 0.251341 0.135205
O O14 0.872066 0.000000 0.194068
O O15 0.720905 0.179979 0.069062
O O16 0.094112 0.500000 0.888743
#
# Coordination Sequence:
#
# PCOD8107421 Si02
#       6
#     8   8   8   8   8   8
#     4   9  18  32  52  80 111 145 184 228 278 330
#     4   9  17  29  47  74 108 144 181 222 270 320
#     4  10  22  39  59  84 113 149 189 227 273 334
#     4   9  19  35  52  77 114 148 183 227 275 331
#     4  10  22  40  59  83 113 145 185 232 281 333
#     4  10  21  37  60  85 110 144 186 234 282 328
#
# _framework density 19.953133000000001
#
# number of rings (size 3 to 8) (size 9 to 14) (size 15 to 20)
#    0.000    2.500    0.000    2.500    2.333    6.333 
#    0.000    0.833    0.000    5.000    0.000    0.000 
#    0.000    0.000    0.000    0.000    0.000    0.000 
#
# Total GULP energy -297511.292675 kJ/mol
# GULP energy per Si atom -12396.303861 kJ/mol
# Density = 1.990772 g / cm^3
# Si number density = 19.953133 Si / 1000 Ang^3
#
#
#
# Elastic Constant Matrix: (Units=GPa)
#
#
# Indices 1 2 3 4 5 6 
#
# 1 51.4030 25.1122 27.3368 0.0000 9.7277 0.0000
# 2 25.1122 111.0425 46.4141 0.0000 4.0926 0.0000
# 3 27.3368 46.4141 77.9256 0.0000 6.2572 0.0000
# 4 0.0000 0.0000 0.0000 34.9295 0.0000 2.4841
# 5 9.7277 4.0926 6.2572 0.0000 30.8562 0.0000
# 6 0.0000 0.0000 0.0000 2.4841 0.0000 23.4113
#
#
#
# Elastic Compliance Matrix: (Units=1/GPa)
#
#
# Indices 1 2 3 4 5 6 
#
# 1 0.025623 -0.002685 -0.006881 0.000000 -0.006326 0.000000
# 2 -0.002685 0.012273 -0.006410 0.000000 0.000518 0.000000
# 3 -0.006881 -0.006410 0.019134 0.000000 -0.000860 0.000000
# 4 0.000000 0.000000 0.000000 0.028847 0.000000 -0.003061
# 5 -0.006326 0.000518 -0.000860 0.000000 0.034509 0.000000
# 6 0.000000 0.000000 0.000000 -0.003061 0.000000 0.043039
#
#
# Mechanical properties :
#
#
# Convention : Reuss Voigt Hill
#
# Bulk Modulus (GPa) = 39.87723 48.67747 44.27735
# Shear Modulus (GPa) = 24.54172 27.27325 25.90749
#
# Velocity S-wave (km/s) = 3.51090 3.70113 3.60726
# Velocity P-wave (km/s) = 6.03854 6.53554 6.29195
#
# Compressibility (1/GPa) = 0.02507697
#
# Stress axis : x y z
#
# Youngs Moduli (GPa) = 39.02791 81.48084 52.26420
#
# Poissons Ratio (x) = 0.21879 0.35965
# Poissons Ratio (y) = 0.10479 0.33499
# Poissons Ratio (z) = 0.26856 0.52226
#
# Static dielectric constant tensor:
#      x y z
#    x 3.711520 0.000000 0.009500 
#    y 0.000000 3.845960 0.000000 
#    z 0.009500 0.000000 3.738220 
# 
# 
# High freq. dielectric constant tensor:
#      x y z
#    x 1.768280 0.000000 0.018080 
#    y 0.000000 1.782170 0.000000 
#    z 0.018080 0.000000 1.760140 
# 
# From -- ./inp_files/327320.got.cif
#   From: 2010.06.25/outbox.cif.g09.slc.cpg/sg12_164_cif.got.tgz:327320.got - 2010.06.28 00:19:55.
