data_PCOD8107378
_publ_section_title
;
Structure prediction by ZEFSAII (Michael W. Deem and Ramdas Pophale) SiO2 
 PCOD8107378
Probable space group: C 2/M
;
_chemical_formula_sum "Si O2"
_cell_formula_units_Z 56
_cell_length_a 29.901592
_cell_length_b 8.885546
_cell_length_c 11.750433
_cell_angle_alpha 90.000000
_cell_angle_beta 61.077967
_cell_angle_gamma 90.000000
_cell_volume 2732.616083
_symmetry_space_group_name_H-M "C 2/M"
_symmetry_group_IT_number 12
_symmetry_cell_setting 'monoclinic'
loop_
_space_group_symop_operation_xyz
x,y,z
-x,y,-z
-x,-y,-z
x,-y,z
1/2+x,1/2+y,z
1/2-x,1/2+y,-z
1/2-x,1/2-y,-z
1/2+x,1/2-y,z
loop_
_atom_site_type_symbol
_atom_site_label
_atom_site_fract_x
_atom_site_fract_y
_atom_site_fract_z
Si Si1 0.898291 0.831229 0.275052
Si Si2 0.089247 0.827916 0.132707
Si Si3 0.940791 0.825884 0.575720
Si Si4 0.244779 0.822644 0.381223
Si Si5 0.333258 0.331269 0.143503
Si Si6 0.497885 0.166138 0.136380
Si Si7 0.143429 0.324264 0.472455
O O1 0.883745 0.820070 0.160659
O O2 0.956781 0.788597 0.225842
O O3 0.862516 0.714589 0.386701
O O4 0.889594 0.000000 0.332690
O O5 0.087095 0.798972 0.269680
O O6 0.051806 0.711278 0.120284
O O7 0.073372 0.000000 0.124581
O O8 0.146055 0.796301 0.010074
O O9 0.907381 0.732906 0.527799
O O10 0.000000 0.768944 0.500000
O O11 0.939795 0.000000 0.541436
O O12 0.250000 0.750000 0.500000
O O13 0.291612 0.785869 0.239247
O O14 0.195419 0.760687 0.373009
O O15 0.240521 0.000000 0.403532
O O16 0.309986 0.500000 0.178763
O O17 0.483172 0.000000 0.200916
O O18 0.500000 0.161494 0.000000
O O19 0.150418 0.500000 0.443469
#
# Coordination Sequence:
#
# PCOD8107378 Si02
#       7
#     8   8   8   8   8   8   8
#     4  11  21  35  58  85 121 161 203 252 305 369
#     4  10  21  39  62  87 122 166 209 257 312 372
#     4  10  22  42  67  94 125 165 213 259 307 368
#     4  12  24  40  64  93 127 164 206 258 316 376
#     4  10  21  37  59  89 123 161 204 253 310 370
#     4  11  22  33  51  84 125 161 200 249 304 370
#     4  12  25  41  64  92 125 162 208 259 312 373
#
# _framework density 20.493182999999998
#
# number of rings (size 3 to 8) (size 9 to 14) (size 15 to 20)
#    0.000    1.143    2.857    4.286    0.000    3.714 
#    0.000    0.714    0.000    0.000    0.000    0.000 
#    0.000    0.000    0.000    0.000    0.000    0.000 
#
# Total GULP energy -347156.097159 kJ/mol
# GULP energy per Si atom -12398.432041 kJ/mol
# Density = 2.044654 g / cm^3
# Si number density = 20.493183 Si / 1000 Ang^3
#
#
#
# Elastic Constant Matrix: (Units=GPa)
#
#
# Indices 1 2 3 4 5 6 
#
# 1 85.8420 47.1338 27.2132 0.0000 -15.2840 0.0000
# 2 47.1338 125.3591 35.2616 0.0000 -8.7733 0.0000
# 3 27.2132 35.2616 115.6526 0.0000 -12.8581 0.0000
# 4 0.0000 0.0000 0.0000 32.1614 0.0000 1.3681
# 5 -15.2840 -8.7733 -12.8581 0.0000 30.3279 0.0000
# 6 0.0000 0.0000 0.0000 1.3681 0.0000 49.9517
#
#
#
# Elastic Compliance Matrix: (Units=1/GPa)
#
#
# Indices 1 2 3 4 5 6 
#
# 1 0.016038 -0.005183 -0.001534 0.000000 0.005933 0.000000
# 2 -0.005183 0.010463 -0.002020 0.000000 -0.000442 0.000000
# 3 -0.001534 -0.002020 0.009941 0.000000 0.002857 0.000000
# 4 0.000000 0.000000 0.000000 0.031129 0.000000 -0.000853
# 5 0.005933 -0.000442 0.002857 0.000000 0.037047 0.000000
# 6 0.000000 0.000000 0.000000 -0.000853 0.000000 0.020043
#
#
# Mechanical properties :
#
#
# Convention : Reuss Voigt Hill
#
# Bulk Modulus (GPa) = 52.71914 60.67456 56.69685
# Shear Modulus (GPa) = 33.67976 36.97123 35.32549
#
# Velocity S-wave (km/s) = 4.05836 4.25205 4.15633
# Velocity P-wave (km/s) = 6.90952 7.33335 7.12459
#
# Compressibility (1/GPa) = 0.01896844
#
# Stress axis : x y z
#
# Youngs Moduli (GPa) = 62.35205 95.57318 100.59433
#
# Poissons Ratio (x) = 0.49540 0.15429
# Poissons Ratio (y) = 0.32320 0.20316
# Poissons Ratio (z) = 0.09563 0.19302
#
# Static dielectric constant tensor:
#      x y z
#    x 4.952430 0.000000 -0.430430 
#    y 0.000000 3.753540 0.000000 
#    z -0.430430 0.000000 3.894340 
# 
# 
# High freq. dielectric constant tensor:
#      x y z
#    x 1.783350 0.000000 -0.013590 
#    y 0.000000 1.801540 0.000000 
#    z -0.013590 0.000000 1.803300 
# 
# From -- ./inp_files/180632.got.cif
#   From: 2010.06.25/outbox.cif.g09.slc.cpg/sg12_91_cif.got.tgz:180632.got - 2010.06.28 00:19:55.
