data_PCOD8107797
_publ_section_title
;
Structure prediction by ZEFSAII (Michael W. Deem and Ramdas Pophale) SiO2 
 PCOD8107797
Probable space group: C 2/M
;
_chemical_formula_sum "Si O2"
_cell_formula_units_Z 48
_cell_length_a 24.632642
_cell_length_b 8.765855
_cell_length_c 19.724194
_cell_angle_alpha 90.000000
_cell_angle_beta 146.587293
_cell_angle_gamma 90.000000
_cell_volume 2345.269251
_symmetry_space_group_name_H-M "C 2/M"
_symmetry_group_IT_number 12
_symmetry_cell_setting 'monoclinic'
loop_
_space_group_symop_operation_xyz
x,y,z
-x,y,-z
-x,-y,-z
x,-y,z
1/2+x,1/2+y,z
1/2-x,1/2+y,-z
1/2-x,1/2-y,-z
1/2+x,1/2-y,z
loop_
_atom_site_type_symbol
_atom_site_label
_atom_site_fract_x
_atom_site_fract_y
_atom_site_fract_z
Si Si1 0.914259 0.818880 0.361584
Si Si2 0.807816 0.320148 0.852436
Si Si3 0.290531 0.319795 0.474268
Si Si4 0.436306 0.680394 0.094248
Si Si5 0.632416 0.320881 0.217811
Si Si6 0.987866 0.818996 0.296419
O O1 0.806350 0.769540 0.274852
O O2 0.927616 0.757006 0.298528
O O3 0.000000 0.751576 0.500000
O O4 0.923373 0.000000 0.370196
O O5 0.820234 0.500000 0.856165
O O6 0.875904 0.231892 0.868866
O O7 0.845514 0.269341 0.965682
O O8 0.287191 0.500000 0.476638
O O9 0.250000 0.250000 0.500000
O O10 0.227316 0.266388 0.344784
O O11 0.400985 0.259403 0.579186
O O12 0.418488 0.500000 0.070986
O O13 0.536592 0.727240 0.160224
O O14 0.441818 0.739788 0.177587
O O15 0.649572 0.500000 0.240340
O O16 0.988157 0.000000 0.294287
#
# Coordination Sequence:
#
# PCOD8107797 Si02
#       6
#     8   8   8   8   8   8
#     4   9  18  35  59  84 111 145 189 236 282 342
#     4  11  23  37  57  87 113 145 193 243 289 336
#     4  11  20  34  58  88 118 149 188 235 284 336
#     4  10  21  38  57  80 113 155 194 231 285 350
#     4  11  22  38  58  83 115 156 196 234 284 345
#     4   9  18  35  58  83 114 154 193 227 277 346
#
# _framework density 20.466733000000001
#
# number of rings (size 3 to 8) (size 9 to 14) (size 15 to 20)
#    0.000    1.833    1.667    3.000    0.000    6.667 
#    0.000    0.000    0.000   12.000    0.000    0.000 
#    0.000    0.000    0.000    0.000    0.000    0.000 
#
# Total GULP energy -297622.944130 kJ/mol
# GULP energy per Si atom -12400.956005 kJ/mol
# Density = 2.042015 g / cm^3
# Si number density = 20.466733 Si / 1000 Ang^3
#
#
#
# Elastic Constant Matrix: (Units=GPa)
#
#
# Indices 1 2 3 4 5 6 
#
# 1 129.4062 20.1512 37.1760 0.0000 -15.6224 0.0000
# 2 20.1512 40.0687 20.0135 0.0000 5.8802 0.0000
# 3 37.1760 20.0135 118.4482 0.0000 -13.1131 0.0000
# 4 0.0000 0.0000 0.0000 33.7498 0.0000 -5.0198
# 5 -15.6224 5.8802 -13.1131 0.0000 32.6399 0.0000
# 6 0.0000 0.0000 0.0000 -5.0198 0.0000 21.2419
#
#
#
# Elastic Compliance Matrix: (Units=1/GPa)
#
#
# Indices 1 2 3 4 5 6 
#
# 1 0.009499 -0.004630 -0.001678 0.000000 0.004706 0.000000
# 2 -0.004630 0.031170 -0.004898 0.000000 -0.009799 0.000000
# 3 -0.001678 -0.004898 0.010262 0.000000 0.004202 0.000000
# 4 0.000000 0.000000 0.000000 0.030709 0.000000 0.007257
# 5 0.004706 -0.009799 0.004202 0.000000 0.036343 0.000000
# 6 0.000000 0.000000 0.000000 0.007257 0.000000 0.048792
#
#
# Mechanical properties :
#
#
# Convention : Reuss Voigt Hill
#
# Bulk Modulus (GPa) = 35.06452 49.17828 42.12140
# Shear Modulus (GPa) = 25.16436 31.56515 28.36475
#
# Velocity S-wave (km/s) = 3.51026 3.93143 3.72680
# Velocity P-wave (km/s) = 5.79646 6.68496 6.25650
#
# Compressibility (1/GPa) = 0.02851885
#
# Stress axis : x y z
#
# Youngs Moduli (GPa) = 105.27695 32.08192 97.44660
#
# Poissons Ratio (x) = 0.14853 0.16352
# Poissons Ratio (y) = 0.48739 0.47734
# Poissons Ratio (z) = 0.17666 0.15715
#
# Static dielectric constant tensor:
#      x y z
#    x 3.901240 0.000000 -0.144100 
#    y 0.000000 3.372440 0.000000 
#    z -0.144100 0.000000 4.134130 
# 
# 
# High freq. dielectric constant tensor:
#      x y z
#    x 1.808560 0.000000 -0.009860 
#    y 0.000000 1.763500 0.000000 
#    z -0.009860 0.000000 1.811990 
# 
# From -- ./inp_files/327310.got.cif
#   From: 2010.06.25/outbox.cif.g09.slc.cpg/sg12_164_cif.got.tgz:327310.got - 2010.06.28 00:19:55.
