data_PCOD8107548
_publ_section_title
;
Structure prediction by ZEFSAII (Michael W. Deem and Ramdas Pophale) SiO2 
 PCOD8107548
Probable space group: C 2/M
;
_chemical_formula_sum "Si O2"
_cell_formula_units_Z 64
_cell_length_a 14.292323
_cell_length_b 13.978884
_cell_length_c 17.230910
_cell_angle_alpha 90.000000
_cell_angle_beta 64.874168
_cell_angle_gamma 90.000000
_cell_volume 3116.830704
_symmetry_space_group_name_H-M "C 2/M"
_symmetry_group_IT_number 12
_symmetry_cell_setting 'monoclinic'
loop_
_space_group_symop_operation_xyz
x,y,z
-x,y,-z
-x,-y,-z
x,-y,z
1/2+x,1/2+y,z
1/2-x,1/2+y,-z
1/2-x,1/2-y,-z
1/2+x,1/2-y,z
loop_
_atom_site_type_symbol
_atom_site_label
_atom_site_fract_x
_atom_site_fract_y
_atom_site_fract_z
Si Si1 0.599059 0.222493 0.518863
Si Si2 0.715704 0.699585 0.341649
Si Si3 0.734945 0.891051 0.073143
Si Si4 0.327646 0.747030 0.160032
Si Si5 0.495197 0.396452 0.593533
Si Si6 0.811296 0.109049 0.873483
Si Si7 0.036566 0.271421 0.172543
Si Si8 0.409427 0.891972 0.332353
O O1 0.500000 0.205754 0.500000
O O2 0.696533 0.239874 0.427710
O O3 0.582205 0.316211 0.581089
O O4 0.611681 0.131726 0.569712
O O5 0.758935 0.772375 0.261514
O O6 0.616797 0.643847 0.343039
O O7 0.801553 0.618559 0.325715
O O8 0.810505 0.842495 0.109504
O O9 0.626608 0.835807 0.103675
O O10 0.714111 0.000000 0.105587
O O11 0.792876 0.885560 0.971502
O O12 0.287557 0.845786 0.135461
O O13 0.448220 0.757457 0.138712
O O14 0.500000 0.410816 0.500000
O O15 0.516131 0.500000 0.626526
O O16 0.915939 0.168997 0.818505
O O17 0.826516 0.000000 0.840137
O O18 0.995020 0.322488 0.264882
O O19 0.449230 0.000000 0.311592
#
# Coordination Sequence:
#
# PCOD8107548 Si02
#       8
#     8   8   8   8   8   8   8   8
#     4   9  20  34  53  80 110 146 192 233 281 335
#     4   9  19  35  54  79 111 145 191 238 283 335
#     4  10  22  40  61  88 120 158 196 238 293 363
#     4  10  21  37  61  87 120 159 195 242 298 347
#     4   8  15  29  50  75 100 133 177 224 275 324
#     4  10  23  40  62  90 119 152 197 245 297 353
#     4  10  22  39  59  89 121 156 196 244 295 355
#     4  11  22  36  55  79 112 154 191 233 288 347
#
# _framework density 20.533678999999999
#
# number of rings (size 3 to 8) (size 9 to 14) (size 15 to 20)
#    0.000    2.625    0.000    2.625    7.000    6.250 
#    0.000    3.125    0.000    3.000    0.000    0.000 
#    0.000    0.000    0.000    0.000    0.000    0.000 
#
# Total GULP energy -396653.395072 kJ/mol
# GULP energy per Si atom -12395.418596 kJ/mol
# Density = 2.048694 g / cm^3
# Si number density = 20.533679 Si / 1000 Ang^3
#
#
#
# Elastic Constant Matrix: (Units=GPa)
#
#
# Indices 1 2 3 4 5 6 
#
# 1 93.5323 48.6101 16.4824 0.0000 0.3064 0.0000
# 2 48.6101 132.5967 33.6708 0.0000 0.7663 0.0000
# 3 16.4824 33.6708 70.5252 0.0000 -3.0453 0.0000
# 4 0.0000 0.0000 0.0000 74.4663 0.0000 1.0044
# 5 0.3064 0.7663 -3.0453 0.0000 24.8497 0.0000
# 6 0.0000 0.0000 0.0000 1.0044 0.0000 17.2385
#
#
#
# Elastic Compliance Matrix: (Units=1/GPa)
#
#
# Indices 1 2 3 4 5 6 
#
# 1 0.013257 -0.004633 -0.000892 0.000000 -0.000130 0.000000
# 2 -0.004633 0.010216 -0.003826 0.000000 -0.000727 0.000000
# 3 -0.000892 -0.003826 0.016306 0.000000 0.002127 0.000000
# 4 0.000000 0.000000 0.000000 0.013439 0.000000 -0.000783
# 5 -0.000130 -0.000727 0.002127 0.000000 0.040527 0.000000
# 6 0.000000 0.000000 0.000000 -0.000783 0.000000 0.058055
#
#
# Mechanical properties :
#
#
# Convention : Reuss Voigt Hill
#
# Bulk Modulus (GPa) = 47.44421 54.90897 51.17659
# Shear Modulus (GPa) = 28.16465 36.50362 32.33413
#
# Velocity S-wave (km/s) = 3.70757 4.22090 3.97254
# Velocity P-wave (km/s) = 6.44080 7.11011 6.78371
#
# Compressibility (1/GPa) = 0.02107739
#
# Stress axis : x y z
#
# Youngs Moduli (GPa) = 75.43307 97.88798 61.32597
#
# Poissons Ratio (x) = 0.45348 0.05471
# Poissons Ratio (y) = 0.34946 0.23463
# Poissons Ratio (z) = 0.06729 0.37452
#
# Static dielectric constant tensor:
#      x y z
#    x 3.584470 0.000000 -0.081780 
#    y 0.000000 4.034940 0.000000 
#    z -0.081780 0.000000 3.824160 
# 
# 
# High freq. dielectric constant tensor:
#      x y z
#    x 1.788040 0.000000 -0.005920 
#    y 0.000000 1.791340 0.000000 
#    z -0.005920 0.000000 1.811300 
# 
# From -- ./inp_files/270295.got.cif
#   From: 2010.06.25/outbox.cif.g09.slc.cpg/sg12_136_cif.got.tgz:270295.got - 2010.06.28 00:19:55.
