data_PCOD8107080
_publ_section_title
;
Structure prediction by ZEFSAII (Michael W. Deem and Ramdas Pophale) SiO2 
 PCOD8107080
Probable space group: C 2/M
;
_chemical_formula_sum "Si O2"
_cell_formula_units_Z 36
_cell_length_a 21.967098
_cell_length_b 10.793562
_cell_length_c 8.208242
_cell_angle_alpha 90.000000
_cell_angle_beta 64.351323
_cell_angle_gamma 90.000000
_cell_volume 1754.432055
_symmetry_space_group_name_H-M "C 2/M"
_symmetry_group_IT_number 12
_symmetry_cell_setting 'monoclinic'
loop_
_space_group_symop_operation_xyz
x,y,z
-x,y,-z
-x,-y,-z
x,-y,z
1/2+x,1/2+y,z
1/2-x,1/2+y,-z
1/2-x,1/2-y,-z
1/2+x,1/2-y,z
loop_
_atom_site_type_symbol
_atom_site_label
_atom_site_fract_x
_atom_site_fract_y
_atom_site_fract_z
Si Si1 0.280795 0.195232 0.802100
Si Si2 0.096575 0.365630 0.146229
Si Si3 0.500000 0.759416 0.500000
Si Si4 0.372176 0.642782 0.488285
Si Si5 0.639114 0.361610 0.867172
O O1 0.345105 0.115448 0.784566
O O2 0.306202 0.296301 0.643845
O O3 0.220207 0.121426 0.785761
O O4 0.250000 0.250000 0.000000
O O5 0.091871 0.500000 0.059139
O O6 0.026065 0.344272 0.321236
O O7 0.110013 0.246700 0.016173
O O8 0.439635 0.673028 0.508760
O O9 0.356662 0.500000 0.519787
O O10 0.380915 0.681746 0.290260
O O11 0.608732 0.500000 0.942813
#
# Coordination Sequence:
#
# PCOD8107080 Si02
#       5
#     8   8   4   8   8
#     4   9  19  34  56  84 112 144 181 225 276 331
#     4  10  21  38  59  83 113 150 187 229 279 334
#     4  10  22  38  56  80 109 150 195 234 275 328
#     4  10  21  37  58  83 114 150 188 231 279 331
#     4  10  21  37  58  87 116 145 184 231 281 334
#
# _framework density 20.519461
#
# number of rings (size 3 to 8) (size 9 to 14) (size 15 to 20)
#    0.000    2.222    0.000    2.000    0.000   13.333 
#    0.000   10.000    0.000    0.000    0.000    0.000 
#    0.000    0.000    0.000    0.000    0.000    0.000 
#
# Total GULP energy -223006.006234 kJ/mol
# GULP energy per Si atom -12389.222569 kJ/mol
# Density = 2.047276 g / cm^3
# Si number density = 20.519461 Si / 1000 Ang^3
#
#
#
# Elastic Constant Matrix: (Units=GPa)
#
#
# Indices 1 2 3 4 5 6 
#
# 1 45.4806 14.9800 30.0928 0.0000 7.5521 0.0000
# 2 14.9800 141.0451 87.3222 0.0000 4.8686 0.0000
# 3 30.0928 87.3222 120.2469 0.0000 -5.5946 0.0000
# 4 0.0000 0.0000 0.0000 33.6039 0.0000 0.3257
# 5 7.5521 4.8686 -5.5946 0.0000 33.8308 0.0000
# 6 0.0000 0.0000 0.0000 0.3257 0.0000 11.8399
#
#
#
# Elastic Compliance Matrix: (Units=1/GPa)
#
#
# Indices 1 2 3 4 5 6 
#
# 1 0.029049 0.003572 -0.010269 0.000000 -0.008697 0.000000
# 2 0.003572 0.013727 -0.011077 0.000000 -0.004605 0.000000
# 3 -0.010269 -0.011077 0.019259 0.000000 0.007071 0.000000
# 4 0.000000 0.000000 0.000000 0.029766 0.000000 -0.000819
# 5 -0.008697 -0.004605 0.007071 0.000000 0.033332 0.000000
# 6 0.000000 0.000000 0.000000 -0.000819 0.000000 0.084483
#
#
# Mechanical properties :
#
#
# Convention : Reuss Voigt Hill
#
# Bulk Modulus (GPa) = 37.75128 63.50695 50.62912
# Shear Modulus (GPa) = 19.68559 27.48009 23.58284
#
# Velocity S-wave (km/s) = 3.10072 3.66351 3.39380
# Velocity P-wave (km/s) = 5.59080 6.99370 6.33123
#
# Compressibility (1/GPa) = 0.02648917
#
# Stress axis : x y z
#
# Youngs Moduli (GPa) = 34.42423 72.84793 51.92391
#
# Poissons Ratio (x) = -0.26024 0.53319
# Poissons Ratio (y) = -0.12298 0.57515
# Poissons Ratio (z) = 0.35349 0.80693
#
# Static dielectric constant tensor:
#      x y z
#    x 3.159470 0.000000 -0.550660 
#    y 0.000000 3.732490 0.000000 
#    z -0.550660 0.000000 3.433720 
# 
# 
# High freq. dielectric constant tensor:
#      x y z
#    x 1.801480 0.000000 -0.003340 
#    y 0.000000 1.802020 0.000000 
#    z -0.003340 0.000000 1.798750 
# 
# From -- ./inp_files/93592.got.cif
#   From: 2010.06.25/outbox.cif.g09.slc.cpg/sg12_47_cif.got.tgz:93592.got - 2010.06.28 00:19:55.
