data_PCOD8107424
_publ_section_title
;
Structure prediction by ZEFSAII (Michael W. Deem and Ramdas Pophale) SiO2 
 PCOD8107424
Probable space group: C 2/M
;
_chemical_formula_sum "Si O2"
_cell_formula_units_Z 56
_cell_length_a 31.841816
_cell_length_b 7.936892
_cell_length_c 12.523590
_cell_angle_alpha 90.000000
_cell_angle_beta 120.914643
_cell_angle_gamma 90.000000
_cell_volume 2715.381368
_symmetry_space_group_name_H-M "C 2/M"
_symmetry_group_IT_number 12
_symmetry_cell_setting 'monoclinic'
loop_
_space_group_symop_operation_xyz
x,y,z
-x,y,-z
-x,-y,-z
x,-y,z
1/2+x,1/2+y,z
1/2-x,1/2+y,-z
1/2-x,1/2-y,-z
1/2+x,1/2-y,z
loop_
_atom_site_type_symbol
_atom_site_label
_atom_site_fract_x
_atom_site_fract_y
_atom_site_fract_z
Si Si1 0.076648 0.500000 0.548813
Si Si2 0.597009 0.302498 0.271307
Si Si3 0.110309 0.190248 0.059702
Si Si4 0.012182 0.191616 0.821970
Si Si5 0.290380 0.807513 0.203157
Si Si6 0.478135 0.000000 0.306366
Si Si7 0.810796 0.306875 0.994634
Si Si8 0.635484 0.691389 0.546905
O O1 0.056967 0.500000 0.640520
O O2 0.105417 0.325068 0.576343
O O3 0.035160 0.500000 0.406388
O O4 0.594411 0.500000 0.249952
O O5 0.619472 0.228342 0.189859
O O6 0.541256 0.239640 0.214247
O O7 0.632051 0.254574 0.417193
O O8 0.138452 0.290622 0.003354
O O9 0.130114 0.000000 0.078404
O O10 0.051324 0.193696 0.969104
O O11 0.034228 0.325483 0.768199
O O12 0.008643 0.000000 0.769687
O O13 0.231749 0.792089 0.123601
O O14 0.310156 0.700302 0.331044
O O15 0.305593 0.000000 0.243172
O O16 0.314108 0.740837 0.121819
O O17 0.794642 0.500000 0.979341
O O18 0.614864 0.500000 0.531082
#
# Coordination Sequence:
#
# PCOD8107424 Si02
#       8
#     4   8   8   8   8   4   8   8
#     4  11  24  40  55  88 125 162 204 249 295 349
#     4   9  19  39  60  84 117 157 202 244 291 354
#     4  10  21  37  60  85 118 157 197 248 302 351
#     4  10  21  38  60  86 118 159 201 248 303 353
#     4  10  21  39  64  87 120 156 192 245 301 357
#     4  11  24  38  58  85 128 159 202 258 289 351
#     4  10  22  39  58  90 123 149 194 246 298 359
#     4  11  22  39  64  88 117 160 203 242 295 361
#
# _framework density 20.623255
#
# number of rings (size 3 to 8) (size 9 to 14) (size 15 to 20)
#    0.000    1.857    2.143    1.286    3.000    4.000 
#    2.571    2.857    0.000    0.000    0.000    0.000 
#    0.000    0.000    0.000    0.000    0.000    0.000 
#
# Total GULP energy -346988.423366 kJ/mol
# GULP energy per Si atom -12392.443692 kJ/mol
# Density = 2.057632 g / cm^3
# Si number density = 20.623255 Si / 1000 Ang^3
#
#
#
# Elastic Constant Matrix: (Units=GPa)
#
#
# Indices 1 2 3 4 5 6 
#
# 1 75.6797 10.6146 46.5156 0.0000 -7.5683 0.0000
# 2 10.6146 86.2396 22.1576 0.0000 -5.6495 0.0000
# 3 46.5156 22.1576 141.2967 0.0000 1.2661 0.0000
# 4 0.0000 0.0000 0.0000 24.8971 0.0000 0.5858
# 5 -7.5683 -5.6495 1.2661 0.0000 38.2817 0.0000
# 6 0.0000 0.0000 0.0000 0.5858 0.0000 21.1632
#
#
#
# Elastic Compliance Matrix: (Units=1/GPa)
#
#
# Indices 1 2 3 4 5 6 
#
# 1 0.017051 -0.000437 -0.005576 0.000000 0.003491 0.000000
# 2 -0.000437 0.012226 -0.001789 0.000000 0.001777 0.000000
# 3 -0.005576 -0.001789 0.009209 0.000000 -0.001671 0.000000
# 4 0.000000 0.000000 0.000000 0.040192 0.000000 -0.001113
# 5 0.003491 0.001777 -0.001671 0.000000 0.027130 0.000000
# 6 0.000000 0.000000 0.000000 -0.001113 0.000000 0.047283
#
#
# Mechanical properties :
#
#
# Convention : Reuss Voigt Hill
#
# Bulk Modulus (GPa) = 43.70581 51.31017 47.50799
# Shear Modulus (GPa) = 28.35737 31.79696 30.07717
#
# Velocity S-wave (km/s) = 3.71215 3.93084 3.82306
# Velocity P-wave (km/s) = 6.29380 6.74802 6.52486
#
# Compressibility (1/GPa) = 0.02288025
#
# Stress axis : x y z
#
# Youngs Moduli (GPa) = 58.64657 81.79618 108.59526
#
# Poissons Ratio (x) = 0.03578 0.60553
# Poissons Ratio (y) = 0.02565 0.19429
# Poissons Ratio (z) = 0.32702 0.14634
#
# Static dielectric constant tensor:
#      x y z
#    x 3.425540 0.000000 -0.010580 
#    y 0.000000 3.756250 0.000000 
#    z -0.010580 0.000000 4.036650 
# 
# 
# High freq. dielectric constant tensor:
#      x y z
#    x 1.776420 0.000000 0.003120 
#    y 0.000000 1.804020 0.000000 
#    z 0.003120 0.000000 1.817140 
# 
# From -- ./inp_files/187803.got.cif
#   From: 2010.06.25/outbox.cif.g09.slc.cpg/sg12_94_cif.got.tgz:187803.got - 2010.06.28 00:19:55.
