data_PCOD8107560
_publ_section_title
;
Structure prediction by ZEFSAII (Michael W. Deem and Ramdas Pophale) SiO2 
 PCOD8107560
Probable space group: C 2/M
;
_chemical_formula_sum "Si O2"
_cell_formula_units_Z 56
_cell_length_a 20.002324
_cell_length_b 14.124423
_cell_length_c 10.196602
_cell_angle_alpha 90.000000
_cell_angle_beta 95.489403
_cell_angle_gamma 90.000000
_cell_volume 2867.545685
_symmetry_space_group_name_H-M "C 2/M"
_symmetry_group_IT_number 12
_symmetry_cell_setting 'monoclinic'
loop_
_space_group_symop_operation_xyz
x,y,z
-x,y,-z
-x,-y,-z
x,-y,z
1/2+x,1/2+y,z
1/2-x,1/2+y,-z
1/2-x,1/2-y,-z
1/2+x,1/2-y,z
loop_
_atom_site_type_symbol
_atom_site_label
_atom_site_fract_x
_atom_site_fract_y
_atom_site_fract_z
Si Si1 0.578296 0.258676 0.029710
Si Si2 0.131383 0.389187 0.222502
Si Si3 0.576677 0.601438 0.525564
Si Si4 0.259891 0.251697 0.657509
Si Si5 0.885295 0.755859 0.249719
Si Si6 0.994173 0.609960 0.350730
Si Si7 0.630204 0.387625 0.262216
O O1 0.615748 0.162380 0.082131
O O2 0.587548 0.343166 0.135895
O O3 0.500000 0.237241 0.000000
O O4 0.612374 0.290316 0.900051
O O5 0.145290 0.500000 0.202260
O O6 0.197484 0.342602 0.299634
O O7 0.066225 0.370620 0.299844
O O8 0.500000 0.579132 0.500000
O O9 0.614752 0.500000 0.549203
O O10 0.586602 0.662030 0.655379
O O11 0.600018 0.649715 0.394557
O O12 0.250000 0.250000 0.500000
O O13 0.190402 0.259974 0.720566
O O14 0.294991 0.346185 0.719786
O O15 0.932939 0.663727 0.269007
O O16 0.974984 0.500000 0.342002
O O17 0.000000 0.647522 0.500000
O O18 0.629863 0.500000 0.246279
#
# Coordination Sequence:
#
# PCOD8107560 Si02
#       7
#     8   8   8   8   8   8   8
#     4  11  23  40  63  95 124 167 208 258 316 366
#     4  10  23  42  63  90 130 170 209 257 313 377
#     4  10  21  37  61  89 116 159 210 260 311 363
#     4  11  23  40  63  94 124 167 206 259 318 367
#     4  12  23  37  65  92 126 161 210 260 309 375
#     4  10  21  37  62  94 123 160 211 266 315 361
#     4  10  23  42  61  86 127 167 206 256 312 373
#
# _framework density 19.528894999999999
#
# number of rings (size 3 to 8) (size 9 to 14) (size 15 to 20)
#    0.000    1.429    2.857    2.143    4.000    5.714 
#    0.000    1.429    0.000    0.000    0.000    0.000 
#    0.000    0.000    0.000    0.000    0.000    0.000 
#
# Total GULP energy -347129.355527 kJ/mol
# GULP energy per Si atom -12397.476983 kJ/mol
# Density = 1.948445 g / cm^3
# Si number density = 19.528895 Si / 1000 Ang^3
#
#
#
# Elastic Constant Matrix: (Units=GPa)
#
#
# Indices 1 2 3 4 5 6 
#
# 1 109.6522 34.4572 35.7906 0.0000 0.2258 0.0000
# 2 34.4572 117.7875 54.6685 0.0000 12.4709 0.0000
# 3 35.7906 54.6685 154.1161 0.0000 -2.8953 0.0000
# 4 0.0000 0.0000 0.0000 6.6096 0.0000 -11.6486
# 5 0.2258 12.4709 -2.8953 0.0000 38.9830 0.0000
# 6 0.0000 0.0000 0.0000 -11.6486 0.0000 17.8961
#
#
#
# Elastic Compliance Matrix: (Units=1/GPa)
#
#
# Indices 1 2 3 4 5 6 
#
# 1 0.010372 -0.002374 -0.001556 0.000000 0.000584 0.000000
# 2 -0.002374 0.011214 -0.003499 0.000000 -0.003834 0.000000
# 3 -0.001556 -0.003499 0.008123 0.000000 0.001732 0.000000
# 4 0.000000 0.000000 0.000000 -1.028329 0.000000 -0.669337
# 5 0.000584 -0.003834 0.001732 0.000000 0.027004 0.000000
# 6 0.000000 0.000000 0.000000 -0.669337 0.000000 -0.379792
#
#
# Mechanical properties :
#
#
# Convention : Reuss Voigt Hill
#
# Bulk Modulus (GPa) = 67.32558 70.15427 68.73992
# Shear Modulus (GPa) = -3.75488 29.80704 13.02608
#
# Velocity S-wave (km/s) = -1.38813 3.91103 2.58547
# Velocity P-wave (km/s) = 5.65513 7.50974 6.64743
#
# Compressibility (1/GPa) = 0.01485320
#
# Stress axis : x y z
#
# Youngs Moduli (GPa) = 96.41013 89.17399 123.10057
#
# Poissons Ratio (x) = 0.21171 0.19151
# Poissons Ratio (y) = 0.22889 0.43067
# Poissons Ratio (z) = 0.14998 0.31198
#
# Static dielectric constant tensor:
#      x y z
#    x 3.601410 0.000000 -0.129620 
#    y 0.000000 3.798030 0.000000 
#    z -0.129620 0.000000 3.646350 
# 
# 
# High freq. dielectric constant tensor:
#      x y z
#    x 1.763490 0.000000 0.000280 
#    y 0.000000 1.765080 0.000000 
#    z 0.000280 0.000000 1.768250 
# 
# From -- ./inp_files/86322.got.cif
#   From: 2010.06.25/outbox.cif.g09.slc.cpg/sg12_44_cif.got.tgz:86322.got - 2010.06.28 00:19:55.
