data_PCOD8107759
_publ_section_title
;
Structure prediction by ZEFSAII (Michael W. Deem and Ramdas Pophale) SiO2 
 PCOD8107759
Probable space group: C 2/M
;
_chemical_formula_sum "Si O2"
_cell_formula_units_Z 48
_cell_length_a 14.812668
_cell_length_b 9.054617
_cell_length_c 18.856259
_cell_angle_alpha 90.000000
_cell_angle_beta 86.655442
_cell_angle_gamma 90.000000
_cell_volume 2524.751071
_symmetry_space_group_name_H-M "C 2/M"
_symmetry_group_IT_number 12
_symmetry_cell_setting 'monoclinic'
loop_
_space_group_symop_operation_xyz
x,y,z
-x,y,-z
-x,-y,-z
x,-y,z
1/2+x,1/2+y,z
1/2-x,1/2+y,-z
1/2-x,1/2-y,-z
1/2+x,1/2-y,z
loop_
_atom_site_type_symbol
_atom_site_label
_atom_site_fract_x
_atom_site_fract_y
_atom_site_fract_z
Si Si1 0.763206 0.173993 0.395607
Si Si2 0.344671 0.170363 0.998650
Si Si3 0.429291 0.169642 0.841303
Si Si4 0.739899 0.825191 0.238417
Si Si5 0.600003 0.325754 0.867762
Si Si6 0.103575 0.673505 0.507927
O O1 0.755036 0.238239 0.316451
O O2 0.851509 0.248631 0.426138
O O3 0.668246 0.213221 0.438437
O O4 0.780052 0.000000 0.396288
O O5 0.405735 0.244921 0.056273
O O6 0.330129 0.000000 0.018423
O O7 0.250000 0.250000 0.000000
O O8 0.391708 0.189630 0.921587
O O9 0.357287 0.223602 0.786386
O O10 0.513109 0.278642 0.826342
O O11 0.457666 0.000000 0.826857
O O12 0.814445 0.766019 0.180162
O O13 0.746647 0.000000 0.240570
O O14 0.603405 0.500000 0.880040
O O15 0.101926 0.500000 0.523050
O O16 0.000000 0.729855 0.500000
#
# Coordination Sequence:
#
# PCOD8107759 Si02
#       6
#     8   8   8   8   8   8
#     4   9  18  34  56  78 105 144 178 211 260 317
#     4  11  21  36  58  80 105 140 181 226 275 323
#     4  10  21  38  56  77 106 142 179 222 273 326
#     4   9  19  37  55  74 108 146 177 212 267 325
#     4  11  22  37  55  79 107 140 182 229 270 319
#     4   9  18  33  54  82 110 136 172 219 263 307
#
# _framework density 19.011775
#
# number of rings (size 3 to 8) (size 9 to 14) (size 15 to 20)
#    0.000    2.167    1.667    1.500    0.000    5.000 
#    0.000    4.167    0.000    0.000    0.000    0.000 
#    0.000    0.000    0.000    0.000    0.000    0.000 
#
# Total GULP energy -297588.835576 kJ/mol
# GULP energy per Si atom -12399.534816 kJ/mol
# Density = 1.896850 g / cm^3
# Si number density = 19.011775 Si / 1000 Ang^3
#
#
#
# Elastic Constant Matrix: (Units=GPa)
#
#
# Indices 1 2 3 4 5 6 
#
# 1 118.0330 31.5914 37.0560 0.0000 28.0067 0.0000
# 2 31.5914 52.9306 31.8147 0.0000 6.9941 0.0000
# 3 37.0560 31.8147 118.4623 0.0000 30.1005 0.0000
# 4 0.0000 0.0000 0.0000 23.7040 0.0000 6.6249
# 5 28.0067 6.9941 30.1005 0.0000 25.2474 0.0000
# 6 0.0000 0.0000 0.0000 6.6249 0.0000 34.9103
#
#
#
# Elastic Compliance Matrix: (Units=1/GPa)
#
#
# Indices 1 2 3 4 5 6 
#
# 1 0.013319 -0.006849 0.001356 0.000000 -0.014493 0.000000
# 2 -0.006849 0.026086 -0.007112 0.000000 0.008850 0.000000
# 3 0.001356 -0.007112 0.014072 0.000000 -0.016311 0.000000
# 4 0.000000 0.000000 0.000000 0.044550 0.000000 -0.008454
# 5 -0.014493 0.008850 -0.016311 0.000000 0.072679 0.000000
# 6 0.000000 0.000000 0.000000 -0.008454 0.000000 0.030249
#
#
# Mechanical properties :
#
#
# Convention : Reuss Voigt Hill
#
# Bulk Modulus (GPa) = 35.37840 54.48332 44.93086
# Shear Modulus (GPa) = 21.22357 29.36994 25.29675
#
# Velocity S-wave (km/s) = 3.34479 3.93470 3.65167
# Velocity P-wave (km/s) = 5.79361 7.02583 6.43926
#
# Compressibility (1/GPa) = 0.02826584
#
# Stress axis : x y z
#
# Youngs Moduli (GPa) = 75.08270 38.33497 71.06393
#
# Poissons Ratio (x) = 0.26256 -0.09636
# Poissons Ratio (y) = 0.51424 0.50541
# Poissons Ratio (z) = -0.10181 0.27264
#
# Static dielectric constant tensor:
#      x y z
#    x 3.560660 0.000000 0.124030 
#    y 0.000000 3.372550 0.000000 
#    z 0.124030 0.000000 3.778580 
# 
# 
# High freq. dielectric constant tensor:
#      x y z
#    x 1.749780 0.000000 0.008520 
#    y 0.000000 1.720200 0.000000 
#    z 0.008520 0.000000 1.737270 
# 
# From -- ./inp_files/267664.got.cif
#   From: 2010.06.25/outbox.cif.g09.slc.cpg/sg12_134_cif.got.tgz:267664.got - 2010.06.28 00:19:55.
