data_PCOD8107737
_publ_section_title
;
Structure prediction by ZEFSAII (Michael W. Deem and Ramdas Pophale) SiO2 
 PCOD8107737
Probable space group: C 2/M
;
_chemical_formula_sum "Si O2"
_cell_formula_units_Z 52
_cell_length_a 14.601657
_cell_length_b 17.990110
_cell_length_c 14.990599
_cell_angle_alpha 90.000000
_cell_angle_beta 40.790975
_cell_angle_gamma 90.000000
_cell_volume 2572.577746
_symmetry_space_group_name_H-M "C 2/M"
_symmetry_group_IT_number 12
_symmetry_cell_setting 'monoclinic'
loop_
_space_group_symop_operation_xyz
x,y,z
-x,y,-z
-x,-y,-z
x,-y,z
1/2+x,1/2+y,z
1/2-x,1/2+y,-z
1/2-x,1/2-y,-z
1/2+x,1/2-y,z
loop_
_atom_site_type_symbol
_atom_site_label
_atom_site_fract_x
_atom_site_fract_y
_atom_site_fract_z
Si Si1 0.798601 0.414719 0.983541
Si Si2 0.664905 0.084021 0.384930
Si Si3 0.253281 0.728688 0.395217
Si Si4 0.000000 0.184413 0.500000
Si Si5 0.945672 0.323446 0.136126
Si Si6 0.690307 0.415747 0.256143
Si Si7 0.648371 0.586276 0.920535
O O1 0.845354 0.500000 0.929289
O O2 0.706387 0.380336 0.970726
O O3 0.934602 0.364193 0.895891
O O4 0.702279 0.411300 0.141371
O O5 0.500000 0.097807 0.500000
O O6 0.739180 0.139276 0.400194
O O7 0.730577 0.100920 0.240253
O O8 0.698139 0.000000 0.391877
O O9 0.250000 0.750000 0.500000
O O10 0.390222 0.756883 0.240221
O O11 0.120026 0.762810 0.445880
O O12 0.053864 0.131935 0.380732
O O13 0.826814 0.384459 0.205334
O O14 0.000000 0.292174 0.000000
O O15 0.671071 0.500000 0.302943
O O16 0.619615 0.500000 0.958097
O O17 0.500000 0.623485 0.000000
#
# Coordination Sequence:
#
# PCOD8107737 Si02
#       7
#     8   8   8   4   8   8   8
#     4   9  17  31  57  88 121 159 208 254 296 356
#     4  10  22  42  66  88 118 161 208 255 306 364
#     4  11  24  40  61  87 122 158 199 253 315 367
#     4  10  21  38  53  78 122 160 198 252 311 374
#     4   9  19  35  56  86 120 159 201 247 305 367
#     4   9  17  32  55  83 118 160 203 246 297 360
#     4   9  19  35  58  88 118 151 196 256 309 348
#
# _framework density 20.213190000000001
#
# number of rings (size 3 to 8) (size 9 to 14) (size 15 to 20)
#    0.000    2.462    0.769    0.692    2.154    3.692 
#    0.000    5.385    0.000    6.462    0.000    0.000 
#    0.000    0.000    0.000    0.000    0.000    0.769 
#
# Total GULP energy -322366.613741 kJ/mol
# GULP energy per Si atom -12398.715913 kJ/mol
# Density = 2.016718 g / cm^3
# Si number density = 20.213190 Si / 1000 Ang^3
#
#
#
# Elastic Constant Matrix: (Units=GPa)
#
#
# Indices 1 2 3 4 5 6 
#
# 1 126.2394 38.7821 54.9639 0.0000 10.6767 0.0001
# 2 38.7821 108.3730 48.9497 0.0000 10.0713 0.0001
# 3 54.9639 48.9497 123.8426 0.0002 -2.0716 -0.0001
# 4 0.0000 0.0000 0.0002 20.7827 -0.0001 2.3907
# 5 10.6767 10.0713 -2.0716 -0.0001 31.2736 0.0000
# 6 0.0001 0.0001 -0.0001 2.3907 0.0000 21.2667
#
#
#
# Elastic Compliance Matrix: (Units=1/GPa)
#
#
# Indices 1 2 3 4 5 6 
#
# 1 0.010465 -0.001598 -0.004069 0.000000 -0.003328 0.000000
# 2 -0.001598 0.011977 -0.004085 0.000000 -0.003582 0.000000
# 3 -0.004069 -0.004085 0.011553 0.000000 0.003470 0.000000
# 4 0.000000 0.000000 0.000000 0.048747 0.000000 -0.005480
# 5 -0.003328 -0.003582 0.003470 0.000000 0.034495 0.000000
# 6 0.000000 0.000000 0.000000 -0.005480 0.000000 0.047638
#
#
# Mechanical properties :
#
#
# Convention : Reuss Voigt Hill
#
# Bulk Modulus (GPa) = 69.00113 71.53850 70.26981
# Shear Modulus (GPa) = 26.42565 29.04855 27.73710
#
# Velocity S-wave (km/s) = 3.61965 3.79503 3.70838
# Velocity P-wave (km/s) = 7.18887 7.39404 7.29218
#
# Compressibility (1/GPa) = 0.01449252
#
# Stress axis : x y z
#
# Youngs Moduli (GPa) = 95.55330 83.49234 86.55678
#
# Poissons Ratio (x) = 0.13343 0.35218
# Poissons Ratio (y) = 0.15270 0.35356
# Poissons Ratio (z) = 0.38878 0.34104
#
# Static dielectric constant tensor:
#      x y z
#    x 6.646950 -0.000030 -0.322200 
#    y -0.000030 3.732560 0.000000 
#    z -0.322200 0.000000 3.852180 
# 
# 
# High freq. dielectric constant tensor:
#      x y z
#    x 1.778310 0.000000 -0.002910 
#    y 0.000000 1.784990 0.000000 
#    z -0.002910 0.000000 1.798130 
# 
# From -- ./inp_files/216718.got.cif
#   From: 2010.06.25/outbox.cif.g09.slc.cpg/sg12_109_cif.got.tgz:216718.got - 2010.06.28 00:19:55.
