data_PCOD8107727
_publ_section_title
;
Structure prediction by ZEFSAII (Michael W. Deem and Ramdas Pophale) SiO2 
 PCOD8107727
Probable space group: C 2/M
;
_chemical_formula_sum "Si O2"
_cell_formula_units_Z 48
_cell_length_a 28.090224
_cell_length_b 14.120584
_cell_length_c 8.833169
_cell_angle_alpha 90.000000
_cell_angle_beta 40.022572
_cell_angle_gamma 90.000000
_cell_volume 2253.179111
_symmetry_space_group_name_H-M "C 2/M"
_symmetry_group_IT_number 12
_symmetry_cell_setting 'monoclinic'
loop_
_space_group_symop_operation_xyz
x,y,z
-x,y,-z
-x,-y,-z
x,-y,z
1/2+x,1/2+y,z
1/2-x,1/2+y,-z
1/2-x,1/2-y,-z
1/2+x,1/2-y,z
loop_
_atom_site_type_symbol
_atom_site_label
_atom_site_fract_x
_atom_site_fract_y
_atom_site_fract_z
Si Si1 0.578891 0.391742 0.877143
Si Si2 0.341055 0.214087 0.426999
Si Si3 0.425773 0.609361 0.757720
Si Si4 0.967681 0.604517 0.246137
Si Si5 0.204769 0.241165 0.958134
Si Si6 0.624409 0.111793 0.963331
O O1 0.601953 0.500000 0.785853
O O2 0.640199 0.323259 0.656260
O O3 0.500000 0.366077 0.000000
O O4 0.571399 0.371059 0.071636
O O5 0.398542 0.176453 0.415975
O O6 0.258436 0.208487 0.691881
O O7 0.342066 0.149060 0.276091
O O8 0.500000 0.649490 0.500000
O O9 0.416372 0.500000 0.739970
O O10 0.355338 0.661415 0.860205
O O11 0.939631 0.500000 0.363252
O O12 0.000000 0.600266 0.000000
O O13 0.036212 0.636477 0.186503
O O14 0.164007 0.338531 0.009192
O O15 0.250000 0.250000 0.000000
O O16 0.638151 0.000000 0.939310
#
# Coordination Sequence:
#
# PCOD8107727 Si02
#       6
#     8   8   8   8   8   8
#     4  10  21  37  66 102 126 161 219 274 321 378
#     4  11  21  39  65  98 128 164 208 271 332 383
#     4  10  24  46  68  90 126 174 218 262 319 387
#     4   8  16  33  62  93 118 151 199 253 310 370
#     4  12  28  42  59  95 135 174 212 260 333 389
#     4  10  21  41  67  93 123 165 215 261 312 382
#
# _framework density 21.303234
#
# number of rings (size 3 to 8) (size 9 to 14) (size 15 to 20)
#    0.000    1.833    1.667    3.500    2.333    2.667 
#    0.000    0.000    0.000    2.500    0.000    0.000 
#    0.000    0.000    0.000    0.000    0.000    0.000 
#
# Total GULP energy -297618.074382 kJ/mol
# GULP energy per Si atom -12400.753099 kJ/mol
# Density = 2.125475 g / cm^3
# Si number density = 21.303234 Si / 1000 Ang^3
#
#
#
# Elastic Constant Matrix: (Units=GPa)
#
#
# Indices 1 2 3 4 5 6 
#
# 1 152.4668 62.4671 34.4558 0.0000 -18.1651 0.0000
# 2 62.4671 118.8995 59.2881 0.0000 -18.0463 0.0000
# 3 34.4558 59.2881 108.1227 0.0000 -25.9625 0.0000
# 4 0.0000 0.0000 0.0000 14.1285 0.0000 -1.6721
# 5 -18.1651 -18.0463 -25.9625 0.0000 26.3449 0.0000
# 6 0.0000 0.0000 0.0000 -1.6721 0.0000 25.7729
#
#
#
# Elastic Compliance Matrix: (Units=1/GPa)
#
#
# Indices 1 2 3 4 5 6 
#
# 1 0.008597 -0.004185 0.000380 0.000000 0.003436 0.000000
# 2 -0.004185 0.013710 -0.006055 0.000000 0.000539 0.000000
# 3 0.000380 -0.006055 0.015084 0.000000 0.010980 0.000000
# 4 0.000000 0.000000 0.000000 0.071327 0.000000 0.004627
# 5 0.003436 0.000539 0.010980 0.000000 0.051517 0.000000
# 6 0.000000 0.000000 0.000000 0.004627 0.000000 0.039101
#
#
# Mechanical properties :
#
#
# Convention : Reuss Voigt Hill
#
# Bulk Modulus (GPa) = 56.58619 76.87900 66.73259
# Shear Modulus (GPa) = 22.22775 28.13444 25.18109
#
# Velocity S-wave (km/s) = 3.23367 3.63804 3.44180
# Velocity P-wave (km/s) = 6.36884 7.33576 6.86933
#
# Compressibility (1/GPa) = 0.01767216
#
# Stress axis : x y z
#
# Youngs Moduli (GPa) = 116.32373 72.94010 66.29470
#
# Poissons Ratio (x) = 0.30522 -0.02519
# Poissons Ratio (y) = 0.48676 0.40140
# Poissons Ratio (z) = -0.04420 0.44163
#
# Static dielectric constant tensor:
#      x y z
#    x 4.026600 0.000000 -0.262200 
#    y 0.000000 3.993130 0.000000 
#    z -0.262200 0.000000 3.715540 
# 
# 
# High freq. dielectric constant tensor:
#      x y z
#    x 1.839700 0.000000 -0.016390 
#    y 0.000000 1.843240 0.000000 
#    z -0.016390 0.000000 1.813780 
# 
# From -- ./inp_files/104963.got.cif
#   From: 2010.06.25/outbox.cif.g09.slc.cpg/sg12_53_cif.got.tgz:104963.got - 2010.06.28 00:19:55.
