data_PCOD8107552
_publ_section_title
;
Structure prediction by ZEFSAII (Michael W. Deem and Ramdas Pophale) SiO2 
 PCOD8107552
Probable space group: C 2/M
;
_chemical_formula_sum "Si O2"
_cell_formula_units_Z 44
_cell_length_a 14.185047
_cell_length_b 9.358804
_cell_length_c 17.223997
_cell_angle_alpha 90.000000
_cell_angle_beta 76.226418
_cell_angle_gamma 90.000000
_cell_volume 2220.820679
_symmetry_space_group_name_H-M "C 2/M"
_symmetry_group_IT_number 12
_symmetry_cell_setting 'monoclinic'
loop_
_space_group_symop_operation_xyz
x,y,z
-x,y,-z
-x,-y,-z
x,-y,z
1/2+x,1/2+y,z
1/2-x,1/2+y,-z
1/2-x,1/2-y,-z
1/2+x,1/2-y,z
loop_
_atom_site_type_symbol
_atom_site_label
_atom_site_fract_x
_atom_site_fract_y
_atom_site_fract_z
Si Si1 0.927466 0.667949 0.199761
Si Si2 0.196695 0.000000 0.524006
Si Si3 0.562117 0.714445 0.635795
Si Si4 0.881823 0.339650 0.934347
Si Si5 0.918394 0.500000 0.453394
Si Si6 0.431665 0.500000 0.587677
Si Si7 0.669920 0.665250 0.912932
O O1 0.903557 0.500000 0.220471
O O2 0.923434 0.770720 0.275368
O O3 0.848650 0.736269 0.157913
O O4 0.033486 0.686706 0.143160
O O5 0.152846 0.136487 0.576879
O O6 0.311763 0.000000 0.512128
O O7 0.174235 0.000000 0.433512
O O8 0.458955 0.637853 0.634828
O O9 0.559941 0.870789 0.605547
O O10 0.887112 0.500000 0.968638
O O11 0.783263 0.317709 0.906727
O O12 0.891462 0.227319 0.002550
O O13 0.000000 0.500000 0.500000
O O14 0.500000 0.500000 0.500000
O O15 0.640161 0.500000 0.905316
#
# Coordination Sequence:
#
# PCOD8107552 Si02
#       7
#     8   4   8   8   4   4   8
#     4  11  22  39  57  87 125 155 193 242 300 345
#     4  10  22  42  64  86 116 158 191 236 304 347
#     4  10  21  39  59  89 117 152 193 245 292 351
#     4   9  20  40  60  82 118 165 199 237 291 346
#     4  12  22  40  64  92 115 151 201 241 274 361
#     4   8  18  40  62  78 116 153 189 231 296 350
#     4  10  21  37  61  88 118 156 205 242 283 351
#
# _framework density 19.812495999999999
#
# number of rings (size 3 to 8) (size 9 to 14) (size 15 to 20)
#    0.000    2.182    0.909    3.273    2.545    3.636 
#    6.545    0.000    0.000    0.000    0.000    0.000 
#    0.000    0.000    0.000    0.000    0.000    0.000 
#
# Total GULP energy -272681.492328 kJ/mol
# GULP energy per Si atom -12394.613288 kJ/mol
# Density = 1.976740 g / cm^3
# Si number density = 19.812496 Si / 1000 Ang^3
#
#
#
# Elastic Constant Matrix: (Units=GPa)
#
#
# Indices 1 2 3 4 5 6 
#
# 1 89.5022 33.8153 39.2685 0.0000 15.7296 0.0000
# 2 33.8153 134.6592 55.9578 0.0000 15.5614 0.0000
# 3 39.2685 55.9578 117.6779 0.0000 28.8953 0.0000
# 4 0.0000 0.0000 0.0000 55.9994 0.0000 -14.4537
# 5 15.7296 15.5614 28.8953 0.0000 20.7880 0.0000
# 6 0.0000 0.0000 0.0000 -14.4537 0.0000 64.5834
#
#
#
# Elastic Compliance Matrix: (Units=1/GPa)
#
#
# Indices 1 2 3 4 5 6 
#
# 1 0.013930 -0.001852 -0.002308 0.000000 -0.005947 0.000000
# 2 -0.001852 0.009522 -0.003801 0.000000 -0.000443 0.000000
# 3 -0.002308 -0.003801 0.015102 0.000000 -0.016401 0.000000
# 4 0.000000 0.000000 0.000000 0.018952 0.000000 0.004241
# 5 -0.005947 -0.000443 -0.016401 0.000000 0.075733 0.000000
# 6 0.000000 0.000000 0.000000 0.004241 0.000000 0.016433
#
#
# Mechanical properties :
#
#
# Convention : Reuss Voigt Hill
#
# Bulk Modulus (GPa) = 44.18271 66.65805 55.42038
# Shear Modulus (GPa) = 28.87855 42.46067 35.66961
#
# Velocity S-wave (km/s) = 3.82199 4.63441 4.24767
# Velocity P-wave (km/s) = 6.46727 7.89649 7.21734
#
# Compressibility (1/GPa) = 0.02263329
#
# Stress axis : x y z
#
# Youngs Moduli (GPa) = 71.78677 105.02049 66.21435
#
# Poissons Ratio (x) = 0.19450 0.15280
# Poissons Ratio (y) = 0.13295 0.25168
# Poissons Ratio (z) = 0.16566 0.39919
#
# Static dielectric constant tensor:
#      x y z
#    x 3.818950 0.000000 0.387110 
#    y 0.000000 4.108810 0.000000 
#    z 0.387110 0.000000 3.825750 
# 
# 
# High freq. dielectric constant tensor:
#      x y z
#    x 1.765270 0.000000 0.017480 
#    y 0.000000 1.788510 0.000000 
#    z 0.017480 0.000000 1.766770 
# 
# From -- ./inp_files/267242.got.cif
#   From: 2010.06.25/outbox.cif.g09.slc.cpg/sg12_134_cif.got.tgz:267242.got - 2010.06.28 00:19:55.
