data_PCOD8107196
_publ_section_title
;
Structure prediction by ZEFSAII (Michael W. Deem and Ramdas Pophale) SiO2 
 PCOD8107196
Probable space group: C 2/M
;
_chemical_formula_sum "Si O2"
_cell_formula_units_Z 56
_cell_length_a 27.502799
_cell_length_b 14.233961
_cell_length_c 14.150668
_cell_angle_alpha 90.000000
_cell_angle_beta 148.847615
_cell_angle_gamma 90.000000
_cell_volume 2865.731587
_symmetry_space_group_name_H-M "C 2/M"
_symmetry_group_IT_number 12
_symmetry_cell_setting 'monoclinic'
loop_
_space_group_symop_operation_xyz
x,y,z
-x,y,-z
-x,-y,-z
x,-y,z
1/2+x,1/2+y,z
1/2-x,1/2+y,-z
1/2-x,1/2-y,-z
1/2+x,1/2-y,z
loop_
_atom_site_type_symbol
_atom_site_label
_atom_site_fract_x
_atom_site_fract_y
_atom_site_fract_z
Si Si1 0.781738 0.892460 0.149837
Si Si2 0.747863 0.391856 0.119375
Si Si3 0.080940 0.263258 0.564945
Si Si4 0.250977 0.804227 0.405177
Si Si5 0.345163 0.769337 0.935179
Si Si6 0.416998 0.605823 0.795150
Si Si7 0.553611 0.241159 0.306584
O O1 0.875354 0.832359 0.321235
O O2 0.802363 0.000000 0.211136
O O3 0.750527 0.882503 0.990060
O O4 0.697846 0.853458 0.074824
O O5 0.738784 0.500000 0.137126
O O6 0.843782 0.347095 0.318704
O O7 0.662896 0.331271 0.023536
O O8 0.038396 0.239620 0.391934
O O9 0.000000 0.298610 0.500000
O O10 0.250000 0.750000 0.500000
O O11 0.179739 0.890850 0.303875
O O12 0.359534 0.833224 0.562641
O O13 0.211169 0.736290 0.256615
O O14 0.454625 0.794661 0.099732
O O15 0.437258 0.500000 0.798181
O O16 0.413563 0.664636 0.692692
O O17 0.500000 0.645137 0.000000
#
# Coordination Sequence:
#
# PCOD8107196 Si02
#       7
#     8   8   8   8   8   8   8
#     4  10  21  38  57  82 120 161 201 245 297 353
#     4  10  21  37  58  86 120 158 199 251 298 350
#     4  11  21  37  59  89 121 159 201 240 298 358
#     4  10  21  38  58  87 114 154 200 238 296 350
#     4  11  20  39  61  84 122 157 195 249 297 358
#     4  10  21  38  61  89 119 151 195 252 304 351
#     4  11  21  37  60  88 116 160 195 239 303 355
#
# _framework density 19.541257999999999
#
# number of rings (size 3 to 8) (size 9 to 14) (size 15 to 20)
#    0.000    1.571    4.286    3.429    0.000    2.286 
#    0.000    1.429    0.000    0.000    0.000    4.000 
#    0.000    0.000    0.000    0.000    0.000    0.000 
#
# Total GULP energy -347069.398478 kJ/mol
# GULP energy per Si atom -12395.335660 kJ/mol
# Density = 1.949678 g / cm^3
# Si number density = 19.541258 Si / 1000 Ang^3
#
#
#
# Elastic Constant Matrix: (Units=GPa)
#
#
# Indices 1 2 3 4 5 6 
#
# 1 99.0224 7.6064 37.8283 0.0000 -1.3833 0.0000
# 2 7.6064 72.5503 10.7111 0.0000 -8.1468 0.0000
# 3 37.8283 10.7111 99.3254 0.0000 10.9478 0.0000
# 4 0.0000 0.0000 0.0000 15.4826 0.0000 -3.3463
# 5 -1.3833 -8.1468 10.9478 0.0000 50.3346 0.0000
# 6 0.0000 0.0000 0.0000 -3.3463 0.0000 21.5163
#
#
#
# Elastic Compliance Matrix: (Units=1/GPa)
#
#
# Indices 1 2 3 4 5 6 
#
# 1 0.011919 -0.000423 -0.004633 0.000000 0.001267 0.000000
# 2 -0.000423 0.014378 -0.001685 0.000000 0.002682 0.000000
# 3 -0.004633 -0.001685 0.012355 0.000000 -0.003087 0.000000
# 4 0.000000 0.000000 0.000000 0.066835 0.000000 0.010394
# 5 0.001267 0.002682 -0.003087 0.000000 0.021007 0.000000
# 6 0.000000 0.000000 0.000000 0.010394 0.000000 0.048093
#
#
# Mechanical properties :
#
#
# Convention : Reuss Voigt Hill
#
# Bulk Modulus (GPa) = 39.73264 42.57665 41.15464
# Shear Modulus (GPa) = 25.45056 31.78352 28.61704
#
# Velocity S-wave (km/s) = 3.61280 4.03734 3.83095
# Velocity P-wave (km/s) = 6.14653 6.60067 6.37765
#
# Compressibility (1/GPa) = 0.02516823
#
# Stress axis : x y z
#
# Youngs Moduli (GPa) = 83.89991 69.55155 80.94214
#
# Poissons Ratio (x) = 0.02944 0.37503
# Poissons Ratio (y) = 0.03552 0.13638
# Poissons Ratio (z) = 0.38874 0.11719
#
# Static dielectric constant tensor:
#      x y z
#    x 3.930810 0.000000 0.146400 
#    y 0.000000 3.343370 0.000000 
#    z 0.146400 0.000000 3.743790 
# 
# 
# High freq. dielectric constant tensor:
#      x y z
#    x 1.778910 0.000000 -0.002570 
#    y 0.000000 1.722560 0.000000 
#    z -0.002570 0.000000 1.772880 
# 
# From -- ./inp_files/214325.got.cif
#   From: 2010.06.25/outbox.cif.g09.slc.cpg/sg12_108_cif.got.tgz:214325.got - 2010.06.28 00:19:55.
