data_PCOD8107452
_publ_section_title
;
Structure prediction by ZEFSAII (Michael W. Deem and Ramdas Pophale) SiO2 
 PCOD8107452
Probable space group: C 2/M
;
_chemical_formula_sum "Si O2"
_cell_formula_units_Z 40
_cell_length_a 9.935286
_cell_length_b 22.455257
_cell_length_c 8.889467
_cell_angle_alpha 90.000000
_cell_angle_beta 97.105047
_cell_angle_gamma 90.000000
_cell_volume 1968.005591
_symmetry_space_group_name_H-M "C 2/M"
_symmetry_group_IT_number 12
_symmetry_cell_setting 'monoclinic'
loop_
_space_group_symop_operation_xyz
x,y,z
-x,y,-z
-x,-y,-z
x,-y,z
1/2+x,1/2+y,z
1/2-x,1/2+y,-z
1/2-x,1/2-y,-z
1/2+x,1/2-y,z
loop_
_atom_site_type_symbol
_atom_site_label
_atom_site_fract_x
_atom_site_fract_y
_atom_site_fract_z
Si Si1 0.376126 0.000000 0.091823
Si Si2 0.775756 0.812228 0.700189
Si Si3 0.966602 0.886506 0.326838
Si Si4 0.450965 0.125830 0.163804
Si Si5 0.899358 0.000000 0.122499
Si Si6 0.698937 0.820009 0.352004
O O1 0.386831 0.060400 0.191692
O O2 0.500000 0.000000 0.000000
O O3 0.248782 0.000000 0.965503
O O4 0.668109 0.826959 0.816696
O O5 0.696939 0.819054 0.531881
O O6 0.830281 0.744938 0.722424
O O7 0.903565 0.856029 0.731997
O O8 0.921759 0.942669 0.226205
O O9 0.844870 0.839493 0.310739
O O10 0.000000 0.907716 0.500000
O O11 0.581349 0.134832 0.286978
O O12 0.500000 0.133575 0.000000
O O13 0.000000 0.000000 0.000000
#
# Coordination Sequence:
#
# PCOD8107452 Si02
#       6
#     4   8   8   8   4   8
#     4  10  22  39  57  79 115 155 189 230 286 338
#     4  10  21  39  61  87 117 151 190 234 290 343
#     4  10  21  37  60  88 114 148 196 240 281 339
#     4  11  22  38  59  86 118 153 193 235 283 341
#     4  12  23  39  60  81 116 157 190 236 293 340
#     4  10  21  39  62  85 117 154 188 236 289 339
#
# _framework density 20.325144999999999
#
# number of rings (size 3 to 8) (size 9 to 14) (size 15 to 20)
#    0.000    1.600    0.000    5.700    0.000    4.000 
#    0.000    8.000    0.000    0.000    0.000    0.000 
#    0.000    0.000    0.000    0.000    0.000    0.000 
#
# Total GULP energy -248039.796405 kJ/mol
# GULP energy per Si atom -12401.989820 kJ/mol
# Density = 2.027888 g / cm^3
# Si number density = 20.325145 Si / 1000 Ang^3
#
#
#
# Elastic Constant Matrix: (Units=GPa)
#
#
# Indices 1 2 3 4 5 6 
#
# 1 134.1943 44.8674 52.5734 0.0000 6.8945 0.0000
# 2 44.8674 134.4238 61.2880 0.0000 14.1754 0.0000
# 3 52.5734 61.2880 71.5997 0.0000 6.1176 0.0000
# 4 0.0000 0.0000 0.0000 36.3330 0.0000 9.8961
# 5 6.8945 14.1754 6.1176 0.0000 44.7315 0.0000
# 6 0.0000 0.0000 0.0000 9.8961 0.0000 36.1067
#
#
#
# Elastic Compliance Matrix: (Units=1/GPa)
#
#
# Indices 1 2 3 4 5 6 
#
# 1 0.010476 0.000081 -0.007712 0.000000 -0.000586 0.000000
# 2 0.000081 0.012476 -0.010523 0.000000 -0.002527 0.000000
# 3 -0.007712 -0.010523 0.028584 0.000000 0.000614 0.000000
# 4 0.000000 0.000000 0.000000 0.029744 0.000000 -0.008152
# 5 -0.000586 -0.002527 0.000614 0.000000 0.023163 0.000000
# 6 0.000000 0.000000 0.000000 -0.008152 0.000000 0.029930
#
#
# Mechanical properties :
#
#
# Convention : Reuss Voigt Hill
#
# Bulk Modulus (GPa) = 65.66353 73.07504 69.36929
# Shear Modulus (GPa) = 28.44841 35.53350 31.99096
#
# Velocity S-wave (km/s) = 3.74527 4.18575 3.97162
# Velocity P-wave (km/s) = 7.14699 7.70660 7.43206
#
# Compressibility (1/GPa) = 0.01522915
#
# Stress axis : x y z
#
# Youngs Moduli (GPa) = 95.45594 80.15098 34.98451
#
# Poissons Ratio (x) = -0.00650 0.26979
# Poissons Ratio (y) = -0.00774 0.36815
# Poissons Ratio (z) = 0.73611 0.84345
#
# Static dielectric constant tensor:
#      x y z
#    x 4.944250 0.000000 -1.476420 
#    y 0.000000 5.140890 0.000000 
#    z -1.476420 0.000000 5.528520 
# 
# 
# High freq. dielectric constant tensor:
#      x y z
#    x 1.813570 0.000000 0.003080 
#    y 0.000000 1.802630 0.000000 
#    z 0.003080 0.000000 1.779720 
# 
# From -- ./inp_files/39487.got.cif
#   From: 2010.06.25/outbox.cif.g09.slc.cpg/sg12_20_cif.got.tgz:39487.got - 2010.06.28 00:19:55.
