data_PCOD8107493
_publ_section_title
;
Structure prediction by ZEFSAII (Michael W. Deem and Ramdas Pophale) SiO2 
 PCOD8107493
Probable space group: C 2/M
;
_chemical_formula_sum "Si O2"
_cell_formula_units_Z 56
_cell_length_a 9.669596
_cell_length_b 21.218819
_cell_length_c 16.268294
_cell_angle_alpha 90.000000
_cell_angle_beta 56.354137
_cell_angle_gamma 90.000000
_cell_volume 2778.717001
_symmetry_space_group_name_H-M "C 2/M"
_symmetry_group_IT_number 12
_symmetry_cell_setting 'monoclinic'
loop_
_space_group_symop_operation_xyz
x,y,z
-x,y,-z
-x,-y,-z
x,-y,z
1/2+x,1/2+y,z
1/2-x,1/2+y,-z
1/2-x,1/2-y,-z
1/2+x,1/2-y,z
loop_
_atom_site_type_symbol
_atom_site_label
_atom_site_fract_x
_atom_site_fract_y
_atom_site_fract_z
Si Si1 0.604278 0.319061 0.655812
Si Si2 0.842613 0.280603 0.707941
Si Si3 0.695961 0.701437 0.923756
Si Si4 0.381870 0.425178 0.760423
Si Si5 0.606753 0.130404 0.540688
Si Si6 0.833309 0.927746 0.592748
Si Si7 0.808138 0.656319 0.047289
O O1 0.689955 0.273941 0.695071
O O2 0.427071 0.287781 0.690957
O O3 0.560705 0.389577 0.703730
O O4 0.736405 0.327643 0.539415
O O5 0.761706 0.315989 0.812483
O O6 0.985572 0.324198 0.627588
O O7 0.761729 0.773579 0.911209
O O8 0.500000 0.698583 0.000000
O O9 0.774783 0.650175 0.960476
O O10 0.406702 0.500000 0.764806
O O11 0.299166 0.407266 0.698833
O O12 0.275798 0.398086 0.871151
O O13 0.500000 0.099477 0.500000
O O14 0.674480 0.081030 0.585484
O O15 0.000000 0.894007 0.500000
O O16 0.876520 0.000000 0.583340
O O17 0.000000 0.650508 0.000000
#
# Coordination Sequence:
#
# PCOD8107493 Si02
#       7
#     8   8   8   8   8   8   8
#     4  11  23  40  60  96 127 165 206 253 316 382
#     4  11  24  37  63  92 129 162 203 260 319 374
#     4  10  21  37  60  89 122 158 205 258 306 377
#     4  11  23  41  66  91 125 168 211 257 312 372
#     4  10  23  39  57  92 132 163 202 254 319 379
#     4  10  21  38  64  91 119 165 216 256 300 371
#     4  10  22  37  60  90 119 157 209 257 312 359
#
# _framework density 20.153186999999999
#
# number of rings (size 3 to 8) (size 9 to 14) (size 15 to 20)
#    0.000    1.571    2.857    1.286    8.000    0.571 
#    0.000    2.143    0.000    3.857    0.000    0.000 
#    0.000    0.000    0.000    0.000    0.000    0.000 
#
# Total GULP energy -346892.897941 kJ/mol
# GULP energy per Si atom -12389.032069 kJ/mol
# Density = 2.010732 g / cm^3
# Si number density = 20.153187 Si / 1000 Ang^3
#
#
#
# Elastic Constant Matrix: (Units=GPa)
#
#
# Indices 1 2 3 4 5 6 
#
# 1 107.3866 47.5119 25.9372 0.0000 5.1512 0.0000
# 2 47.5119 70.3271 45.5878 0.0000 2.4771 0.0000
# 3 25.9372 45.5878 119.5282 0.0000 2.7428 0.0000
# 4 0.0000 0.0000 0.0000 24.4258 0.0000 -0.9343
# 5 5.1512 2.4771 2.7428 0.0000 31.4219 0.0000
# 6 0.0000 0.0000 0.0000 -0.9343 0.0000 31.4002
#
#
#
# Elastic Compliance Matrix: (Units=1/GPa)
#
#
# Indices 1 2 3 4 5 6 
#
# 1 0.013400 -0.009481 0.000743 0.000000 -0.001514 0.000000
# 2 -0.009481 0.025621 -0.007719 0.000000 0.000208 0.000000
# 3 0.000743 -0.007719 0.011160 0.000000 -0.000487 0.000000
# 4 0.000000 0.000000 0.000000 0.040987 0.000000 0.001220
# 5 -0.001514 0.000208 -0.000487 0.000000 0.032099 0.000000
# 6 0.000000 0.000000 0.000000 0.001220 0.000000 0.031883
#
#
# Mechanical properties :
#
#
# Convention : Reuss Voigt Hill
#
# Bulk Modulus (GPa) = 57.91485 59.47952 58.69718
# Shear Modulus (GPa) = 25.79692 29.32992 27.56342
#
# Velocity S-wave (km/s) = 3.58165 3.81904 3.70225
# Velocity P-wave (km/s) = 6.77525 7.00175 6.88943
#
# Compressibility (1/GPa) = 0.01726673
#
# Stress axis : x y z
#
# Youngs Moduli (GPa) = 74.62566 39.03019 89.60377
#
# Poissons Ratio (x) = 0.37006 -0.06659
# Poissons Ratio (y) = 0.70755 0.69167
# Poissons Ratio (z) = -0.05546 0.30128
#
# Static dielectric constant tensor:
#      x y z
#    x 4.059750 0.000000 0.279240 
#    y 0.000000 3.406110 0.000000 
#    z 0.279240 0.000000 3.578610 
# 
# 
# High freq. dielectric constant tensor:
#      x y z
#    x 1.790390 0.000000 0.003760 
#    y 0.000000 1.750010 0.000000 
#    z 0.003760 0.000000 1.802240 
# 
# From -- ./inp_files/257982.got.cif
#   From: 2010.06.25/outbox.cif.g09.slc.cpg/sg12_129_cif.got.tgz:257982.got - 2010.06.28 00:19:55.
