data_PCOD8107484
_publ_section_title
;
Structure prediction by ZEFSAII (Michael W. Deem and Ramdas Pophale) SiO2 
 PCOD8107484
Probable space group: C 2/M
;
_chemical_formula_sum "Si O2"
_cell_formula_units_Z 56
_cell_length_a 20.495894
_cell_length_b 19.377724
_cell_length_c 16.316578
_cell_angle_alpha 90.000000
_cell_angle_beta 25.807352
_cell_angle_gamma 90.000000
_cell_volume 2821.200111
_symmetry_space_group_name_H-M "C 2/M"
_symmetry_group_IT_number 12
_symmetry_cell_setting 'monoclinic'
loop_
_space_group_symop_operation_xyz
x,y,z
-x,y,-z
-x,-y,-z
x,-y,z
1/2+x,1/2+y,z
1/2-x,1/2+y,-z
1/2-x,1/2-y,-z
1/2+x,1/2-y,z
loop_
_atom_site_type_symbol
_atom_site_label
_atom_site_fract_x
_atom_site_fract_y
_atom_site_fract_z
Si Si1 0.233438 0.923960 0.922613
Si Si2 0.024767 0.075925 0.674868
Si Si3 0.117468 0.578832 0.070340
Si Si4 0.700431 0.292211 0.861130
Si Si5 0.851194 0.218647 0.270574
Si Si6 0.876371 0.843132 0.707368
Si Si7 0.200406 0.644225 0.582793
O O1 0.057042 0.922391 0.144300
O O2 0.276932 0.000000 0.837893
O O3 0.320570 0.909986 0.908629
O O4 0.266484 0.865241 0.818174
O O5 0.202177 0.083163 0.487183
O O6 0.962412 0.141586 0.694871
O O7 0.993036 0.000000 0.669596
O O8 0.082045 0.500000 0.090912
O O9 0.969279 0.623029 0.232835
O O10 0.232771 0.605714 0.869969
O O11 0.701655 0.293223 0.762091
O O12 0.812970 0.234450 0.770365
O O13 0.530058 0.281121 0.083048
O O14 0.785525 0.291514 0.372335
O O15 0.771702 0.159750 0.413627
O O16 0.000000 0.861754 0.500000
#
# Coordination Sequence:
#
# PCOD8107484 Si02
#       7
#     8   8   8   8   8   8   8
#     4   9  20  39  61  88 121 156 200 248 299 366
#     4  10  21  37  60  89 120 161 205 245 298 363
#     4  10  22  39  62  90 123 162 203 248 304 367
#     4  11  21  41  61  90 123 159 200 256 307 355
#     4  10  23  36  62  91 122 155 207 256 299 362
#     4  11  23  39  61  89 120 159 205 259 300 356
#     4  11  20  41  61  90 121 163 201 251 305 358
#
# _framework density 19.849709000000001
#
# number of rings (size 3 to 8) (size 9 to 14) (size 15 to 20)
#    0.000    1.714    2.857    2.571    0.000    6.857 
#    0.000    2.857    0.000    4.714    0.000    0.000 
#    0.000    0.000    0.000    0.000    0.000    0.000 
#
# Total GULP energy -347004.678456 kJ/mol
# GULP energy per Si atom -12393.024231 kJ/mol
# Density = 1.980453 g / cm^3
# Si number density = 19.849709 Si / 1000 Ang^3
#
#
#
# Elastic Constant Matrix: (Units=GPa)
#
#
# Indices 1 2 3 4 5 6 
#
# 1 77.4802 71.3053 46.5320 -0.0007 0.9522 0.0000
# 2 71.3053 128.4660 41.2511 0.0028 6.0133 -0.0010
# 3 46.5320 41.2511 120.8630 0.0045 -2.3413 -0.0031
# 4 -0.0007 0.0028 0.0045 22.5310 -0.0006 -7.2158
# 5 0.9522 6.0133 -2.3413 -0.0006 30.9210 0.0001
# 6 0.0000 -0.0010 -0.0031 -7.2158 0.0001 26.4334
#
#
#
# Elastic Compliance Matrix: (Units=1/GPa)
#
#
# Indices 1 2 3 4 5 6 
#
# 1 0.030635 -0.014930 -0.006670 0.000004 0.001455 0.000000
# 2 -0.014930 0.016135 0.000190 -0.000003 -0.002664 0.000000
# 3 -0.006670 0.000190 0.010796 -0.000002 0.000986 0.000001
# 4 0.000004 -0.000003 -0.000002 0.048635 0.000001 0.013277
# 5 0.001455 -0.002664 0.000986 0.000001 0.032888 0.000000
# 6 0.000000 0.000000 0.000001 0.013277 0.000000 0.041455
#
#
# Mechanical properties :
#
#
# Convention : Reuss Voigt Hill
#
# Bulk Modulus (GPa) = 67.82369 71.66512 69.74441
# Shear Modulus (GPa) = 21.90270 27.15846 24.53058
#
# Velocity S-wave (km/s) = 3.32539 3.70294 3.51923
# Velocity P-wave (km/s) = 6.99908 7.38001 7.19207
#
# Compressibility (1/GPa) = 0.01474411
#
# Stress axis : x y z
#
# Youngs Moduli (GPa) = 32.64233 61.97690 92.62379
#
# Poissons Ratio (x) = 0.92533 0.61785
# Poissons Ratio (y) = 0.48736 -0.01756
# Poissons Ratio (z) = 0.21774 -0.01175
#
# Static dielectric constant tensor:
#      x y z
#    x 3.365380 -0.000010 -0.074570 
#    y -0.000010 3.639030 0.000010 
#    z -0.074570 0.000010 3.753270 
# 
# 
# High freq. dielectric constant tensor:
#      x y z
#    x 1.755580 0.000000 -0.011920 
#    y 0.000000 1.777980 0.000000 
#    z -0.011920 0.000000 1.780430 
# 
# From -- ./inp_files/227571.got.cif
#   From: 2010.06.25/outbox.cif.g09.slc.cpg/sg12_114_cif.got.tgz:227571.got - 2010.06.28 00:19:55.
