data_PCOD8107651
_publ_section_title
;
Structure prediction by ZEFSAII (Michael W. Deem and Ramdas Pophale) SiO2 
 PCOD8107651
Probable space group: C 2/M
;
_chemical_formula_sum "Si O2"
_cell_formula_units_Z 32
_cell_length_a 8.998155
_cell_length_b 27.556579
_cell_length_c 12.033493
_cell_angle_alpha 90.000000
_cell_angle_beta 147.887018
_cell_angle_gamma 90.000000
_cell_volume 1586.162568
_symmetry_space_group_name_H-M "C 2/M"
_symmetry_group_IT_number 12
_symmetry_cell_setting 'monoclinic'
loop_
_space_group_symop_operation_xyz
x,y,z
-x,y,-z
-x,-y,-z
x,-y,z
1/2+x,1/2+y,z
1/2-x,1/2+y,-z
1/2-x,1/2-y,-z
1/2+x,1/2-y,z
loop_
_atom_site_type_symbol
_atom_site_label
_atom_site_fract_x
_atom_site_fract_y
_atom_site_fract_z
Si Si1 0.281857 0.377900 0.612457
Si Si2 0.252061 0.703997 0.422334
Si Si3 0.711884 0.945771 0.381763
Si Si4 0.889370 0.361969 0.056399
O O1 0.333590 0.342737 0.542552
O O2 0.256862 0.430948 0.540163
O O3 0.000000 0.364501 0.500000
O O4 0.556534 0.369811 0.860773
O O5 0.500000 0.717685 0.500000
O O6 0.250000 0.750000 0.500000
O O7 0.976821 0.688322 0.175691
O O8 0.504033 0.909642 0.188685
O O9 0.000000 0.944627 0.500000
O O10 0.584206 0.000000 0.299832
O O11 0.000000 0.359691 0.000000
#
# Coordination Sequence:
#
# PCOD8107651 Si02
#       4
#     8   8   8   8
#     4  11  23  41  62  90 128 163 205 259 312 361
#     4  11  23  41  63  93 125 157 207 258 309 371
#     4  10  21  37  62  94 125 162 211 258 305 367
#     4  11  20  41  66  89 122 169 208 251 307 372
#
# _framework density 20.174477
#
# number of rings (size 3 to 8) (size 9 to 14) (size 15 to 20)
#    0.000    1.250    5.000    2.250    0.000    7.000 
#    0.000    1.250    0.000    0.000    0.000    0.000 
#    0.000    0.000    0.000    0.000    0.000    0.000 
#
# Total GULP energy -198238.985525 kJ/mol
# GULP energy per Si atom -12389.936595 kJ/mol
# Density = 2.012856 g / cm^3
# Si number density = 20.174477 Si / 1000 Ang^3
#
#
#
# Elastic Constant Matrix: (Units=GPa)
#
#
# Indices 1 2 3 4 5 6 
#
# 1 105.5612 52.6221 53.6964 0.0000 9.8620 0.0000
# 2 52.6221 119.5433 65.6309 0.0000 -6.4548 0.0000
# 3 53.6964 65.6309 168.2268 0.0000 7.9214 0.0000
# 4 0.0000 0.0000 0.0000 30.1218 0.0000 -8.1849
# 5 9.8620 -6.4548 7.9214 0.0000 35.1240 0.0000
# 6 0.0000 0.0000 0.0000 -8.1849 0.0000 35.5212
#
#
#
# Elastic Compliance Matrix: (Units=1/GPa)
#
#
# Indices 1 2 3 4 5 6 
#
# 1 0.013432 -0.004955 -0.002157 0.000000 -0.004196 0.000000
# 2 -0.004955 0.012779 -0.003618 0.000000 0.004556 0.000000
# 3 -0.002157 -0.003618 0.008134 0.000000 -0.001894 0.000000
# 4 0.000000 0.000000 0.000000 0.035416 0.000000 0.008161
# 5 -0.004196 0.004556 -0.001894 0.000000 0.030913 0.000000
# 6 0.000000 0.000000 0.000000 0.008161 0.000000 0.030033
#
#
# Mechanical properties :
#
#
# Convention : Reuss Voigt Hill
#
# Bulk Modulus (GPa) = 77.61426 81.91447 79.76437
# Shear Modulus (GPa) = 31.95663 34.91220 33.43441
#
# Velocity S-wave (km/s) = 3.98428 4.16446 4.07537
# Velocity P-wave (km/s) = 7.72794 7.98841 7.85926
#
# Compressibility (1/GPa) = 0.01288423
#
# Stress axis : x y z
#
# Youngs Moduli (GPa) = 74.44636 78.25340 122.94745
#
# Poissons Ratio (x) = 0.38778 0.26516
# Poissons Ratio (y) = 0.36891 0.44486
# Poissons Ratio (z) = 0.16056 0.28315
#
# Static dielectric constant tensor:
#      x y z
#    x 3.616050 0.000000 -0.258940 
#    y 0.000000 4.250330 0.000000 
#    z -0.258940 0.000000 4.191580 
# 
# 
# High freq. dielectric constant tensor:
#      x y z
#    x 1.787780 0.000000 -0.007750 
#    y 0.000000 1.787890 0.000000 
#    z -0.007750 0.000000 1.792120 
# 
# From -- ./inp_files/3511.got.cif
#   From: 2010.06.25/outbox.cif.g09.slc.cpg/sg12_2_cif.got.tgz:3511.got - 2010.06.28 00:19:55.
