data_PCOD8107955
_publ_section_title
;
Structure prediction by ZEFSAII (Michael W. Deem and Ramdas Pophale) SiO2 
 PCOD8107955
Probable space group: C 2/M
;
_chemical_formula_sum "Si O2"
_cell_formula_units_Z 48
_cell_length_a 26.864968
_cell_length_b 9.126150
_cell_length_c 15.284605
_cell_angle_alpha 90.000000
_cell_angle_beta 40.929191
_cell_angle_gamma 90.000000
_cell_volume 2455.007745
_symmetry_space_group_name_H-M "C 2/M"
_symmetry_group_IT_number 12
_symmetry_cell_setting 'monoclinic'
loop_
_space_group_symop_operation_xyz
x,y,z
-x,y,-z
-x,-y,-z
x,-y,z
1/2+x,1/2+y,z
1/2-x,1/2+y,-z
1/2-x,1/2-y,-z
1/2+x,1/2-y,z
loop_
_atom_site_type_symbol
_atom_site_label
_atom_site_fract_x
_atom_site_fract_y
_atom_site_fract_z
Si Si1 0.200024 0.828243 0.494494
Si Si2 0.038682 0.330719 0.357547
Si Si3 0.714977 0.171328 0.129152
Si Si4 0.223284 0.668377 0.786577
Si Si5 0.526114 0.673064 0.722306
Si Si6 0.952736 0.668768 0.979850
O O1 0.250000 0.750000 0.500000
O O2 0.227875 0.780803 0.361503
O O3 0.113066 0.779212 0.622012
O O4 0.210894 0.000000 0.492990
O O5 0.026253 0.500000 0.348638
O O6 0.126561 0.291636 0.250107
O O7 0.000000 0.290774 0.500000
O O8 0.000937 0.230821 0.334806
O O9 0.755146 0.228368 0.162502
O O10 0.730723 0.000000 0.099964
O O11 0.750000 0.250000 0.000000
O O12 0.240503 0.500000 0.788904
O O13 0.135191 0.690167 0.880683
O O14 0.517070 0.500000 0.734871
O O15 0.473422 0.738609 0.867457
O O16 0.972738 0.500000 0.933707
O O17 0.000000 0.727384 0.000000
#
# Coordination Sequence:
#
# PCOD8107955 Si02
#       6
#     8   8   8   8   8   8
#     4  10  22  39  59  85 115 148 187 230 278 331
#     4  10  22  40  60  82 110 148 192 231 272 331
#     4  11  23  38  58  84 113 147 187 231 280 333
#     4  10  21  38  59  83 112 147 189 233 276 328
#     4  11  23  37  57  87 118 146 181 231 286 333
#     4  10  21  38  60  83 110 150 193 229 272 330
#
# _framework density 19.551873000000001
#
# number of rings (size 3 to 8) (size 9 to 14) (size 15 to 20)
#    0.000    1.667    0.000    4.000    0.000   10.000 
#    0.000    0.000    0.000    0.000    0.000    0.000 
#    0.000    0.000    0.000    0.000    0.000    0.000 
#
# Total GULP energy -297756.511397 kJ/mol
# GULP energy per Si atom -12406.521308 kJ/mol
# Density = 1.950737 g / cm^3
# Si number density = 19.551873 Si / 1000 Ang^3
#
#
#
# Elastic Constant Matrix: (Units=GPa)
#
#
# Indices 1 2 3 4 5 6 
#
# 1 103.4143 44.4435 16.1496 0.0008 4.6012 0.0019
# 2 44.4435 66.2620 36.1730 0.0114 0.0188 -0.0033
# 3 16.1496 36.1730 106.1755 0.0017 4.9515 -0.0001
# 4 0.0008 0.0114 0.0017 12.8437 -0.0042 -3.7674
# 5 4.6012 0.0188 4.9515 -0.0042 31.1227 0.0011
# 6 0.0019 -0.0033 -0.0001 -3.7674 0.0011 38.0788
#
#
#
# Elastic Compliance Matrix: (Units=1/GPa)
#
#
# Indices 1 2 3 4 5 6 
#
# 1 0.013886 -0.010095 0.001433 0.000007 -0.002275 -0.000001
# 2 -0.010095 0.025910 -0.007416 -0.000020 0.002657 0.000001
# 3 0.001433 -0.007416 0.011824 0.000004 -0.002089 0.000000
# 4 0.000007 -0.000020 0.000004 0.080186 0.000009 0.007933
# 5 -0.002275 0.002657 -0.002089 0.000009 0.032798 0.000000
# 6 -0.000001 0.000001 0.000000 0.007933 0.000000 0.027046
#
#
# Mechanical properties :
#
#
# Convention : Reuss Voigt Hill
#
# Bulk Modulus (GPa) = 51.37446 52.15376 51.76411
# Shear Modulus (GPa) = 21.71132 28.34810 25.02971
#
# Velocity S-wave (km/s) = 3.33595 3.81188 3.58183
# Velocity P-wave (km/s) = 6.41647 6.79016 6.60596
#
# Compressibility (1/GPa) = 0.01946492
#
# Stress axis : x y z
#
# Youngs Moduli (GPa) = 72.01581 38.59446 84.57205
#
# Poissons Ratio (x) = 0.38963 -0.12123
# Poissons Ratio (y) = 0.72703 0.62717
# Poissons Ratio (z) = -0.10323 0.28621
#
# Static dielectric constant tensor:
#      x y z
#    x 3.721450 0.000020 0.062290 
#    y 0.000020 3.545340 0.000030 
#    z 0.062290 0.000030 4.015660 
# 
# 
# High freq. dielectric constant tensor:
#      x y z
#    x 1.774940 0.000000 -0.002250 
#    y 0.000000 1.759330 0.000000 
#    z -0.002250 0.000000 1.780850 
# 
# From -- ./inp_files/244600.got.cif
#   From: 2010.06.25/outbox.cif.g09.slc.cpg/sg12_123_cif.got.tgz:244600.got - 2010.06.28 00:19:55.
