data_PCOD8107567
_publ_section_title
;
Structure prediction by ZEFSAII (Michael W. Deem and Ramdas Pophale) SiO2 
 PCOD8107567
Probable space group: C 2/M
;
_chemical_formula_sum "Si O2"
_cell_formula_units_Z 48
_cell_length_a 24.522458
_cell_length_b 8.918581
_cell_length_c 19.647299
_cell_angle_alpha 90.000000
_cell_angle_beta 33.025604
_cell_angle_gamma 90.000000
_cell_volume 2341.909361
_symmetry_space_group_name_H-M "C 2/M"
_symmetry_group_IT_number 12
_symmetry_cell_setting 'monoclinic'
loop_
_space_group_symop_operation_xyz
x,y,z
-x,y,-z
-x,-y,-z
x,-y,z
1/2+x,1/2+y,z
1/2-x,1/2+y,-z
1/2-x,1/2-y,-z
1/2+x,1/2-y,z
loop_
_atom_site_type_symbol
_atom_site_label
_atom_site_fract_x
_atom_site_fract_y
_atom_site_fract_z
Si Si1 0.586020 0.178543 0.359918
Si Si2 0.309152 0.672715 0.152019
Si Si3 0.634424 0.822811 0.776932
Si Si4 0.957958 0.172475 0.879110
Si Si5 0.523395 0.827955 0.278869
Si Si6 0.788048 0.672139 0.527471
O O1 0.500000 0.243942 0.500000
O O2 0.695161 0.232365 0.270467
O O3 0.570636 0.236516 0.298987
O O4 0.579446 0.000000 0.366513
O O5 0.313280 0.500000 0.171030
O O6 0.377014 0.768840 0.133181
O O7 0.356167 0.692832 0.028129
O O8 0.546550 0.765819 0.820560
O O9 0.740021 0.755405 0.642068
O O10 0.635561 0.000000 0.771639
O O11 0.935838 0.231040 0.826578
O O12 0.991523 0.000000 0.841114
O O13 0.405511 0.811732 0.410275
O O14 0.554322 0.000000 0.233854
O O15 0.753885 0.500000 0.562831
O O16 0.750000 0.750000 0.500000
#
# Coordination Sequence:
#
# PCOD8107567 Si02
#       6
#     8   8   8   8   8   8
#     4   9  18  37  64  89 114 150 195 242 292 355
#     4  10  22  40  61  86 116 156 202 243 294 357
#     4  12  24  38  59  87 119 157 200 249 300 352
#     4  11  23  38  58  85 120 158 196 245 301 355
#     4  10  21  37  61  90 119 154 197 241 289 353
#     4  11  21  35  58  88 120 154 193 239 292 348
#
# _framework density 20.496096000000001
#
# number of rings (size 3 to 8) (size 9 to 14) (size 15 to 20)
#    0.000    1.500    1.667    4.000    0.000    7.333 
#    0.000    0.833    0.000    2.000    0.000    0.000 
#    0.000    0.000    0.000    0.000    0.000    0.000 
#
# Total GULP energy -297684.435098 kJ/mol
# GULP energy per Si atom -12403.518129 kJ/mol
# Density = 2.044945 g / cm^3
# Si number density = 20.496096 Si / 1000 Ang^3
#
#
#
# Elastic Constant Matrix: (Units=GPa)
#
#
# Indices 1 2 3 4 5 6 
#
# 1 122.9138 40.1762 33.7595 0.0015 19.2909 -0.0002
# 2 40.1762 113.1594 41.7163 0.0051 9.2597 -0.0017
# 3 33.7595 41.7163 100.3486 0.0000 14.6662 -0.0006
# 4 0.0015 0.0051 0.0000 26.8165 0.0003 10.3743
# 5 19.2909 9.2597 14.6662 0.0003 32.4277 -0.0001
# 6 -0.0002 -0.0017 -0.0006 10.3743 -0.0001 28.4003
#
#
#
# Elastic Compliance Matrix: (Units=1/GPa)
#
#
# Indices 1 2 3 4 5 6 
#
# 1 0.010164 -0.002623 -0.001665 0.000000 -0.004544 0.000000
# 2 -0.002623 0.011150 -0.003764 -0.000003 0.000079 0.000002
# 3 -0.001665 -0.003764 0.012623 0.000001 -0.003644 0.000000
# 4 0.000000 -0.000003 0.000001 0.043427 0.000000 -0.015864
# 5 -0.004544 0.000079 -0.003644 0.000000 0.035167 0.000000
# 6 0.000000 0.000002 0.000000 -0.015864 0.000000 0.041006
#
#
# Mechanical properties :
#
#
# Convention : Reuss Voigt Hill
#
# Bulk Modulus (GPa) = 56.07840 63.08066 59.57953
# Shear Modulus (GPa) = 28.47655 32.24689 30.36172
#
# Velocity S-wave (km/s) = 3.73146 3.97081 3.85300
# Velocity P-wave (km/s) = 6.78122 7.20186 6.99471
#
# Compressibility (1/GPa) = 0.01783218
#
# Stress axis : x y z
#
# Youngs Moduli (GPa) = 98.39061 89.68990 79.22266
#
# Poissons Ratio (x) = 0.23525 0.13188
# Poissons Ratio (y) = 0.25807 0.29821
# Poissons Ratio (z) = 0.16379 0.33761
#
# Static dielectric constant tensor:
#      x y z
#    x 3.474400 0.000010 0.345930 
#    y 0.000010 3.492260 -0.000010 
#    z 0.345930 -0.000010 3.674210 
# 
# 
# High freq. dielectric constant tensor:
#      x y z
#    x 1.806550 0.000000 0.010030 
#    y 0.000000 1.779690 0.000000 
#    z 0.010030 0.000000 1.811260 
# 
# From -- ./inp_files/327156.got.cif
#   From: 2010.06.25/outbox.cif.g09.slc.cpg/sg12_164_cif.got.tgz:327156.got - 2010.06.28 00:19:55.
