data_PCOD8107507
_publ_section_title
;
Structure prediction by ZEFSAII (Michael W. Deem and Ramdas Pophale) SiO2 
 PCOD8107507
Probable space group: C 2/M
;
_chemical_formula_sum "Si O2"
_cell_formula_units_Z 44
_cell_length_a 22.156155
_cell_length_b 9.153282
_cell_length_c 27.670830
_cell_angle_alpha 90.000000
_cell_angle_beta 158.310364
_cell_angle_gamma 90.000000
_cell_volume 2073.959821
_symmetry_space_group_name_H-M "C 2/M"
_symmetry_group_IT_number 12
_symmetry_cell_setting 'monoclinic'
loop_
_space_group_symop_operation_xyz
x,y,z
-x,y,-z
-x,-y,-z
x,-y,z
1/2+x,1/2+y,z
1/2-x,1/2+y,-z
1/2-x,1/2-y,-z
1/2+x,1/2-y,z
loop_
_atom_site_type_symbol
_atom_site_label
_atom_site_fract_x
_atom_site_fract_y
_atom_site_fract_z
Si Si1 0.500000 0.258424 0.000000
Si Si2 0.495994 0.329763 0.591567
Si Si3 0.813896 0.833321 0.678419
Si Si4 0.182839 0.661244 0.226287
Si Si5 0.677300 0.162716 0.806567
Si Si6 0.342712 0.332103 0.111027
O O1 0.561882 0.159838 0.090474
O O2 0.652087 0.354990 0.095226
O O3 0.479958 0.500000 0.592857
O O4 0.327106 0.271190 0.445406
O O5 0.632830 0.303154 0.652865
O O6 0.539886 0.242899 0.672782
O O7 0.871105 0.779626 0.774069
O O8 0.963639 0.821688 0.752945
O O9 0.752207 0.000000 0.636612
O O10 0.175868 0.500000 0.244444
O O11 0.706698 0.256136 0.876139
O O12 0.614972 0.000000 0.772923
O O13 0.284473 0.500000 0.069125
O O14 0.250000 0.250000 0.000000
#
# Coordination Sequence:
#
# PCOD8107507 Si02
#       6
#     4   8   8   8   8   8
#     4  10  22  38  62  92 122 154 196 244 296 352
#     4  10  22  40  62  89 120 156 199 245 294 351
#     4  11  24  40  60  87 120 158 198 244 297 350
#     4  10  21  37  60  90 122 157 199 245 293 349
#     4  11  23  40  63  90 121 156 196 244 297 352
#     4  11  25  43  62  88 121 157 200 245 292 351
#
# _framework density 21.215454000000001
#
# number of rings (size 3 to 8) (size 9 to 14) (size 15 to 20)
#    0.000    1.455    0.000    4.364    0.000   15.273 
#    0.000    0.000    0.000    0.000    0.000    0.000 
#    0.000    0.000    0.000    0.000    0.000    0.000 
#
# Total GULP energy -272878.449687 kJ/mol
# GULP energy per Si atom -12403.565895 kJ/mol
# Density = 2.116717 g / cm^3
# Si number density = 21.215454 Si / 1000 Ang^3
#
#
#
# Elastic Constant Matrix: (Units=GPa)
#
#
# Indices 1 2 3 4 5 6 
#
# 1 97.5430 50.6888 30.1761 0.0054 -17.0501 -0.0010
# 2 50.6888 159.9389 37.1208 -0.0065 -8.0572 0.0041
# 3 30.1761 37.1208 99.5698 -0.0359 -10.8044 0.0060
# 4 0.0054 -0.0065 -0.0359 29.0226 0.0087 -7.5401
# 5 -17.0501 -8.0572 -10.8044 0.0087 31.1624 0.0018
# 6 -0.0010 0.0041 0.0060 -7.5401 0.0018 32.6235
#
#
#
# Elastic Compliance Matrix: (Units=1/GPa)
#
#
# Indices 1 2 3 4 5 6 
#
# 1 0.013819 -0.003569 -0.002221 -0.000008 0.005868 -0.000001
# 2 -0.003569 0.007792 -0.001888 0.000000 -0.000592 -0.000001
# 3 -0.002221 -0.001888 0.011674 0.000014 0.002344 0.000001
# 4 -0.000008 0.000000 0.000014 0.036657 -0.000010 0.008472
# 5 0.005868 -0.000592 0.002344 -0.000010 0.035960 -0.000005
# 6 -0.000001 -0.000001 0.000001 0.008472 -0.000005 0.032611
#
#
# Mechanical properties :
#
#
# Convention : Reuss Voigt Hill
#
# Bulk Modulus (GPa) = 55.76926 65.89146 60.83036
# Shear Modulus (GPa) = 31.28037 34.49944 32.88990
#
# Velocity S-wave (km/s) = 3.84398 4.03693 3.94163
# Velocity P-wave (km/s) = 6.78570 7.27012 7.03208
#
# Compressibility (1/GPa) = 0.01793102
#
# Stress axis : x y z
#
# Youngs Moduli (GPa) = 72.36349 128.34319 85.65748
#
# Poissons Ratio (x) = 0.45800 0.19024
# Poissons Ratio (y) = 0.25823 0.16168
# Poissons Ratio (z) = 0.16071 0.24226
#
# Static dielectric constant tensor:
#      x y z
#    x 4.158270 0.000020 -0.128280 
#    y 0.000020 3.856060 -0.000040 
#    z -0.128280 -0.000040 3.874500 
# 
# 
# High freq. dielectric constant tensor:
#      x y z
#    x 1.829280 0.000000 -0.004220 
#    y 0.000000 1.841210 0.000000 
#    z -0.004220 0.000000 1.837150 
# 
# From -- ./inp_files/382595.got.cif
#   From: 2010.06.25/outbox.cif.g09.slc.cpg/sg12_192_cif.got.tgz:382595.got - 2010.06.28 00:19:55.
