data_PCOD8107743
_publ_section_title
;
Structure prediction by ZEFSAII (Michael W. Deem and Ramdas Pophale) SiO2 
 PCOD8107743
Probable space group: C 2/M
;
_chemical_formula_sum "Si O2"
_cell_formula_units_Z 64
_cell_length_a 31.127531
_cell_length_b 8.770380
_cell_length_c 14.531812
_cell_angle_alpha 90.000000
_cell_angle_beta 117.574755
_cell_angle_gamma 90.000000
_cell_volume 3516.546294
_symmetry_space_group_name_H-M "C 2/M"
_symmetry_group_IT_number 12
_symmetry_cell_setting 'monoclinic'
loop_
_space_group_symop_operation_xyz
x,y,z
-x,y,-z
-x,-y,-z
x,-y,z
1/2+x,1/2+y,z
1/2-x,1/2+y,-z
1/2-x,1/2-y,-z
1/2+x,1/2-y,z
loop_
_atom_site_type_symbol
_atom_site_label
_atom_site_fract_x
_atom_site_fract_y
_atom_site_fract_z
Si Si1 0.365895 0.178479 0.140056
Si Si2 0.053857 0.824143 0.661555
Si Si3 0.223398 0.820463 0.621240
Si Si4 0.782980 0.319903 0.194052
Si Si5 0.058005 0.823019 0.456196
Si Si6 0.860049 0.321469 0.577667
Si Si7 0.673049 0.679529 0.280945
Si Si8 0.673050 0.323086 0.072521
O O1 0.415959 0.228965 0.235162
O O2 0.319948 0.238160 0.153012
O O3 0.365097 0.000000 0.135940
O O4 0.362332 0.237519 0.032461
O O5 0.067136 0.774065 0.570907
O O6 0.997563 0.794064 0.625528
O O7 0.066673 0.000000 0.687681
O O8 0.202937 0.770754 0.700069
O O9 0.183339 0.777227 0.507194
O O10 0.272006 0.729927 0.645137
O O11 0.233600 0.000000 0.628780
O O12 0.787048 0.500000 0.218553
O O13 0.728793 0.275872 0.109066
O O14 0.089655 0.717061 0.421897
O O15 0.071837 0.000000 0.456155
O O16 0.849335 0.500000 0.557742
O O17 0.863195 0.271107 0.687761
O O18 0.668808 0.500000 0.294184
O O19 0.658380 0.721614 0.161905
O O20 0.665795 0.500000 0.047931
#
# Coordination Sequence:
#
# PCOD8107743 Si02
#       8
#     8   8   8   8   8   8   8   8
#     4  11  21  31  50  78 107 137 173 213 255 304
#     4   9  19  36  57  79 106 136 169 207 253 307
#     4  11  21  33  51  76 106 140 175 213 254 301
#     4   9  19  34  49  73 107 141 175 212 254 304
#     4   9  19  37  58  80 104 134 170 210 253 303
#     4  12  23  34  52  78 106 137 171 210 256 309
#     4  10  21  38  55  73 101 137 176 218 258 301
#     4   9  19  35  53  71  99 138 177 215 256 299
#
# _framework density 18.199676
#
# number of rings (size 3 to 8) (size 9 to 14) (size 15 to 20)
#    0.000    2.000    0.000    6.000    0.000    6.500 
#    0.000    1.250    0.000    0.750    0.000    5.250 
#    0.000    0.000    0.000    0.000    0.000    0.000 
#
# Total GULP energy -396893.482786 kJ/mol
# GULP energy per Si atom -12402.921337 kJ/mol
# Density = 1.815825 g / cm^3
# Si number density = 18.199676 Si / 1000 Ang^3
#
#
#
# Elastic Constant Matrix: (Units=GPa)
#
#
# Indices 1 2 3 4 5 6 
#
# 1 82.9264 28.1979 43.9333 0.0000 -16.1981 0.0000
# 2 28.1979 52.2191 32.6358 0.0000 -7.1127 0.0000
# 3 43.9333 32.6358 113.4640 0.0000 -5.8780 0.0000
# 4 0.0000 0.0000 0.0000 27.6262 0.0000 0.3024
# 5 -16.1981 -7.1127 -5.8780 0.0000 20.6208 0.0000
# 6 0.0000 0.0000 0.0000 0.3024 0.0000 28.5051
#
#
#
# Elastic Compliance Matrix: (Units=1/GPa)
#
#
# Indices 1 2 3 4 5 6 
#
# 1 0.018873 -0.005402 -0.005159 0.000000 0.011492 0.000000
# 2 -0.005402 0.025710 -0.005139 0.000000 0.003159 0.000000
# 3 -0.005159 -0.005139 0.012167 0.000000 -0.002357 0.000000
# 4 0.000000 0.000000 0.000000 0.036202 0.000000 -0.000384
# 5 0.011492 0.003159 -0.002357 0.000000 0.057940 0.000000
# 6 0.000000 0.000000 0.000000 -0.000384 0.000000 0.035085
#
#
# Mechanical properties :
#
#
# Convention : Reuss Voigt Hill
#
# Bulk Modulus (GPa) = 39.44871 50.90483 45.17677
# Shear Modulus (GPa) = 22.14079 24.93992 23.54035
#
# Velocity S-wave (km/s) = 3.49169 3.70584 3.60036
# Velocity P-wave (km/s) = 6.16266 6.80749 6.49309
#
# Compressibility (1/GPa) = 0.02534937
#
# Stress axis : x y z
#
# Youngs Moduli (GPa) = 52.98439 38.89591 82.18967
#
# Poissons Ratio (x) = 0.21013 0.42399
# Poissons Ratio (y) = 0.28623 0.42241
# Poissons Ratio (z) = 0.27333 0.19990
#
# Static dielectric constant tensor:
#      x y z
#    x 3.350260 0.000000 -0.205980 
#    y 0.000000 3.277050 0.000000 
#    z -0.205980 0.000000 3.393640 
# 
# 
# High freq. dielectric constant tensor:
#      x y z
#    x 1.691000 0.000000 -0.012670 
#    y 0.000000 1.707360 0.000000 
#    z -0.012670 0.000000 1.699630 
# 
# From -- ./inp_files/249248.got.cif
#   From: 2010.06.25/outbox.cif.g09.slc.cpg/sg12_125_cif.got.tgz:249248.got - 2010.06.28 00:19:55.
