data_PCOD8108095
_publ_section_title
;
Structure prediction by ZEFSAII (Michael W. Deem and Ramdas Pophale) SiO2 
 PCOD8108095
Probable space group: C 2/M
;
_chemical_formula_sum "Si O2"
_cell_formula_units_Z 64
_cell_length_a 24.072217
_cell_length_b 13.895511
_cell_length_c 14.916231
_cell_angle_alpha 90.000000
_cell_angle_beta 141.625465
_cell_angle_gamma 90.000000
_cell_volume 3097.426478
_symmetry_space_group_name_H-M "C 2/M"
_symmetry_group_IT_number 12
_symmetry_cell_setting 'monoclinic'
loop_
_space_group_symop_operation_xyz
x,y,z
-x,y,-z
-x,-y,-z
x,-y,z
1/2+x,1/2+y,z
1/2-x,1/2+y,-z
1/2-x,1/2-y,-z
1/2+x,1/2-y,z
loop_
_atom_site_type_symbol
_atom_site_label
_atom_site_fract_x
_atom_site_fract_y
_atom_site_fract_z
Si Si1 0.397413 0.388509 0.875515
Si Si2 0.373835 0.388726 0.165854
Si Si3 0.154473 0.212404 0.362674
Si Si4 0.422920 0.607661 0.578739
Si Si5 0.602920 0.728313 0.626617
Si Si6 0.073387 0.605615 0.210970
Si Si7 0.866210 0.393781 0.907247
Si Si8 0.289092 0.296159 0.891281
O O1 0.391213 0.500000 0.845853
O O2 0.345139 0.327947 0.736596
O O3 0.351038 0.367697 0.911948
O O4 0.500000 0.353124 0.000000
O O5 0.341637 0.500000 0.124495
O O6 0.475202 0.378636 0.260648
O O7 0.374600 0.348836 0.267830
O O8 0.309811 0.324022 0.020904
O O9 0.250000 0.250000 0.500000
O O10 0.132768 0.126659 0.402550
O O11 0.090723 0.305348 0.299462
O O12 0.406163 0.500000 0.522959
O O13 0.387930 0.677276 0.457166
O O14 0.500000 0.769713 0.500000
O O15 0.681764 0.809302 0.735328
O O16 0.099546 0.500000 0.283787
O O17 0.135381 0.625626 0.201510
O O18 0.969392 0.606740 0.061857
O O19 0.825629 0.500000 0.877376
O O20 0.812969 0.314819 0.897896
#
# Coordination Sequence:
#
# PCOD8108095 Si02
#       8
#     8   8   8   8   8   8   8   8
#     4  11  23  39  61  91 128 162 194 238 293 357
#     4  10  21  39  64  90 115 146 195 259 314 357
#     4  12  23  35  52  86 122 161 201 239 287 351
#     4  10  21  38  60  84 116 158 199 244 302 361
#     4  10  23  42  60  84 118 156 200 253 310 356
#     4   9  18  34  52  76 117 162 194 232 278 334
#     4   9  18  32  55  84 114 152 197 235 279 341
#     4  12  21  36  62  94 121 156 198 245 300 358
#
# _framework density 20.662313999999999
#
# number of rings (size 3 to 8) (size 9 to 14) (size 15 to 20)
#    0.000    1.625    1.250    5.250    0.000    5.500 
#    0.000    0.000    0.000    1.500    0.000    3.500 
#    0.000    0.000    0.000    0.000    0.000    0.000 
#
# Total GULP energy -396592.224146 kJ/mol
# GULP energy per Si atom -12393.507005 kJ/mol
# Density = 2.061529 g / cm^3
# Si number density = 20.662314 Si / 1000 Ang^3
#
#
#
# Elastic Constant Matrix: (Units=GPa)
#
#
# Indices 1 2 3 4 5 6 
#
# 1 52.6519 20.7961 22.3922 0.0000 6.7170 0.0000
# 2 20.7961 73.1526 40.6831 0.0000 5.5998 0.0000
# 3 22.3922 40.6831 111.1701 0.0000 4.9011 0.0000
# 4 0.0000 0.0000 0.0000 7.0408 0.0000 2.1550
# 5 6.7170 5.5998 4.9011 0.0000 28.0680 0.0000
# 6 0.0000 0.0000 0.0000 2.1550 0.0000 20.9832
#
#
#
# Elastic Compliance Matrix: (Units=1/GPa)
#
#
# Indices 1 2 3 4 5 6 
#
# 1 0.022450 -0.004595 -0.002664 0.000000 -0.003991 0.000000
# 2 -0.004595 0.018258 -0.005688 0.000000 -0.001550 0.000000
# 3 -0.002664 -0.005688 0.011625 0.000000 -0.000257 0.000000
# 4 0.000000 0.000000 0.000000 0.146639 0.000000 -0.015060
# 5 -0.003991 -0.001550 -0.000257 0.000000 0.036937 0.000000
# 6 0.000000 0.000000 0.000000 -0.015060 0.000000 0.049204
#
#
# Mechanical properties :
#
#
# Convention : Reuss Voigt Hill
#
# Bulk Modulus (GPa) = 37.82371 44.96860 41.39616
# Shear Modulus (GPa) = 15.63381 21.42528 18.52954
#
# Velocity S-wave (km/s) = 2.75368 3.22363 2.99788
# Velocity P-wave (km/s) = 5.33439 5.97215 5.66225
#
# Compressibility (1/GPa) = 0.02643844
#
# Stress axis : x y z
#
# Youngs Moduli (GPa) = 44.54391 54.77007 86.02346
#
# Poissons Ratio (x) = 0.25166 0.22921
# Poissons Ratio (y) = 0.20467 0.48928
# Poissons Ratio (z) = 0.11869 0.31152
#
# Static dielectric constant tensor:
#      x y z
#    x 3.643110 0.000000 0.148270 
#    y 0.000000 3.419440 0.000000 
#    z 0.148270 0.000000 3.815190 
# 
# 
# High freq. dielectric constant tensor:
#      x y z
#    x 1.796860 0.000000 0.005180 
#    y 0.000000 1.803470 0.000000 
#    z 0.005180 0.000000 1.810090 
# 
# From -- ./inp_files/240702.got.cif
#   From: 2010.06.25/outbox.cif.g09.slc.cpg/sg12_121_cif.got.tgz:240702.got - 2010.06.28 00:19:55.
