data_PCOD8108356
_publ_section_title
;
Structure prediction by ZEFSAII (Michael W. Deem and Ramdas Pophale) SiO2 
 PCOD8108356
Probable space group: C 2/M
;
_chemical_formula_sum "Si O2"
_cell_formula_units_Z 64
_cell_length_a 28.878348
_cell_length_b 8.638514
_cell_length_c 14.551058
_cell_angle_alpha 90.000000
_cell_angle_beta 61.962298
_cell_angle_gamma 90.000000
_cell_volume 3203.972761
_symmetry_space_group_name_H-M "C 2/M"
_symmetry_group_IT_number 12
_symmetry_cell_setting 'monoclinic'
loop_
_space_group_symop_operation_xyz
x,y,z
-x,y,-z
-x,-y,-z
x,-y,z
1/2+x,1/2+y,z
1/2-x,1/2+y,-z
1/2-x,1/2-y,-z
1/2+x,1/2-y,z
loop_
_atom_site_type_symbol
_atom_site_label
_atom_site_fract_x
_atom_site_fract_y
_atom_site_fract_z
Si Si1 0.823841 0.822849 0.174759
Si Si2 0.003415 0.681830 0.101683
Si Si3 0.285511 0.680071 0.698212
Si Si4 0.057086 0.679888 0.448852
Si Si5 0.641185 0.183144 0.511621
Si Si6 0.359924 0.179257 0.777674
Si Si7 0.100178 0.821254 0.730986
Si Si8 0.888969 0.179130 0.937873
O O1 0.776374 0.709444 0.242370
O O2 0.871424 0.790677 0.199449
O O3 0.804451 0.000000 0.199763
O O4 0.845328 0.782410 0.054290
O O5 0.993627 0.500000 0.113982
O O6 0.059367 0.719374 0.093902
O O7 0.959137 0.761335 0.205435
O O8 0.000000 0.743939 0.000000
O O9 0.297432 0.500000 0.697965
O O10 0.306855 0.739559 0.579908
O O11 0.311837 0.770284 0.758393
O O12 0.049834 0.500000 0.476415
O O13 0.091768 0.748751 0.499316
O O14 0.085292 0.708170 0.325632
O O15 0.000000 0.761664 0.500000
O O16 0.633291 0.229228 0.624016
O O17 0.647424 0.000000 0.495729
O O18 0.361424 0.280316 0.867786
O O19 0.352355 0.000000 0.810130
O O20 0.099195 0.000000 0.704131
O O21 0.905378 0.000000 0.925997
#
# Coordination Sequence:
#
# PCOD8108356 Si02
#       8
#     8   8   8   8   8   8   8   8
#     4  10  23  42  63  86 118 160 203 251 310 363
#     4  11  23  39  61  88 123 164 205 249 299 362
#     4  11  23  41  65  89 119 157 202 256 305 359
#     4   8  16  32  54  81 114 151 193 238 289 346
#     4  10  21  38  61  88 122 160 199 249 303 362
#     4  10  21  38  61  88 122 160 199 249 303 362
#     4  11  23  40  62  90 124 161 202 252 306 361
#     4  11  23  40  62  90 124 161 202 252 306 361
#
# _framework density 19.975201999999999
#
# number of rings (size 3 to 8) (size 9 to 14) (size 15 to 20)
#    0.000    1.750    1.250    3.750    1.750    3.500 
#    0.000    0.000    0.000    2.250    0.000    0.000 
#    0.000    0.000    0.000    0.000    0.000    0.000 
#
# Total GULP energy -396944.748566 kJ/mol
# GULP energy per Si atom -12404.523393 kJ/mol
# Density = 1.992974 g / cm^3
# Si number density = 19.975202 Si / 1000 Ang^3
#
#
#
# Elastic Constant Matrix: (Units=GPa)
#
#
# Indices 1 2 3 4 5 6 
#
# 1 49.0987 22.2229 26.6634 0.0000 -16.9024 0.0000
# 2 22.2229 67.4257 32.1655 0.0000 -8.4802 0.0000
# 3 26.6634 32.1655 108.7216 0.0000 -1.7283 0.0000
# 4 0.0000 0.0000 0.0000 31.9675 0.0000 1.9102
# 5 -16.9024 -8.4802 -1.7283 0.0000 35.0014 0.0000
# 6 0.0000 0.0000 0.0000 1.9102 0.0000 30.2508
#
#
#
# Elastic Compliance Matrix: (Units=1/GPa)
#
#
# Indices 1 2 3 4 5 6 
#
# 1 0.030488 -0.005750 -0.005568 0.000000 0.013055 0.000000
# 2 -0.005750 0.018912 -0.004159 0.000000 0.001600 0.000000
# 3 -0.005568 -0.004159 0.011744 0.000000 -0.003117 0.000000
# 4 0.000000 0.000000 0.000000 0.031400 0.000000 -0.001983
# 5 0.013055 0.001600 -0.003117 0.000000 0.035108 0.000000
# 6 0.000000 0.000000 0.000000 -0.001983 0.000000 0.033182
#
#
# Mechanical properties :
#
#
# Convention : Reuss Voigt Hill
#
# Bulk Modulus (GPa) = 33.12566 43.03886 38.08226
# Shear Modulus (GPa) = 24.77050 29.05689 26.91370
#
# Velocity S-wave (km/s) = 3.52527 3.81812 3.67462
# Velocity P-wave (km/s) = 5.76103 6.40549 6.09179
#
# Compressibility (1/GPa) = 0.03018808
#
# Stress axis : x y z
#
# Youngs Moduli (GPa) = 32.80012 52.87693 85.14697
#
# Poissons Ratio (x) = 0.30406 0.47411
# Poissons Ratio (y) = 0.18861 0.35416
# Poissons Ratio (z) = 0.18264 0.21994
#
# Static dielectric constant tensor:
#      x y z
#    x 3.595540 0.000000 -0.018740 
#    y 0.000000 3.514370 0.000000 
#    z -0.018740 0.000000 3.664860 
# 
# 
# High freq. dielectric constant tensor:
#      x y z
#    x 1.777220 0.000000 -0.001750 
#    y 0.000000 1.774350 0.000000 
#    z -0.001750 0.000000 1.786780 
# 
# From -- ./inp_files/249077.got.cif
#   From: 2010.06.25/outbox.cif.g09.slc.cpg/sg12_125_cif.got.tgz:249077.got - 2010.06.28 00:19:55.
