data_PCOD8108731
_publ_section_title
;
Structure prediction by ZEFSAII (Michael W. Deem and Ramdas Pophale) SiO2 
 PCOD8108731
Probable space group: C 2/M
;
_chemical_formula_sum "Si O2"
_cell_formula_units_Z 56
_cell_length_a 22.912819
_cell_length_b 15.490156
_cell_length_c 14.282802
_cell_angle_alpha 90.000000
_cell_angle_beta 30.180636
_cell_angle_gamma 90.000000
_cell_volume 2548.476616
_symmetry_space_group_name_H-M "C 2/M"
_symmetry_group_IT_number 12
_symmetry_cell_setting 'monoclinic'
loop_
_space_group_symop_operation_xyz
x,y,z
-x,y,-z
-x,-y,-z
x,-y,z
1/2+x,1/2+y,z
1/2-x,1/2+y,-z
1/2-x,1/2-y,-z
1/2+x,1/2-y,z
loop_
_atom_site_type_symbol
_atom_site_label
_atom_site_fract_x
_atom_site_fract_y
_atom_site_fract_z
Si Si1 0.928556 0.351160 0.380496
Si Si2 0.092509 0.598387 0.796586
Si Si3 0.131591 0.725982 0.208781
Si Si4 0.153155 0.165848 0.531962
Si Si5 0.209450 0.596566 0.257730
Si Si6 0.024414 0.100854 0.069923
Si Si7 0.511460 0.591302 0.379791
O O1 0.953232 0.395431 0.246392
O O2 0.849873 0.266778 0.482460
O O3 0.854696 0.411162 0.553144
O O4 0.055365 0.331691 0.245577
O O5 0.114617 0.500000 0.793670
O O6 0.214211 0.646850 0.630690
O O7 0.000000 0.637915 0.000000
O O8 0.146037 0.671278 0.284798
O O9 0.084047 0.821992 0.284219
O O10 0.250000 0.750000 0.000000
O O11 0.065489 0.148718 0.738715
O O12 0.111066 0.111346 0.500555
O O13 0.200068 0.500000 0.225536
O O14 0.344337 0.622510 0.081160
O O15 0.997748 0.000000 0.111336
O O16 0.000000 0.136383 0.000000
O O17 0.500000 0.561392 0.500000
O O18 0.561927 0.500000 0.262528
#
# Coordination Sequence:
#
# PCOD8108731 Si02
#       7
#     8   8   8   8   8   8   8
#     4  11  24  41  64  92 125 167 214 265 319 380
#     4  11  25  43  62  89 127 169 211 257 317 388
#     4  11  24  41  63  94 129 166 210 261 315 379
#     4  11  22  40  65  91 123 162 209 265 319 375
#     4  11  23  41  66  97 133 170 211 262 324 391
#     4  10  21  38  64  95 123 159 211 269 323 377
#     4  10  21  39  64  89 116 156 207 261 309 357
#
# _framework density 21.973911999999999
#
# number of rings (size 3 to 8) (size 9 to 14) (size 15 to 20)
#    0.000    1.286    0.000    6.857    0.000    8.571 
#    0.000    1.429    0.000    0.000    0.000    0.000 
#    0.000    0.571    0.000    0.000    0.000    0.000 
#
# Total GULP energy -346926.706433 kJ/mol
# GULP energy per Si atom -12390.239515 kJ/mol
# Density = 2.192390 g / cm^3
# Si number density = 21.973912 Si / 1000 Ang^3
#
#
#
# Elastic Constant Matrix: (Units=GPa)
#
#
# Indices 1 2 3 4 5 6 
#
# 1 124.3232 33.2165 49.5870 0.0000 -1.1949 0.0000
# 2 33.2165 101.7881 12.9680 0.0000 -14.3836 0.0000
# 3 49.5870 12.9680 134.4201 0.0000 -8.4483 0.0000
# 4 0.0000 0.0000 0.0000 22.5084 0.0000 4.3046
# 5 -1.1949 -14.3836 -8.4483 0.0000 39.5787 0.0000
# 6 0.0000 0.0000 0.0000 4.3046 0.0000 24.1778
#
#
#
# Elastic Compliance Matrix: (Units=1/GPa)
#
#
# Indices 1 2 3 4 5 6 
#
# 1 0.010299 -0.003128 -0.003598 0.000000 -0.001594 0.000000
# 2 -0.003128 0.011386 0.000314 0.000000 0.004110 0.000000
# 3 -0.003598 0.000314 0.008855 0.000000 0.001896 0.000000
# 4 0.000000 0.000000 0.000000 0.045994 0.000000 -0.008189
# 5 -0.001594 0.004110 0.001896 0.000000 0.027116 0.000000
# 6 0.000000 0.000000 0.000000 -0.008189 0.000000 0.042818
#
#
# Mechanical properties :
#
#
# Convention : Reuss Voigt Hill
#
# Bulk Modulus (GPa) = 56.44343 61.34161 58.89252
# Shear Modulus (GPa) = 30.26686 34.90365 32.58525
#
# Velocity S-wave (km/s) = 3.71536 3.98981 3.85503
# Velocity P-wave (km/s) = 6.64436 7.01435 6.83186
#
# Compressibility (1/GPa) = 0.01771685
#
# Stress axis : x y z
#
# Youngs Moduli (GPa) = 97.09859 87.82827 112.92567
#
# Poissons Ratio (x) = 0.27470 0.40626
# Poissons Ratio (y) = 0.30369 -0.03542
# Poissons Ratio (z) = 0.34932 -0.02755
#
# Static dielectric constant tensor:
#      x y z
#    x 4.292190 0.000000 0.069370 
#    y 0.000000 3.949190 0.000000 
#    z 0.069370 0.000000 3.917410 
# 
# 
# High freq. dielectric constant tensor:
#      x y z
#    x 1.876140 0.000000 0.001730 
#    y 0.000000 1.883420 0.000000 
#    z 0.001730 0.000000 1.855070 
# 
# From -- ./inp_files/240894.got.cif
#   From: 2010.06.25/outbox.cif.g09.slc.cpg/sg12_121_cif.got.tgz:240894.got - 2010.06.28 00:19:55.
