data_PCOD8108153
_publ_section_title
;
Structure prediction by ZEFSAII (Michael W. Deem and Ramdas Pophale) SiO2 
 PCOD8108153
Probable space group: C 2/M
;
_chemical_formula_sum "Si O2"
_cell_formula_units_Z 56
_cell_length_a 24.970652
_cell_length_b 8.868220
_cell_length_c 13.792999
_cell_angle_alpha 90.000000
_cell_angle_beta 66.693176
_cell_angle_gamma 90.000000
_cell_volume 2805.153123
_symmetry_space_group_name_H-M "C 2/M"
_symmetry_group_IT_number 12
_symmetry_cell_setting 'monoclinic'
loop_
_space_group_symop_operation_xyz
x,y,z
-x,y,-z
-x,-y,-z
x,-y,z
1/2+x,1/2+y,z
1/2-x,1/2+y,-z
1/2-x,1/2-y,-z
1/2+x,1/2-y,z
loop_
_atom_site_type_symbol
_atom_site_label
_atom_site_fract_x
_atom_site_fract_y
_atom_site_fract_z
Si Si1 0.080715 0.176530 0.198147
Si Si2 0.502662 0.824764 0.884607
Si Si3 0.438619 0.169990 0.595005
Si Si4 0.876199 0.678645 0.294880
Si Si5 0.757759 0.321258 0.288236
Si Si6 0.647500 0.676666 0.484192
Si Si7 0.784621 0.822654 0.888264
O O1 0.049886 0.227487 0.121438
O O2 0.050072 0.269439 0.305484
O O3 0.148261 0.221044 0.146114
O O4 0.071729 0.000000 0.221851
O O5 0.564469 0.766018 0.798387
O O6 0.493439 0.000000 0.865927
O O7 0.500000 0.795638 0.000000
O O8 0.500000 0.172108 0.500000
O O9 0.394519 0.282915 0.574381
O O10 0.413154 0.000000 0.614772
O O11 0.873584 0.500000 0.300052
O O12 0.821362 0.741752 0.272206
O O13 0.872931 0.736068 0.406473
O O14 0.757895 0.500000 0.279695
O O15 0.712380 0.273154 0.405033
O O16 0.738713 0.255241 0.197309
O O17 0.643780 0.500000 0.507577
O O18 0.775005 0.000000 0.898778
O O19 0.750000 0.750000 0.000000
#
# Coordination Sequence:
#
# PCOD8108153 Si02
#       7
#     8   8   8   8   8   8   8
#     4  11  23  41  63  89 123 157 194 246 303 356
#     4  10  23  41  62  88 117 157 206 247 290 349
#     4  11  23  38  59  87 120 158 202 247 290 350
#     4  10  21  38  60  86 118 157 201 247 292 350
#     4   9  19  38  61  85 119 156 193 241 296 352
#     4  11  21  37  59  87 122 155 193 243 302 360
#     4  10  22  40  62  90 120 155 198 245 299 356
#
# _framework density 19.963260999999999
#
# number of rings (size 3 to 8) (size 9 to 14) (size 15 to 20)
#    0.000    1.714    1.429    2.571    2.000    6.571 
#    0.000    1.429    0.000    0.000    0.000    0.000 
#    0.000    0.000    0.000    0.000    0.000    0.000 
#
# Total GULP energy -347296.437351 kJ/mol
# GULP energy per Si atom -12403.444191 kJ/mol
# Density = 1.991782 g / cm^3
# Si number density = 19.963261 Si / 1000 Ang^3
#
#
#
# Elastic Constant Matrix: (Units=GPa)
#
#
# Indices 1 2 3 4 5 6 
#
# 1 112.6113 29.1581 42.6160 0.0000 9.7684 0.0000
# 2 29.1581 32.7983 27.3854 0.0000 -6.0342 0.0000
# 3 42.6160 27.3854 132.7468 0.0000 -3.0797 0.0000
# 4 0.0000 0.0000 0.0000 30.7681 0.0000 1.6772
# 5 9.7684 -6.0342 -3.0797 0.0000 26.2958 0.0000
# 6 0.0000 0.0000 0.0000 1.6772 0.0000 28.6858
#
#
#
# Elastic Compliance Matrix: (Units=1/GPa)
#
#
# Indices 1 2 3 4 5 6 
#
# 1 0.013345 -0.011574 -0.002079 0.000000 -0.007857 0.000000
# 2 -0.011574 0.048444 -0.005937 0.000000 0.014721 0.000000
# 3 -0.002079 -0.005937 0.009437 0.000000 0.000515 0.000000
# 4 0.000000 0.000000 0.000000 0.032605 0.000000 -0.001906
# 5 -0.007857 0.014721 0.000515 0.000000 0.044386 0.000000
# 6 0.000000 0.000000 0.000000 -0.001906 0.000000 0.034972
#
#
# Mechanical properties :
#
#
# Convention : Reuss Voigt Hill
#
# Bulk Modulus (GPa) = 31.20368 52.94170 42.07269
# Shear Modulus (GPa) = 21.45461 29.08308 25.26884
#
# Velocity S-wave (km/s) = 3.28183 3.82098 3.56162
# Velocity P-wave (km/s) = 5.47951 6.78555 6.16720
#
# Compressibility (1/GPa) = 0.03204750
#
# Stress axis : x y z
#
# Youngs Moduli (GPa) = 74.93404 20.64244 105.96334
#
# Poissons Ratio (x) = 0.23891 0.22028
# Poissons Ratio (y) = 0.86726 0.62909
# Poissons Ratio (z) = 0.15578 0.12255
#
# Static dielectric constant tensor:
#      x y z
#    x 4.575340 0.000000 0.337220 
#    y 0.000000 3.488160 0.000000 
#    z 0.337220 0.000000 3.870270 
# 
# 
# High freq. dielectric constant tensor:
#      x y z
#    x 1.791770 0.000000 0.000760 
#    y 0.000000 1.761100 0.000000 
#    z 0.000760 0.000000 1.789810 
# 
# From -- ./inp_files/180813.got.cif
#   From: 2010.06.25/outbox.cif.g09.slc.cpg/sg12_91_cif.got.tgz:180813.got - 2010.06.28 00:19:55.
