data_PCOD8108400
_publ_section_title
;
Structure prediction by ZEFSAII (Michael W. Deem and Ramdas Pophale) SiO2 
 PCOD8108400
Probable space group: C 2/M
;
_chemical_formula_sum "Si O2"
_cell_formula_units_Z 48
_cell_length_a 14.826320
_cell_length_b 8.514740
_cell_length_c 18.740673
_cell_angle_alpha 90.000000
_cell_angle_beta 90.327094
_cell_angle_gamma 90.000000
_cell_volume 2365.826360
_symmetry_space_group_name_H-M "C 2/M"
_symmetry_group_IT_number 12
_symmetry_cell_setting 'monoclinic'
loop_
_space_group_symop_operation_xyz
x,y,z
-x,y,-z
-x,-y,-z
x,-y,z
1/2+x,1/2+y,z
1/2-x,1/2+y,-z
1/2-x,1/2-y,-z
1/2+x,1/2-y,z
loop_
_atom_site_type_symbol
_atom_site_label
_atom_site_fract_x
_atom_site_fract_y
_atom_site_fract_z
Si Si1 0.520192 0.184000 0.079711
Si Si2 0.391184 0.818188 0.675242
Si Si3 0.237163 0.683131 0.578027
Si Si4 0.131371 0.681544 0.808274
Si Si5 0.420776 0.319008 0.340968
Si Si6 0.337480 0.681236 0.821548
O O1 0.434009 0.227329 0.127409
O O2 0.608519 0.276391 0.106673
O O3 0.541542 0.000000 0.081446
O O4 0.500000 0.242594 0.000000
O O5 0.302006 0.771012 0.633081
O O6 0.474784 0.719618 0.645331
O O7 0.377618 0.787048 0.758729
O O8 0.412507 0.000000 0.664165
O O9 0.258829 0.500000 0.578897
O O10 0.250000 0.750000 0.500000
O O11 0.135837 0.714117 0.603975
O O12 0.120082 0.500000 0.786018
O O13 0.106921 0.785794 0.740340
O O14 0.232610 0.718657 0.834194
O O15 0.402572 0.500000 0.358224
O O16 0.351493 0.500000 0.800777
#
# Coordination Sequence:
#
# PCOD8108400 Si02
#       6
#     8   8   8   8   8   8
#     4  10  22  40  61  88 126 170 214 264 324 383
#     4  12  24  41  66  96 129 169 215 265 317 378
#     4  12  26  46  68  97 134 170 211 264 320 379
#     4  10  21  38  61  89 126 167 209 262 320 376
#     4  12  24  40  66  98 128 168 216 262 317 382
#     4  11  22  37  61  92 124 163 213 265 317 381
#
# _framework density 20.288893000000002
#
# number of rings (size 3 to 8) (size 9 to 14) (size 15 to 20)
#    0.000    0.833    3.333    5.000    0.000    2.333 
#    0.000    3.333    0.000    0.000    0.000    0.000 
#    0.000    0.000    0.000    0.000    0.000    0.000 
#
# Total GULP energy -297795.887670 kJ/mol
# GULP energy per Si atom -12408.161986 kJ/mol
# Density = 2.024271 g / cm^3
# Si number density = 20.288893 Si / 1000 Ang^3
#
#
#
# Elastic Constant Matrix: (Units=GPa)
#
#
# Indices 1 2 3 4 5 6 
#
# 1 91.9331 21.4219 1.2511 0.0000 -8.6415 0.0000
# 2 21.4219 82.7412 27.5210 0.0000 2.9066 0.0000
# 3 1.2511 27.5210 77.1156 0.0000 -12.5248 0.0000
# 4 0.0000 0.0000 0.0000 32.9291 0.0000 4.0176
# 5 -8.6415 2.9066 -12.5248 0.0000 30.6779 0.0000
# 6 0.0000 0.0000 0.0000 4.0176 0.0000 30.9834
#
#
#
# Elastic Compliance Matrix: (Units=1/GPa)
#
#
# Indices 1 2 3 4 5 6 
#
# 1 0.012213 -0.003981 0.001973 0.000000 0.004623 0.000000
# 2 -0.003981 0.015378 -0.006257 0.000000 -0.005133 0.000000
# 3 0.001973 -0.006257 0.016446 0.000000 0.007863 0.000000
# 4 0.000000 0.000000 0.000000 0.030856 0.000000 -0.004001
# 5 0.004623 -0.005133 0.007863 0.000000 0.037595 0.000000
# 6 0.000000 0.000000 0.000000 -0.004001 0.000000 0.032794
#
#
# Mechanical properties :
#
#
# Convention : Reuss Voigt Hill
#
# Bulk Modulus (GPa) = 36.35392 39.13087 37.74239
# Shear Modulus (GPa) = 29.24309 32.35782 30.80046
#
# Velocity S-wave (km/s) = 3.80061 3.99789 3.90050
# Velocity P-wave (km/s) = 6.10054 6.37492 6.23924
#
# Compressibility (1/GPa) = 0.02750735
#
# Stress axis : x y z
#
# Youngs Moduli (GPa) = 81.88183 65.02787 60.80636
#
# Poissons Ratio (x) = 0.25885 -0.11999
# Poissons Ratio (y) = 0.32594 0.38048
# Poissons Ratio (z) = -0.16158 0.40689
#
# Static dielectric constant tensor:
#      x y z
#    x 4.018070 0.000000 -0.022980 
#    y 0.000000 3.664020 0.000000 
#    z -0.022980 0.000000 3.633400 
# 
# 
# High freq. dielectric constant tensor:
#      x y z
#    x 1.809530 0.000000 -0.000430 
#    y 0.000000 1.797150 0.000000 
#    z -0.000430 0.000000 1.785080 
# 
# From -- ./inp_files/267623.got.cif
#   From: 2010.06.25/outbox.cif.g09.slc.cpg/sg12_134_cif.got.tgz:267623.got - 2010.06.28 00:19:55.
