data_PCOD8108954
_publ_section_title
;
Structure prediction by ZEFSAII (Michael W. Deem and Ramdas Pophale) SiO2 
 PCOD8108954
Probable space group: C 2/M
;
_chemical_formula_sum "Si O2"
_cell_formula_units_Z 40
_cell_length_a 30.417380
_cell_length_b 7.918553
_cell_length_c 8.838201
_cell_angle_alpha 90.000000
_cell_angle_beta 106.353629
_cell_angle_gamma 90.000000
_cell_volume 2042.657579
_symmetry_space_group_name_H-M "C 2/M"
_symmetry_group_IT_number 12
_symmetry_cell_setting 'monoclinic'
loop_
_space_group_symop_operation_xyz
x,y,z
-x,y,-z
-x,-y,-z
x,-y,z
1/2+x,1/2+y,z
1/2-x,1/2+y,-z
1/2-x,1/2-y,-z
1/2+x,1/2-y,z
loop_
_atom_site_type_symbol
_atom_site_label
_atom_site_fract_x
_atom_site_fract_y
_atom_site_fract_z
Si Si1 0.380284 0.314143 0.018656
Si Si2 0.052265 0.000000 0.729683
Si Si3 0.704738 0.804173 0.871598
Si Si4 0.889894 0.694146 0.704222
Si Si5 0.054592 0.000000 0.378047
Si Si6 0.296108 0.801799 0.462869
O O1 0.365646 0.500000 0.943588
O O2 0.424845 0.333101 0.171281
O O3 0.339341 0.238265 0.074397
O O4 0.391609 0.195661 0.888002
O O5 0.064195 0.000000 0.564939
O O6 0.998879 0.000000 0.711445
O O7 0.702126 0.717495 0.702892
O O8 0.706866 0.000000 0.846769
O O9 0.750000 0.750000 0.000000
O O10 0.900627 0.500000 0.662838
O O11 0.926291 0.826697 0.673856
O O12 0.840068 0.757765 0.601092
O O13 0.250000 0.750000 0.500000
O O14 0.297489 0.000000 0.450832
#
# Coordination Sequence:
#
# PCOD8108954 Si02
#       6
#     8   4   8   8   4   8
#     4  10  21  39  60  89 122 160 203 254 319 365
#     4   9  23  41  69  93 125 165 211 263 322 383
#     4  11  22  37  56  85 122 165 212 260 308 373
#     4  11  23  40  64  94 126 166 210 261 314 382
#     4  11  21  45  69  93 125 167 211 263 326 375
#     4  10  23  37  55  84 121 162 214 256 308 370
#
# _framework density 19.582331
#
# number of rings (size 3 to 8) (size 9 to 14) (size 15 to 20)
#    0.600    1.000    1.000    3.600    1.400    6.400 
#    0.000    6.000    0.000    0.000    0.000    0.000 
#    0.000    0.000    0.000    0.000    0.000    0.000 
#
# Total GULP energy -247923.706363 kJ/mol
# GULP energy per Si atom -12396.185318 kJ/mol
# Density = 1.953776 g / cm^3
# Si number density = 19.582331 Si / 1000 Ang^3
#
#
#
# Elastic Constant Matrix: (Units=GPa)
#
#
# Indices 1 2 3 4 5 6 
#
# 1 150.8305 32.4450 92.6331 0.0000 0.0330 0.0000
# 2 32.4450 59.6839 44.8925 0.0000 -5.5550 0.0000
# 3 92.6331 44.8925 151.5493 0.0000 1.9622 0.0000
# 4 0.0000 0.0000 0.0000 28.9335 0.0000 -1.7270
# 5 0.0330 -5.5550 1.9622 0.0000 38.5046 0.0000
# 6 0.0000 0.0000 0.0000 -1.7270 0.0000 34.9435
#
#
#
# Elastic Compliance Matrix: (Units=1/GPa)
#
#
# Indices 1 2 3 4 5 6 
#
# 1 0.010677 -0.001133 -0.006192 0.000000 0.000143 0.000000
# 2 -0.001133 0.022143 -0.005912 0.000000 0.003497 0.000000
# 3 -0.006192 -0.005912 0.012154 0.000000 -0.001467 0.000000
# 4 0.000000 0.000000 0.000000 0.034664 0.000000 0.001713
# 5 0.000143 0.003497 -0.001467 0.000000 0.026550 0.000000
# 6 0.000000 0.000000 0.000000 0.001713 0.000000 0.028702
#
#
# Mechanical properties :
#
#
# Convention : Reuss Voigt Hill
#
# Bulk Modulus (GPa) = 54.05717 78.00055 66.02886
# Shear Modulus (GPa) = 29.84522 33.28253 31.56387
#
# Velocity S-wave (km/s) = 3.90819 4.12712 4.01915
# Velocity P-wave (km/s) = 6.93039 7.91387 7.43840
#
# Compressibility (1/GPa) = 0.01849893
#
# Stress axis : x y z
#
# Youngs Moduli (GPa) = 93.66269 45.16057 82.27937
#
# Poissons Ratio (x) = 0.05117 0.50949
# Poissons Ratio (y) = 0.10612 0.48644
# Poissons Ratio (z) = 0.57998 0.26699
#
# Static dielectric constant tensor:
#      x y z
#    x 3.411490 0.000000 0.199210 
#    y 0.000000 3.547830 0.000000 
#    z 0.199210 0.000000 4.054850 
# 
# 
# High freq. dielectric constant tensor:
#      x y z
#    x 1.759930 0.000000 -0.000530 
#    y 0.000000 1.756140 0.000000 
#    z -0.000530 0.000000 1.782520 
# 
# From -- ./inp_files/101141.got.cif
#   From: 2010.06.25/outbox.cif.g09.slc.cpg/sg12_51_cif.got.tgz:101141.got - 2010.06.28 00:19:55.
