data_PCOD8108255
_publ_section_title
;
Structure prediction by ZEFSAII (Michael W. Deem and Ramdas Pophale) SiO2 
 PCOD8108255
Probable space group: C 2/M
;
_chemical_formula_sum "Si O2"
_cell_formula_units_Z 64
_cell_length_a 30.052306
_cell_length_b 8.858905
_cell_length_c 18.910270
_cell_angle_alpha 90.000000
_cell_angle_beta 139.389726
_cell_angle_gamma 90.000000
_cell_volume 3277.002385
_symmetry_space_group_name_H-M "C 2/M"
_symmetry_group_IT_number 12
_symmetry_cell_setting 'monoclinic'
loop_
_space_group_symop_operation_xyz
x,y,z
-x,y,-z
-x,-y,-z
x,-y,z
1/2+x,1/2+y,z
1/2-x,1/2+y,-z
1/2-x,1/2-y,-z
1/2+x,1/2-y,z
loop_
_atom_site_type_symbol
_atom_site_label
_atom_site_fract_x
_atom_site_fract_y
_atom_site_fract_z
Si Si1 0.430094 0.177109 0.123597
Si Si2 0.407816 0.823420 0.481528
Si Si3 0.700012 0.177269 0.531973
Si Si4 0.539422 0.678084 0.698661
Si Si5 0.663152 0.821593 0.331022
Si Si6 0.019467 0.320904 0.100280
Si Si7 0.847403 0.322923 0.256796
Si Si8 0.726489 0.822148 0.044759
O O1 0.471125 0.266439 0.233804
O O2 0.461592 0.227801 0.086586
O O3 0.441729 0.000000 0.150905
O O4 0.350756 0.222048 0.028951
O O5 0.351374 0.769654 0.469280
O O6 0.475889 0.727817 0.574329
O O7 0.380907 0.784082 0.371755
O O8 0.425171 0.000000 0.510896
O O9 0.668144 0.229713 0.418831
O O10 0.772787 0.255012 0.634570
O O11 0.712010 0.000000 0.548577
O O12 0.548207 0.500000 0.705956
O O13 0.607558 0.756596 0.752150
O O14 0.593092 0.756514 0.213595
O O15 0.665408 0.000000 0.327263
O O16 0.023889 0.500000 0.101136
O O17 0.000000 0.253163 0.000000
O O18 0.839348 0.500000 0.234873
O O19 0.773170 0.245151 0.163812
O O20 0.736041 0.000000 0.051219
O O21 0.750000 0.750000 0.000000
#
# Coordination Sequence:
#
# PCOD8108255 Si02
#       8
#     8   8   8   8   8   8   8   8
#     4  10  21  38  61  85 113 154 196 235 287 347
#     4  10  22  39  58  81 113 153 191 229 286 352
#     4   9  18  34  55  79 108 145 185 224 273 338
#     4  12  24  37  58  85 114 147 189 242 290 340
#     4   9  17  31  55  82 109 141 180 230 278 325
#     4   9  18  34  57  85 114 146 188 234 281 336
#     4  11  23  39  59  82 113 153 191 234 288 346
#     4  11  22  37  60  86 115 151 194 242 285 335
#
# _framework density 19.530045000000001
#
# number of rings (size 3 to 8) (size 9 to 14) (size 15 to 20)
#    0.000    1.875    1.250    3.000    0.000    6.500 
#    0.000    4.375    0.000    1.500    0.000    0.000 
#    0.000    0.000    0.000    0.000    0.000    0.000 
#
# Total GULP energy -396924.870507 kJ/mol
# GULP energy per Si atom -12403.902203 kJ/mol
# Density = 1.948559 g / cm^3
# Si number density = 19.530045 Si / 1000 Ang^3
#
#
#
# Elastic Constant Matrix: (Units=GPa)
#
#
# Indices 1 2 3 4 5 6 
#
# 1 82.4545 19.9447 57.1705 0.0000 2.9596 0.0000
# 2 19.9447 51.9820 42.8766 0.0000 2.7106 0.0000
# 3 57.1705 42.8766 145.3505 0.0000 9.6853 0.0000
# 4 0.0000 0.0000 0.0000 31.8206 0.0000 5.8326
# 5 2.9596 2.7106 9.6853 0.0000 33.8897 0.0000
# 6 0.0000 0.0000 0.0000 5.8326 0.0000 21.1123
#
#
#
# Elastic Compliance Matrix: (Units=1/GPa)
#
#
# Indices 1 2 3 4 5 6 
#
# 1 0.016749 -0.001310 -0.006230 0.000000 0.000422 0.000000
# 2 -0.001310 0.025526 -0.007020 0.000000 0.000079 0.000000
# 3 -0.006230 -0.007020 0.011547 0.000000 -0.002195 0.000000
# 4 0.000000 0.000000 0.000000 0.033102 0.000000 -0.009145
# 5 0.000422 0.000079 -0.002195 0.000000 0.030091 0.000000
# 6 0.000000 0.000000 0.000000 -0.009145 0.000000 0.049892
#
#
# Mechanical properties :
#
#
# Convention : Reuss Voigt Hill
#
# Bulk Modulus (GPa) = 40.48024 57.75230 49.11627
# Shear Modulus (GPa) = 24.47837 28.01752 26.24795
#
# Velocity S-wave (km/s) = 3.54414 3.79170 3.67001
# Velocity P-wave (km/s) = 6.12536 6.98602 6.56980
#
# Compressibility (1/GPa) = 0.02470341
#
# Stress axis : x y z
#
# Youngs Moduli (GPa) = 59.70539 39.17544 86.60104
#
# Poissons Ratio (x) = 0.05132 0.53949
# Poissons Ratio (y) = 0.07821 0.60793
# Poissons Ratio (z) = 0.37194 0.27501
#
# Static dielectric constant tensor:
#      x y z
#    x 3.680320 0.000000 0.076350 
#    y 0.000000 3.352220 0.000000 
#    z 0.076350 0.000000 3.876820 
# 
# 
# High freq. dielectric constant tensor:
#      x y z
#    x 1.763600 0.000000 0.005990 
#    y 0.000000 1.740330 0.000000 
#    z 0.005990 0.000000 1.771950 
# 
# From -- ./inp_files/295863.got.cif
#   From: 2010.06.25/outbox.cif.g09.slc.cpg/sg12_148_cif.got.tgz:295863.got - 2010.06.28 00:19:55.
