data_PCOD8108983
_publ_section_title
;
Structure prediction by ZEFSAII (Michael W. Deem and Ramdas Pophale) SiO2 
 PCOD8108983
Probable space group: C 2/M
;
_chemical_formula_sum "Si O2"
_cell_formula_units_Z 64
_cell_length_a 30.177800
_cell_length_b 8.984484
_cell_length_c 11.708466
_cell_angle_alpha 90.000000
_cell_angle_beta 93.295342
_cell_angle_gamma 90.000000
_cell_volume 3169.290227
_symmetry_space_group_name_H-M "C 2/M"
_symmetry_group_IT_number 12
_symmetry_cell_setting 'monoclinic'
loop_
_space_group_symop_operation_xyz
x,y,z
-x,y,-z
-x,-y,-z
x,-y,z
1/2+x,1/2+y,z
1/2-x,1/2+y,-z
1/2-x,1/2-y,-z
1/2+x,1/2-y,z
loop_
_atom_site_type_symbol
_atom_site_label
_atom_site_fract_x
_atom_site_fract_y
_atom_site_fract_z
Si Si1 0.565440 0.827765 0.568823
Si Si2 0.541050 0.322821 0.084613
Si Si3 0.699674 0.672828 0.834888
Si Si4 0.974250 0.327955 0.676817
Si Si5 0.365379 0.669767 0.987298
Si Si6 0.151803 0.169941 0.594580
Si Si7 0.213563 0.170805 0.197824
Si Si8 0.790867 0.325269 0.567002
O O1 0.523973 0.794858 0.643607
O O2 0.556990 0.784534 0.434926
O O3 0.603577 0.723955 0.627043
O O4 0.578885 0.000000 0.578517
O O5 0.542487 0.500000 0.090280
O O6 0.536840 0.267464 0.213576
O O7 0.587013 0.256540 0.037278
O O8 0.500000 0.267297 0.000000
O O9 0.708426 0.500000 0.869836
O O10 0.687331 0.689116 0.700680
O O11 0.743942 0.768227 0.866290
O O12 0.658940 0.738835 0.904642
O O13 0.968003 0.500000 0.707670
O O14 0.375956 0.500000 0.017665
O O15 0.331375 0.686056 0.878780
O O16 0.164721 0.273948 0.490382
O O17 0.149969 0.000000 0.553754
O O18 0.206072 0.276387 0.303199
O O19 0.222478 0.000000 0.234735
O O20 0.784945 0.500000 0.559725
O O21 0.750000 0.250000 0.500000
#
# Coordination Sequence:
#
# PCOD8108983 Si02
#       8
#     8   8   8   8   8   8   8   8
#     4   9  20  39  61  86 119 157 194 243 300 356
#     4  10  22  39  62  88 118 156 198 246 302 358
#     4  10  21  39  61  84 120 160 199 247 300 352
#     4   9  20  40  62  85 118 156 196 244 302 353
#     4   9  21  40  60  87 119 156 199 251 301 349
#     4  11  23  36  59  91 121 156 197 244 296 354
#     4  11  22  38  62  88 120 156 201 252 299 353
#     4  12  24  40  60  85 121 159 198 240 295 355
#
# _framework density 20.193797
#
# number of rings (size 3 to 8) (size 9 to 14) (size 15 to 20)
#    0.000    1.875    1.250    3.000    3.500    1.750 
#    0.000    3.125    0.000    0.000    0.000    0.000 
#    0.000    0.000    0.000    0.000    0.000    0.000 
#
# Total GULP energy -396773.741498 kJ/mol
# GULP energy per Si atom -12399.179422 kJ/mol
# Density = 2.014783 g / cm^3
# Si number density = 20.193797 Si / 1000 Ang^3
#
#
#
# Elastic Constant Matrix: (Units=GPa)
#
#
# Indices 1 2 3 4 5 6 
#
# 1 127.5391 41.8185 30.4340 0.0000 -12.5619 0.0000
# 2 41.8185 91.2187 30.2165 0.0000 -4.9907 0.0000
# 3 30.4340 30.2165 81.1525 0.0000 -25.4131 0.0000
# 4 0.0000 0.0000 0.0000 30.5239 0.0000 -3.3162
# 5 -12.5619 -4.9907 -25.4131 0.0000 29.3025 0.0000
# 6 0.0000 0.0000 0.0000 -3.3162 0.0000 29.3508
#
#
#
# Elastic Compliance Matrix: (Units=1/GPa)
#
#
# Indices 1 2 3 4 5 6 
#
# 1 0.009667 -0.003807 -0.001528 0.000000 0.002171 0.000000
# 2 -0.003807 0.014152 -0.004940 0.000000 -0.003506 0.000000
# 3 -0.001528 -0.004940 0.019585 0.000000 0.015489 0.000000
# 4 0.000000 0.000000 0.000000 0.033168 0.000000 0.003748
# 5 0.002171 -0.003506 0.015489 0.000000 0.047894 0.000000
# 6 0.000000 0.000000 0.000000 0.003748 0.000000 0.034494
#
#
# Mechanical properties :
#
#
# Convention : Reuss Voigt Hill
#
# Bulk Modulus (GPa) = 43.75329 56.09426 49.92377
# Shear Modulus (GPa) = 26.71947 30.99819 28.85883
#
# Velocity S-wave (km/s) = 3.64146 3.92220 3.78444
# Velocity P-wave (km/s) = 6.27647 6.95340 6.62359
#
# Compressibility (1/GPa) = 0.02285543
#
# Stress axis : x y z
#
# Youngs Moduli (GPa) = 103.43966 70.65934 51.05852
#
# Poissons Ratio (x) = 0.26900 0.07803
# Poissons Ratio (y) = 0.39379 0.25221
# Poissons Ratio (z) = 0.15809 0.34903
#
# Static dielectric constant tensor:
#      x y z
#    x 3.923640 0.000000 -0.146450 
#    y 0.000000 3.515840 0.000000 
#    z -0.146450 0.000000 3.732490 
# 
# 
# High freq. dielectric constant tensor:
#      x y z
#    x 1.801360 0.000000 -0.008140 
#    y 0.000000 1.770660 0.000000 
#    z -0.008140 0.000000 1.791990 
# 
# From -- ./inp_files/187421.got.cif
#   From: 2010.06.25/outbox.cif.g09.slc.cpg/sg12_94_cif.got.tgz:187421.got - 2010.06.28 00:19:55.
