data_PCOD8108352
_publ_section_title
;
Structure prediction by ZEFSAII (Michael W. Deem and Ramdas Pophale) SiO2 
 PCOD8108352
Probable space group: C 2/M
;
_chemical_formula_sum "Si O2"
_cell_formula_units_Z 48
_cell_length_a 27.728510
_cell_length_b 8.939761
_cell_length_c 17.070422
_cell_angle_alpha 90.000000
_cell_angle_beta 143.782060
_cell_angle_gamma 90.000000
_cell_volume 2500.230480
_symmetry_space_group_name_H-M "C 2/M"
_symmetry_group_IT_number 12
_symmetry_cell_setting 'monoclinic'
loop_
_space_group_symop_operation_xyz
x,y,z
-x,y,-z
-x,-y,-z
x,-y,z
1/2+x,1/2+y,z
1/2-x,1/2+y,-z
1/2-x,1/2-y,-z
1/2+x,1/2-y,z
loop_
_atom_site_type_symbol
_atom_site_label
_atom_site_fract_x
_atom_site_fract_y
_atom_site_fract_z
Si Si1 0.640874 0.830128 0.520580
Si Si2 0.164234 0.824869 0.871409
Si Si3 0.507244 0.673798 0.761251
Si Si4 0.220148 0.324007 0.381915
Si Si5 0.908976 0.669451 0.369647
Si Si6 0.949366 0.172309 0.856465
O O1 0.560858 0.767073 0.373494
O O2 0.720352 0.732010 0.608002
O O3 0.635940 0.824685 0.606973
O O4 0.652594 0.000000 0.506161
O O5 0.096400 0.776218 0.847001
O O6 0.136361 0.778268 0.748794
O O7 0.177988 0.000000 0.892182
O O8 0.250000 0.750000 0.000000
O O9 0.491489 0.500000 0.721904
O O10 0.502778 0.705072 0.848567
O O11 0.226544 0.500000 0.398323
O O12 0.250000 0.250000 0.500000
O O13 0.128298 0.278598 0.243103
O O14 0.910345 0.500000 0.337731
O O15 0.000000 0.730648 0.500000
O O16 0.920615 0.000000 0.819754
O O17 0.000000 0.212079 0.000000
#
# Coordination Sequence:
#
# PCOD8108352 Si02
#       6
#     8   8   8   8   8   8
#     4  11  22  37  63  93 122 160 203 254 312 366
#     4  11  24  40  61  90 126 167 208 254 310 367
#     4  10  21  38  61  88 120 161 205 253 308 370
#     4  12  24  39  61  91 125 160 206 254 302 360
#     4  10  21  39  62  90 121 156 203 254 305 364
#     4  10  22  41  64  90 123 163 206 254 310 367
#
# _framework density 19.198229999999999
#
# number of rings (size 3 to 8) (size 9 to 14) (size 15 to 20)
#    0.000    1.333    3.333    2.500    0.000    4.000 
#    0.000    3.333    0.000    0.000    0.000    0.000 
#    0.000    0.000    0.000    0.000    0.000    0.000 
#
# Total GULP energy -297682.551022 kJ/mol
# GULP energy per Si atom -12403.439626 kJ/mol
# Density = 1.915453 g / cm^3
# Si number density = 19.198230 Si / 1000 Ang^3
#
#
#
# Elastic Constant Matrix: (Units=GPa)
#
#
# Indices 1 2 3 4 5 6 
#
# 1 131.2988 62.4202 72.3682 0.0000 9.6938 0.0000
# 2 62.4202 114.5870 62.4560 0.0000 9.6340 0.0000
# 3 72.3682 62.4560 127.9216 0.0000 5.2582 0.0000
# 4 0.0000 0.0000 0.0000 34.7793 0.0000 5.5340
# 5 9.6938 9.6340 5.2582 0.0000 33.4528 0.0000
# 6 0.0000 0.0000 0.0000 5.5340 0.0000 28.6381
#
#
#
# Elastic Compliance Matrix: (Units=1/GPa)
#
#
# Indices 1 2 3 4 5 6 
#
# 1 0.012341 -0.003834 -0.005041 0.000000 -0.001680 0.000000
# 2 -0.003834 0.013299 -0.004240 0.000000 -0.002053 0.000000
# 3 -0.005041 -0.004240 0.012711 0.000000 0.000684 0.000000
# 4 0.000000 0.000000 0.000000 0.029665 0.000000 -0.005732
# 5 -0.001680 -0.002053 0.000684 0.000000 0.030863 0.000000
# 6 0.000000 0.000000 0.000000 -0.005732 0.000000 0.036026
#
#
# Mechanical properties :
#
#
# Convention : Reuss Voigt Hill
#
# Bulk Modulus (GPa) = 82.49412 85.36623 83.93018
# Shear Modulus (GPa) = 30.27089 31.14490 30.70790
#
# Velocity S-wave (km/s) = 3.97514 4.03212 4.00374
# Velocity P-wave (km/s) = 8.00824 8.13877 8.07377
#
# Compressibility (1/GPa) = 0.01212208
#
# Stress axis : x y z
#
# Youngs Moduli (GPa) = 81.02863 75.19374 78.67322
#
# Poissons Ratio (x) = 0.28830 0.39657
# Poissons Ratio (y) = 0.31067 0.33355
# Poissons Ratio (z) = 0.40845 0.31879
#
# Static dielectric constant tensor:
#      x y z
#    x 3.858710 0.000000 0.185540 
#    y 0.000000 3.620400 0.000000 
#    z 0.185540 0.000000 3.197510 
# 
# 
# High freq. dielectric constant tensor:
#      x y z
#    x 1.764130 0.000000 0.003010 
#    y 0.000000 1.751360 0.000000 
#    z 0.003010 0.000000 1.741360 
# 
# From -- ./inp_files/244640.got.cif
#   From: 2010.06.25/outbox.cif.g09.slc.cpg/sg12_123_cif.got.tgz:244640.got - 2010.06.28 00:19:55.
