data_PCOD8108090
_publ_section_title
;
Structure prediction by ZEFSAII (Michael W. Deem and Ramdas Pophale) SiO2 
 PCOD8108090
Probable space group: C 2/M
;
_chemical_formula_sum "Si O2"
_cell_formula_units_Z 48
_cell_length_a 30.477394
_cell_length_b 8.838411
_cell_length_c 17.580821
_cell_angle_alpha 90.000000
_cell_angle_beta 149.718543
_cell_angle_gamma 90.000000
_cell_volume 2388.006510
_symmetry_space_group_name_H-M "C 2/M"
_symmetry_group_IT_number 12
_symmetry_cell_setting 'monoclinic'
loop_
_space_group_symop_operation_xyz
x,y,z
-x,y,-z
-x,-y,-z
x,-y,z
1/2+x,1/2+y,z
1/2-x,1/2+y,-z
1/2-x,1/2-y,-z
1/2+x,1/2-y,z
loop_
_atom_site_type_symbol
_atom_site_label
_atom_site_fract_x
_atom_site_fract_y
_atom_site_fract_z
Si Si1 0.077314 0.321011 0.338929
Si Si2 0.915464 0.175909 0.176572
Si Si3 0.759338 0.825450 0.831372
Si Si4 0.751037 0.322299 0.661090
Si Si5 0.577377 0.179726 0.167798
Si Si6 0.409505 0.175118 0.326212
O O1 0.079753 0.500000 0.342304
O O2 0.165718 0.264256 0.507951
O O3 0.067181 0.256954 0.238075
O O4 0.997876 0.268285 0.271164
O O5 0.892955 0.222191 0.228381
O O6 0.938341 0.000000 0.207294
O O7 0.832036 0.216663 0.001556
O O8 0.775069 0.718347 0.783227
O O9 0.665203 0.789571 0.724939
O O10 0.765856 0.000000 0.815865
O O11 0.735368 0.500000 0.630456
O O12 0.830090 0.266873 0.726298
O O13 0.571437 0.000000 0.158364
O O14 0.500000 0.248000 0.000000
O O15 0.500000 0.221172 0.500000
O O16 0.408640 0.000000 0.299971
#
# Coordination Sequence:
#
# PCOD8108090 Si02
#       6
#     8   8   8   8   8   8
#     4  11  22  38  60  83 115 156 193 235 290 345
#     4  11  23  38  58  86 118 150 192 243 286 334
#     4  10  22  39  58  85 120 154 190 234 286 343
#     4  11  22  37  60  88 117 150 193 240 283 336
#     4   9  19  36  58  85 115 150 193 236 280 337
#     4  10  21  38  60  84 113 153 195 233 282 345
#
# _framework density 20.100448
#
# number of rings (size 3 to 8) (size 9 to 14) (size 15 to 20)
#    0.000    1.667    0.000    4.500    0.000    5.000 
#    0.000    2.500    0.000    6.000    0.000    0.000 
#    0.000    0.000    0.000    0.000    0.000    0.000 
#
# Total GULP energy -297747.511541 kJ/mol
# GULP energy per Si atom -12406.146314 kJ/mol
# Density = 2.005470 g / cm^3
# Si number density = 20.100448 Si / 1000 Ang^3
#
#
#
# Elastic Constant Matrix: (Units=GPa)
#
#
# Indices 1 2 3 4 5 6 
#
# 1 56.2263 15.0199 -6.0635 0.0000 -8.3483 0.0000
# 2 15.0199 53.5490 20.1127 0.0000 -4.5877 0.0000
# 3 -6.0635 20.1127 83.0743 0.0000 -2.0181 0.0000
# 4 0.0000 0.0000 0.0000 -4.0537 0.0000 -26.1520
# 5 -8.3483 -4.5877 -2.0181 0.0000 42.5249 0.0000
# 6 0.0000 0.0000 0.0000 -26.1520 0.0000 11.6179
#
#
#
# Elastic Compliance Matrix: (Units=1/GPa)
#
#
# Indices 1 2 3 4 5 6 
#
# 1 0.020408 -0.006622 0.003177 0.000000 0.003443 0.000000
# 2 -0.006622 0.022860 -0.005996 0.000000 0.000882 0.000000
# 3 0.003177 -0.005996 0.013736 0.000000 0.000629 0.000000
# 4 0.000000 0.000000 0.000000 -0.015893 0.000000 -0.035775
# 5 0.003443 0.000882 0.000629 0.000000 0.024316 0.000000
# 6 0.000000 0.000000 0.000000 -0.035775 0.000000 0.005545
#
#
# Mechanical properties :
#
#
# Convention : Reuss Voigt Hill
#
# Bulk Modulus (GPa) = 26.23323 27.88751 27.06037
# Shear Modulus (GPa) = 48.75003 20.93653 34.84328
#
# Velocity S-wave (km/s) = 4.93010 3.23088 4.16800
# Velocity P-wave (km/s) = 6.74442 5.27468 6.05432
#
# Compressibility (1/GPa) = 0.03811959
#
# Stress axis : x y z
#
# Youngs Moduli (GPa) = 49.00023 43.74505 72.79989
#
# Poissons Ratio (x) = 0.28970 -0.23125
# Poissons Ratio (y) = 0.32450 0.43654
# Poissons Ratio (z) = -0.15565 0.26231
#
# Static dielectric constant tensor:
#      x y z
#    x 3.816570 0.000000 0.005130 
#    y 0.000000 3.477600 0.000000 
#    z 0.005130 0.000000 3.828190 
# 
# 
# High freq. dielectric constant tensor:
#      x y z
#    x 1.799380 0.000000 0.001110 
#    y 0.000000 1.768890 0.000000 
#    z 0.001110 0.000000 1.803380 
# 
# From -- ./inp_files/274572.got.cif
#   From: 2010.06.25/outbox.cif.g09.slc.cpg/sg12_138_cif.got.tgz:274572.got - 2010.06.28 00:19:55.
