data_PCOD8108429
_publ_section_title
;
Structure prediction by ZEFSAII (Michael W. Deem and Ramdas Pophale) SiO2 
 PCOD8108429
Probable space group: C 2/M
;
_chemical_formula_sum "Si O2"
_cell_formula_units_Z 48
_cell_length_a 14.559647
_cell_length_b 8.567957
_cell_length_c 29.342855
_cell_angle_alpha 90.000000
_cell_angle_beta 141.144380
_cell_angle_gamma 90.000000
_cell_volume 2296.399046
_symmetry_space_group_name_H-M "C 2/M"
_symmetry_group_IT_number 12
_symmetry_cell_setting 'monoclinic'
loop_
_space_group_symop_operation_xyz
x,y,z
-x,y,-z
-x,-y,-z
x,-y,z
1/2+x,1/2+y,z
1/2-x,1/2+y,-z
1/2-x,1/2-y,-z
1/2+x,1/2-y,z
loop_
_atom_site_type_symbol
_atom_site_label
_atom_site_fract_x
_atom_site_fract_y
_atom_site_fract_z
Si Si1 0.579007 0.817891 0.833299
Si Si2 0.382268 0.181972 0.492197
Si Si3 0.947796 0.817166 0.866918
Si Si4 0.631093 0.821469 0.015522
Si Si5 0.426640 0.819822 0.613621
Si Si6 0.857800 0.819362 0.233981
O O1 0.453858 0.757486 0.819069
O O2 0.549898 0.726911 0.774913
O O3 0.560468 0.000000 0.817258
O O4 0.737530 0.782530 0.915361
O O5 0.500000 0.238769 0.500000
O O6 0.442518 0.215992 0.566073
O O7 0.232269 0.276272 0.427819
O O8 0.346728 0.000000 0.471941
O O9 0.789977 0.780500 0.826564
O O10 0.078780 0.742265 0.946707
O O11 0.973401 0.000000 0.874717
O O12 0.683933 0.000000 0.030736
O O13 0.500000 0.806613 0.000000
O O14 0.550190 0.717126 0.685413
O O15 0.456348 0.000000 0.635778
O O16 0.815042 0.000000 0.216530
#
# Coordination Sequence:
#
# PCOD8108429 Si02
#       6
#     8   8   8   8   8   8
#     4  12  25  42  64  90 121 159 207 258 314 371
#     4   9  19  38  64  92 123 160 201 245 295 354
#     4  12  25  42  64  90 122 161 207 256 312 370
#     4  11  22  39  64  90 121 159 204 256 313 367
#     4  10  21  38  61  91 125 160 201 248 302 359
#     4  12  25  43  63  88 125 165 207 255 309 365
#
# _framework density 20.902290000000001
#
# number of rings (size 3 to 8) (size 9 to 14) (size 15 to 20)
#    0.000    1.000    1.667    6.000    0.000    3.000 
#    0.000    5.000    0.000    0.000    0.000    0.000 
#    0.000    0.000    0.000    0.000    0.000    0.000 
#
# Total GULP energy -297768.545516 kJ/mol
# GULP energy per Si atom -12407.022730 kJ/mol
# Density = 2.085472 g / cm^3
# Si number density = 20.902290 Si / 1000 Ang^3
#
#
#
# Elastic Constant Matrix: (Units=GPa)
#
#
# Indices 1 2 3 4 5 6 
#
# 1 100.9992 31.9516 21.9382 0.0000 -15.8172 0.0000
# 2 31.9516 77.3303 15.3935 0.0000 -5.0436 0.0001
# 3 21.9382 15.3935 77.2113 0.0000 -12.6487 0.0000
# 4 0.0000 0.0000 0.0000 36.6867 0.0000 0.8400
# 5 -15.8172 -5.0436 -12.6487 0.0000 23.2782 0.0000
# 6 0.0000 0.0001 0.0000 0.8400 0.0000 33.5615
#
#
#
# Elastic Compliance Matrix: (Units=1/GPa)
#
#
# Indices 1 2 3 4 5 6 
#
# 1 0.012740 -0.004500 -0.001607 0.000000 0.006808 0.000000
# 2 -0.004500 0.015110 -0.001864 0.000000 -0.000797 0.000000
# 3 -0.001607 -0.001864 0.014857 0.000000 0.006577 0.000000
# 4 0.000000 0.000000 0.000000 0.027273 0.000000 -0.000683
# 5 0.006808 -0.000797 0.006577 0.000000 0.050986 0.000000
# 6 0.000000 0.000000 0.000000 -0.000683 0.000000 0.029813
#
#
# Mechanical properties :
#
#
# Convention : Reuss Voigt Hill
#
# Bulk Modulus (GPa) = 37.36383 43.78970 40.57677
# Shear Modulus (GPa) = 28.46658 31.12245 29.79451
#
# Velocity S-wave (km/s) = 3.69438 3.86288 3.77957
# Velocity P-wave (km/s) = 6.00934 6.39460 6.20496
#
# Compressibility (1/GPa) = 0.02676385
#
# Stress axis : x y z
#
# Youngs Moduli (GPa) = 78.49294 66.18130 67.30690
#
# Poissons Ratio (x) = 0.29781 0.10819
# Poissons Ratio (y) = 0.35321 0.12549
# Poissons Ratio (z) = 0.12617 0.12339
#
# Static dielectric constant tensor:
#      x y z
#    x 3.970730 0.000000 -0.179490 
#    y 0.000000 3.787210 0.000000 
#    z -0.179490 0.000000 3.670960 
# 
# 
# High freq. dielectric constant tensor:
#      x y z
#    x 1.829860 0.000000 -0.011030 
#    y 0.000000 1.827470 0.000000 
#    z -0.011030 0.000000 1.810250 
# 
# From -- ./inp_files/360215.got.cif
#   From: 2010.06.25/outbox.cif.g09.slc.cpg/sg12_181_cif.got.tgz:360215.got - 2010.06.28 00:19:55.
