data_PCOD8108500
_publ_section_title
;
Structure prediction by ZEFSAII (Michael W. Deem and Ramdas Pophale) SiO2 
 PCOD8108500
Probable space group: C 2/M
;
_chemical_formula_sum "Si O2"
_cell_formula_units_Z 56
_cell_length_a 17.824517
_cell_length_b 8.527065
_cell_length_c 18.421590
_cell_angle_alpha 90.000000
_cell_angle_beta 103.519213
_cell_angle_gamma 90.000000
_cell_volume 2722.331340
_symmetry_space_group_name_H-M "C 2/M"
_symmetry_group_IT_number 12
_symmetry_cell_setting 'monoclinic'
loop_
_space_group_symop_operation_xyz
x,y,z
-x,y,-z
-x,-y,-z
x,-y,z
1/2+x,1/2+y,z
1/2-x,1/2+y,-z
1/2-x,1/2-y,-z
1/2+x,1/2-y,z
loop_
_atom_site_type_symbol
_atom_site_label
_atom_site_fract_x
_atom_site_fract_y
_atom_site_fract_z
Si Si1 0.978291 0.185674 0.574250
Si Si2 0.888626 0.181520 0.855616
Si Si3 0.949769 0.319213 0.142126
Si Si4 0.830001 0.315265 0.990424
Si Si5 0.098338 0.816229 0.718108
Si Si6 0.687249 0.819940 0.432667
Si Si7 0.231890 0.681267 0.277743
O O1 0.892505 0.229659 0.577399
O O2 0.000000 0.254332 0.500000
O O3 0.037956 0.257667 0.646790
O O4 0.984778 0.000000 0.574607
O O5 0.847907 0.224749 0.921062
O O6 0.830726 0.213789 0.776850
O O7 0.963696 0.287592 0.863316
O O8 0.912447 0.000000 0.860419
O O9 0.940151 0.500000 0.161114
O O10 0.928581 0.217332 0.206825
O O11 0.894696 0.272386 0.063624
O O12 0.825317 0.500000 0.974344
O O13 0.750000 0.250000 0.000000
O O14 0.183981 0.749679 0.723517
O O15 0.100889 0.000000 0.705806
O O16 0.750000 0.750000 0.500000
O O17 0.720085 0.798440 0.360045
O O18 0.672942 0.000000 0.448807
O O19 0.223055 0.500000 0.251565
#
# Coordination Sequence:
#
# PCOD8108500 Si02
#       7
#     8   8   8   8   8   8   8
#     4  10  21  39  61  86 119 157 198 244 295 354
#     4  12  25  40  62  91 121 157 200 246 298 353
#     4  11  24  41  61  87 120 157 197 244 296 351
#     4  11  24  42  64  90 121 158 200 246 298 355
#     4  10  21  38  62  89 117 154 197 242 295 353
#     4  11  23  39  61  89 120 157 200 246 298 353
#     4  10  22  41  63  88 121 159 198 243 297 356
#
# _framework density 20.570602999999998
#
# number of rings (size 3 to 8) (size 9 to 14) (size 15 to 20)
#    0.000    1.286    0.000    5.571    0.000   13.429 
#    0.000    1.429    0.000    0.000    0.000    0.000 
#    0.000    0.000    0.000    0.000    0.000    0.000 
#
# Total GULP energy -347374.665617 kJ/mol
# GULP energy per Si atom -12406.238058 kJ/mol
# Density = 2.052378 g / cm^3
# Si number density = 20.570603 Si / 1000 Ang^3
#
#
#
# Elastic Constant Matrix: (Units=GPa)
#
#
# Indices 1 2 3 4 5 6 
#
# 1 131.4780 5.4593 32.2314 0.0000 11.1911 0.0000
# 2 5.4593 35.8656 28.7525 0.0000 6.8561 0.0000
# 3 32.2314 28.7525 113.2377 0.0000 13.2682 0.0000
# 4 0.0000 0.0000 0.0000 27.8307 0.0000 -2.1704
# 5 11.1911 6.8561 13.2682 0.0000 46.2488 0.0000
# 6 0.0000 0.0000 0.0000 -2.1704 0.0000 32.3160
#
#
#
# Elastic Compliance Matrix: (Units=1/GPa)
#
#
# Indices 1 2 3 4 5 6 
#
# 1 0.008286 0.000967 -0.002434 0.000000 -0.001450 0.000000
# 2 0.000967 0.035457 -0.008935 0.000000 -0.002927 0.000000
# 3 -0.002434 -0.008935 0.011971 0.000000 -0.001521 0.000000
# 4 0.000000 0.000000 0.000000 0.036121 0.000000 0.002426
# 5 -0.001450 -0.002927 -0.001521 0.000000 0.022843 0.000000
# 6 0.000000 0.000000 0.000000 0.002426 0.000000 0.031107
#
#
# Mechanical properties :
#
#
# Convention : Reuss Voigt Hill
#
# Bulk Modulus (GPa) = 28.64546 45.94084 37.29315
# Shear Modulus (GPa) = 28.05419 35.55498 31.80459
#
# Velocity S-wave (km/s) = 3.69697 4.16196 3.93634
# Velocity P-wave (km/s) = 5.67267 6.74371 6.23124
#
# Compressibility (1/GPa) = 0.03490955
#
# Stress axis : x y z
#
# Youngs Moduli (GPa) = 120.68819 28.20283 83.53642
#
# Poissons Ratio (x) = -0.02728 0.20334
# Poissons Ratio (y) = -0.11675 0.74644
# Poissons Ratio (z) = 0.29377 0.25201
#
# Static dielectric constant tensor:
#      x y z
#    x 3.850570 0.000000 0.057390 
#    y 0.000000 3.694210 0.000000 
#    z 0.057390 0.000000 3.801070 
# 
# 
# High freq. dielectric constant tensor:
#      x y z
#    x 1.823930 0.000000 0.002040 
#    y 0.000000 1.797040 0.000000 
#    z 0.002040 0.000000 1.823430 
# 
# From -- ./inp_files/275576.got.cif
#   From: 2010.06.25/outbox.cif.g09.slc.cpg/sg12_138_cif.got.tgz:275576.got - 2010.06.28 00:19:55.
