data_PCOD8108766
_publ_section_title
;
Structure prediction by ZEFSAII (Michael W. Deem and Ramdas Pophale) SiO2 
 PCOD8108766
Probable space group: C 2/M
;
_chemical_formula_sum "Si O2"
_cell_formula_units_Z 48
_cell_length_a 18.011105
_cell_length_b 12.413300
_cell_length_c 11.615566
_cell_angle_alpha 90.000000
_cell_angle_beta 63.194905
_cell_angle_gamma 90.000000
_cell_volume 2317.920084
_symmetry_space_group_name_H-M "C 2/M"
_symmetry_group_IT_number 12
_symmetry_cell_setting 'monoclinic'
loop_
_space_group_symop_operation_xyz
x,y,z
-x,y,-z
-x,-y,-z
x,-y,z
1/2+x,1/2+y,z
1/2-x,1/2+y,-z
1/2-x,1/2-y,-z
1/2+x,1/2-y,z
loop_
_atom_site_type_symbol
_atom_site_label
_atom_site_fract_x
_atom_site_fract_y
_atom_site_fract_z
Si Si1 0.812411 0.726079 0.559082
Si Si2 0.859779 0.500000 0.595205
Si Si3 0.899544 0.123920 0.881517
Si Si4 0.540996 0.770050 0.707383
Si Si5 0.738565 0.379016 0.200228
Si Si6 0.990942 0.500000 0.686533
Si Si7 0.408048 0.224027 0.083899
O O1 0.750000 0.750000 0.500000
O O2 0.802178 0.604127 0.612630
O O3 0.906404 0.742183 0.446292
O O4 0.797673 0.804010 0.675492
O O5 0.938067 0.500000 0.457859
O O6 0.897824 0.500000 0.697700
O O7 0.809965 0.138909 0.885132
O O8 0.965920 0.185529 0.754905
O O9 0.926028 0.000000 0.871347
O O10 0.897204 0.170553 0.012219
O O11 0.599975 0.743584 0.776050
O O12 0.503283 0.890765 0.751448
O O13 0.727475 0.500000 0.253421
O O14 0.835586 0.359845 0.104654
O O15 0.500000 0.173106 0.000000
#
# Coordination Sequence:
#
# PCOD8108766 Si02
#       7
#     8   4   8   8   8   4   8
#     4  11  22  38  62  95 131 161 205 250 313 373
#     4   9  20  36  58  88 127 172 197 248 301 363
#     4  10  23  44  63  88 124 166 210 251 305 377
#     4  10  21  38  65  93 124 162 201 256 307 369
#     4  11  24  41  65  90 126 162 202 261 314 370
#     4   9  18  36  61  88 126 157 207 252 303 363
#     4  10  22  41  64  90 116 161 208 258 308 359
#
# _framework density 20.708221000000002
#
# number of rings (size 3 to 8) (size 9 to 14) (size 15 to 20)
#    0.000    1.833    1.667    1.500    2.333    6.000 
#    6.000    1.667    0.000    0.000    0.000    0.000 
#    0.000    0.000    0.000    0.000    0.000    0.000 
#
# Total GULP energy -297565.277360 kJ/mol
# GULP energy per Si atom -12398.553223 kJ/mol
# Density = 2.066109 g / cm^3
# Si number density = 20.708221 Si / 1000 Ang^3
#
#
#
# Elastic Constant Matrix: (Units=GPa)
#
#
# Indices 1 2 3 4 5 6 
#
# 1 133.4291 76.5365 35.0358 0.0000 6.9674 0.0000
# 2 76.5365 171.5625 60.4078 0.0000 6.1021 0.0000
# 3 35.0358 60.4078 86.8058 0.0000 4.2909 0.0000
# 4 0.0000 0.0000 0.0000 34.7932 0.0000 1.4209
# 5 6.9674 6.1021 4.2909 0.0000 28.1548 0.0000
# 6 0.0000 0.0000 0.0000 1.4209 0.0000 29.0493
#
#
#
# Elastic Compliance Matrix: (Units=1/GPa)
#
#
# Indices 1 2 3 4 5 6 
#
# 1 0.010233 -0.004085 -0.001215 0.000000 -0.001462 0.000000
# 2 -0.004085 0.009372 -0.004859 0.000000 -0.000280 0.000000
# 3 -0.001215 -0.004859 0.015441 0.000000 -0.000999 0.000000
# 4 0.000000 0.000000 0.000000 0.028799 0.000000 -0.001409
# 5 -0.001462 -0.000280 -0.000999 0.000000 0.036093 0.000000
# 6 0.000000 0.000000 0.000000 -0.001409 0.000000 0.034493
#
#
# Mechanical properties :
#
#
# Convention : Reuss Voigt Hill
#
# Bulk Modulus (GPa) = 67.90060 81.75084 74.82572
# Shear Modulus (GPa) = 31.31642 33.05395 32.18519
#
# Velocity S-wave (km/s) = 3.89301 3.99955 3.94664
# Velocity P-wave (km/s) = 7.28476 7.80331 7.54849
#
# Compressibility (1/GPa) = 0.01472741
#
# Stress axis : x y z
#
# Youngs Moduli (GPa) = 97.71854 106.69701 64.76099
#
# Poissons Ratio (x) = 0.43591 0.07869
# Poissons Ratio (y) = 0.39923 0.31470
# Poissons Ratio (z) = 0.11873 0.51848
#
# Static dielectric constant tensor:
#      x y z
#    x 3.991010 0.000000 0.103330 
#    y 0.000000 3.811480 0.000000 
#    z 0.103330 0.000000 3.761750 
# 
# 
# High freq. dielectric constant tensor:
#      x y z
#    x 1.822690 0.000000 0.008770 
#    y 0.000000 1.806040 0.000000 
#    z 0.008770 0.000000 1.801960 
# 
# From -- ./inp_files/154227.got.cif
#   From: 2010.06.25/outbox.cif.g09.slc.cpg/sg12_78_cif.got.tgz:154227.got - 2010.06.28 00:19:55.
