data_PCOD8108279
_publ_section_title
;
Structure prediction by ZEFSAII (Michael W. Deem and Ramdas Pophale) SiO2 
 PCOD8108279
Probable space group: C 2/M
;
_chemical_formula_sum "Si O2"
_cell_formula_units_Z 56
_cell_length_a 31.726522
_cell_length_b 9.009147
_cell_length_c 13.694596
_cell_angle_alpha 90.000000
_cell_angle_beta 48.467496
_cell_angle_gamma 90.000000
_cell_volume 2930.173971
_symmetry_space_group_name_H-M "C 2/M"
_symmetry_group_IT_number 12
_symmetry_cell_setting 'monoclinic'
loop_
_space_group_symop_operation_xyz
x,y,z
-x,y,-z
-x,-y,-z
x,-y,z
1/2+x,1/2+y,z
1/2-x,1/2+y,-z
1/2-x,1/2-y,-z
1/2+x,1/2-y,z
loop_
_atom_site_type_symbol
_atom_site_label
_atom_site_fract_x
_atom_site_fract_y
_atom_site_fract_z
Si Si1 0.914225 0.331130 0.158907
Si Si2 0.019365 0.328583 0.747449
Si Si3 0.194329 0.669718 0.554534
Si Si4 0.815409 0.673953 0.000751
Si Si5 0.370491 0.825031 0.534710
Si Si6 0.686044 0.673611 0.199971
Si Si7 0.412352 0.325559 0.963800
O O1 0.924234 0.500000 0.107610
O O2 0.955389 0.293737 0.184813
O O3 0.850208 0.309624 0.290684
O O4 0.926973 0.218815 0.052076
O O5 0.001996 0.500000 0.766698
O O6 0.064999 0.290243 0.593927
O O7 0.963862 0.229097 0.816064
O O8 0.209508 0.500000 0.515191
O O9 0.250000 0.750000 0.500000
O O10 0.169749 0.732327 0.490706
O O11 0.827555 0.500000 0.977334
O O12 0.830578 0.744066 0.873527
O O13 0.854167 0.747639 0.023294
O O14 0.750758 0.707490 0.128775
O O15 0.355434 0.733701 0.653647
O O16 0.362401 0.000000 0.565152
O O17 0.675790 0.500000 0.200528
O O18 0.405118 0.500000 0.964781
#
# Coordination Sequence:
#
# PCOD8108279 Si02
#       7
#     8   8   8   8   8   8   8
#     4   9  19  36  55  76 109 152 192 225 270 332
#     4   9  19  38  59  79 109 152 193 226 268 332
#     4   9  19  33  50  77 111 145 185 227 266 319
#     4  10  22  40  60  82 111 147 184 223 274 338
#     4   9  19  36  58  81 109 148 185 220 274 336
#     4  10  21  38  61  87 112 140 179 229 281 328
#     4  12  24  35  54  84 115 144 185 239 282 319
#
# _framework density 19.111495000000001
#
# number of rings (size 3 to 8) (size 9 to 14) (size 15 to 20)
#    0.000    2.286    0.000    4.286    2.000    5.714 
#    0.000    3.571    0.000    4.286    0.000    0.000 
#    0.000    0.000    0.000    0.000    0.000    0.000 
#
# Total GULP energy -347246.029217 kJ/mol
# GULP energy per Si atom -12401.643901 kJ/mol
# Density = 1.906800 g / cm^3
# Si number density = 19.111495 Si / 1000 Ang^3
#
#
#
# Elastic Constant Matrix: (Units=GPa)
#
#
# Indices 1 2 3 4 5 6 
#
# 1 51.0695 29.6387 20.2447 0.0000 -9.3488 0.0000
# 2 29.6387 92.7002 44.8089 0.0000 -1.8603 0.0000
# 3 20.2447 44.8089 100.0801 0.0000 3.8513 0.0000
# 4 0.0000 0.0000 0.0000 31.4995 0.0000 -2.4760
# 5 -9.3488 -1.8603 3.8513 0.0000 20.2573 0.0000
# 6 0.0000 0.0000 0.0000 -2.4760 0.0000 31.2707
#
#
#
# Elastic Compliance Matrix: (Units=1/GPa)
#
#
# Indices 1 2 3 4 5 6 
#
# 1 0.027041 -0.007049 -0.002790 0.000000 0.012363 0.000000
# 2 -0.007049 0.015727 -0.005587 0.000000 -0.000747 0.000000
# 3 -0.002790 -0.005587 0.013224 0.000000 -0.004315 0.000000
# 4 0.000000 0.000000 0.000000 0.031945 0.000000 0.002529
# 5 0.012363 -0.000747 -0.004315 0.000000 0.055822 0.000000
# 6 0.000000 0.000000 0.000000 0.002529 0.000000 0.032179
#
#
# Mechanical properties :
#
#
# Convention : Reuss Voigt Hill
#
# Bulk Modulus (GPa) = 39.77632 48.13716 43.95674
# Shear Modulus (GPa) = 23.23752 26.54934 24.89343
#
# Velocity S-wave (km/s) = 3.49075 3.73122 3.61298
# Velocity P-wave (km/s) = 6.09139 6.61852 6.36042
#
# Compressibility (1/GPa) = 0.02514058
#
# Stress axis : x y z
#
# Youngs Moduli (GPa) = 36.98055 63.58586 75.62215
#
# Poissons Ratio (x) = 0.44823 0.21096
# Poissons Ratio (y) = 0.26069 0.42247
# Poissons Ratio (z) = 0.10316 0.35523
#
# Static dielectric constant tensor:
#      x y z
#    x 3.387370 0.000000 -0.159670 
#    y 0.000000 3.378420 0.000000 
#    z -0.159670 0.000000 3.517320 
# 
# 
# High freq. dielectric constant tensor:
#      x y z
#    x 1.736620 0.000000 -0.011130 
#    y 0.000000 1.736930 0.000000 
#    z -0.011130 0.000000 1.746270 
# 
# From -- ./inp_files/187210.got.cif
#   From: 2010.06.25/outbox.cif.g09.slc.cpg/sg12_94_cif.got.tgz:187210.got - 2010.06.28 00:19:55.
