data_PCOD8108479
_publ_section_title
;
Structure prediction by ZEFSAII (Michael W. Deem and Ramdas Pophale) SiO2 
 PCOD8108479
Probable space group: C 2/M
;
_chemical_formula_sum "Si O2"
_cell_formula_units_Z 48
_cell_length_a 23.907234
_cell_length_b 8.834626
_cell_length_c 11.988345
_cell_angle_alpha 90.000000
_cell_angle_beta 78.044708
_cell_angle_gamma 90.000000
_cell_volume 2477.154082
_symmetry_space_group_name_H-M "C 2/M"
_symmetry_group_IT_number 12
_symmetry_cell_setting 'monoclinic'
loop_
_space_group_symop_operation_xyz
x,y,z
-x,y,-z
-x,-y,-z
x,-y,z
1/2+x,1/2+y,z
1/2-x,1/2+y,-z
1/2-x,1/2-y,-z
1/2+x,1/2-y,z
loop_
_atom_site_type_symbol
_atom_site_label
_atom_site_fract_x
_atom_site_fract_y
_atom_site_fract_z
Si Si1 0.592418 0.173659 0.480142
Si Si2 0.744533 0.175699 0.178100
Si Si3 0.043775 0.174937 0.080113
Si Si4 0.490635 0.173757 0.685193
Si Si5 0.164418 0.324298 0.006364
Si Si6 0.211623 0.822767 0.421739
O O1 0.551940 0.199393 0.603099
O O2 0.559235 0.215560 0.380850
O O3 0.645957 0.282429 0.470967
O O4 0.613182 0.000000 0.466114
O O5 0.693464 0.210142 0.113147
O O6 0.731894 0.268105 0.293463
O O7 0.748567 0.000000 0.206457
O O8 0.804854 0.228472 0.102644
O O9 0.013136 0.216083 0.208366
O O10 0.098866 0.278044 0.039602
O O11 0.062027 0.000000 0.074069
O O12 0.000000 0.211123 0.000000
O O13 0.483969 0.000000 0.726481
O O14 0.169732 0.500000 0.973362
O O15 0.250000 0.750000 0.500000
O O16 0.219531 0.000000 0.425062
#
# Coordination Sequence:
#
# PCOD8108479 Si02
#       6
#     8   8   8   8   8   8
#     4   9  19  38  61  86 114 143 182 233 285 335
#     4  10  21  39  62  87 115 146 186 236 285 336
#     4  11  24  38  53  79 117 155 189 232 282 329
#     4   9  19  37  62  86 110 145 186 230 281 338
#     4  10  21  38  62  88 113 147 190 234 282 337
#     4  12  25  39  57  83 116 154 192 232 283 338
#
# _framework density 19.377075000000001
#
# number of rings (size 3 to 8) (size 9 to 14) (size 15 to 20)
#    0.000    1.833    0.000    5.000    0.000   10.000 
#    0.000    5.000    0.000    0.000    0.000    0.000 
#    0.000    0.000    0.000    0.000    0.000    0.000 
#
# Total GULP energy -297731.824097 kJ/mol
# GULP energy per Si atom -12405.492671 kJ/mol
# Density = 1.933297 g / cm^3
# Si number density = 19.377075 Si / 1000 Ang^3
#
#
#
# Elastic Constant Matrix: (Units=GPa)
#
#
# Indices 1 2 3 4 5 6 
#
# 1 65.3311 58.7422 106.0101 0.0000 13.8239 0.0000
# 2 58.7422 110.0605 54.1063 0.0000 2.7730 0.0000
# 3 106.0101 54.1063 65.0773 0.0000 -17.3831 0.0000
# 4 0.0000 0.0000 0.0000 37.2434 0.0000 -3.0582
# 5 13.8239 2.7730 -17.3831 0.0000 14.6294 0.0000
# 6 0.0000 0.0000 0.0000 -3.0582 0.0000 34.6311
#
#
#
# Elastic Compliance Matrix: (Units=1/GPa)
#
#
# Indices 1 2 3 4 5 6 
#
# 1 -0.001724 -0.004978 0.011186 0.000000 0.015864 0.000000
# 2 -0.004978 0.013907 -0.004249 0.000000 -0.002981 0.000000
# 3 0.011186 -0.004249 -0.002827 0.000000 -0.013124 0.000000
# 4 0.000000 0.000000 0.000000 0.027047 0.000000 0.002388
# 5 0.015864 -0.002981 -0.013124 0.000000 0.038336 0.000000
# 6 0.000000 0.000000 0.000000 0.002388 0.000000 0.029087
#
#
# Mechanical properties :
#
#
# Convention : Reuss Voigt Hill
#
# Bulk Modulus (GPa) = 75.35136 75.35400 75.35268
# Shear Modulus (GPa) = 47.92373 18.74146 33.33259
#
# Velocity S-wave (km/s) = 4.97854 3.11335 4.15204
# Velocity P-wave (km/s) = 8.48641 7.20393 7.87133
#
# Compressibility (1/GPa) = 0.01327116
#
# Stress axis : x y z
#
# Youngs Moduli (GPa) = -579.90297 71.90565 -353.69205
#
# Poissons Ratio (x) = 0.35796 3.95626
# Poissons Ratio (y) = -2.88689 -1.50301
# Poissons Ratio (z) = 6.48657 0.30556
#
# Static dielectric constant tensor:
#      x y z
#    x 3.564820 0.000000 -0.012960 
#    y 0.000000 3.569700 0.000000 
#    z -0.012960 0.000000 3.598750 
# 
# 
# High freq. dielectric constant tensor:
#      x y z
#    x 1.756070 0.000000 -0.007110 
#    y 0.000000 1.759830 0.000000 
#    z -0.007110 0.000000 1.763310 
# 
# From -- ./inp_files/172172.got.cif
#   From: 2010.06.25/outbox.cif.g09.slc.cpg/sg12_87_cif.got.tgz:172172.got - 2010.06.28 00:19:55.
