data_PCOD8108648
_publ_section_title
;
Structure prediction by ZEFSAII (Michael W. Deem and Ramdas Pophale) SiO2 
 PCOD8108648
Probable space group: C 2/M
;
_chemical_formula_sum "Si O2"
_cell_formula_units_Z 56
_cell_length_a 8.939593
_cell_length_b 28.221528
_cell_length_c 20.326058
_cell_angle_alpha 90.000000
_cell_angle_beta 32.836991
_cell_angle_gamma 90.000000
_cell_volume 2780.683862
_symmetry_space_group_name_H-M "C 2/M"
_symmetry_group_IT_number 12
_symmetry_cell_setting 'monoclinic'
loop_
_space_group_symop_operation_xyz
x,y,z
-x,y,-z
-x,-y,-z
x,-y,z
1/2+x,1/2+y,z
1/2-x,1/2+y,-z
1/2-x,1/2-y,-z
1/2+x,1/2-y,z
loop_
_atom_site_type_symbol
_atom_site_label
_atom_site_fract_x
_atom_site_fract_y
_atom_site_fract_z
Si Si1 0.274954 0.634455 0.855709
Si Si2 0.697822 0.217084 0.637326
Si Si3 0.901489 0.195902 0.691726
Si Si4 0.222888 0.553131 0.142609
Si Si5 0.369812 0.608275 0.474836
Si Si6 0.322632 0.868656 0.730785
Si Si7 0.192775 0.946025 0.256296
O O1 0.235603 0.675186 0.815159
O O2 0.539681 0.647388 0.801695
O O3 0.339149 0.584207 0.798175
O O4 0.000000 0.631992 0.000000
O O5 0.695150 0.222624 0.717743
O O6 0.634783 0.267623 0.628684
O O7 0.468732 0.178008 0.705522
O O8 0.000000 0.200676 0.500000
O O9 0.040216 0.154548 0.598334
O O10 0.168879 0.500000 0.191526
O O11 0.246249 0.592251 0.189699
O O12 0.983177 0.567807 0.181294
O O13 0.500000 0.553516 0.000000
O O14 0.500000 0.605430 0.500000
O O15 0.460720 0.563464 0.397527
O O16 0.037875 0.607518 0.600494
O O17 0.176149 0.000000 0.239791
#
# Coordination Sequence:
#
# PCOD8108648 Si02
#       7
#     8   8   8   8   8   8   8
#     4  11  26  44  62  87 127 171 216 260 305 367
#     4  12  23  39  66 101 128 157 202 256 316 385
#     4  11  23  40  63  93 130 160 204 253 313 372
#     4  10  21  38  63  92 122 167 220 258 302 370
#     4  11  20  39  62  97 131 156 203 257 319 379
#     4  12  22  39  63  93 125 168 206 262 315 366
#     4  10  22  40  64  91 129 168 205 263 320 368
#
# _framework density 20.138929999999998
#
# number of rings (size 3 to 8) (size 9 to 14) (size 15 to 20)
#    0.000    1.000    4.286    3.000    2.000    3.429 
#    0.000    4.286    0.000    0.000    0.000    0.000 
#    0.000    0.000    0.000    0.000    0.000    0.000 
#
# Total GULP energy -347150.159509 kJ/mol
# GULP energy per Si atom -12398.219982 kJ/mol
# Density = 2.009309 g / cm^3
# Si number density = 20.138930 Si / 1000 Ang^3
#
#
#
# Elastic Constant Matrix: (Units=GPa)
#
#
# Indices 1 2 3 4 5 6 
#
# 1 115.4210 56.1864 46.8364 0.0010 -0.3157 0.0003
# 2 56.1864 71.2669 24.7192 0.0000 15.2471 -0.0001
# 3 46.8364 24.7192 118.3536 0.0040 -0.1807 0.0010
# 4 0.0010 0.0000 0.0040 15.4282 -0.0008 -10.0801
# 5 -0.3157 15.2471 -0.1807 -0.0008 32.0739 0.0000
# 6 0.0003 -0.0001 0.0010 -10.0801 0.0000 35.1394
#
#
#
# Elastic Compliance Matrix: (Units=1/GPa)
#
#
# Indices 1 2 3 4 5 6 
#
# 1 0.016641 -0.013162 -0.003827 0.000000 0.006399 0.000000
# 2 -0.013162 0.027410 -0.000537 0.000001 -0.013163 0.000000
# 3 -0.003827 -0.000537 0.010076 -0.000003 0.000274 -0.000001
# 4 0.000000 0.000001 -0.000003 0.079766 0.000002 0.022882
# 5 0.006399 -0.013163 0.000274 0.000002 0.037500 0.000000
# 6 0.000000 0.000000 -0.000001 0.022882 0.000000 0.035022
#
#
# Mechanical properties :
#
#
# Convention : Reuss Voigt Hill
#
# Bulk Modulus (GPa) = 52.41638 62.28062 57.34850
# Shear Modulus (GPa) = 20.17552 28.34826 24.26189
#
# Velocity S-wave (km/s) = 3.16858 3.75592 3.47468
# Velocity P-wave (km/s) = 6.28255 7.05704 6.68103
#
# Compressibility (1/GPa) = 0.01907800
#
# Stress axis : x y z
#
# Youngs Moduli (GPa) = 60.09143 36.48245 99.24431
#
# Poissons Ratio (x) = 0.48017 0.37979
# Poissons Ratio (y) = 0.79090 0.05325
# Poissons Ratio (z) = 0.22996 0.01957
#
# Static dielectric constant tensor:
#      x y z
#    x 3.926770 0.000000 0.130260 
#    y 0.000000 3.791510 0.000000 
#    z 0.130260 0.000000 3.692510 
# 
# 
# High freq. dielectric constant tensor:
#      x y z
#    x 1.792160 0.000000 0.004330 
#    y 0.000000 1.792740 0.000000 
#    z 0.004330 0.000000 1.776660 
# 
# From -- ./inp_files/302973.got.cif
#   From: 2010.06.25/outbox.cif.g09.slc.cpg/sg12_152_cif.got.tgz:302973.got - 2010.06.28 00:19:55.
