data_PCOD8108155
_publ_section_title
;
Structure prediction by ZEFSAII (Michael W. Deem and Ramdas Pophale) SiO2 
 PCOD8108155
Probable space group: C 2/M
;
_chemical_formula_sum "Si O2"
_cell_formula_units_Z 40
_cell_length_a 26.898898
_cell_length_b 9.495357
_cell_length_c 21.732221
_cell_angle_alpha 90.000000
_cell_angle_beta 20.936372
_cell_angle_gamma 90.000000
_cell_volume 1983.446807
_symmetry_space_group_name_H-M "C 2/M"
_symmetry_group_IT_number 12
_symmetry_cell_setting 'monoclinic'
loop_
_space_group_symop_operation_xyz
x,y,z
-x,y,-z
-x,-y,-z
x,-y,z
1/2+x,1/2+y,z
1/2-x,1/2+y,-z
1/2-x,1/2-y,-z
1/2+x,1/2-y,z
loop_
_atom_site_type_symbol
_atom_site_label
_atom_site_fract_x
_atom_site_fract_y
_atom_site_fract_z
Si Si1 0.119720 0.338739 0.672887
Si Si2 0.824082 0.664129 0.967917
Si Si3 0.832907 0.659509 0.758744
Si Si4 0.612855 0.835473 0.820486
Si Si5 0.146351 0.658474 0.408699
O O1 0.167941 0.500000 0.615255
O O2 0.250000 0.250000 0.500000
O O3 0.069839 0.300579 0.800017
O O4 0.990641 0.313458 0.775760
O O5 0.786246 0.500000 0.005498
O O6 0.750000 0.750000 0.000000
O O7 0.768687 0.724190 0.096215
O O8 0.781687 0.500000 0.832077
O O9 0.834785 0.688694 0.684724
O O10 0.985324 0.679957 0.612389
O O11 0.762138 0.764871 0.657929
O O12 0.631402 0.000000 0.810685
O O13 0.500000 0.774626 0.000000
O O14 0.193231 0.500000 0.370582
#
# Coordination Sequence:
#
# PCOD8108155 Si02
#       5
#     8   8   8   8   8
#     4  10  24  43  62  88 123 162 202 249 305 363
#     4  11  24  41  62  87 118 159 204 250 300 358
#     4   9  19  37  58  85 121 155 194 246 298 353
#     4  10  21  38  60  86 119 155 199 252 303 359
#     4   9  19  35  58  87 119 154 193 243 299 355
#
# _framework density 20.166913000000001
#
# number of rings (size 3 to 8) (size 9 to 14) (size 15 to 20)
#    0.000    2.200    0.000    3.000    2.800    6.000 
#    0.000    2.000    0.000    0.000    0.000    0.000 
#    0.000    0.000    0.000    0.000    0.000    0.000 
#
# Total GULP energy -247997.289223 kJ/mol
# GULP energy per Si atom -12399.864461 kJ/mol
# Density = 2.012101 g / cm^3
# Si number density = 20.166913 Si / 1000 Ang^3
#
#
#
# Elastic Constant Matrix: (Units=GPa)
#
#
# Indices 1 2 3 4 5 6 
#
# 1 89.7296 50.2475 34.8082 0.0002 -14.0265 0.0000
# 2 50.2475 95.4047 55.5689 0.0017 -6.1009 -0.0006
# 3 34.8082 55.5689 93.0046 0.0005 0.6168 -0.0001
# 4 0.0002 0.0017 0.0005 39.0270 -0.0001 -1.1404
# 5 -14.0265 -6.1009 0.6168 -0.0001 31.1372 0.0000
# 6 0.0000 -0.0006 -0.0001 -1.1404 0.0000 34.6161
#
#
#
# Elastic Compliance Matrix: (Units=1/GPa)
#
#
# Indices 1 2 3 4 5 6 
#
# 1 0.017052 -0.007421 -0.001989 0.000000 0.006267 0.000000
# 2 -0.007421 0.019662 -0.008974 -0.000001 0.000687 0.000000
# 3 -0.001989 -0.008974 0.016879 0.000000 -0.002989 0.000000
# 4 0.000000 -0.000001 0.000000 0.025648 0.000000 0.000845
# 5 0.006267 0.000687 -0.002989 0.000000 0.035133 0.000000
# 6 0.000000 0.000000 0.000000 0.000845 0.000000 0.028916
#
#
# Mechanical properties :
#
#
# Convention : Reuss Voigt Hill
#
# Bulk Modulus (GPa) = 59.44718 62.15426 60.80072
# Shear Modulus (GPa) = 26.93005 30.12367 28.52686
#
# Velocity S-wave (km/s) = 3.65822 3.86906 3.76511
# Velocity P-wave (km/s) = 6.88368 7.13066 7.00826
#
# Compressibility (1/GPa) = 0.01682165
#
# Stress axis : x y z
#
# Youngs Moduli (GPa) = 58.64498 50.86081 59.24659
#
# Poissons Ratio (x) = 0.37746 0.11786
# Poissons Ratio (y) = 0.43523 0.53171
# Poissons Ratio (z) = 0.11666 0.45645
#
# Static dielectric constant tensor:
#      x y z
#    x 3.737880 0.000000 -0.047390 
#    y 0.000000 3.641230 0.000000 
#    z -0.047390 0.000000 3.758010 
# 
# 
# High freq. dielectric constant tensor:
#      x y z
#    x 1.794420 0.000000 -0.001010 
#    y 0.000000 1.783020 0.000000 
#    z -0.001010 0.000000 1.785790 
# 
# From -- ./inp_files/352961.got.cif
#   From: 2010.06.25/outbox.cif.g09.slc.cpg/sg12_177_cif.got.tgz:352961.got - 2010.06.28 00:19:55.
