data_PCOD8108055
_publ_section_title
;
Structure prediction by ZEFSAII (Michael W. Deem and Ramdas Pophale) SiO2 
 PCOD8108055
Probable space group: C 2/M
;
_chemical_formula_sum "Si O2"
_cell_formula_units_Z 48
_cell_length_a 18.355176
_cell_length_b 11.369816
_cell_length_c 12.349738
_cell_angle_alpha 90.000000
_cell_angle_beta 65.033879
_cell_angle_gamma 90.000000
_cell_volume 2336.496312
_symmetry_space_group_name_H-M "C 2/M"
_symmetry_group_IT_number 12
_symmetry_cell_setting 'monoclinic'
loop_
_space_group_symop_operation_xyz
x,y,z
-x,y,-z
-x,-y,-z
x,-y,z
1/2+x,1/2+y,z
1/2-x,1/2+y,-z
1/2-x,1/2-y,-z
1/2+x,1/2-y,z
loop_
_atom_site_type_symbol
_atom_site_label
_atom_site_fract_x
_atom_site_fract_y
_atom_site_fract_z
Si Si1 0.808125 0.744545 0.728740
Si Si2 0.859240 0.139151 0.131299
Si Si3 0.196484 0.136488 0.492591
Si Si4 0.473286 0.866603 0.628222
Si Si5 0.454309 0.310363 0.271571
Si Si6 0.371471 0.370987 0.884371
O O1 0.726830 0.672030 0.765189
O O2 0.820743 0.836810 0.622805
O O3 0.878191 0.648694 0.696085
O O4 0.808289 0.812352 0.842722
O O5 0.925499 0.200235 0.165932
O O6 0.873271 0.000000 0.129000
O O7 0.871082 0.190939 0.002920
O O8 0.250000 0.250000 0.500000
O O9 0.113613 0.129408 0.611640
O O10 0.232953 0.000000 0.478944
O O11 0.500000 0.803228 0.500000
O O12 0.524502 0.818001 0.696531
O O13 0.498599 0.000000 0.609431
O O14 0.539031 0.379676 0.222584
O O15 0.337056 0.500000 0.925952
#
# Coordination Sequence:
#
# PCOD8108055 Si02
#       6
#     8   8   8   8   8   8
#     4  11  22  39  60  90 124 160 206 258 310 371
#     4  11  22  39  62  88 119 162 210 256 308 367
#     4  12  25  40  62  96 132 166 206 258 322 379
#     4  10  21  38  59  88 125 167 205 247 309 379
#     4  11  22  39  62  92 122 156 205 258 307 371
#     4  10  22  39  62  87 118 159 206 259 310 366
#
# _framework density 20.543581
#
# number of rings (size 3 to 8) (size 9 to 14) (size 15 to 20)
#    0.000    1.167    3.333    3.500    0.000    2.667 
#    0.000    2.500    0.000   10.000    0.000    0.000 
#    0.000    0.000    0.000    0.000    0.000    0.000 
#
# Total GULP energy -297374.970224 kJ/mol
# GULP energy per Si atom -12390.623759 kJ/mol
# Density = 2.049682 g / cm^3
# Si number density = 20.543581 Si / 1000 Ang^3
#
#
#
# Elastic Constant Matrix: (Units=GPa)
#
#
# Indices 1 2 3 4 5 6 
#
# 1 87.5931 37.6332 12.6824 0.0000 17.0757 0.0000
# 2 37.6332 98.1105 32.2894 0.0000 16.6489 0.0000
# 3 12.6824 32.2894 95.7837 0.0000 21.9368 0.0000
# 4 0.0000 0.0000 0.0000 23.7006 0.0000 2.8951
# 5 17.0757 16.6489 21.9368 0.0000 46.8931 0.0000
# 6 0.0000 0.0000 0.0000 2.8951 0.0000 1.9727
#
#
#
# Elastic Compliance Matrix: (Units=1/GPa)
#
#
# Indices 1 2 3 4 5 6 
#
# 1 0.014206 -0.005041 0.000664 0.000000 -0.003694 0.000000
# 2 -0.005041 0.013529 -0.003599 0.000000 -0.001284 0.000000
# 3 0.000664 -0.003599 0.012688 0.000000 -0.004899 0.000000
# 4 0.000000 0.000000 0.000000 0.051409 0.000000 -0.075448
# 5 -0.003694 -0.001284 -0.004899 0.000000 0.025418 0.000000
# 6 0.000000 0.000000 0.000000 -0.075448 0.000000 0.617653
#
#
# Mechanical properties :
#
#
# Convention : Reuss Voigt Hill
#
# Bulk Modulus (GPa) = 40.86472 49.63305 45.24888
# Shear Modulus (GPa) = 6.58752 27.77210 17.17981
#
# Velocity S-wave (km/s) = 1.79264 3.68076 2.89496
# Velocity P-wave (km/s) = 4.92135 6.50202 5.76611
#
# Compressibility (1/GPa) = 0.02447099
#
# Stress axis : x y z
#
# Youngs Moduli (GPa) = 70.39202 73.91757 78.81718
#
# Poissons Ratio (x) = 0.37262 -0.05237
# Poissons Ratio (y) = 0.35485 0.28367
# Poissons Ratio (z) = -0.04677 0.26604
#
# Static dielectric constant tensor:
#      x y z
#    x 3.689900 0.000000 0.167350 
#    y 0.000000 3.588980 0.000000 
#    z 0.167350 0.000000 4.051480 
# 
# 
# High freq. dielectric constant tensor:
#      x y z
#    x 1.803570 0.000000 0.009070 
#    y 0.000000 1.782930 0.000000 
#    z 0.009070 0.000000 1.819410 
# 
# From -- ./inp_files/154170.got.cif
#   From: 2010.06.25/outbox.cif.g09.slc.cpg/sg12_78_cif.got.tgz:154170.got - 2010.06.28 00:19:55.
