data_PCOD8108430
_publ_section_title
;
Structure prediction by ZEFSAII (Michael W. Deem and Ramdas Pophale) SiO2 
 PCOD8108430
Probable space group: C 2/M
;
_chemical_formula_sum "Si O2"
_cell_formula_units_Z 64
_cell_length_a 28.290552
_cell_length_b 8.716815
_cell_length_c 25.939553
_cell_angle_alpha 90.000000
_cell_angle_beta 29.924905
_cell_angle_gamma 90.000000
_cell_volume 3191.128900
_symmetry_space_group_name_H-M "C 2/M"
_symmetry_group_IT_number 12
_symmetry_cell_setting 'monoclinic'
loop_
_space_group_symop_operation_xyz
x,y,z
-x,y,-z
-x,-y,-z
x,-y,z
1/2+x,1/2+y,z
1/2-x,1/2+y,-z
1/2-x,1/2-y,-z
1/2+x,1/2-y,z
loop_
_atom_site_type_symbol
_atom_site_label
_atom_site_fract_x
_atom_site_fract_y
_atom_site_fract_z
Si Si1 0.284009 0.320640 0.204631
Si Si2 0.869786 0.676686 0.427334
Si Si3 0.379526 0.179966 0.016484
Si Si4 0.247796 0.819690 0.945898
Si Si5 0.082163 0.821078 0.827692
Si Si6 0.567172 0.178943 0.292020
Si Si7 0.184798 0.322810 0.636052
Si Si8 0.411905 0.679102 0.618293
O O1 0.290879 0.500000 0.185839
O O2 0.348994 0.273259 0.191005
O O3 0.176905 0.274809 0.319297
O O4 0.313911 0.229342 0.125726
O O5 0.843973 0.500000 0.462291
O O6 0.864297 0.713656 0.372013
O O7 0.795606 0.779527 0.529216
O O8 0.974694 0.717968 0.346212
O O9 0.486734 0.227234 0.926045
O O10 0.373121 0.000000 0.015134
O O11 0.343623 0.257774 0.997945
O O12 0.342789 0.770185 0.826431
O O13 0.239304 0.000000 0.958847
O O14 0.250000 0.750000 0.000000
O O15 0.131735 0.781322 0.727354
O O16 0.057820 0.000000 0.852240
O O17 0.563840 0.279583 0.346180
O O18 0.572627 0.000000 0.301751
O O19 0.174632 0.500000 0.661314
O O20 0.500000 0.727310 0.500000
O O21 0.388891 0.500000 0.635556
#
# Coordination Sequence:
#
# PCOD8108430 Si02
#       8
#     8   8   8   8   8   8   8   8
#     4  11  24  44  67  91 123 165 209 257 314 379
#     4   9  20  39  61  87 123 165 206 251 306 369
#     4  12  25  43  67  94 126 163 206 260 318 376
#     4  11  24  42  66  97 131 171 216 264 317 378
#     4  11  25  42  64  93 124 161 208 258 311 376
#     4  10  22  41  66  92 125 169 215 258 313 380
#     4  10  21  38  61  91 125 162 204 257 310 365
#     4  11  25  42  63  95 131 166 211 265 318 377
#
# _framework density 20.055598
#
# number of rings (size 3 to 8) (size 9 to 14) (size 15 to 20)
#    0.000    1.375    1.250    3.375    3.500    6.000 
#    0.000    0.000    0.000    0.000    0.000    0.000 
#    0.000    0.000    0.000    0.000    0.000    0.000 
#
# Total GULP energy -397040.295252 kJ/mol
# GULP energy per Si atom -12407.509227 kJ/mol
# Density = 2.000995 g / cm^3
# Si number density = 20.055598 Si / 1000 Ang^3
#
#
#
# Elastic Constant Matrix: (Units=GPa)
#
#
# Indices 1 2 3 4 5 6 
#
# 1 130.1966 44.2963 63.9229 0.0018 -13.8483 -0.0044
# 2 44.2963 68.8303 38.6276 0.0313 7.8981 -0.0255
# 3 63.9229 38.6276 110.6531 0.0015 7.7914 0.0059
# 4 0.0018 0.0313 0.0015 37.4393 -0.0054 0.6866
# 5 -13.8483 7.8981 7.7914 -0.0054 30.3779 0.0038
# 6 -0.0044 -0.0255 0.0059 0.6866 0.0038 28.3983
#
#
#
# Elastic Compliance Matrix: (Units=1/GPa)
#
#
# Indices 1 2 3 4 5 6 
#
# 1 0.014215 -0.006571 -0.006614 0.000007 0.009885 -0.000004
# 2 -0.006571 0.021404 -0.003130 -0.000019 -0.007757 0.000020
# 3 -0.006614 -0.003130 0.014365 0.000002 -0.005886 -0.000006
# 4 0.000007 -0.000019 0.000002 0.026722 0.000012 -0.000646
# 5 0.009885 -0.007757 -0.005886 0.000012 0.040951 -0.000010
# 6 -0.000004 0.000020 -0.000006 -0.000646 -0.000010 0.035229
#
#
# Mechanical properties :
#
#
# Convention : Reuss Voigt Hill
#
# Bulk Modulus (GPa) = 57.62101 67.04153 62.33127
# Shear Modulus (GPa) = 26.13703 30.09863 28.11783
#
# Velocity S-wave (km/s) = 3.61394 3.87817 3.74838
# Velocity P-wave (km/s) = 6.79758 7.31806 7.06262
#
# Compressibility (1/GPa) = 0.01735478
#
# Stress axis : x y z
#
# Youngs Moduli (GPa) = 70.34885 46.72114 69.61298
#
# Poissons Ratio (x) = 0.30698 0.46043
# Poissons Ratio (y) = 0.46223 0.21788
# Poissons Ratio (z) = 0.46529 0.14623
#
# Static dielectric constant tensor:
#      x y z
#    x 3.785740 -0.000030 -0.087840 
#    y -0.000030 3.660610 0.000080 
#    z -0.087840 0.000080 3.755310 
# 
# 
# High freq. dielectric constant tensor:
#      x y z
#    x 1.796250 0.000000 -0.004180 
#    y 0.000000 1.788990 0.000000 
#    z -0.004180 0.000000 1.790780 
# 
# From -- ./inp_files/353263.got.cif
#   From: 2010.06.25/outbox.cif.g09.slc.cpg/sg12_177_cif.got.tgz:353263.got - 2010.06.28 00:19:55.
