data_PCOD8108375
_publ_section_title
;
Structure prediction by ZEFSAII (Michael W. Deem and Ramdas Pophale) SiO2 
 PCOD8108375
Probable space group: C 2/M
;
_chemical_formula_sum "Si O2"
_cell_formula_units_Z 32
_cell_length_a 9.289651
_cell_length_b 34.487621
_cell_length_c 4.910134
_cell_angle_alpha 90.000000
_cell_angle_beta 63.156663
_cell_angle_gamma 90.000000
_cell_volume 1403.588738
_symmetry_space_group_name_H-M "C 2/M"
_symmetry_group_IT_number 12
_symmetry_cell_setting 'monoclinic'
loop_
_space_group_symop_operation_xyz
x,y,z
-x,y,-z
-x,-y,-z
x,-y,z
1/2+x,1/2+y,z
1/2-x,1/2+y,-z
1/2-x,1/2-y,-z
1/2+x,1/2-y,z
loop_
_atom_site_type_symbol
_atom_site_label
_atom_site_fract_x
_atom_site_fract_y
_atom_site_fract_z
Si Si1 0.691777 0.168259 0.356229
Si Si2 0.187668 0.285195 0.871390
Si Si3 0.186516 0.544521 0.905881
Si Si4 0.824701 0.914683 0.280384
O O1 0.500000 0.162336 0.500000
O O2 0.747238 0.204156 0.513252
O O3 0.782579 0.129974 0.374251
O O4 0.741893 0.177819 0.005020
O O5 0.250000 0.250000 0.000000
O O6 0.000000 0.278911 0.000000
O O7 0.238030 0.500000 0.895695
O O8 0.306697 0.563295 0.581876
O O9 0.199444 0.566487 0.179856
O O10 0.000000 0.549013 0.000000
O O11 0.000000 0.919643 0.000000
#
# Coordination Sequence:
#
# PCOD8108375 Si02
#       4
#     8   8   8   8
#     4  10  21  39  62  87 121 165 209 253 308 379
#     4  10  21  38  61  89 119 157 205 258 312 368
#     4  11  24  43  67  93 126 172 218 259 315 389
#     4  12  25  41  64  97 131 166 212 270 326 371
#
# _framework density 22.798701000000001
#
# number of rings (size 3 to 8) (size 9 to 14) (size 15 to 20)
#    0.000    1.250    0.000    6.000    0.000    8.000 
#    0.000    2.500    0.000    0.000    0.000    0.000 
#    0.000    0.000    0.000    0.000    0.000    0.000 
#
# Total GULP energy -198240.107781 kJ/mol
# GULP energy per Si atom -12390.006736 kJ/mol
# Density = 2.274681 g / cm^3
# Si number density = 22.798701 Si / 1000 Ang^3
#
#
#
# Elastic Constant Matrix: (Units=GPa)
#
#
# Indices 1 2 3 4 5 6 
#
# 1 58.9511 45.3466 23.3752 0.0000 18.9409 0.0000
# 2 45.3466 104.7147 11.0909 0.0000 5.0485 0.0000
# 3 23.3752 11.0909 89.5128 0.0000 11.5221 0.0000
# 4 0.0000 0.0000 0.0000 37.9559 0.0000 18.6481
# 5 18.9409 5.0485 11.5221 0.0000 33.3490 0.0000
# 6 0.0000 0.0000 0.0000 18.6481 0.0000 23.9176
#
#
#
# Elastic Compliance Matrix: (Units=1/GPa)
#
#
# Indices 1 2 3 4 5 6 
#
# 1 0.034680 -0.013693 -0.005328 0.000000 -0.015783 0.000000
# 2 -0.013693 0.015122 0.001042 0.000000 0.005128 0.000000
# 3 -0.005328 0.001042 0.012626 0.000000 -0.001494 0.000000
# 4 0.000000 0.000000 0.000000 0.042705 0.000000 -0.033296
# 5 -0.015783 0.005128 -0.001494 0.000000 0.038690 0.000000
# 6 0.000000 0.000000 0.000000 -0.033296 0.000000 0.067771
#
#
# Mechanical properties :
#
#
# Convention : Reuss Voigt Hill
#
# Bulk Modulus (GPa) = 37.77847 45.86712 41.82280
# Shear Modulus (GPa) = 19.50271 30.60222 25.05246
#
# Velocity S-wave (km/s) = 2.92795 3.66769 3.31849
# Velocity P-wave (km/s) = 5.29499 6.17235 5.75043
#
# Compressibility (1/GPa) = 0.02647010
#
# Stress axis : x y z
#
# Youngs Moduli (GPa) = 28.83524 66.12950 79.20078
#
# Poissons Ratio (x) = 0.90550 0.42198
# Poissons Ratio (y) = 0.39484 -0.08253
# Poissons Ratio (z) = 0.15364 -0.06891
#
# Static dielectric constant tensor:
#      x y z
#    x 4.260890 0.000000 0.576850 
#    y 0.000000 4.131030 0.000000 
#    z 0.576850 0.000000 4.628210 
# 
# 
# High freq. dielectric constant tensor:
#      x y z
#    x 1.899310 0.000000 0.022900 
#    y 0.000000 1.906740 0.000000 
#    z 0.022900 0.000000 1.908890 
# 
# From -- ./inp_files/3753.got.cif
#   From: 2010.06.25/outbox.cif.g09.slc.cpg/sg12_2_cif.got.tgz:3753.got - 2010.06.28 00:19:55.
