data_PCOD8108475
_publ_section_title
;
Structure prediction by ZEFSAII (Michael W. Deem and Ramdas Pophale) SiO2 
 PCOD8108475
Probable space group: C 2/M
;
_chemical_formula_sum "Si O2"
_cell_formula_units_Z 40
_cell_length_a 19.068925
_cell_length_b 8.956340
_cell_length_c 12.078014
_cell_angle_alpha 90.000000
_cell_angle_beta 102.710237
_cell_angle_gamma 90.000000
_cell_volume 2012.229305
_symmetry_space_group_name_H-M "C 2/M"
_symmetry_group_IT_number 12
_symmetry_cell_setting 'monoclinic'
loop_
_space_group_symop_operation_xyz
x,y,z
-x,y,-z
-x,-y,-z
x,-y,z
1/2+x,1/2+y,z
1/2-x,1/2+y,-z
1/2-x,1/2-y,-z
1/2+x,1/2-y,z
loop_
_atom_site_type_symbol
_atom_site_label
_atom_site_fract_x
_atom_site_fract_y
_atom_site_fract_z
Si Si1 0.315568 0.326725 0.583173
Si Si2 0.291114 0.674443 0.830090
Si Si3 0.575386 0.675191 0.983052
Si Si4 0.141801 0.175171 0.776843
Si Si5 0.915533 0.330585 0.462394
O O1 0.314873 0.500000 0.554439
O O2 0.250000 0.250000 0.500000
O O3 0.311905 0.295392 0.711105
O O4 0.388218 0.255047 0.561363
O O5 0.277046 0.500000 0.848443
O O6 0.220023 0.764888 0.838260
O O7 0.356887 0.739821 0.925259
O O8 0.573276 0.500000 0.005655
O O9 0.586262 0.710146 0.857048
O O10 0.500000 0.746506 0.000000
O O11 0.113273 0.255158 0.658296
O O12 0.147340 0.000000 0.755559
O O13 0.886653 0.500000 0.452273
O O14 0.000000 0.323573 0.500000
#
# Coordination Sequence:
#
# PCOD8108475 Si02
#       5
#     8   8   8   8   8
#     4  11  22  37  62  92 122 157 198 244 295 357
#     4  10  21  38  62  87 120 159 193 241 296 353
#     4   9  20  38  60  88 118 152 197 246 297 352
#     4  11  22  37  63  90 116 155 201 248 294 356
#     4  11  25  42  60  85 123 163 198 248 304 354
#
# _framework density 19.878450000000001
#
# number of rings (size 3 to 8) (size 9 to 14) (size 15 to 20)
#    0.000    1.600    2.000    2.400    2.800    2.400 
#    0.000    1.000    0.000    3.000    0.000    0.000 
#    0.000    0.000    0.000    0.000    0.000    0.000 
#
# Total GULP energy -248056.582711 kJ/mol
# GULP energy per Si atom -12402.829136 kJ/mol
# Density = 1.983321 g / cm^3
# Si number density = 19.878450 Si / 1000 Ang^3
#
#
#
# Elastic Constant Matrix: (Units=GPa)
#
#
# Indices 1 2 3 4 5 6 
#
# 1 120.5219 43.8597 32.6041 0.0000 -9.4827 0.0000
# 2 43.8597 84.8273 28.9463 0.0000 -10.4681 0.0000
# 3 32.6041 28.9463 58.3096 0.0000 -0.4732 0.0000
# 4 0.0000 0.0000 0.0000 7.5017 0.0000 -12.0991
# 5 -9.4827 -10.4681 -0.4732 0.0000 37.3949 0.0000
# 6 0.0000 0.0000 0.0000 -12.0991 0.0000 21.4602
#
#
#
# Elastic Compliance Matrix: (Units=1/GPa)
#
#
# Indices 1 2 3 4 5 6 
#
# 1 0.011029 -0.004100 -0.004119 0.000000 0.001597 0.000000
# 2 -0.004100 0.016305 -0.005773 0.000000 0.003451 0.000000
# 3 -0.004119 -0.005773 0.022300 0.000000 -0.002378 0.000000
# 4 0.000000 0.000000 0.000000 1.469941 0.000000 0.828741
# 5 0.001597 0.003451 -0.002378 0.000000 0.028083 0.000000
# 6 0.000000 0.000000 0.000000 0.828741 0.000000 0.513836
#
#
# Mechanical properties :
#
#
# Convention : Reuss Voigt Hill
#
# Bulk Modulus (GPa) = 46.19149 52.71989 49.45569
# Shear Modulus (GPa) = 2.38471 23.82126 13.10298
#
# Velocity S-wave (km/s) = 1.09647 3.46547 2.57019
# Velocity P-wave (km/s) = 4.98903 6.52620 5.80869
#
# Compressibility (1/GPa) = 0.02164901
#
# Stress axis : x y z
#
# Youngs Moduli (GPa) = 90.66855 61.33231 44.84391
#
# Poissons Ratio (x) = 0.25147 0.18470
# Poissons Ratio (y) = 0.37175 0.25890
# Poissons Ratio (z) = 0.37344 0.35410
#
# Static dielectric constant tensor:
#      x y z
#    x 3.835500 0.000000 0.285400 
#    y 0.000000 3.787290 0.000000 
#    z 0.285400 0.000000 2.942730 
# 
# 
# High freq. dielectric constant tensor:
#      x y z
#    x 1.789290 0.000000 -0.005580 
#    y 0.000000 1.762250 0.000000 
#    z -0.005580 0.000000 1.786130 
# 
# From -- ./inp_files/151696.got.cif
#   From: 2010.06.25/outbox.cif.g09.slc.cpg/sg12_76_cif.got.tgz:151696.got - 2010.06.28 00:19:55.
