data_PCOD8108506
_publ_section_title
;
Structure prediction by ZEFSAII (Michael W. Deem and Ramdas Pophale) SiO2 
 PCOD8108506
Probable space group: C 2/M
;
_chemical_formula_sum "Si O2"
_cell_formula_units_Z 48
_cell_length_a 27.017096
_cell_length_b 9.064054
_cell_length_c 14.371797
_cell_angle_alpha 90.000000
_cell_angle_beta 138.982948
_cell_angle_gamma 90.000000
_cell_volume 2309.743661
_symmetry_space_group_name_H-M "C 2/M"
_symmetry_group_IT_number 12
_symmetry_cell_setting 'monoclinic'
loop_
_space_group_symop_operation_xyz
x,y,z
-x,y,-z
-x,-y,-z
x,-y,z
1/2+x,1/2+y,z
1/2-x,1/2+y,-z
1/2-x,1/2-y,-z
1/2+x,1/2-y,z
loop_
_atom_site_type_symbol
_atom_site_label
_atom_site_fract_x
_atom_site_fract_y
_atom_site_fract_z
Si Si1 0.238885 0.673564 0.083086
Si Si2 0.504528 0.166664 0.658340
Si Si3 0.620770 0.832605 0.669547
Si Si4 0.860967 0.828600 0.915371
Si Si5 0.522846 0.671348 0.194496
Si Si6 0.181438 0.825757 0.348907
O O1 0.232224 0.500000 0.059667
O O2 0.311428 0.717948 0.247606
O O3 0.166260 0.730472 0.036377
O O4 0.250000 0.750000 0.000000
O O5 0.439934 0.206889 0.493743
O O6 0.585134 0.184121 0.722087
O O7 0.498719 0.278974 0.733397
O O8 0.494729 0.000000 0.681264
O O9 0.650514 0.000000 0.699018
O O10 0.815176 0.789789 0.756482
O O11 0.850232 0.000000 0.926336
O O12 0.950358 0.794254 0.026034
O O13 0.538608 0.500000 0.219005
O O14 0.601548 0.742459 0.271455
O O15 0.250000 0.750000 0.500000
O O16 0.187423 0.000000 0.374239
#
# Coordination Sequence:
#
# PCOD8108506 Si02
#       6
#     8   8   8   8   8   8
#     4  12  25  39  59  88 123 160 203 252 301 360
#     4   9  19  35  58  86 118 158 199 246 303 360
#     4   9  19  37  57  82 119 160 203 247 298 360
#     4  10  22  42  65  88 121 166 207 249 304 361
#     4  10  21  38  62  89 119 156 203 252 299 358
#     4  10  23  42  64  91 123 159 203 253 307 364
#
# _framework density 20.781528000000002
#
# number of rings (size 3 to 8) (size 9 to 14) (size 15 to 20)
#    0.000    2.000    0.000    4.000    2.333    8.000 
#    0.000    1.667    0.000    3.000    0.000    0.000 
#    0.000    0.000    0.000    0.000    0.000    0.000 
#
# Total GULP energy -297558.428894 kJ/mol
# GULP energy per Si atom -12398.267871 kJ/mol
# Density = 2.073423 g / cm^3
# Si number density = 20.781528 Si / 1000 Ang^3
#
#
#
# Elastic Constant Matrix: (Units=GPa)
#
#
# Indices 1 2 3 4 5 6 
#
# 1 91.4632 42.9992 52.1709 0.0000 7.8114 0.0000
# 2 42.9992 73.8095 50.3082 0.0000 8.9684 0.0000
# 3 52.1709 50.3082 107.5983 0.0000 6.8729 0.0000
# 4 0.0000 0.0000 0.0000 30.8861 0.0000 2.3117
# 5 7.8114 8.9684 6.8729 0.0000 34.0789 0.0000
# 6 0.0000 0.0000 0.0000 2.3117 0.0000 32.2919
#
#
#
# Elastic Compliance Matrix: (Units=1/GPa)
#
#
# Indices 1 2 3 4 5 6 
#
# 1 0.016916 -0.006121 -0.005263 0.000000 -0.001205 0.000000
# 2 -0.006121 0.022498 -0.007357 0.000000 -0.003034 0.000000
# 3 -0.005263 -0.007357 0.015282 0.000000 0.000061 0.000000
# 4 0.000000 0.000000 0.000000 0.032551 0.000000 -0.002330
# 5 -0.001205 -0.003034 0.000061 0.000000 0.030406 0.000000
# 6 0.000000 0.000000 0.000000 -0.002330 0.000000 0.031134
#
#
# Mechanical properties :
#
#
# Convention : Reuss Voigt Hill
#
# Bulk Modulus (GPa) = 58.09674 62.64752 60.37213
# Shear Modulus (GPa) = 26.04064 27.94422 26.99243
#
# Velocity S-wave (km/s) = 3.54371 3.67095 3.60789
# Velocity P-wave (km/s) = 6.69033 6.94111 6.81687
#
# Compressibility (1/GPa) = 0.01721267
#
# Stress axis : x y z
#
# Youngs Moduli (GPa) = 59.11545 44.44927 65.43741
#
# Poissons Ratio (x) = 0.27207 0.34441
# Poissons Ratio (y) = 0.36185 0.48144
# Poissons Ratio (z) = 0.31113 0.32702
#
# Static dielectric constant tensor:
#      x y z
#    x 3.821900 0.000000 0.168330 
#    y 0.000000 3.533730 0.000000 
#    z 0.168330 0.000000 3.989980 
# 
# 
# High freq. dielectric constant tensor:
#      x y z
#    x 1.815170 0.000000 0.007780 
#    y 0.000000 1.790150 0.000000 
#    z 0.007780 0.000000 1.830790 
# 
# From -- ./inp_files/244856.got.cif
#   From: 2010.06.25/outbox.cif.g09.slc.cpg/sg12_123_cif.got.tgz:244856.got - 2010.06.28 00:19:55.
