data_PCOD8108640
_publ_section_title
;
Structure prediction by ZEFSAII (Michael W. Deem and Ramdas Pophale) SiO2 
 PCOD8108640
Probable space group: C 2/M
;
_chemical_formula_sum "Si O2"
_cell_formula_units_Z 56
_cell_length_a 11.670917
_cell_length_b 15.891783
_cell_length_c 14.614598
_cell_angle_alpha 90.000000
_cell_angle_beta 115.041532
_cell_angle_gamma 90.000000
_cell_volume 2455.801476
_symmetry_space_group_name_H-M "C 2/M"
_symmetry_group_IT_number 12
_symmetry_cell_setting 'monoclinic'
loop_
_space_group_symop_operation_xyz
x,y,z
-x,y,-z
-x,-y,-z
x,-y,z
1/2+x,1/2+y,z
1/2-x,1/2+y,-z
1/2-x,1/2-y,-z
1/2+x,1/2-y,z
loop_
_atom_site_type_symbol
_atom_site_label
_atom_site_fract_x
_atom_site_fract_y
_atom_site_fract_z
Si Si1 0.066529 0.594503 0.799644
Si Si2 0.180649 0.178071 0.094629
Si Si3 0.103120 0.403230 0.603328
Si Si4 0.327514 0.821950 0.769028
Si Si5 0.824630 0.203476 0.605709
Si Si6 0.437671 0.402747 0.314132
Si Si7 0.534812 0.595007 0.889818
O O1 0.111768 0.500000 0.832709
O O2 0.174030 0.655967 0.873873
O O3 0.049017 0.611676 0.685915
O O4 0.936647 0.607681 0.811981
O O5 0.175121 0.271887 0.135506
O O6 0.114249 0.113304 0.143897
O O7 0.110434 0.166607 0.973077
O O8 0.126803 0.500000 0.587902
O O9 0.234950 0.357841 0.632799
O O10 0.000000 0.363797 0.500000
O O11 0.375175 0.767274 0.699068
O O12 0.193590 0.863053 0.695732
O O13 0.750000 0.250000 0.500000
O O14 0.943850 0.150386 0.605684
O O15 0.449208 0.500000 0.349869
O O16 0.432935 0.394935 0.203962
O O17 0.567648 0.500000 0.933889
#
# Coordination Sequence:
#
# PCOD8108640 Si02
#       7
#     8   8   8   8   8   8   8
#     4  11  22  41  63  90 131 175 221 273 326 390
#     4  11  21  38  67  96 133 167 225 274 329 389
#     4  10  21  38  63  91 122 166 218 267 325 393
#     4  12  25  41  63 101 133 173 223 274 338 388
#     4  12  25  41  68  95 130 166 218 276 336 389
#     4  11  25  48  68  93 137 180 221 270 339 415
#     4  10  21  41  69 101 132 178 226 276 336 406
#
# _framework density 22.803146000000002
#
# number of rings (size 3 to 8) (size 9 to 14) (size 15 to 20)
#    0.000    1.000    2.857    4.286    2.000    2.857 
#    2.571    2.857    0.000    2.571    0.000    0.000 
#    0.000    0.000    0.000    0.000    0.000    0.000 
#
# Total GULP energy -347196.685447 kJ/mol
# GULP energy per Si atom -12399.881623 kJ/mol
# Density = 2.275124 g / cm^3
# Si number density = 22.803146 Si / 1000 Ang^3
#
#
#
# Elastic Constant Matrix: (Units=GPa)
#
#
# Indices 1 2 3 4 5 6 
#
# 1 126.1049 48.4768 11.9770 0.0000 28.0620 0.0000
# 2 48.4768 96.7568 35.9876 0.0000 12.6861 0.0000
# 3 11.9770 35.9876 72.1384 0.0000 13.1103 0.0000
# 4 0.0000 0.0000 0.0000 30.2636 0.0000 6.9536
# 5 28.0620 12.6861 13.1103 0.0000 29.2981 0.0000
# 6 0.0000 0.0000 0.0000 6.9536 0.0000 39.4955
#
#
#
# Elastic Compliance Matrix: (Units=1/GPa)
#
#
# Indices 1 2 3 4 5 6 
#
# 1 0.012207 -0.005771 0.002746 0.000000 -0.010422 0.000000
# 2 -0.005771 0.015648 -0.007207 0.000000 0.001977 0.000000
# 3 0.002746 -0.007207 0.018410 0.000000 -0.007748 0.000000
# 4 0.000000 0.000000 0.000000 0.034436 0.000000 -0.006063
# 5 -0.010422 0.001977 -0.007748 0.000000 0.046725 0.000000
# 6 0.000000 0.000000 0.000000 -0.006063 0.000000 0.026387
#
#
# Mechanical properties :
#
#
# Convention : Reuss Voigt Hill
#
# Bulk Modulus (GPa) = 38.75883 54.20922 46.48402
# Shear Modulus (GPa) = 27.34092 33.04870 30.19481
#
# Velocity S-wave (km/s) = 3.46641 3.81110 3.64284
# Velocity P-wave (km/s) = 5.74938 6.57193 6.17437
#
# Compressibility (1/GPa) = 0.02580057
#
# Stress axis : x y z
#
# Youngs Moduli (GPa) = 81.92308 63.90612 54.31857
#
# Poissons Ratio (x) = 0.36878 -0.14917
# Poissons Ratio (y) = 0.47275 0.39150
# Poissons Ratio (z) = -0.22498 0.46060
#
# Static dielectric constant tensor:
#      x y z
#    x 4.099450 0.000000 0.144320 
#    y 0.000000 4.196640 0.000000 
#    z 0.144320 0.000000 3.928400 
# 
# 
# High freq. dielectric constant tensor:
#      x y z
#    x 1.903230 0.000000 0.010580 
#    y 0.000000 1.900380 0.000000 
#    z 0.010580 0.000000 1.889680 
# 
# From -- ./inp_files/263441.got.cif
#   From: 2010.06.25/outbox.cif.g09.slc.cpg/sg12_132_cif.got.tgz:263441.got - 2010.06.28 00:19:55.
