data_PCOD8108131
_publ_section_title
;
Structure prediction by ZEFSAII (Michael W. Deem and Ramdas Pophale) SiO2 
 PCOD8108131
Probable space group: C 2/M
;
_chemical_formula_sum "Si O2"
_cell_formula_units_Z 56
_cell_length_a 27.265303
_cell_length_b 8.584046
_cell_length_c 13.612973
_cell_angle_alpha 90.000000
_cell_angle_beta 119.911239
_cell_angle_gamma 90.000000
_cell_volume 2761.682350
_symmetry_space_group_name_H-M "C 2/M"
_symmetry_group_IT_number 12
_symmetry_cell_setting 'monoclinic'
loop_
_space_group_symop_operation_xyz
x,y,z
-x,y,-z
-x,-y,-z
x,-y,z
1/2+x,1/2+y,z
1/2-x,1/2+y,-z
1/2-x,1/2-y,-z
1/2+x,1/2-y,z
loop_
_atom_site_type_symbol
_atom_site_label
_atom_site_fract_x
_atom_site_fract_y
_atom_site_fract_z
Si Si1 0.666743 0.821024 0.672306
Si Si2 0.593625 0.317175 0.946804
Si Si3 0.621354 0.816917 0.181703
Si Si4 0.475162 0.183862 0.766961
Si Si5 0.232888 0.180238 0.379699
Si Si6 0.691902 0.681793 0.903873
Si Si7 0.952886 0.685473 0.527820
O O1 0.714051 0.800688 0.638075
O O2 0.683164 0.719215 0.781792
O O3 0.608208 0.756485 0.569370
O O4 0.660581 0.000000 0.699591
O O5 0.584143 0.500000 0.925409
O O6 0.535094 0.231519 0.869743
O O7 0.639517 0.251961 0.915020
O O8 0.615795 0.279892 0.076920
O O9 0.573655 0.755655 0.209229
O O10 0.682067 0.782959 0.287970
O O11 0.614959 0.000000 0.153562
O O12 0.465334 0.255108 0.648454
O O13 0.472040 0.000000 0.757107
O O14 0.250000 0.250000 0.500000
O O15 0.214876 0.000000 0.371527
O O16 0.695601 0.500000 0.924083
O O17 0.750000 0.750000 0.000000
O O18 0.954501 0.500000 0.533085
O O19 0.000000 0.750681 0.500000
#
# Coordination Sequence:
#
# PCOD8108131 Si02
#       7
#     8   8   8   8   8   8   8
#     4  10  21  38  60  86 116 151 194 241 285 338
#     4  11  24  40  58  85 119 152 191 240 294 352
#     4  11  23  39  60  86 116 152 197 245 291 345
#     4  10  21  38  60  86 115 150 194 239 285 344
#     4  11  23  39  60  87 120 157 196 240 291 345
#     4  11  24  40  59  85 116 151 192 239 291 347
#     4   9  17  32  57  85 111 143 184 230 281 335
#
# _framework density 20.277497
#
# number of rings (size 3 to 8) (size 9 to 14) (size 15 to 20)
#    0.000    1.571    0.000    4.714    0.000   13.143 
#    0.000    0.714    0.000    2.571    0.000    0.000 
#    0.000    0.000    0.000    0.000    0.000    0.000 
#
# Total GULP energy -347341.148979 kJ/mol
# GULP energy per Si atom -12405.041035 kJ/mol
# Density = 2.023134 g / cm^3
# Si number density = 20.277497 Si / 1000 Ang^3
#
#
#
# Elastic Constant Matrix: (Units=GPa)
#
#
# Indices 1 2 3 4 5 6 
#
# 1 131.4154 20.9057 41.1621 0.0000 5.0288 0.0000
# 2 20.9057 20.4913 2.1203 0.0000 -10.0648 0.0000
# 3 41.1621 2.1203 132.2613 0.0000 -0.3478 0.0000
# 4 0.0000 0.0000 0.0000 32.2693 0.0000 3.9867
# 5 5.0288 -10.0648 -0.3478 0.0000 45.0051 0.0000
# 6 0.0000 0.0000 0.0000 3.9867 0.0000 23.5367
#
#
#
# Elastic Compliance Matrix: (Units=1/GPa)
#
#
# Indices 1 2 3 4 5 6 
#
# 1 0.010766 -0.012650 -0.003159 0.000000 -0.004056 0.000000
# 2 -0.012650 0.069780 0.002863 0.000000 0.017041 0.000000
# 3 -0.003159 0.002863 0.008501 0.000000 0.001059 0.000000
# 4 0.000000 0.000000 0.000000 0.031652 0.000000 -0.005361
# 5 -0.004056 0.017041 0.001059 0.000000 0.026492 0.000000
# 6 0.000000 0.000000 0.000000 -0.005361 0.000000 0.043395
#
#
# Mechanical properties :
#
#
# Convention : Reuss Voigt Hill
#
# Bulk Modulus (GPa) = 15.83355 45.83825 30.83590
# Shear Modulus (GPa) = 21.05009 34.82755 27.93882
#
# Velocity S-wave (km/s) = 3.22545 4.14883 3.71593
# Velocity P-wave (km/s) = 4.65798 6.75314 5.80093
#
# Compressibility (1/GPa) = 0.06315703
#
# Stress axis : x y z
#
# Youngs Moduli (GPa) = 92.88238 14.33067 117.63765
#
# Poissons Ratio (x) = 0.18128 0.37156
# Poissons Ratio (y) = 1.17492 -0.33679
# Poissons Ratio (z) = 0.29337 -0.04103
#
# Static dielectric constant tensor:
#      x y z
#    x 4.048230 0.000000 -0.216390 
#    y 0.000000 3.518820 0.000000 
#    z -0.216390 0.000000 4.126360 
# 
# 
# High freq. dielectric constant tensor:
#      x y z
#    x 1.812970 0.000000 -0.000640 
#    y 0.000000 1.773820 0.000000 
#    z -0.000640 0.000000 1.810730 
# 
# From -- ./inp_files/181049.got.cif
#   From: 2010.06.25/outbox.cif.g09.slc.cpg/sg12_91_cif.got.tgz:181049.got - 2010.06.28 00:19:55.
