data_PCOD8108769
_publ_section_title
;
Structure prediction by ZEFSAII (Michael W. Deem and Ramdas Pophale) SiO2 
 PCOD8108769
Probable space group: C 2/M
;
_chemical_formula_sum "Si O2"
_cell_formula_units_Z 48
_cell_length_a 18.410118
_cell_length_b 13.353521
_cell_length_c 17.728984
_cell_angle_alpha 90.000000
_cell_angle_beta 147.956135
_cell_angle_gamma 90.000000
_cell_volume 2312.477765
_symmetry_space_group_name_H-M "C 2/M"
_symmetry_group_IT_number 12
_symmetry_cell_setting 'monoclinic'
loop_
_space_group_symop_operation_xyz
x,y,z
-x,y,-z
-x,-y,-z
x,-y,z
1/2+x,1/2+y,z
1/2-x,1/2+y,-z
1/2-x,1/2-y,-z
1/2+x,1/2-y,z
loop_
_atom_site_type_symbol
_atom_site_label
_atom_site_fract_x
_atom_site_fract_y
_atom_site_fract_z
Si Si1 0.655184 0.613154 0.152129
Si Si2 0.709864 0.117083 0.412859
Si Si3 0.540268 0.295834 0.453978
Si Si4 0.694258 0.886774 0.566831
Si Si5 0.712931 0.250194 0.851345
Si Si6 0.604587 0.119146 0.889392
O O1 0.688356 0.500000 0.154094
O O2 0.681008 0.622679 0.264590
O O3 0.746812 0.693212 0.189478
O O4 0.500000 0.641119 0.000000
O O5 0.814357 0.161457 0.444485
O O6 0.742892 0.154549 0.527479
O O7 0.555512 0.146393 0.253986
O O8 0.731186 0.000000 0.428355
O O9 0.500000 0.341103 0.500000
O O10 0.563162 0.175790 0.480151
O O11 0.421091 0.316288 0.287868
O O12 0.640655 0.000000 0.511132
O O13 0.682569 0.165667 0.886559
O O14 0.830291 0.328039 0.979739
O O15 0.629748 0.000000 0.913773
#
# Coordination Sequence:
#
# PCOD8108769 Si02
#       6
#     8   8   8   8   8   8
#     4  10  22  38  60  94 133 165 201 257 325 384
#     4  10  23  43  67  90 123 169 216 259 306 372
#     4  12  24  39  63  97 128 163 205 263 316 374
#     4  10  21  38  65  94 122 161 205 257 316 372
#     4  11  23  37  64  95 128 163 205 265 317 376
#     4  10  23  42  63  90 124 169 214 258 311 371
#
# _framework density 20.756955999999999
#
# number of rings (size 3 to 8) (size 9 to 14) (size 15 to 20)
#    0.000    1.500    3.333    1.000    2.333    3.333 
#    0.000    1.667    0.000    2.500    0.000    0.000 
#    0.000    0.000    0.000    0.000    0.000    0.000 
#
# Total GULP energy -297596.631351 kJ/mol
# GULP energy per Si atom -12399.859640 kJ/mol
# Density = 2.070971 g / cm^3
# Si number density = 20.756956 Si / 1000 Ang^3
#
#
#
# Elastic Constant Matrix: (Units=GPa)
#
#
# Indices 1 2 3 4 5 6 
#
# 1 118.6308 48.8593 56.2576 0.0001 -1.1689 0.0000
# 2 48.8593 60.0204 53.9581 0.0003 1.1021 0.0002
# 3 56.2576 53.9581 156.8357 0.0005 -4.9027 0.0004
# 4 0.0001 0.0003 0.0005 29.5813 0.0004 -4.0395
# 5 -1.1689 1.1021 -4.9027 0.0004 29.7331 0.0002
# 6 0.0000 0.0002 0.0004 -4.0395 0.0002 23.6639
#
#
#
# Elastic Compliance Matrix: (Units=1/GPa)
#
#
# Indices 1 2 3 4 5 6 
#
# 1 0.012922 -0.009238 -0.001438 0.000000 0.000613 0.000000
# 2 -0.009238 0.030880 -0.007395 0.000000 -0.002727 0.000000
# 3 -0.001438 -0.007395 0.009492 0.000000 0.001783 0.000000
# 4 0.000000 0.000000 0.000000 0.034612 0.000000 0.005908
# 5 0.000613 -0.002727 0.001783 0.000000 0.034052 0.000000
# 6 0.000000 0.000000 0.000000 0.005908 0.000000 0.043267
#
#
# Mechanical properties :
#
#
# Convention : Reuss Voigt Hill
#
# Bulk Modulus (GPa) = 58.30445 72.62631 65.46538
# Shear Modulus (GPa) = 24.14480 28.35644 26.25062
#
# Velocity S-wave (km/s) = 3.41429 3.70011 3.56007
# Velocity P-wave (km/s) = 6.61009 7.30201 6.96465
#
# Compressibility (1/GPa) = 0.01715135
#
# Stress axis : x y z
#
# Youngs Moduli (GPa) = 77.38675 32.38382 105.35246
#
# Poissons Ratio (x) = 0.29916 0.15148
# Poissons Ratio (y) = 0.71489 0.77913
# Poissons Ratio (z) = 0.11127 0.23949
#
# Static dielectric constant tensor:
#      x y z
#    x 3.608940 0.000000 -0.134760 
#    y 0.000000 3.803620 0.000000 
#    z -0.134760 0.000000 3.884450 
# 
# 
# High freq. dielectric constant tensor:
#      x y z
#    x 1.803620 0.000000 -0.007710 
#    y 0.000000 1.809650 0.000000 
#    z -0.007710 0.000000 1.823270 
# 
# From -- ./inp_files/104967.got.cif
#   From: 2010.06.25/outbox.cif.g09.slc.cpg/sg12_53_cif.got.tgz:104967.got - 2010.06.28 00:19:55.
