data_PCOD8108742
_publ_section_title
;
Structure prediction by ZEFSAII (Michael W. Deem and Ramdas Pophale) SiO2 
 PCOD8108742
Probable space group: C 2/M
;
_chemical_formula_sum "Si O2"
_cell_formula_units_Z 52
_cell_length_a 17.477295
_cell_length_b 13.713560
_cell_length_c 18.286546
_cell_angle_alpha 90.000000
_cell_angle_beta 143.518879
_cell_angle_gamma 90.000000
_cell_volume 2605.855036
_symmetry_space_group_name_H-M "C 2/M"
_symmetry_group_IT_number 12
_symmetry_cell_setting 'monoclinic'
loop_
_space_group_symop_operation_xyz
x,y,z
-x,y,-z
-x,-y,-z
x,-y,z
1/2+x,1/2+y,z
1/2-x,1/2+y,-z
1/2-x,1/2-y,-z
1/2+x,1/2-y,z
loop_
_atom_site_type_symbol
_atom_site_label
_atom_site_fract_x
_atom_site_fract_y
_atom_site_fract_z
Si Si1 0.500000 0.157009 0.000000
Si Si2 0.217981 0.609879 0.941839
Si Si3 0.652211 0.111357 0.618800
Si Si4 0.186227 0.782633 0.375950
Si Si5 0.734112 0.759017 0.816619
Si Si6 0.428409 0.612858 0.227789
Si Si7 0.448014 0.107407 0.801070
O O1 0.375493 0.221900 0.912108
O O2 0.474271 0.094177 0.907709
O O3 0.216192 0.500000 0.911606
O O4 0.322817 0.624428 0.084369
O O5 0.250523 0.678163 0.900906
O O6 0.079743 0.641171 0.865378
O O7 0.500000 0.118152 0.500000
O O8 0.712593 0.151118 0.589940
O O9 0.697533 0.174489 0.721164
O O10 0.697875 0.000000 0.664244
O O11 0.250000 0.750000 0.500000
O O12 0.156581 0.687958 0.302587
O O13 0.061232 0.845702 0.298959
O O14 0.626222 0.673927 0.744618
O O15 0.446084 0.500000 0.265003
O O16 0.403556 0.000000 0.739004
#
# Coordination Sequence:
#
# PCOD8108742 Si02
#       7
#     4   8   8   8   8   8   8
#     4  12  23  38  65  96 142 170 205 266 333 390
#     4  10  21  38  64  96 130 167 210 262 318 385
#     4  11  26  46  66  91 124 168 216 267 324 382
#     4  12  25  46  68  93 127 169 220 271 319 384
#     4  12  22  40  63  95 133 169 210 259 323 386
#     4  11  23  40  65  95 128 168 213 264 319 376
#     4  11  23  41  68  99 130 171 216 264 325 391
#
# _framework density 19.955062999999999
#
# number of rings (size 3 to 8) (size 9 to 14) (size 15 to 20)
#    0.000    0.769    4.615    3.462    0.000    1.846 
#    0.000    0.769    0.000    1.846    0.000    0.000 
#    0.000    0.000    0.000    0.000    0.000    0.000 
#
# Total GULP energy -322392.995674 kJ/mol
# GULP energy per Si atom -12399.730603 kJ/mol
# Density = 1.990964 g / cm^3
# Si number density = 19.955063 Si / 1000 Ang^3
#
#
#
# Elastic Constant Matrix: (Units=GPa)
#
#
# Indices 1 2 3 4 5 6 
#
# 1 144.6239 59.2668 31.4449 -0.0001 5.7582 -0.0001
# 2 59.2668 136.5705 54.2062 0.0001 0.8973 0.0001
# 3 31.4449 54.2062 63.4346 0.0002 3.8243 0.0001
# 4 -0.0001 0.0001 0.0002 -78.0339 0.0001 -72.0438
# 5 5.7582 0.8973 3.8243 0.0001 37.4674 0.0001
# 6 -0.0001 0.0001 0.0001 -72.0438 0.0001 -42.2883
#
#
#
# Elastic Compliance Matrix: (Units=1/GPa)
#
#
# Indices 1 2 3 4 5 6 
#
# 1 0.008561 -0.003102 -0.001528 0.000000 -0.001085 0.000000
# 2 -0.003102 0.012223 -0.008973 0.000000 0.001100 0.000000
# 3 -0.001528 -0.008973 0.024312 0.000000 -0.002032 0.000000
# 4 0.000000 0.000000 0.000000 0.022370 0.000000 -0.038111
# 5 -0.001085 0.001100 -0.002032 0.000000 0.027038 0.000000
# 6 0.000000 0.000000 0.000000 -0.038111 0.000000 0.041279
#
#
# Mechanical properties :
#
#
# Convention : Reuss Voigt Hill
#
# Bulk Modulus (GPa) = 55.89714 70.49608 63.19661
# Shear Modulus (GPa) = 29.59425 -3.25689 13.16868
#
# Velocity S-wave (km/s) = 3.85521 -1.27893 2.57167
# Velocity P-wave (km/s) = 6.92020 5.76396 6.36838
#
# Compressibility (1/GPa) = 0.01789000
#
# Stress axis : x y z
#
# Youngs Moduli (GPa) = 116.80965 81.81584 41.13187
#
# Poissons Ratio (x) = 0.25376 0.06285
# Poissons Ratio (y) = 0.36229 0.36909
# Poissons Ratio (z) = 0.17847 0.73416
#
# Static dielectric constant tensor:
#      x y z
#    x 4.160650 0.000000 -0.308920 
#    y 0.000000 3.979260 0.000000 
#    z -0.308920 0.000000 3.553520 
# 
# 
# High freq. dielectric constant tensor:
#      x y z
#    x 1.791700 0.000000 0.006040 
#    y 0.000000 1.799230 0.000000 
#    z 0.006040 0.000000 1.771080 
# 
# From -- ./inp_files/270740.got.cif
#   From: 2010.06.25/outbox.cif.g09.slc.cpg/sg12_136_cif.got.tgz:270740.got - 2010.06.28 00:19:55.
