data_PCOD8108803
_publ_section_title
;
Structure prediction by ZEFSAII (Michael W. Deem and Ramdas Pophale) SiO2 
 PCOD8108803
Probable space group: C 2/M
;
_chemical_formula_sum "Si O2"
_cell_formula_units_Z 40
_cell_length_a 10.843232
_cell_length_b 14.958487
_cell_length_c 10.025978
_cell_angle_alpha 90.000000
_cell_angle_beta 99.951559
_cell_angle_gamma 90.000000
_cell_volume 1601.729623
_symmetry_space_group_name_H-M "C 2/M"
_symmetry_group_IT_number 12
_symmetry_cell_setting 'monoclinic'
loop_
_space_group_symop_operation_xyz
x,y,z
-x,y,-z
-x,-y,-z
x,-y,z
1/2+x,1/2+y,z
1/2-x,1/2+y,-z
1/2-x,1/2-y,-z
1/2+x,1/2-y,z
loop_
_atom_site_type_symbol
_atom_site_label
_atom_site_fract_x
_atom_site_fract_y
_atom_site_fract_z
Si Si1 0.641779 0.178080 0.006006
Si Si2 0.211936 0.897402 0.731977
Si Si3 0.449705 0.098162 0.264954
Si Si4 0.520757 0.717496 0.347264
Si Si5 0.761071 0.901515 0.566315
O O1 0.675215 0.120408 0.143570
O O2 0.500000 0.218550 0.000000
O O3 0.750000 0.250000 0.000000
O O4 0.639004 0.109207 0.880901
O O5 0.261125 0.875703 0.591892
O O6 0.095429 0.832488 0.745797
O O7 0.167014 0.000000 0.734718
O O8 0.540765 0.183797 0.290432
O O9 0.371506 0.102363 0.386755
O O10 0.518534 0.000000 0.272295
O O11 0.500000 0.715535 0.500000
O O12 0.648967 0.666571 0.338992
O O13 0.821803 0.000000 0.587705
#
# Coordination Sequence:
#
# PCOD8108803 Si02
#       5
#     8   8   8   8   8
#     4  12  28  49  72 103 142 191 242 295 358 430
#     4  10  21  43  72 104 140 185 236 295 358 420
#     4  11  25  43  67 103 144 184 232 290 354 424
#     4  10  21  38  67 103 143 188 236 286 350 422
#     4   9  21  43  71 104 142 184 236 293 354 425
#
# _framework density 24.973002000000001
#
# number of rings (size 3 to 8) (size 9 to 14) (size 15 to 20)
#    0.000    1.600    2.000    1.200    2.800    9.200 
#    0.000    2.000    0.000    6.000    0.000    0.000 
#    0.000    0.000    0.000    0.000    0.000    0.000 
#
# Total GULP energy -247950.877580 kJ/mol
# GULP energy per Si atom -12397.543879 kJ/mol
# Density = 2.491616 g / cm^3
# Si number density = 24.973002 Si / 1000 Ang^3
#
#
#
# Elastic Constant Matrix: (Units=GPa)
#
#
# Indices 1 2 3 4 5 6 
#
# 1 86.6723 65.5135 33.0549 0.0000 11.5021 0.0000
# 2 65.5135 188.4619 50.0967 0.0000 22.4056 0.0000
# 3 33.0549 50.0967 90.6400 0.0000 15.1930 0.0000
# 4 0.0000 0.0000 0.0000 39.0269 0.0000 10.4146
# 5 11.5021 22.4056 15.1930 0.0000 43.5809 0.0000
# 6 0.0000 0.0000 0.0000 10.4146 0.0000 31.7777
#
#
#
# Elastic Compliance Matrix: (Units=1/GPa)
#
#
# Indices 1 2 3 4 5 6 
#
# 1 0.016488 -0.004779 -0.003244 0.000000 -0.000764 0.000000
# 2 -0.004779 0.007796 -0.002236 0.000000 -0.001967 0.000000
# 3 -0.003244 -0.002236 0.013929 0.000000 -0.002850 0.000000
# 4 0.000000 0.000000 0.000000 0.028079 0.000000 -0.009202
# 5 -0.000764 -0.001967 -0.002850 0.000000 0.025152 0.000000
# 6 0.000000 0.000000 0.000000 -0.009202 0.000000 0.034485
#
#
# Mechanical properties :
#
#
# Convention : Reuss Voigt Hill
#
# Bulk Modulus (GPa) = 56.51020 73.67829 65.09424
# Shear Modulus (GPa) = 32.82025 37.35103 35.08564
#
# Velocity S-wave (km/s) = 3.62916 3.87157 3.75232
# Velocity P-wave (km/s) = 6.34340 7.03936 6.70042
#
# Compressibility (1/GPa) = 0.01769592
#
# Stress axis : x y z
#
# Youngs Moduli (GPa) = 60.64930 128.27856 71.79106
#
# Poissons Ratio (x) = 0.61299 0.23288
# Poissons Ratio (y) = 0.28982 0.16054
# Poissons Ratio (z) = 0.19673 0.28686
#
# Static dielectric constant tensor:
#      x y z
#    x 4.347200 0.000000 0.061180 
#    y 0.000000 4.818620 0.000000 
#    z 0.061180 0.000000 4.842350 
# 
# 
# High freq. dielectric constant tensor:
#      x y z
#    x 1.990050 0.000000 0.002540 
#    y 0.000000 2.001790 0.000000 
#    z 0.002540 0.000000 2.007790 
# 
# From -- ./inp_files/129803.got.cif
#   From: 2010.06.25/outbox.cif.g09.slc.cpg/sg12_65_cif.got.tgz:129803.got - 2010.06.28 00:19:55.
