data_PCOD8108323
_publ_section_title
;
Structure prediction by ZEFSAII (Michael W. Deem and Ramdas Pophale) SiO2 
 PCOD8108323
Probable space group: C 2/M
;
_chemical_formula_sum "Si O2"
_cell_formula_units_Z 64
_cell_length_a 25.791141
_cell_length_b 8.797734
_cell_length_c 14.627986
_cell_angle_alpha 90.000000
_cell_angle_beta 81.035398
_cell_angle_gamma 90.000000
_cell_volume 3278.598662
_symmetry_space_group_name_H-M "C 2/M"
_symmetry_group_IT_number 12
_symmetry_cell_setting 'monoclinic'
loop_
_space_group_symop_operation_xyz
x,y,z
-x,y,-z
-x,-y,-z
x,-y,z
1/2+x,1/2+y,z
1/2-x,1/2+y,-z
1/2-x,1/2-y,-z
1/2+x,1/2-y,z
loop_
_atom_site_type_symbol
_atom_site_label
_atom_site_fract_x
_atom_site_fract_y
_atom_site_fract_z
Si Si1 0.024781 0.821126 0.397904
Si Si2 0.406861 0.318993 0.926792
Si Si3 0.356597 0.330961 0.642424
Si Si4 0.309761 0.667686 0.851222
Si Si5 0.501982 0.822075 0.217875
Si Si6 0.595365 0.822384 0.880487
Si Si7 0.209334 0.318513 0.782110
Si Si8 0.258909 0.822258 0.595042
O O1 0.084983 0.770725 0.387171
O O2 0.000000 0.769170 0.500000
O O3 0.996262 0.733670 0.323376
O O4 0.018541 0.000000 0.382229
O O5 0.406344 0.500000 0.921009
O O6 0.348233 0.253536 0.915778
O O7 0.450361 0.260747 0.845063
O O8 0.421154 0.265541 0.023946
O O9 0.349149 0.500000 0.601317
O O10 0.345653 0.339946 0.752207
O O11 0.318917 0.210433 0.604682
O O12 0.295829 0.500000 0.891133
O O13 0.253751 0.747126 0.841548
O O14 0.447014 0.781661 0.184641
O O15 0.513317 0.000000 0.211594
O O16 0.652310 0.766465 0.830943
O O17 0.596196 0.000000 0.902920
O O18 0.215231 0.500000 0.772666
O O19 0.219146 0.251121 0.679189
O O20 0.250000 0.750000 0.500000
O O21 0.248282 0.000000 0.594352
#
# Coordination Sequence:
#
# PCOD8108323 Si02
#       8
#     8   8   8   8   8   8   8   8
#     4  10  21  38  61  88 116 149 190 238 295 350
#     4  11  21  36  60  88 114 150 200 246 292 348
#     4   9  17  35  57  79 112 147 183 233 288 339
#     4   8  15  31  57  82 107 142 184 233 284 334
#     4  11  23  39  58  82 118 157 197 243 290 346
#     4  10  23  40  57  83 120 159 194 238 297 350
#     4   9  19  39  60  79 113 155 191 237 296 345
#     4  11  22  36  57  85 113 147 194 237 284 346
#
# _framework density 19.520536
#
# number of rings (size 3 to 8) (size 9 to 14) (size 15 to 20)
#    0.000    2.125    1.250    3.000    0.000    5.250 
#    0.000    3.125    0.000    0.000    0.000    0.000 
#    0.000    0.000    0.000    0.000    0.000    0.000 
#
# Total GULP energy -396705.385103 kJ/mol
# GULP energy per Si atom -12397.043284 kJ/mol
# Density = 1.947611 g / cm^3
# Si number density = 19.520536 Si / 1000 Ang^3
#
#
#
# Elastic Constant Matrix: (Units=GPa)
#
#
# Indices 1 2 3 4 5 6 
#
# 1 125.2895 31.2858 58.1598 0.0000 1.8034 0.0000
# 2 31.2858 57.6440 34.3515 0.0000 9.8234 0.0000
# 3 58.1598 34.3515 113.0868 0.0000 14.1697 0.0000
# 4 0.0000 0.0000 0.0000 29.6546 0.0000 2.1766
# 5 1.8034 9.8234 14.1697 0.0000 25.0329 0.0000
# 6 0.0000 0.0000 0.0000 2.1766 0.0000 25.6009
#
#
#
# Elastic Compliance Matrix: (Units=1/GPa)
#
#
# Indices 1 2 3 4 5 6 
#
# 1 0.011206 -0.003643 -0.005096 0.000000 0.003507 0.000000
# 2 -0.003643 0.022971 -0.004314 0.000000 -0.006310 0.000000
# 3 -0.005096 -0.004314 0.013471 0.000000 -0.005565 0.000000
# 4 0.000000 0.000000 0.000000 0.033933 0.000000 -0.002885
# 5 0.003507 -0.006310 -0.005565 0.000000 0.045321 0.000000
# 6 0.000000 0.000000 0.000000 -0.002885 0.000000 0.039306
#
#
# Mechanical properties :
#
#
# Convention : Reuss Voigt Hill
#
# Bulk Modulus (GPa) = 46.41786 60.40161 53.40974
# Shear Modulus (GPa) = 25.06317 27.53924 26.30120
#
# Velocity S-wave (km/s) = 3.58710 3.76011 3.67462
# Velocity P-wave (km/s) = 6.40211 7.06124 6.73973
#
# Compressibility (1/GPa) = 0.02154343
#
# Stress axis : x y z
#
# Youngs Moduli (GPa) = 89.23511 43.53337 74.23164
#
# Poissons Ratio (x) = 0.15858 0.37830
# Poissons Ratio (y) = 0.32507 0.32020
# Poissons Ratio (z) = 0.45476 0.18778
#
# Static dielectric constant tensor:
#      x y z
#    x 3.860610 0.000000 0.131570 
#    y 0.000000 3.443140 0.000000 
#    z 0.131570 0.000000 3.539150 
# 
# 
# High freq. dielectric constant tensor:
#      x y z
#    x 1.773640 0.000000 0.006960 
#    y 0.000000 1.740550 0.000000 
#    z 0.006960 0.000000 1.756920 
# 
# From -- ./inp_files/243922.got.cif
#   From: 2010.06.25/outbox.cif.g09.slc.cpg/sg12_122_cif.got.tgz:243922.got - 2010.06.28 00:19:55.
