data_PCOD8108107
_publ_section_title
;
Structure prediction by ZEFSAII (Michael W. Deem and Ramdas Pophale) SiO2 
 PCOD8108107
Probable space group: C 2/M
;
_chemical_formula_sum "Si O2"
_cell_formula_units_Z 48
_cell_length_a 29.315280
_cell_length_b 8.715207
_cell_length_c 14.973492
_cell_angle_alpha 90.000000
_cell_angle_beta 39.702333
_cell_angle_gamma 90.000000
_cell_volume 2443.763506
_symmetry_space_group_name_H-M "C 2/M"
_symmetry_group_IT_number 12
_symmetry_cell_setting 'monoclinic'
loop_
_space_group_symop_operation_xyz
x,y,z
-x,y,-z
-x,-y,-z
x,-y,z
1/2+x,1/2+y,z
1/2-x,1/2+y,-z
1/2-x,1/2-y,-z
1/2+x,1/2-y,z
loop_
_atom_site_type_symbol
_atom_site_label
_atom_site_fract_x
_atom_site_fract_y
_atom_site_fract_z
Si Si1 0.200226 0.178583 0.693953
Si Si2 0.846134 0.180447 0.424449
Si Si3 0.321815 0.678353 0.075904
Si Si4 0.900721 0.678736 0.800297
Si Si5 0.051426 0.178610 0.580388
Si Si6 0.326890 0.677871 0.746903
O O1 0.151895 0.234826 0.682325
O O2 0.276066 0.260903 0.579884
O O3 0.160391 0.214103 0.846807
O O4 0.216640 0.000000 0.658952
O O5 0.916122 0.235130 0.373224
O O6 0.842807 0.000000 0.437816
O O7 0.333718 0.500000 0.036291
O O8 0.240291 0.720532 0.179073
O O9 0.377157 0.778803 0.936008
O O10 0.889459 0.500000 0.799031
O O11 0.850717 0.775335 0.809868
O O12 0.983028 0.720074 0.661502
O O13 0.108687 0.211084 0.417340
O O14 0.029281 0.000000 0.615818
O O15 0.304508 0.500000 0.780213
#
# Coordination Sequence:
#
# PCOD8108107 Si02
#       6
#     8   8   8   8   8   8
#     4   9  18  32  56  87 115 144 183 229 275 327
#     4   9  17  33  57  86 115 145 182 226 277 332
#     4  11  22  38  59  85 117 151 189 232 279 333
#     4  12  26  40  56  80 114 153 192 237 285 334
#     4  10  21  38  60  85 115 150 186 228 281 339
#     4  11  22  39  62  86 112 147 190 234 282 336
#
# _framework density 19.641836000000001
#
# number of rings (size 3 to 8) (size 9 to 14) (size 15 to 20)
#    0.000    1.667    1.667    3.500    0.000    4.667 
#    0.000    0.833    0.000    5.000    0.000    0.000 
#    0.000    0.000    0.000    0.000    0.000    0.000 
#
# Total GULP energy -297625.256519 kJ/mol
# GULP energy per Si atom -12401.052355 kJ/mol
# Density = 1.959713 g / cm^3
# Si number density = 19.641836 Si / 1000 Ang^3
#
#
#
# Elastic Constant Matrix: (Units=GPa)
#
#
# Indices 1 2 3 4 5 6 
#
# 1 62.5499 16.7789 13.4328 0.0000 18.8339 0.0000
# 2 16.7789 37.1752 23.0467 0.0004 2.2110 0.0001
# 3 13.4328 23.0467 68.6072 -0.0001 11.0713 0.0001
# 4 0.0000 0.0004 -0.0001 31.3415 0.0001 -3.7270
# 5 18.8339 2.2110 11.0713 0.0001 27.4860 -0.0001
# 6 0.0000 0.0001 0.0001 -3.7270 -0.0001 24.3637
#
#
#
# Elastic Compliance Matrix: (Units=1/GPa)
#
#
# Indices 1 2 3 4 5 6 
#
# 1 0.023184 -0.010464 0.001501 0.000000 -0.015649 0.000000
# 2 -0.010464 0.038800 -0.012448 -0.000001 0.009063 0.000000
# 3 0.001501 -0.012448 0.019752 0.000000 -0.007983 0.000000
# 4 0.000000 -0.000001 0.000000 0.032498 0.000000 0.004971
# 5 -0.015649 0.009063 -0.007983 0.000000 0.049592 0.000000
# 6 0.000000 0.000000 0.000000 0.004971 0.000000 0.041805
#
#
# Mechanical properties :
#
#
# Convention : Reuss Voigt Hill
#
# Bulk Modulus (GPa) = 25.69710 30.53878 28.11794
# Shear Modulus (GPa) = 19.12616 24.30985 21.71800
#
# Velocity S-wave (km/s) = 3.12388 3.52185 3.32882
# Velocity P-wave (km/s) = 5.11104 5.66741 5.39640
#
# Compressibility (1/GPa) = 0.03891490
#
# Stress axis : x y z
#
# Youngs Moduli (GPa) = 43.13386 25.77302 50.62900
#
# Poissons Ratio (x) = 0.26968 -0.07600
# Poissons Ratio (y) = 0.45134 0.63021
# Poissons Ratio (z) = -0.06475 0.32081
#
# Static dielectric constant tensor:
#      x y z
#    x 3.993360 0.000000 0.309170 
#    y 0.000000 3.519840 0.000000 
#    z 0.309170 0.000000 3.478300 
# 
# 
# High freq. dielectric constant tensor:
#      x y z
#    x 1.774870 0.000000 0.019250 
#    y 0.000000 1.762060 0.000000 
#    z 0.019250 0.000000 1.754810 
# 
# From -- ./inp_files/230388.got.cif
#   From: 2010.06.25/outbox.cif.g09.slc.cpg/sg12_116_cif.got.tgz:230388.got - 2010.06.28 00:19:55.
