data_PCOD8108043
_publ_section_title
;
Structure prediction by ZEFSAII (Michael W. Deem and Ramdas Pophale) SiO2 
 PCOD8108043
Probable space group: C 2/M
;
_chemical_formula_sum "Si O2"
_cell_formula_units_Z 56
_cell_length_a 26.699915
_cell_length_b 9.195126
_cell_length_c 17.581899
_cell_angle_alpha 90.000000
_cell_angle_beta 140.999384
_cell_angle_gamma 90.000000
_cell_volume 2716.507536
_symmetry_space_group_name_H-M "C 2/M"
_symmetry_group_IT_number 12
_symmetry_cell_setting 'monoclinic'
loop_
_space_group_symop_operation_xyz
x,y,z
-x,y,-z
-x,-y,-z
x,-y,z
1/2+x,1/2+y,z
1/2-x,1/2+y,-z
1/2-x,1/2-y,-z
1/2+x,1/2-y,z
loop_
_atom_site_type_symbol
_atom_site_label
_atom_site_fract_x
_atom_site_fract_y
_atom_site_fract_z
Si Si1 0.365888 0.668019 0.469769
Si Si2 0.928752 0.165948 0.117129
Si Si3 0.714164 0.831080 0.383959
Si Si4 0.612239 0.166784 0.655846
Si Si5 0.252805 0.336458 0.926802
Si Si6 0.463082 0.827730 0.875094
Si Si7 0.009603 0.666580 0.677016
O O1 0.389030 0.500000 0.505428
O O2 0.274764 0.695750 0.385534
O O3 0.387162 0.719441 0.410897
O O4 0.423111 0.763622 0.591579
O O5 0.928867 0.242263 0.199890
O O6 0.982809 0.254854 0.123971
O O7 0.959189 0.000000 0.158339
O O8 0.837237 0.172633 0.982958
O O9 0.750000 0.750000 0.500000
O O10 0.628230 0.776818 0.250307
O O11 0.709399 0.000000 0.400512
O O12 0.687116 0.221810 0.792179
O O13 0.533215 0.178328 0.615368
O O14 0.621494 0.000000 0.637112
O O15 0.230835 0.500000 0.923733
O O16 0.250000 0.250000 0.000000
O O17 0.469320 0.000000 0.875359
O O18 0.500000 0.777168 0.000000
O O19 0.008882 0.500000 0.703053
#
# Coordination Sequence:
#
# PCOD8108043 Si02
#       7
#     8   8   8   8   8   8   8
#     4  11  24  39  60  90 122 152 195 252 306 354
#     4  11  23  38  61  92 124 156 198 250 303 354
#     4  10  23  43  64  90 119 157 205 253 307 366
#     4  10  22  39  58  85 121 160 201 239 289 360
#     4  10  21  38  59  87 122 159 199 242 291 354
#     4  10  23  43  66  90 121 161 208 257 310 372
#     4  11  22  39  62  87 120 163 205 241 289 361
#
# _framework density 20.614705000000001
#
# number of rings (size 3 to 8) (size 9 to 14) (size 15 to 20)
#    0.000    1.571    1.429    2.571    2.000    8.286 
#    0.000    0.000    0.000    0.000    0.000    0.000 
#    0.000    0.000    0.000    0.000    0.000    0.000 
#
# Total GULP energy -347112.381340 kJ/mol
# GULP energy per Si atom -12396.870762 kJ/mol
# Density = 2.056778 g / cm^3
# Si number density = 20.614705 Si / 1000 Ang^3
#
#
#
# Elastic Constant Matrix: (Units=GPa)
#
#
# Indices 1 2 3 4 5 6 
#
# 1 84.4260 25.1775 27.6880 0.0000 9.2455 0.0000
# 2 25.1775 39.2472 29.8776 0.0000 3.0060 0.0000
# 3 27.6880 29.8776 103.4806 0.0000 14.3655 0.0000
# 4 0.0000 0.0000 0.0000 32.2106 0.0000 -3.3274
# 5 9.2455 3.0060 14.3655 0.0000 34.8920 0.0000
# 6 0.0000 0.0000 0.0000 -3.3274 0.0000 35.0326
#
#
#
# Elastic Compliance Matrix: (Units=1/GPa)
#
#
# Indices 1 2 3 4 5 6 
#
# 1 0.015091 -0.008572 -0.001178 0.000000 -0.002775 0.000000
# 2 -0.008572 0.037569 -0.008930 0.000000 0.002711 0.000000
# 3 -0.001178 -0.008930 0.013159 0.000000 -0.004336 0.000000
# 4 0.000000 0.000000 0.000000 0.031353 0.000000 0.002978
# 5 -0.002775 0.002711 -0.004336 0.000000 0.030947 0.000000
# 6 0.000000 0.000000 0.000000 0.002978 0.000000 0.028828
#
#
# Mechanical properties :
#
#
# Convention : Reuss Voigt Hill
#
# Bulk Modulus (GPa) = 35.13714 43.62668 39.38191
# Shear Modulus (GPa) = 24.53463 30.05442 27.29452
#
# Velocity S-wave (km/s) = 3.45360 3.82240 3.64267
# Velocity P-wave (km/s) = 5.74324 6.37886 6.06938
#
# Compressibility (1/GPa) = 0.02845991
#
# Stress axis : x y z
#
# Youngs Moduli (GPa) = 66.26368 26.61759 75.99334
#
# Poissons Ratio (x) = 0.22817 0.08949
# Poissons Ratio (y) = 0.56802 0.67862
# Poissons Ratio (z) = 0.07803 0.23769
#
# Static dielectric constant tensor:
#      x y z
#    x 3.604630 0.000000 0.107380 
#    y 0.000000 3.716450 0.000000 
#    z 0.107380 0.000000 4.230130 
# 
# 
# High freq. dielectric constant tensor:
#      x y z
#    x 1.804680 0.000000 0.013170 
#    y 0.000000 1.803590 0.000000 
#    z 0.013170 0.000000 1.823150 
# 
# From -- ./inp_files/292497.got.cif
#   From: 2010.06.25/outbox.cif.g09.slc.cpg/sg12_147_cif.got.tgz:292497.got - 2010.06.28 00:19:55.
