data_PCOD8108345
_publ_section_title
;
Structure prediction by ZEFSAII (Michael W. Deem and Ramdas Pophale) SiO2 
 PCOD8108345
Probable space group: C 2/M
;
_chemical_formula_sum "Si O2"
_cell_formula_units_Z 56
_cell_length_a 10.068563
_cell_length_b 14.151516
_cell_length_c 23.159029
_cell_angle_alpha 90.000000
_cell_angle_beta 56.817379
_cell_angle_gamma 90.000000
_cell_volume 2761.723075
_symmetry_space_group_name_H-M "C 2/M"
_symmetry_group_IT_number 12
_symmetry_cell_setting 'monoclinic'
loop_
_space_group_symop_operation_xyz
x,y,z
-x,y,-z
-x,-y,-z
x,-y,z
1/2+x,1/2+y,z
1/2-x,1/2+y,-z
1/2-x,1/2-y,-z
1/2+x,1/2-y,z
loop_
_atom_site_type_symbol
_atom_site_label
_atom_site_fract_x
_atom_site_fract_y
_atom_site_fract_z
Si Si1 0.976857 0.611510 0.186543
Si Si2 0.106112 0.237030 0.610388
Si Si3 0.720409 0.610935 0.810044
Si Si4 0.439612 0.387735 0.954113
Si Si5 0.168098 0.889073 0.490989
Si Si6 0.911981 0.387865 0.964994
Si Si7 0.240247 0.757337 0.701138
O O1 0.942157 0.500000 0.199134
O O2 0.134575 0.640717 0.183479
O O3 0.000522 0.644418 0.114523
O O4 0.827557 0.665235 0.249858
O O5 0.173747 0.152981 0.554383
O O6 0.191886 0.337267 0.577561
O O7 0.135977 0.214511 0.670350
O O8 0.920651 0.240082 0.639968
O O9 0.716498 0.500000 0.803737
O O10 0.555927 0.648959 0.876274
O O11 0.737398 0.652759 0.742937
O O12 0.440016 0.500000 0.955577
O O13 0.500000 0.346673 0.000000
O O14 0.264693 0.346309 0.987035
O O15 0.000000 0.869688 0.500000
O O16 0.206857 0.000000 0.484105
O O17 0.904209 0.500000 0.966971
O O18 0.000000 0.347501 0.000000
#
# Coordination Sequence:
#
# PCOD8108345 Si02
#       7
#     8   8   8   8   8   8   8
#     4  10  21  39  62  86 119 168 215 252 309 385
#     4  11  24  42  65  98 133 163 195 253 304 349
#     4  10  21  38  61  88 119 164 215 257 310 378
#     4   9  15  29  56  81 107 151 207 263 312 361
#     4  10  22  43  73 101 125 162 209 245 290 361
#     4   9  17  31  54  84 115 151 204 270 325 361
#     4  12  24  41  62  93 134 165 202 250 305 364
#
# _framework density 20.277194999999999
#
# number of rings (size 3 to 8) (size 9 to 14) (size 15 to 20)
#    0.000    1.857    4.286    0.000    0.000    3.429 
#    0.000    3.571    0.000    0.000    0.000    0.000 
#    0.000    0.000    0.000    0.000    0.000    0.000 
#
# Total GULP energy -347187.216233 kJ/mol
# GULP energy per Si atom -12399.543437 kJ/mol
# Density = 2.023104 g / cm^3
# Si number density = 20.277195 Si / 1000 Ang^3
#
#
#
# Elastic Constant Matrix: (Units=GPa)
#
#
# Indices 1 2 3 4 5 6 
#
# 1 117.2271 34.8615 49.0304 0.0000 2.2499 0.0000
# 2 34.8615 79.3738 38.9550 0.0000 -2.9788 0.0000
# 3 49.0304 38.9550 118.8369 0.0000 3.6712 0.0000
# 4 0.0000 0.0000 0.0000 56.4202 0.0000 5.3180
# 5 2.2499 -2.9788 3.6712 0.0000 50.4692 0.0000
# 6 0.0000 0.0000 0.0000 5.3180 0.0000 18.0311
#
#
#
# Elastic Compliance Matrix: (Units=1/GPa)
#
#
# Indices 1 2 3 4 5 6 
#
# 1 0.010914 -0.003105 -0.003472 0.000000 -0.000417 0.000000
# 2 -0.003105 0.015976 -0.003998 0.000000 0.001372 0.000000
# 3 -0.003472 -0.003998 0.011186 0.000000 -0.000895 0.000000
# 4 0.000000 0.000000 0.000000 0.018231 0.000000 -0.005377
# 5 -0.000417 0.001372 -0.000895 0.000000 0.019979 0.000000
# 6 0.000000 0.000000 0.000000 -0.005377 0.000000 0.057045
#
#
# Mechanical properties :
#
#
# Convention : Reuss Voigt Hill
#
# Bulk Modulus (GPa) = 59.08498 62.34797 60.71647
# Shear Modulus (GPa) = 31.22575 37.82349 34.52462
#
# Velocity S-wave (km/s) = 3.92847 4.32362 4.13077
# Velocity P-wave (km/s) = 7.05543 7.46589 7.26356
#
# Compressibility (1/GPa) = 0.01692478
#
# Stress axis : x y z
#
# Youngs Moduli (GPa) = 91.62414 62.59316 89.39898
#
# Poissons Ratio (x) = 0.19436 0.31042
# Poissons Ratio (y) = 0.28450 0.35744
# Poissons Ratio (z) = 0.31814 0.25027
#
# Static dielectric constant tensor:
#      x y z
#    x 3.829650 0.000000 -0.050870 
#    y 0.000000 3.428370 0.000000 
#    z -0.050870 0.000000 3.861360 
# 
# 
# High freq. dielectric constant tensor:
#      x y z
#    x 1.795310 0.000000 0.000450 
#    y 0.000000 1.784530 0.000000 
#    z 0.000450 0.000000 1.801340 
# 
# From -- ./inp_files/332832.got.cif
#   From: 2010.06.25/outbox.cif.g09.slc.cpg/sg12_167_cif.got.tgz:332832.got - 2010.06.28 00:19:55.
