data_PCOD8108428
_publ_section_title
;
Structure prediction by ZEFSAII (Michael W. Deem and Ramdas Pophale) SiO2 
 PCOD8108428
Probable space group: C 2/M
;
_chemical_formula_sum "Si O2"
_cell_formula_units_Z 56
_cell_length_a 13.978441
_cell_length_b 27.807430
_cell_length_c 7.704600
_cell_angle_alpha 90.000000
_cell_angle_beta 63.623868
_cell_angle_gamma 90.000000
_cell_volume 2683.043561
_symmetry_space_group_name_H-M "C 2/M"
_symmetry_group_IT_number 12
_symmetry_cell_setting 'monoclinic'
loop_
_space_group_symop_operation_xyz
x,y,z
-x,y,-z
-x,-y,-z
x,-y,z
1/2+x,1/2+y,z
1/2-x,1/2+y,-z
1/2-x,1/2-y,-z
1/2+x,1/2-y,z
loop_
_atom_site_type_symbol
_atom_site_label
_atom_site_fract_x
_atom_site_fract_y
_atom_site_fract_z
Si Si1 0.608305 0.618410 0.195454
Si Si2 0.304215 0.555485 0.163318
Si Si3 0.134870 0.117057 0.568837
Si Si4 0.707275 0.802228 0.584613
Si Si5 0.490703 0.155388 0.807413
Si Si6 0.438563 0.946695 0.726767
Si Si7 0.225783 0.304064 0.974514
O O1 0.651153 0.602646 0.352489
O O2 0.485849 0.634093 0.303878
O O3 0.672405 0.663243 0.061990
O O4 0.619814 0.575246 0.050187
O O5 0.327096 0.500000 0.152955
O O6 0.333353 0.573503 0.332346
O O7 0.183144 0.567685 0.210881
O O8 0.208709 0.161332 0.567111
O O9 0.750000 0.750000 0.500000
O O10 0.586698 0.818010 0.622542
O O11 0.705315 0.808782 0.789576
O O12 0.493062 0.097073 0.788282
O O13 0.500000 0.168318 0.000000
O O14 0.377516 0.177400 0.833681
O O15 0.500000 0.951392 0.500000
O O16 0.445814 0.000000 0.813868
O O17 0.250000 0.250000 0.000000
#
# Coordination Sequence:
#
# PCOD8108428 Si02
#       7
#     8   8   8   8   8   8   8
#     4  10  22  42  63  90 128 167 212 259 313 378
#     4  11  23  41  66  96 127 167 214 262 321 379
#     4  10  23  41  62  91 129 166 209 265 307 378
#     4  10  23  39  58  90 123 160 208 256 317 373
#     4  10  21  40  62  87 123 159 206 259 308 377
#     4  10  21  38  61  91 124 159 208 260 315 377
#     4  10  22  38  60  87 120 164 211 257 315 373
#
# _framework density 20.871818999999999
#
# number of rings (size 3 to 8) (size 9 to 14) (size 15 to 20)
#    0.000    1.857    1.429    1.286    4.000    3.143 
#    0.000    1.429    0.000    0.000    0.000    0.000 
#    0.000    0.000    0.000    0.000    0.000    0.000 
#
# Total GULP energy -347044.560413 kJ/mol
# GULP energy per Si atom -12394.448586 kJ/mol
# Density = 2.082431 g / cm^3
# Si number density = 20.871819 Si / 1000 Ang^3
#
#
#
# Elastic Constant Matrix: (Units=GPa)
#
#
# Indices 1 2 3 4 5 6 
#
# 1 81.5937 59.9123 42.7224 0.0000 -30.6754 0.0000
# 2 59.9123 162.1594 49.0426 0.0000 -18.1976 0.0000
# 3 42.7224 49.0426 93.2515 0.0000 -20.1990 0.0000
# 4 0.0000 0.0000 0.0000 33.6867 0.0000 0.6965
# 5 -30.6754 -18.1976 -20.1990 0.0000 35.3450 0.0000
# 6 0.0000 0.0000 0.0000 0.6965 0.0000 35.2032
#
#
#
# Elastic Compliance Matrix: (Units=1/GPa)
#
#
# Indices 1 2 3 4 5 6 
#
# 1 0.025321 -0.006062 -0.004940 0.000000 0.016031 0.000000
# 2 -0.006062 0.008885 -0.002333 0.000000 -0.002020 0.000000
# 3 -0.004940 -0.002333 0.014865 0.000000 0.003007 0.000000
# 4 0.000000 0.000000 0.000000 0.029697 0.000000 -0.000588
# 5 0.016031 -0.002020 0.003007 0.000000 0.042884 0.000000
# 6 0.000000 0.000000 0.000000 -0.000588 0.000000 0.028418
#
#
# Mechanical properties :
#
#
# Convention : Reuss Voigt Hill
#
# Bulk Modulus (GPa) = 44.64080 71.15102 57.89591
# Shear Modulus (GPa) = 27.14321 33.20215 30.17268
#
# Velocity S-wave (km/s) = 3.61012 3.99277 3.80625
# Velocity P-wave (km/s) = 6.22991 7.44444 6.86409
#
# Compressibility (1/GPa) = 0.02240103
#
# Stress axis : x y z
#
# Youngs Moduli (GPa) = 39.49363 112.54310 67.27130
#
# Poissons Ratio (x) = 0.68224 0.33230
# Poissons Ratio (y) = 0.23941 0.15696
# Poissons Ratio (z) = 0.19509 0.26259
#
# Static dielectric constant tensor:
#      x y z
#    x 3.855260 0.000000 -0.305090 
#    y 0.000000 3.686540 0.000000 
#    z -0.305090 0.000000 4.225280 
# 
# 
# High freq. dielectric constant tensor:
#      x y z
#    x 1.818160 0.000000 -0.018880 
#    y 0.000000 1.815740 0.000000 
#    z -0.018880 0.000000 1.822330 
# 
# From -- ./inp_files/65748.got.cif
#   From: 2010.06.25/outbox.cif.g09.slc.cpg/sg12_33_cif.got.tgz:65748.got - 2010.06.28 00:19:55.
