data_PCOD8108541
_publ_section_title
;
Structure prediction by ZEFSAII (Michael W. Deem and Ramdas Pophale) SiO2 
 PCOD8108541
Probable space group: C 2/M
;
_chemical_formula_sum "Si O2"
_cell_formula_units_Z 64
_cell_length_a 19.216732
_cell_length_b 9.030047
_cell_length_c 30.100248
_cell_angle_alpha 90.000000
_cell_angle_beta 37.983407
_cell_angle_gamma 90.000000
_cell_volume 3214.552824
_symmetry_space_group_name_H-M "C 2/M"
_symmetry_group_IT_number 12
_symmetry_cell_setting 'monoclinic'
loop_
_space_group_symop_operation_xyz
x,y,z
-x,y,-z
-x,-y,-z
x,-y,z
1/2+x,1/2+y,z
1/2-x,1/2+y,-z
1/2-x,1/2-y,-z
1/2+x,1/2-y,z
loop_
_atom_site_type_symbol
_atom_site_label
_atom_site_fract_x
_atom_site_fract_y
_atom_site_fract_z
Si Si1 0.167400 0.673616 0.134272
Si Si2 0.325524 0.332870 0.260175
Si Si3 0.913707 0.331690 0.663578
Si Si4 0.058821 0.174692 0.516234
Si Si5 0.098957 0.325175 0.984488
Si Si6 0.779107 0.169680 0.381140
Si Si7 0.469664 0.329742 0.723326
Si Si8 0.036611 0.328021 0.113697
O O1 0.168584 0.500000 0.144481
O O2 0.287430 0.742345 0.087446
O O3 0.069111 0.751935 0.211828
O O4 0.138264 0.704479 0.097146
O O5 0.369626 0.500000 0.244888
O O6 0.214979 0.326252 0.286235
O O7 0.297634 0.264565 0.322428
O O8 0.421009 0.243577 0.187266
O O9 0.957380 0.500000 0.645390
O O10 0.913145 0.253725 0.711145
O O11 0.993140 0.245438 0.589909
O O12 0.187080 0.231938 0.452699
O O13 0.000000 0.224217 0.500000
O O14 0.057931 0.000000 0.522924
O O15 0.121937 0.500000 0.972416
O O16 0.068459 0.266600 0.049077
O O17 0.000000 0.281567 0.000000
O O18 0.895296 0.181743 0.349763
O O19 0.736019 0.000000 0.400116
O O20 0.430058 0.500000 0.743851
O O21 0.011051 0.500000 0.123074
#
# Coordination Sequence:
#
# PCOD8108541 Si02
#       8
#     8   8   8   8   8   8   8   8
#     4  11  23  40  63  91 123 161 205 252 302 358
#     4  10  21  38  62  91 120 157 205 252 303 360
#     4  11  24  41  62  90 125 162 202 253 309 366
#     4  11  23  38  61  92 123 160 205 254 307 363
#     4  10  23  42  62  90 125 163 205 249 304 360
#     4  10  21  40  64  89 119 160 206 252 305 362
#     4  11  24  42  64  90 123 161 202 251 307 366
#     4  10  22  39  62  91 123 162 206 251 300 357
#
# _framework density 19.909457
#
# number of rings (size 3 to 8) (size 9 to 14) (size 15 to 20)
#    0.000    1.500    2.500    1.875    1.750    4.750 
#    0.000    0.000    0.000    0.000    0.000    0.000 
#    0.000    0.000    0.000    0.000    0.000    0.000 
#
# Total GULP energy -396965.796085 kJ/mol
# GULP energy per Si atom -12405.181128 kJ/mol
# Density = 1.986414 g / cm^3
# Si number density = 19.909457 Si / 1000 Ang^3
#
#
#
# Elastic Constant Matrix: (Units=GPa)
#
#
# Indices 1 2 3 4 5 6 
#
# 1 88.1472 35.3751 22.7436 -0.0054 2.1730 0.0563
# 2 35.3751 80.1969 38.9184 -0.0109 -3.2569 0.0296
# 3 22.7436 38.9184 88.7986 -0.0010 -9.4123 0.0042
# 4 -0.0054 -0.0109 -0.0010 40.6378 -0.0021 -2.6886
# 5 2.1730 -3.2569 -9.4123 -0.0021 33.0977 -0.0110
# 6 0.0563 0.0296 0.0042 -2.6886 -0.0110 28.1899
#
#
#
# Elastic Compliance Matrix: (Units=1/GPa)
#
#
# Indices 1 2 3 4 5 6 
#
# 1 0.013978 -0.005599 -0.001322 -0.000001 -0.001845 -0.000023
# 2 -0.005599 0.018087 -0.006460 0.000004 0.000310 -0.000006
# 3 -0.001322 -0.006460 0.014820 -0.000001 0.003666 0.000009
# 4 -0.000001 0.000004 -0.000001 0.024764 0.000003 0.002362
# 5 -0.001845 0.000310 0.003666 0.000003 0.031408 0.000015
# 6 -0.000023 -0.000006 0.000009 0.002362 0.000015 0.035699
#
#
# Mechanical properties :
#
#
# Convention : Reuss Voigt Hill
#
# Bulk Modulus (GPa) = 49.69490 50.13519 49.91505
# Shear Modulus (GPa) = 29.03179 31.05876 30.04528
#
# Velocity S-wave (km/s) = 3.82277 3.95397 3.88892
# Velocity P-wave (km/s) = 6.67079 6.78833 6.72982
#
# Compressibility (1/GPa) = 0.02012279
#
# Stress axis : x y z
#
# Youngs Moduli (GPa) = 71.53946 55.28912 67.47761
#
# Poissons Ratio (x) = 0.30959 0.08918
# Poissons Ratio (y) = 0.40058 0.43590
# Poissons Ratio (z) = 0.09455 0.35717
#
# Static dielectric constant tensor:
#      x y z
#    x 3.742700 -0.000010 0.085190 
#    y -0.000010 3.656120 0.000020 
#    z 0.085190 0.000020 3.584930 
# 
# 
# High freq. dielectric constant tensor:
#      x y z
#    x 1.783860 0.000000 -0.000710 
#    y 0.000000 1.777780 0.000000 
#    z -0.000710 0.000000 1.781280 
# 
# From -- ./inp_files/378024.got.cif
#   From: 2010.06.25/outbox.cif.g09.slc.cpg/sg12_190_cif.got.tgz:378024.got - 2010.06.28 00:19:55.
