data_PCOD8108920
_publ_section_title
;
Structure prediction by ZEFSAII (Michael W. Deem and Ramdas Pophale) SiO2 
 PCOD8108920
Probable space group: C 2/M
;
_chemical_formula_sum "Si O2"
_cell_formula_units_Z 64
_cell_length_a 11.159555
_cell_length_b 17.577126
_cell_length_c 21.233893
_cell_angle_alpha 90.000000
_cell_angle_beta 47.616450
_cell_angle_gamma 90.000000
_cell_volume 3076.539015
_symmetry_space_group_name_H-M "C 2/M"
_symmetry_group_IT_number 12
_symmetry_cell_setting 'monoclinic'
loop_
_space_group_symop_operation_xyz
x,y,z
-x,y,-z
-x,-y,-z
x,-y,z
1/2+x,1/2+y,z
1/2-x,1/2+y,-z
1/2-x,1/2-y,-z
1/2+x,1/2-y,z
loop_
_atom_site_type_symbol
_atom_site_label
_atom_site_fract_x
_atom_site_fract_y
_atom_site_fract_z
Si Si1 0.402238 0.798850 0.658059
Si Si2 0.963516 0.917371 0.784474
Si Si3 0.112289 0.409986 0.113399
Si Si4 0.550127 0.584972 0.066853
Si Si5 0.625652 0.857379 0.900880
Si Si6 0.895633 0.417275 0.476097
Si Si7 0.830914 0.191784 0.373213
Si Si8 0.228275 0.810520 0.847357
O O1 0.484429 0.880858 0.618109
O O2 0.308489 0.772732 0.625417
O O3 0.554612 0.747868 0.627111
O O4 0.266411 0.805721 0.759788
O O5 0.003435 0.904215 0.842697
O O6 0.769647 0.917587 0.849021
O O7 0.046620 0.854364 0.713399
O O8 0.026451 0.000000 0.739713
O O9 0.087326 0.500000 0.137058
O O10 0.128361 0.358611 0.170369
O O11 0.958801 0.370211 0.136055
O O12 0.262797 0.396453 0.012477
O O13 0.508439 0.500000 0.057857
O O14 0.432730 0.643979 0.073918
O O15 0.703532 0.773995 0.882834
O O16 0.500000 0.877798 0.000000
O O17 0.832146 0.500000 0.473940
O O18 0.748456 0.360716 0.544941
O O19 0.000000 0.432417 0.500000
#
# Coordination Sequence:
#
# PCOD8108920 Si02
#       8
#     8   8   8   8   8   8   8   8
#     4  11  24  39  68  93 131 162 211 252 321 379
#     4  11  22  37  61  89 118 161 214 257 309 375
#     4  11  25  42  61  85 123 170 215 269 331 380
#     4  10  21  39  60  83 116 161 214 261 313 374
#     4  12  25  39  62  88 125 167 217 268 320 382
#     4   9  20  40  68 100 128 159 205 258 311 376
#     4  11  22  43  64  97 126 169 203 262 313 384
#     4  12  25  38  60  91 126 163 210 264 316 380
#
# _framework density 20.802598
#
# number of rings (size 3 to 8) (size 9 to 14) (size 15 to 20)
#    0.000    1.125    3.750    2.625    3.500    4.000 
#    0.000    0.000    0.000    2.250    0.000    0.000 
#    0.000    0.000    0.000    0.000    0.000    0.000 
#
# Total GULP energy -396507.562451 kJ/mol
# GULP energy per Si atom -12390.861327 kJ/mol
# Density = 2.075525 g / cm^3
# Si number density = 20.802598 Si / 1000 Ang^3
#
#
#
# Elastic Constant Matrix: (Units=GPa)
#
#
# Indices 1 2 3 4 5 6 
#
# 1 114.7412 41.7869 1.7756 0.0004 -2.2749 0.0000
# 2 41.7869 88.5257 4.8917 -0.0007 -0.7630 -0.0002
# 3 1.7756 4.8917 52.7248 -0.0013 -13.5080 0.0002
# 4 0.0004 -0.0007 -0.0013 94.5915 0.0002 59.7347
# 5 -2.2749 -0.7630 -13.5080 0.0002 20.5423 -0.0001
# 6 0.0000 -0.0002 0.0002 59.7347 -0.0001 66.4345
#
#
#
# Elastic Compliance Matrix: (Units=1/GPa)
#
#
# Indices 1 2 3 4 5 6 
#
# 1 0.010552 -0.004994 0.000433 0.000000 0.001268 0.000000
# 2 -0.004994 0.013720 -0.001342 0.000000 -0.000926 0.000000
# 3 0.000433 -0.001342 0.022941 0.000001 0.015083 -0.000001
# 4 0.000000 0.000000 0.000001 0.024461 0.000000 -0.021994
# 5 0.001268 -0.000926 0.015083 0.000000 0.058704 0.000000
# 6 0.000000 0.000000 -0.000001 -0.021994 0.000000 0.034829
#
#
# Mechanical properties :
#
#
# Convention : Reuss Voigt Hill
#
# Bulk Modulus (GPa) = 28.24357 39.21113 33.72735
# Shear Modulus (GPa) = 26.48082 50.14947 38.31515
#
# Velocity S-wave (km/s) = 3.57172 4.91525 4.29633
# Velocity P-wave (km/s) = 5.53318 7.14863 6.39214
#
# Compressibility (1/GPa) = 0.03540629
#
# Stress axis : x y z
#
# Youngs Moduli (GPa) = 94.76459 72.88797 43.59080
#
# Poissons Ratio (x) = 0.36401 -0.01886
# Poissons Ratio (y) = 0.47326 0.05850
# Poissons Ratio (z) = -0.04101 0.09781
#
# Static dielectric constant tensor:
#      x y z
#    x 3.905810 0.000000 -0.035930 
#    y 0.000000 3.876970 0.000000 
#    z -0.035930 0.000000 3.763330 
# 
# 
# High freq. dielectric constant tensor:
#      x y z
#    x 1.811340 0.000000 -0.004460 
#    y 0.000000 1.814840 0.000000 
#    z -0.004460 0.000000 1.811230 
# 
# From -- ./inp_files/306205.got.cif
#   From: 2010.06.25/outbox.cif.g09.slc.cpg/sg12_154_cif.got.tgz:306205.got - 2010.06.28 00:19:55.
