data_PCOD8108304
_publ_section_title
;
Structure prediction by ZEFSAII (Michael W. Deem and Ramdas Pophale) SiO2 
 PCOD8108304
Probable space group: C 2/M
;
_chemical_formula_sum "Si O2"
_cell_formula_units_Z 64
_cell_length_a 18.242946
_cell_length_b 8.756784
_cell_length_c 28.599405
_cell_angle_alpha 90.000000
_cell_angle_beta 135.679327
_cell_angle_gamma 90.000000
_cell_volume 3192.058637
_symmetry_space_group_name_H-M "C 2/M"
_symmetry_group_IT_number 12
_symmetry_cell_setting 'monoclinic'
loop_
_space_group_symop_operation_xyz
x,y,z
-x,y,-z
-x,-y,-z
x,-y,z
1/2+x,1/2+y,z
1/2-x,1/2+y,-z
1/2-x,1/2-y,-z
1/2+x,1/2-y,z
loop_
_atom_site_type_symbol
_atom_site_label
_atom_site_fract_x
_atom_site_fract_y
_atom_site_fract_z
Si Si1 0.239643 0.677044 0.545169
Si Si2 0.470078 0.668225 0.538994
Si Si3 0.067115 0.680625 0.320060
Si Si4 0.119111 0.678183 0.063401
Si Si5 0.596968 0.819386 0.675665
Si Si6 0.007308 0.681229 0.191038
Si Si7 0.276686 0.180851 0.061744
Si Si8 0.682652 0.820747 0.198085
O O1 0.263789 0.500000 0.554249
O O2 0.250000 0.750000 0.500000
O O3 0.121250 0.707671 0.505625
O O4 0.318770 0.753979 0.617306
O O5 0.500000 0.642356 0.500000
O O6 0.437191 0.500000 0.544149
O O7 0.565043 0.734803 0.613330
O O8 0.074975 0.500000 0.322971
O O9 0.982518 0.734396 0.319823
O O10 0.035959 0.745817 0.255202
O O11 0.132152 0.500000 0.058173
O O12 0.194948 0.770104 0.063929
O O13 0.147959 0.717278 0.129731
O O14 0.000000 0.730868 0.000000
O O15 0.713438 0.772682 0.742938
O O16 0.591573 0.000000 0.665548
O O17 0.005899 0.500000 0.190955
O O18 0.892023 0.744041 0.126819
O O19 0.090911 0.738130 0.190722
O O20 0.275892 0.000000 0.057677
O O21 0.250000 0.250000 0.000000
O O22 0.704327 0.000000 0.214844
#
# Coordination Sequence:
#
# PCOD8108304 Si02
#       8
#     8   8   8   8   8   8   8   8
#     4  12  24  40  63  91 122 158 202 253 307 367
#     4  11  25  43  64  88 118 159 205 253 308 371
#     4  10  21  39  62  86 116 158 203 248 301 364
#     4  10  21  39  63  91 126 166 209 252 301 359
#     4  11  23  39  60  87 122 160 199 252 308 363
#     4   9  20  39  62  87 118 160 205 247 302 364
#     4  11  22  39  64  93 125 162 206 255 308 363
#     4  10  21  38  61  87 119 161 205 251 302 364
#
# _framework density 20.049757
#
# number of rings (size 3 to 8) (size 9 to 14) (size 15 to 20)
#    0.000    1.500    1.250    3.750    1.750    5.250 
#    0.000    3.750    0.000    0.000    0.000    0.000 
#    0.000    0.000    0.000    0.000    0.000    0.000 
#
# Total GULP energy -396859.252713 kJ/mol
# GULP energy per Si atom -12401.851647 kJ/mol
# Density = 2.000412 g / cm^3
# Si number density = 20.049757 Si / 1000 Ang^3
#
#
#
# Elastic Constant Matrix: (Units=GPa)
#
#
# Indices 1 2 3 4 5 6 
#
# 1 108.1107 35.1012 61.1734 0.0000 -6.5234 0.0000
# 2 35.1012 46.3055 36.3827 0.0000 -7.3153 0.0000
# 3 61.1734 36.3827 179.6161 0.0000 -4.6314 0.0000
# 4 0.0000 0.0000 0.0000 28.9635 0.0000 6.2730
# 5 -6.5234 -7.3153 -4.6314 0.0000 42.0076 0.0000
# 6 0.0000 0.0000 0.0000 6.2730 0.0000 29.2287
#
#
#
# Elastic Compliance Matrix: (Units=1/GPa)
#
#
# Indices 1 2 3 4 5 6 
#
# 1 0.013515 -0.007816 -0.003009 0.000000 0.000406 0.000000
# 2 -0.007816 0.030861 -0.003492 0.000000 0.003775 0.000000
# 3 -0.003009 -0.003492 0.007293 0.000000 -0.000271 0.000000
# 4 0.000000 0.000000 0.000000 0.036209 0.000000 -0.007771
# 5 0.000406 0.003775 -0.000271 0.000000 0.024496 0.000000
# 6 0.000000 0.000000 0.000000 -0.007771 0.000000 0.035881
#
#
# Mechanical properties :
#
#
# Convention : Reuss Voigt Hill
#
# Bulk Modulus (GPa) = 43.41444 66.59407 55.00426
# Shear Modulus (GPa) = 27.09062 33.46496 30.27779
#
# Velocity S-wave (km/s) = 3.67981 4.08989 3.89026
# Velocity P-wave (km/s) = 6.30516 7.45583 6.90451
#
# Compressibility (1/GPa) = 0.02303381
#
# Stress axis : x y z
#
# Youngs Moduli (GPa) = 73.99349 32.40380 137.12649
#
# Poissons Ratio (x) = 0.25328 0.41263
# Poissons Ratio (y) = 0.57835 0.47880
# Poissons Ratio (z) = 0.22265 0.11314
#
# Static dielectric constant tensor:
#      x y z
#    x 4.191950 0.000000 0.048760 
#    y 0.000000 -0.749180 0.000000 
#    z 0.048760 0.000000 3.909380 
# 
# 
# High freq. dielectric constant tensor:
#      x y z
#    x 1.791760 0.000000 -0.001770 
#    y 0.000000 1.771490 0.000000 
#    z -0.001770 0.000000 1.801950 
# 
# From -- ./inp_files/378506.got.cif
#   From: 2010.06.25/outbox.cif.g09.slc.cpg/sg12_190_cif.got.tgz:378506.got - 2010.06.28 00:19:55.
