data_PCOD8108294
_publ_section_title
;
Structure prediction by ZEFSAII (Michael W. Deem and Ramdas Pophale) SiO2 
 PCOD8108294
Probable space group: C 2/M
;
_chemical_formula_sum "Si O2"
_cell_formula_units_Z 32
_cell_length_a 15.160667
_cell_length_b 14.627156
_cell_length_c 6.875401
_cell_angle_alpha 90.000000
_cell_angle_beta 45.763355
_cell_angle_gamma 90.000000
_cell_volume 1092.372993
_symmetry_space_group_name_H-M "C 2/M"
_symmetry_group_IT_number 12
_symmetry_cell_setting 'monoclinic'
loop_
_space_group_symop_operation_xyz
x,y,z
-x,y,-z
-x,-y,-z
x,-y,z
1/2+x,1/2+y,z
1/2-x,1/2+y,-z
1/2-x,1/2-y,-z
1/2+x,1/2-y,z
loop_
_atom_site_type_symbol
_atom_site_label
_atom_site_fract_x
_atom_site_fract_y
_atom_site_fract_z
Si Si1 0.025747 0.705519 0.733468
Si Si2 0.440567 0.400797 0.876124
Si Si3 0.274831 0.849969 0.033431
Si Si4 0.753381 0.103235 0.481601
O O1 0.163784 0.667326 0.486791
O O2 0.012203 0.811771 0.682946
O O3 0.924319 0.640893 0.781092
O O4 0.000000 0.696882 0.000000
O O5 0.509797 0.500000 0.739753
O O6 0.393916 0.387297 0.176482
O O7 0.308718 0.416203 0.969089
O O8 0.236515 0.861784 0.316405
O O9 0.250000 0.750000 0.000000
O O10 0.703688 0.000000 0.549889
#
# Coordination Sequence:
#
# PCOD8108294 Si02
#       4
#     8   8   8   8
#     4   9  20  36  57  86 119 152 193 245 296 348
#     4  10  21  38  61  87 117 157 199 242 298 358
#     4   9  19  35  57  86 119 153 193 245 297 351
#     4  10  21  38  62  89 117 154 200 247 296 352
#
# _framework density 29.294024
#
# number of rings (size 3 to 8) (size 9 to 14) (size 15 to 20)
#    0.000    2.500    0.000    0.750    0.000   16.000 
#    0.000   10.000    0.000    1.500    0.000   28.000 
#    0.000    0.000    0.000    0.000    0.000    0.000 
#
# Total GULP energy -198273.044864 kJ/mol
# GULP energy per Si atom -12392.065304 kJ/mol
# Density = 2.922735 g / cm^3
# Si number density = 29.294024 Si / 1000 Ang^3
#
#
#
# Elastic Constant Matrix: (Units=GPa)
#
#
# Indices 1 2 3 4 5 6 
#
# 1 123.9774 65.2189 15.3991 0.0000 -14.8938 0.0000
# 2 65.2189 209.1510 54.0572 0.0000 -20.0765 0.0000
# 3 15.3991 54.0572 97.3219 0.0000 -22.5871 0.0000
# 4 0.0000 0.0000 0.0000 30.7034 0.0000 -12.6880
# 5 -14.8938 -20.0765 -22.5871 0.0000 52.1480 0.0000
# 6 0.0000 0.0000 0.0000 -12.6880 0.0000 36.1816
#
#
#
# Elastic Compliance Matrix: (Units=1/GPa)
#
#
# Indices 1 2 3 4 5 6 
#
# 1 0.009814 -0.003025 0.000565 0.000000 0.001883 0.000000
# 2 -0.003025 0.006553 -0.003087 0.000000 0.000322 0.000000
# 3 0.000565 -0.003087 0.012965 0.000000 0.004589 0.000000
# 4 0.000000 0.000000 0.000000 0.038089 0.000000 0.013357
# 5 0.001883 0.000322 0.004589 0.000000 0.021825 0.000000
# 6 0.000000 0.000000 0.000000 0.013357 0.000000 0.032322
#
#
# Mechanical properties :
#
#
# Convention : Reuss Voigt Hill
#
# Bulk Modulus (GPa) = 54.83251 77.75565 66.29408
# Shear Modulus (GPa) = 36.03791 43.52496 39.78144
#
# Velocity S-wave (km/s) = 3.51125 3.85879 3.68911
# Velocity P-wave (km/s) = 5.93271 6.81575 6.38950
#
# Compressibility (1/GPa) = 0.01823736
#
# Stress axis : x y z
#
# Youngs Moduli (GPa) = 101.90034 152.59538 77.12928
#
# Poissons Ratio (x) = 0.46165 -0.04354
# Poissons Ratio (y) = 0.30828 0.23807
# Poissons Ratio (z) = -0.05753 0.47100
#
# Static dielectric constant tensor:
#      x y z
#    x 8.007210 0.000000 -0.422040 
#    y 0.000000 5.486940 0.000000 
#    z -0.422040 0.000000 5.568800 
# 
# 
# High freq. dielectric constant tensor:
#      x y z
#    x 2.255090 0.000000 -0.005680 
#    y 0.000000 2.175720 0.000000 
#    z -0.005680 0.000000 2.180360 
# 
# From -- ./inp_files/58243.got.cif
#   From: 2010.06.25/outbox.cif.g09.slc.cpg/sg12_30_cif.got.tgz:58243.got - 2010.06.28 00:19:55.
