data_PCOD8108794
_publ_section_title
;
Structure prediction by ZEFSAII (Michael W. Deem and Ramdas Pophale) SiO2 
 PCOD8108794
Probable space group: C 2/M
;
_chemical_formula_sum "Si O2"
_cell_formula_units_Z 64
_cell_length_a 17.351541
_cell_length_b 13.986191
_cell_length_c 18.713980
_cell_angle_alpha 90.000000
_cell_angle_beta 140.049164
_cell_angle_gamma 90.000000
_cell_volume 2916.262821
_symmetry_space_group_name_H-M "C 2/M"
_symmetry_group_IT_number 12
_symmetry_cell_setting 'monoclinic'
loop_
_space_group_symop_operation_xyz
x,y,z
-x,y,-z
-x,-y,-z
x,-y,z
1/2+x,1/2+y,z
1/2-x,1/2+y,-z
1/2-x,1/2-y,-z
1/2+x,1/2-y,z
loop_
_atom_site_type_symbol
_atom_site_label
_atom_site_fract_x
_atom_site_fract_y
_atom_site_fract_z
Si Si1 0.625234 0.271249 0.114854
Si Si2 0.290543 0.114016 0.146051
Si Si3 0.885519 0.110460 0.102527
Si Si4 0.240656 0.894155 0.843703
Si Si5 0.110492 0.389047 0.530444
Si Si6 0.963600 0.285836 0.654997
Si Si7 0.480134 0.391438 0.403071
Si Si8 0.864189 0.791615 0.722408
O O1 0.725213 0.354449 0.173516
O O2 0.648834 0.177491 0.083618
O O3 0.624226 0.233650 0.195522
O O4 0.500000 0.315751 0.000000
O O5 0.409369 0.178432 0.223771
O O6 0.317344 0.000000 0.164955
O O7 0.203510 0.152930 0.020911
O O8 0.844158 0.140820 0.152000
O O9 0.024904 0.135343 0.196234
O O10 0.873983 0.000000 0.081745
O O11 0.161789 0.890366 0.715077
O O12 0.291879 0.000000 0.894760
O O13 0.123037 0.500000 0.554879
O O14 0.083246 0.371259 0.427855
O O15 0.236757 0.342033 0.637827
O O16 0.000000 0.347140 0.500000
O O17 0.958715 0.187481 0.604846
O O18 0.874286 0.274437 0.659259
O O19 0.500000 0.363958 0.500000
O O20 0.529936 0.500000 0.422960
#
# Coordination Sequence:
#
# PCOD8108794 Si02
#       8
#     8   8   8   8   8   8   8   8
#     4  12  25  40  62  95 138 177 219 267 325 392
#     4  11  24  43  68  99 137 179 219 270 329 398
#     4  10  21  40  69 100 129 169 222 276 332 387
#     4  10  22  43  67  93 127 172 222 270 329 395
#     4  11  26  47  70  96 133 180 223 270 332 399
#     4  12  24  43  70  98 133 170 223 274 333 392
#     4  10  21  38  66  96 123 160 212 273 330 387
#     4  12  25  41  66  99 134 174 221 278 326 390
#
# _framework density 21.945896000000001
#
# number of rings (size 3 to 8) (size 9 to 14) (size 15 to 20)
#    0.000    1.000    3.750    2.250    3.500    4.000 
#    0.000    1.250    0.000    0.000    0.000    0.000 
#    0.000    0.000    0.000    0.000    0.000    0.000 
#
# Total GULP energy -396612.259664 kJ/mol
# GULP energy per Si atom -12394.133115 kJ/mol
# Density = 2.189595 g / cm^3
# Si number density = 21.945896 Si / 1000 Ang^3
#
#
#
# Elastic Constant Matrix: (Units=GPa)
#
#
# Indices 1 2 3 4 5 6 
#
# 1 140.0147 53.2657 59.9193 0.0000 0.3469 0.0000
# 2 53.2657 87.0024 19.0796 0.0000 5.5788 0.0000
# 3 59.9193 19.0796 117.6684 0.0000 -3.5760 0.0000
# 4 0.0000 0.0000 0.0000 29.3830 0.0000 -4.7155
# 5 0.3469 5.5788 -3.5760 0.0000 37.7744 0.0000
# 6 0.0000 0.0000 0.0000 -4.7155 0.0000 16.7157
#
#
#
# Elastic Compliance Matrix: (Units=1/GPa)
#
#
# Indices 1 2 3 4 5 6 
#
# 1 0.011511 -0.005998 -0.004880 0.000000 0.000318 0.000000
# 2 -0.005998 0.015188 0.000527 0.000000 -0.002138 0.000000
# 3 -0.004880 0.000527 0.010928 0.000000 0.001002 0.000000
# 4 0.000000 0.000000 0.000000 0.035647 0.000000 0.010056
# 5 0.000318 -0.002138 0.001002 0.000000 0.026881 0.000000
# 6 0.000000 0.000000 0.000000 0.010056 0.000000 0.062661
#
#
# Mechanical properties :
#
#
# Convention : Reuss Voigt Hill
#
# Bulk Modulus (GPa) = 59.08226 67.69054 63.38640
# Shear Modulus (GPa) = 26.43273 30.93600 28.68437
#
# Velocity S-wave (km/s) = 3.47428 3.75860 3.61924
# Velocity P-wave (km/s) = 6.56311 7.05318 6.81255
#
# Compressibility (1/GPa) = 0.01692556
#
# Stress axis : x y z
#
# Youngs Moduli (GPa) = 86.87089 65.84289 91.50552
#
# Poissons Ratio (x) = 0.39492 0.44651
# Poissons Ratio (y) = 0.52104 -0.04819
# Poissons Ratio (z) = 0.42390 -0.03468
#
# Static dielectric constant tensor:
#      x y z
#    x 4.106750 0.000000 -0.160720 
#    y 0.000000 3.887540 0.000000 
#    z -0.160720 0.000000 4.139430 
# 
# 
# High freq. dielectric constant tensor:
#      x y z
#    x 1.854590 0.000000 -0.010870 
#    y 0.000000 1.858480 0.000000 
#    z -0.010870 0.000000 1.876180 
# 
# From -- ./inp_files/278208.got.cif
#   From: 2010.06.25/outbox.cif.g09.slc.cpg/sg12_140_cif.got.tgz:278208.got - 2010.06.28 00:19:55.
