data_PCOD8108802
_publ_section_title
;
Structure prediction by ZEFSAII (Michael W. Deem and Ramdas Pophale) SiO2 
 PCOD8108802
Probable space group: C 2/M
;
_chemical_formula_sum "Si O2"
_cell_formula_units_Z 48
_cell_length_a 15.084079
_cell_length_b 10.858093
_cell_length_c 20.919143
_cell_angle_alpha 90.000000
_cell_angle_beta 42.517975
_cell_angle_gamma 90.000000
_cell_volume 2315.518377
_symmetry_space_group_name_H-M "C 2/M"
_symmetry_group_IT_number 12
_symmetry_cell_setting 'monoclinic'
loop_
_space_group_symop_operation_xyz
x,y,z
-x,y,-z
-x,-y,-z
x,-y,z
1/2+x,1/2+y,z
1/2-x,1/2+y,-z
1/2-x,1/2-y,-z
1/2+x,1/2-y,z
loop_
_atom_site_type_symbol
_atom_site_label
_atom_site_fract_x
_atom_site_fract_y
_atom_site_fract_z
Si Si1 0.931697 0.857275 0.890228
Si Si2 0.451684 0.500000 0.428082
Si Si3 0.872392 0.778577 0.391818
Si Si4 0.213982 0.639870 0.104065
Si Si5 0.305278 0.739825 0.286964
Si Si6 0.880068 0.362491 0.711335
Si Si7 0.279867 0.500000 0.639110
O O1 0.875067 0.754288 0.871941
O O2 0.083190 0.818185 0.818176
O O3 0.919347 0.000000 0.871549
O O4 0.858758 0.845149 0.996950
O O5 0.455649 0.386079 0.378836
O O6 0.320754 0.500000 0.542374
O O7 0.584140 0.500000 0.396688
O O8 0.750000 0.750000 0.500000
O O9 0.821290 0.818958 0.348945
O O10 0.975402 0.666515 0.337798
O O11 0.160362 0.500000 0.115488
O O12 0.223363 0.653415 0.175440
O O13 0.166248 0.713890 0.326443
O O14 0.312692 0.885949 0.293842
O O15 0.883606 0.500000 0.683842
#
# Coordination Sequence:
#
# PCOD8108802 Si02
#       7
#     8   4   8   8   8   8   4
#     4  10  21  38  67 101 132 171 218 269 327 389
#     4  11  24  46  66  89 131 174 220 274 331 390
#     4  12  26  42  66  94 127 169 215 269 329 382
#     4   9  20  41  67  96 134 174 216 267 325 392
#     4  12  25  42  66  98 130 173 221 267 326 396
#     4  11  25  44  65  97 131 167 217 269 322 392
#     4  11  24  44  68  91 129 177 223 267 334 400
#
# _framework density 20.729700999999999
#
# number of rings (size 3 to 8) (size 9 to 14) (size 15 to 20)
#    0.000    1.167    5.000    0.500    5.833    1.333 
#    1.500    3.333    0.000    1.000    0.000    0.000 
#    0.000    0.000    0.000    0.000    0.000    0.000 
#
# Total GULP energy -297407.148098 kJ/mol
# GULP energy per Si atom -12391.964504 kJ/mol
# Density = 2.068252 g / cm^3
# Si number density = 20.729701 Si / 1000 Ang^3
#
#
#
# Elastic Constant Matrix: (Units=GPa)
#
#
# Indices 1 2 3 4 5 6 
#
# 1 106.8652 29.2928 42.0415 0.0000 13.6459 0.0000
# 2 29.2928 129.8001 34.8926 0.0000 6.8251 0.0000
# 3 42.0415 34.8926 99.4294 0.0000 -0.3958 0.0000
# 4 0.0000 0.0000 0.0000 44.7043 0.0000 -6.1511
# 5 13.6459 6.8251 -0.3958 0.0000 25.4851 0.0000
# 6 0.0000 0.0000 0.0000 -6.1511 0.0000 32.6776
#
#
#
# Elastic Compliance Matrix: (Units=1/GPa)
#
#
# Indices 1 2 3 4 5 6 
#
# 1 0.012407 -0.001155 -0.004866 0.000000 -0.006410 0.000000
# 2 -0.001155 0.008754 -0.002591 0.000000 -0.001766 0.000000
# 3 -0.004866 -0.002591 0.013038 0.000000 0.003502 0.000000
# 4 0.000000 0.000000 0.000000 0.022964 0.000000 0.004323
# 5 -0.006410 -0.001766 0.003502 0.000000 0.043198 0.000000
# 6 0.000000 0.000000 0.000000 0.004323 0.000000 0.031416
#
#
# Mechanical properties :
#
#
# Convention : Reuss Voigt Hill
#
# Bulk Modulus (GPa) = 58.90871 60.94985 59.92928
# Shear Modulus (GPa) = 32.32916 35.89792 34.11354
#
# Velocity S-wave (km/s) = 3.95341 4.16590 4.06104
# Velocity P-wave (km/s) = 7.02271 7.25298 7.13877
#
# Compressibility (1/GPa) = 0.01697542
#
# Stress axis : x y z
#
# Youngs Moduli (GPa) = 80.59960 114.23220 76.69817
#
# Poissons Ratio (x) = 0.13191 0.37324
# Poissons Ratio (y) = 0.09308 0.19871
# Poissons Ratio (z) = 0.39222 0.29595
#
# Static dielectric constant tensor:
#      x y z
#    x 3.641790 0.000000 0.300000 
#    y 0.000000 3.906860 0.000000 
#    z 0.300000 0.000000 4.362570 
# 
# 
# High freq. dielectric constant tensor:
#      x y z
#    x 1.798000 0.000000 0.001780 
#    y 0.000000 1.824520 0.000000 
#    z 0.001780 0.000000 1.814230 
# 
# From -- ./inp_files/310227.got.cif
#   From: 2010.06.25/outbox.cif.g09.slc.cpg/sg12_156_cif.got.tgz:310227.got - 2010.06.28 00:19:55.
