data_PCOD8108236
_publ_section_title
;
Structure prediction by ZEFSAII (Michael W. Deem and Ramdas Pophale) SiO2 
 PCOD8108236
Probable space group: C 2/M
;
_chemical_formula_sum "Si O2"
_cell_formula_units_Z 40
_cell_length_a 13.104470
_cell_length_b 13.899434
_cell_length_c 16.790816
_cell_angle_alpha 90.000000
_cell_angle_beta 34.587803
_cell_angle_gamma 90.000000
_cell_volume 1736.133745
_symmetry_space_group_name_H-M "C 2/M"
_symmetry_group_IT_number 12
_symmetry_cell_setting 'monoclinic'
loop_
_space_group_symop_operation_xyz
x,y,z
-x,y,-z
-x,-y,-z
x,-y,z
1/2+x,1/2+y,z
1/2-x,1/2+y,-z
1/2-x,1/2-y,-z
1/2+x,1/2-y,z
loop_
_atom_site_type_symbol
_atom_site_label
_atom_site_fract_x
_atom_site_fract_y
_atom_site_fract_z
Si Si1 0.754454 0.890628 0.925115
Si Si2 0.460045 0.889532 0.241543
Si Si3 0.820181 0.743987 0.543928
Si Si4 0.825224 0.724844 0.763331
Si Si5 0.886825 0.111738 0.217489
O O1 0.759737 0.823799 0.844403
O O2 0.911130 0.861005 0.886474
O O3 0.784620 0.000000 0.876414
O O4 0.565408 0.879530 0.090799
O O5 0.271647 0.833478 0.349933
O O6 0.576585 0.843980 0.237347
O O7 0.421273 0.000000 0.287928
O O8 0.750000 0.750000 0.500000
O O9 0.751038 0.643044 0.624436
O O10 0.038668 0.747772 0.399339
O O11 0.654043 0.669105 0.837703
O O12 0.862411 0.000000 0.216256
#
# Coordination Sequence:
#
# PCOD8108236 Si02
#       5
#     8   8   8   8   8
#     4  10  22  42  66  92 129 171 211 258 321 379
#     4  10  21  39  63  92 127 172 213 258 317 380
#     4  10  21  38  60  92 124 172 208 254 317 383
#     4  11  22  39  64  96 128 167 212 266 319 375
#     4  11  23  40  67  99 128 162 212 269 319 377
#
# _framework density 23.0397
#
# number of rings (size 3 to 8) (size 9 to 14) (size 15 to 20)
#    0.000    1.600    4.000    1.800    0.000    6.400 
#    0.000    4.000    0.000    4.800    0.000    0.000 
#    0.000    0.000    0.000    0.000    0.000    0.000 
#
# Total GULP energy -248063.703402 kJ/mol
# GULP energy per Si atom -12403.185170 kJ/mol
# Density = 2.298726 g / cm^3
# Si number density = 23.039700 Si / 1000 Ang^3
#
#
#
# Elastic Constant Matrix: (Units=GPa)
#
#
# Indices 1 2 3 4 5 6 
#
# 1 65.9427 56.7194 15.5202 0.0005 -8.0811 -0.0001
# 2 56.7194 148.8916 56.5132 0.0009 -0.5122 -0.0002
# 3 15.5202 56.5132 110.9761 0.0047 -1.5156 -0.0008
# 4 0.0005 0.0009 0.0047 38.6595 0.0019 5.5293
# 5 -8.0811 -0.5122 -1.5156 0.0019 20.2366 -0.0013
# 6 -0.0001 -0.0002 -0.0008 5.5293 -0.0013 43.5425
#
#
#
# Elastic Compliance Matrix: (Units=1/GPa)
#
#
# Indices 1 2 3 4 5 6 
#
# 1 0.024518 -0.009985 0.001788 -0.000001 0.009672 0.000000
# 2 -0.009985 0.012392 -0.004969 0.000001 -0.004046 0.000000
# 3 0.001788 -0.004969 0.011311 -0.000001 0.001435 0.000000
# 4 -0.000001 0.000001 -0.000001 0.026345 -0.000003 -0.003345
# 5 0.009672 -0.004046 0.001435 -0.000003 0.053283 0.000002
# 6 0.000000 0.000000 0.000000 -0.003345 0.000002 0.023391
#
#
# Mechanical properties :
#
#
# Convention : Reuss Voigt Hill
#
# Bulk Modulus (GPa) = 45.68718 64.81289 55.25003
# Shear Modulus (GPa) = 27.04607 33.62490 30.33548
#
# Velocity S-wave (km/s) = 3.42992 3.82440 3.63252
# Velocity P-wave (km/s) = 5.96311 6.90604 6.45182
#
# Compressibility (1/GPa) = 0.02188798
#
# Stress axis : x y z
#
# Youngs Moduli (GPa) = 40.78670 80.69430 88.40857
#
# Poissons Ratio (x) = 0.80576 -0.15809
# Poissons Ratio (y) = 0.40727 0.43934
# Poissons Ratio (z) = -0.07293 0.40101
#
# Static dielectric constant tensor:
#      x y z
#    x 4.099570 -0.000010 -0.179560 
#    y -0.000010 4.290960 0.000020 
#    z -0.179560 0.000020 4.723840 
# 
# 
# High freq. dielectric constant tensor:
#      x y z
#    x 1.914260 0.000000 0.002340 
#    y 0.000000 1.911170 0.000000 
#    z 0.002340 0.000000 1.917210 
# 
# From -- ./inp_files/96075.got.cif
#   From: 2010.06.25/outbox.cif.g09.slc.cpg/sg12_49_cif.got.tgz:96075.got - 2010.06.28 00:19:55.
