data_PCOD8108578
_publ_section_title
;
Structure prediction by ZEFSAII (Michael W. Deem and Ramdas Pophale) SiO2 
 PCOD8108578
Probable space group: C 2/M
;
_chemical_formula_sum "Si O2"
_cell_formula_units_Z 36
_cell_length_a 19.270584
_cell_length_b 9.054305
_cell_length_c 11.355959
_cell_angle_alpha 90.000000
_cell_angle_beta 63.730468
_cell_angle_gamma 90.000000
_cell_volume 1776.771565
_symmetry_space_group_name_H-M "C 2/M"
_symmetry_group_IT_number 12
_symmetry_cell_setting 'monoclinic'
loop_
_space_group_symop_operation_xyz
x,y,z
-x,y,-z
-x,-y,-z
x,-y,z
1/2+x,1/2+y,z
1/2-x,1/2+y,-z
1/2-x,1/2-y,-z
1/2+x,1/2-y,z
loop_
_atom_site_type_symbol
_atom_site_label
_atom_site_fract_x
_atom_site_fract_y
_atom_site_fract_z
Si Si1 0.500000 0.748957 0.000000
Si Si2 0.664075 0.836420 0.865855
Si Si3 0.109710 0.163126 0.106691
Si Si4 0.271770 0.175721 0.605414
Si Si5 0.584777 0.326876 0.391601
O O1 0.573010 0.845634 0.898327
O O2 0.469663 0.653141 0.911377
O O3 0.709557 0.724932 0.748734
O O4 0.701049 0.000000 0.831699
O O5 0.669826 0.773374 0.995683
O O6 0.091681 0.221999 0.250334
O O7 0.146294 0.000000 0.086492
O O8 0.250000 0.250000 0.500000
O O9 0.356656 0.229793 0.576735
O O10 0.270300 0.000000 0.593833
O O11 0.500000 0.286532 0.500000
O O12 0.602714 0.500000 0.395334
#
# Coordination Sequence:
#
# PCOD8108578 Si02
#       5
#     4   8   8   8   8
#     4   8  20  34  62  94 128 170 210 262 312 380
#     4  10  21  38  62  92 125 164 212 263 314 374
#     4   9  19  35  61  93 127 166 210 257 311 377
#     4  12  27  45  66  93 127 170 214 267 325 385
#     4  10  23  43  66  96 131 171 215 264 320 383
#
# _framework density 20.261469000000002
#
# number of rings (size 3 to 8) (size 9 to 14) (size 15 to 20)
#    1.333    0.667    0.000    3.333    3.111    2.222 
#    0.000    0.000    0.000    0.000    0.000    0.000 
#    0.000    0.000    0.000    0.000    0.000    0.000 
#
# Total GULP energy -223034.564671 kJ/mol
# GULP energy per Si atom -12390.809148 kJ/mol
# Density = 2.021535 g / cm^3
# Si number density = 20.261469 Si / 1000 Ang^3
#
#
#
# Elastic Constant Matrix: (Units=GPa)
#
#
# Indices 1 2 3 4 5 6 
#
# 1 114.0383 53.8323 60.0173 0.0000 4.3429 0.0000
# 2 53.8323 144.5836 72.1989 0.0000 2.0742 0.0000
# 3 60.0173 72.1989 165.5856 0.0000 7.8326 0.0000
# 4 0.0000 0.0000 0.0000 33.3960 0.0000 -0.2548
# 5 4.3429 2.0742 7.8326 0.0000 41.8838 0.0000
# 6 0.0000 0.0000 0.0000 -0.2548 0.0000 27.0861
#
#
#
# Elastic Compliance Matrix: (Units=1/GPa)
#
#
# Indices 1 2 3 4 5 6 
#
# 1 0.011704 -0.002869 -0.002967 0.000000 -0.000517 0.000000
# 2 -0.002869 0.009548 -0.003143 0.000000 0.000412 0.000000
# 3 -0.002967 -0.003143 0.008539 0.000000 -0.001133 0.000000
# 4 0.000000 0.000000 0.000000 0.029946 0.000000 0.000282
# 5 -0.000517 0.000412 -0.001133 0.000000 0.024121 0.000000
# 6 0.000000 0.000000 0.000000 0.000282 0.000000 0.036922
#
#
# Mechanical properties :
#
#
# Convention : Reuss Voigt Hill
#
# Bulk Modulus (GPa) = 84.50494 88.47828 86.49161
# Shear Modulus (GPa) = 35.04309 36.35044 35.69677
#
# Velocity S-wave (km/s) = 4.16329 4.24024 4.20194
# Velocity P-wave (km/s) = 8.05657 8.23018 8.14384
#
# Compressibility (1/GPa) = 0.01183363
#
# Stress axis : x y z
#
# Youngs Moduli (GPa) = 85.43779 104.73349 117.11610
#
# Poissons Ratio (x) = 0.30047 0.34748
# Poissons Ratio (y) = 0.24511 0.36808
# Poissons Ratio (z) = 0.25349 0.32916
#
# Static dielectric constant tensor:
#      x y z
#    x 3.607520 0.000000 -0.058530 
#    y 0.000000 3.478320 0.000000 
#    z -0.058530 0.000000 3.919390 
# 
# 
# High freq. dielectric constant tensor:
#      x y z
#    x 1.787450 0.000000 0.000480 
#    y 0.000000 1.784810 0.000000 
#    z 0.000480 0.000000 1.796450 
# 
# From -- ./inp_files/151538.got.cif
#   From: 2010.06.25/outbox.cif.g09.slc.cpg/sg12_76_cif.got.tgz:151538.got - 2010.06.28 00:19:55.
