data_PCOD8108763
_publ_section_title
;
Structure prediction by ZEFSAII (Michael W. Deem and Ramdas Pophale) SiO2 
 PCOD8108763
Probable space group: C 2/M
;
_chemical_formula_sum "Si O2"
_cell_formula_units_Z 48
_cell_length_a 17.576228
_cell_length_b 17.489791
_cell_length_c 7.329600
_cell_angle_alpha 90.000000
_cell_angle_beta 75.999195
_cell_angle_gamma 90.000000
_cell_volume 2186.216506
_symmetry_space_group_name_H-M "C 2/M"
_symmetry_group_IT_number 12
_symmetry_cell_setting 'monoclinic'
loop_
_space_group_symop_operation_xyz
x,y,z
-x,y,-z
-x,-y,-z
x,-y,z
1/2+x,1/2+y,z
1/2-x,1/2+y,-z
1/2-x,1/2-y,-z
1/2+x,1/2-y,z
loop_
_atom_site_type_symbol
_atom_site_label
_atom_site_fract_x
_atom_site_fract_y
_atom_site_fract_z
Si Si1 0.775666 0.330094 0.180122
Si Si2 0.481412 0.701990 0.819737
Si Si3 0.107743 0.085044 0.603854
Si Si4 0.210992 0.410853 0.463667
Si Si5 0.135745 0.082394 0.163023
Si Si6 0.649974 0.795854 0.226160
O O1 0.814885 0.364762 0.338970
O O2 0.726938 0.395926 0.103887
O O3 0.715353 0.262031 0.268580
O O4 0.840886 0.303931 0.998448
O O5 0.554910 0.657055 0.692121
O O6 0.416695 0.639648 0.923252
O O7 0.438435 0.760591 0.702707
O O8 0.500000 0.744488 0.000000
O O9 0.196069 0.099243 0.625473
O O10 0.105510 0.084000 0.387687
O O11 0.078718 0.000000 0.687393
O O12 0.188952 0.500000 0.496902
O O13 0.159635 0.375208 0.328832
O O14 0.127043 0.000000 0.076498
#
# Coordination Sequence:
#
# PCOD8108763 Si02
#       6
#     8   8   8   8   8   8
#     4   9  19  36  58  85 123 157 198 246 294 350
#     4  11  23  35  49  81 124 160 196 233 289 357
#     4   9  19  35  56  86 122 156 190 234 293 363
#     4  10  21  38  65  93 117 154 201 249 303 355
#     4   9  18  34  55  84 120 157 193 233 293 359
#     4  10  22  38  56  86 123 162 199 245 292 358
#
# _framework density 21.955739999999999
#
# number of rings (size 3 to 8) (size 9 to 14) (size 15 to 20)
#    0.000    2.333    0.000    3.000    7.000    4.000 
#    3.000    0.000    0.000    0.500    0.000    1.167 
#    0.000    0.000    0.000    0.000    0.000    0.000 
#
# Total GULP energy -297398.576578 kJ/mol
# GULP energy per Si atom -12391.607357 kJ/mol
# Density = 2.190577 g / cm^3
# Si number density = 21.955740 Si / 1000 Ang^3
#
#
#
# Elastic Constant Matrix: (Units=GPa)
#
#
# Indices 1 2 3 4 5 6 
#
# 1 61.3501 37.7999 30.8917 0.0000 8.1474 0.0000
# 2 37.7999 117.9453 48.0230 0.0000 8.7835 0.0000
# 3 30.8917 48.0230 47.1265 0.0000 8.1470 0.0000
# 4 0.0000 0.0000 0.0000 21.0045 0.0000 2.3637
# 5 8.1474 8.7835 8.1470 0.0000 25.5429 0.0000
# 6 0.0000 0.0000 0.0000 2.3637 0.0000 31.8319
#
#
#
# Elastic Compliance Matrix: (Units=1/GPa)
#
#
# Indices 1 2 3 4 5 6 
#
# 1 0.024872 -0.002258 -0.013511 0.000000 -0.002848 0.000000
# 2 -0.002258 0.014698 -0.013492 0.000000 -0.000031 0.000000
# 3 -0.013511 -0.013492 0.044745 0.000000 -0.005322 0.000000
# 4 0.000000 0.000000 0.000000 0.048010 0.000000 -0.003565
# 5 -0.002848 -0.000031 -0.005322 0.000000 0.041766 0.000000
# 6 0.000000 0.000000 0.000000 -0.003565 0.000000 0.031680
#
#
# Mechanical properties :
#
#
# Convention : Reuss Voigt Hill
#
# Bulk Modulus (GPa) = 38.76968 51.09457 44.93212
# Shear Modulus (GPa) = 18.32237 22.98967 20.65602
#
# Velocity S-wave (km/s) = 2.89193 3.23939 3.07058
# Velocity P-wave (km/s) = 5.37098 6.10849 5.75157
#
# Compressibility (1/GPa) = 0.02579335
#
# Stress axis : x y z
#
# Youngs Moduli (GPa) = 40.20509 68.03674 22.34910
#
# Poissons Ratio (x) = 0.15364 0.30195
# Poissons Ratio (y) = 0.09079 0.30153
# Poissons Ratio (z) = 0.54320 0.91795
#
# Static dielectric constant tensor:
#      x y z
#    x 3.725160 0.000000 0.102630 
#    y 0.000000 4.101500 0.000000 
#    z 0.102630 0.000000 3.770900 
# 
# 
# High freq. dielectric constant tensor:
#      x y z
#    x 1.829260 0.000000 0.015460 
#    y 0.000000 1.855460 0.000000 
#    z 0.015460 0.000000 1.854680 
# 
# From -- ./inp_files/86805.got.cif
#   From: 2010.06.25/outbox.cif.g09.slc.cpg/sg12_44_cif.got.tgz:86805.got - 2010.06.28 00:19:55.
