data_PCOD8108174
_publ_section_title
;
Structure prediction by ZEFSAII (Michael W. Deem and Ramdas Pophale) SiO2 
 PCOD8108174
Probable space group: C 2/M
;
_chemical_formula_sum "Si O2"
_cell_formula_units_Z 56
_cell_length_a 17.809040
_cell_length_b 8.541603
_cell_length_c 28.685405
_cell_angle_alpha 90.000000
_cell_angle_beta 38.837189
_cell_angle_gamma 90.000000
_cell_volume 2736.429568
_symmetry_space_group_name_H-M "C 2/M"
_symmetry_group_IT_number 12
_symmetry_cell_setting 'monoclinic'
loop_
_space_group_symop_operation_xyz
x,y,z
-x,y,-z
-x,-y,-z
x,-y,z
1/2+x,1/2+y,z
1/2-x,1/2+y,-z
1/2-x,1/2-y,-z
1/2+x,1/2-y,z
loop_
_atom_site_type_symbol
_atom_site_label
_atom_site_fract_x
_atom_site_fract_y
_atom_site_fract_z
Si Si1 0.295555 0.317846 0.929925
Si Si2 0.992460 0.316592 0.644591
Si Si3 0.862543 0.318500 0.078808
Si Si4 0.050798 0.680294 0.790342
Si Si5 0.214365 0.180391 0.788147
Si Si6 0.850371 0.183117 0.351056
Si Si7 0.917132 0.685602 0.499047
O O1 0.273174 0.500000 0.943385
O O2 0.217337 0.251276 0.924916
O O3 0.434066 0.283697 0.855000
O O4 0.250000 0.250000 0.000000
O O5 0.020591 0.500000 0.638055
O O6 0.853515 0.279308 0.717536
O O7 0.061650 0.214872 0.648931
O O8 0.034460 0.254719 0.573911
O O9 0.833532 0.500000 0.103455
O O10 0.832209 0.214475 0.137880
O O11 0.000000 0.294119 0.000000
O O12 0.012478 0.500000 0.810102
O O13 0.145976 0.711677 0.784664
O O14 0.108348 0.719404 0.713191
O O15 0.190358 0.000000 0.787117
O O16 0.718388 0.243002 0.428480
O O17 0.850794 0.000000 0.338319
O O18 0.924327 0.500000 0.496962
O O19 0.000000 0.756606 0.500000
#
# Coordination Sequence:
#
# PCOD8108174 Si02
#       7
#     8   8   8   8   8   8   8
#     4  11  23  40  64  93 125 159 198 243 292 350
#     4  10  21  38  60  87 120 156 194 240 299 362
#     4  10  22  40  61  87 120 156 192 235 290 348
#     4  12  25  41  61  85 119 159 199 247 299 350
#     4  11  23  39  62  89 116 151 197 246 297 356
#     4  11  22  37  60  88 118 155 200 246 294 352
#     4   9  18  35  59  85 116 155 197 243 295 353
#
# _framework density 20.464624000000001
#
# number of rings (size 3 to 8) (size 9 to 14) (size 15 to 20)
#    0.000    1.429    0.000    5.571    0.000    8.286 
#    0.000    0.714    0.000    3.000    0.000    0.000 
#    0.000    0.000    0.000    0.000    0.000    0.000 
#
# Total GULP energy -347379.281970 kJ/mol
# GULP energy per Si atom -12406.402928 kJ/mol
# Density = 2.041805 g / cm^3
# Si number density = 20.464624 Si / 1000 Ang^3
#
#
#
# Elastic Constant Matrix: (Units=GPa)
#
#
# Indices 1 2 3 4 5 6 
#
# 1 147.9511 19.4497 55.7167 0.0001 9.0821 0.0001
# 2 19.4497 36.3187 13.5074 0.0003 2.1631 -0.0005
# 3 55.7167 13.5074 138.8890 -0.0004 7.8067 -0.0007
# 4 0.0001 0.0003 -0.0004 22.4914 0.0000 0.7267
# 5 9.0821 2.1631 7.8067 0.0000 44.1597 0.0007
# 6 0.0001 -0.0005 -0.0007 0.7267 0.0007 28.9146
#
#
#
# Elastic Compliance Matrix: (Units=1/GPa)
#
#
# Indices 1 2 3 4 5 6 
#
# 1 0.008381 -0.003318 -0.002981 0.000000 -0.001034 0.000000
# 2 -0.003318 0.029918 -0.001550 0.000000 -0.000509 0.000001
# 3 -0.002981 -0.001550 0.008593 0.000000 -0.000830 0.000000
# 4 0.000000 0.000000 0.000000 0.044498 0.000000 -0.001118
# 5 -0.001034 -0.000509 -0.000830 0.000000 0.023029 -0.000001
# 6 0.000000 0.000001 0.000000 -0.001118 -0.000001 0.034613
#
#
# Mechanical properties :
#
#
# Convention : Reuss Voigt Hill
#
# Bulk Modulus (GPa) = 32.05775 55.61184 43.83480
# Shear Modulus (GPa) = 28.55036 34.74548 31.64792
#
# Velocity S-wave (km/s) = 3.73917 4.12495 3.93678
# Velocity P-wave (km/s) = 5.86010 7.06544 6.49081
#
# Compressibility (1/GPa) = 0.03119370
#
# Stress axis : x y z
#
# Youngs Moduli (GPa) = 119.31093 33.42498 116.36791
#
# Poissons Ratio (x) = 0.11091 0.34695
# Poissons Ratio (y) = 0.39588 0.18036
# Poissons Ratio (z) = 0.35572 0.05181
#
# Static dielectric constant tensor:
#      x y z
#    x 3.985060 0.000010 0.039790 
#    y 0.000010 3.499580 0.000000 
#    z 0.039790 0.000000 3.878480 
# 
# 
# High freq. dielectric constant tensor:
#      x y z
#    x 1.819160 0.000000 0.000700 
#    y 0.000000 1.785110 0.000000 
#    z 0.000700 0.000000 1.818470 
# 
# From -- ./inp_files/362880.got.cif
#   From: 2010.06.25/outbox.cif.g09.slc.cpg/sg12_182_cif.got.tgz:362880.got - 2010.06.28 00:19:55.
