data_PCOD8108204
_publ_section_title
;
Structure prediction by ZEFSAII (Michael W. Deem and Ramdas Pophale) SiO2 
 PCOD8108204
Probable space group: C 2/M
;
_chemical_formula_sum "Si O2"
_cell_formula_units_Z 48
_cell_length_a 14.177484
_cell_length_b 17.328839
_cell_length_c 8.975657
_cell_angle_alpha 90.000000
_cell_angle_beta 90.375363
_cell_angle_gamma 90.000000
_cell_volume 2205.086145
_symmetry_space_group_name_H-M "C 2/M"
_symmetry_group_IT_number 12
_symmetry_cell_setting 'monoclinic'
loop_
_space_group_symop_operation_xyz
x,y,z
-x,y,-z
-x,-y,-z
x,-y,z
1/2+x,1/2+y,z
1/2-x,1/2+y,-z
1/2-x,1/2-y,-z
1/2+x,1/2-y,z
loop_
_atom_site_type_symbol
_atom_site_label
_atom_site_fract_x
_atom_site_fract_y
_atom_site_fract_z
Si Si1 0.726669 0.628592 0.516501
Si Si2 0.560489 0.584717 0.718948
Si Si3 0.810571 0.089577 0.003622
Si Si4 0.649464 0.851533 0.199362
Si Si5 0.542245 0.000000 0.274069
Si Si6 0.851696 0.500000 0.413586
Si Si7 0.386320 0.313920 0.736732
O O1 0.642521 0.583066 0.596938
O O2 0.796627 0.658422 0.643674
O O3 0.785023 0.574197 0.404491
O O4 0.681552 0.694347 0.409718
O O5 0.511751 0.500000 0.713625
O O6 0.486265 0.652094 0.683738
O O7 0.602546 0.598797 0.882905
O O8 0.839924 0.125340 0.848134
O O9 0.782732 0.000000 0.983401
O O10 0.720888 0.136432 0.064393
O O11 0.574940 0.921792 0.191784
O O12 0.597257 0.768879 0.183540
O O13 0.428331 0.000000 0.281002
O O14 0.591312 0.000000 0.432990
#
# Coordination Sequence:
#
# PCOD8108204 Si02
#       7
#     8   8   8   8   4   4   8
#     4  10  21  38  60  88 123 153 193 245 297 350
#     4  10  21  39  61  86 123 162 193 233 297 366
#     4  10  21  40  65  85 117 161 202 239 289 360
#     4  10  21  42  61  84 117 160 199 241 299 351
#     4   9  18  40  65  78 106 160 207 235 279 357
#     4   9  18  36  62  86 109 156 201 235 285 347
#     4  12  23  34  59  96 123 150 194 248 297 346
#
# _framework density 21.767858
#
# number of rings (size 3 to 8) (size 9 to 14) (size 15 to 20)
#    0.000    1.833    1.667    2.500    2.333    2.000 
#   18.000    0.000    0.000    1.000    0.000    0.000 
#    0.000    0.000    0.000    0.000    0.000    0.000 
#
# Total GULP energy -297512.406258 kJ/mol
# GULP energy per Si atom -12396.350261 kJ/mol
# Density = 2.171831 g / cm^3
# Si number density = 21.767858 Si / 1000 Ang^3
#
#
#
# Elastic Constant Matrix: (Units=GPa)
#
#
# Indices 1 2 3 4 5 6 
#
# 1 107.3930 45.9261 15.1719 0.0000 -25.3817 0.0000
# 2 45.9261 129.6153 3.1484 0.0000 -10.4820 0.0000
# 3 15.1719 3.1484 56.2401 0.0000 -3.7461 0.0000
# 4 0.0000 0.0000 0.0000 18.9934 0.0000 -3.1569
# 5 -25.3817 -10.4820 -3.7461 0.0000 17.2023 0.0000
# 6 0.0000 0.0000 0.0000 -3.1569 0.0000 21.3902
#
#
#
# Elastic Compliance Matrix: (Units=1/GPa)
#
#
# Indices 1 2 3 4 5 6 
#
# 1 0.016445 -0.004045 -0.002798 0.000000 0.021190 0.000000
# 2 -0.004045 0.009111 0.000562 0.000000 -0.000295 0.000000
# 3 -0.002798 0.000562 0.018521 0.000000 0.000246 0.000000
# 4 0.000000 0.000000 0.000000 0.053974 0.000000 0.007966
# 5 0.021190 -0.000295 0.000246 0.000000 0.089271 0.000000
# 6 0.000000 0.000000 0.000000 0.007966 0.000000 0.047926
#
#
# Mechanical properties :
#
#
# Convention : Reuss Voigt Hill
#
# Bulk Modulus (GPa) = 31.73332 46.86011 39.29672
# Shear Modulus (GPa) = 19.35610 26.78398 23.07004
#
# Velocity S-wave (km/s) = 2.98519 3.51156 3.25902
# Velocity P-wave (km/s) = 5.14699 6.16566 5.67921
#
# Compressibility (1/GPa) = 0.03151261
#
# Stress axis : x y z
#
# Youngs Moduli (GPa) = 60.80866 109.75733 53.99330
#
# Poissons Ratio (x) = 0.44400 0.15110
# Poissons Ratio (y) = 0.24599 -0.03032
# Poissons Ratio (z) = 0.17017 -0.06164
#
# Static dielectric constant tensor:
#      x y z
#    x 3.982360 0.000000 -0.071060 
#    y 0.000000 3.794530 0.000000 
#    z -0.071060 0.000000 3.749990 
# 
# 
# High freq. dielectric constant tensor:
#      x y z
#    x 1.848250 0.000000 -0.012450 
#    y 0.000000 1.851440 0.000000 
#    z -0.012450 0.000000 1.845820 
# 
# From -- ./inp_files/61767.got.cif
#   From: 2010.06.25/outbox.cif.g09.slc.cpg/sg12_31_cif.got.tgz:61767.got - 2010.06.28 00:19:55.
