data_PCOD8108122
_publ_section_title
;
Structure prediction by ZEFSAII (Michael W. Deem and Ramdas Pophale) SiO2 
 PCOD8108122
Probable space group: C 2/M
;
_chemical_formula_sum "Si O2"
_cell_formula_units_Z 48
_cell_length_a 9.062096
_cell_length_b 21.311216
_cell_length_c 10.933591
_cell_angle_alpha 90.000000
_cell_angle_beta 95.651630
_cell_angle_gamma 90.000000
_cell_volume 2101.277874
_symmetry_space_group_name_H-M "C 2/M"
_symmetry_group_IT_number 12
_symmetry_cell_setting 'monoclinic'
loop_
_space_group_symop_operation_xyz
x,y,z
-x,y,-z
-x,-y,-z
x,-y,z
1/2+x,1/2+y,z
1/2-x,1/2+y,-z
1/2-x,1/2-y,-z
1/2+x,1/2-y,z
loop_
_atom_site_type_symbol
_atom_site_label
_atom_site_fract_x
_atom_site_fract_y
_atom_site_fract_z
Si Si1 0.794550 0.701568 0.609564
Si Si2 0.324923 0.928050 0.492872
Si Si3 0.580998 0.769568 0.769820
Si Si4 0.664406 0.430882 0.234656
Si Si5 0.430392 0.350160 0.117465
Si Si6 0.157834 0.621080 0.957336
O O1 0.750000 0.750000 0.500000
O O2 0.763625 0.627871 0.576175
O O3 0.702633 0.722225 0.720522
O O4 0.968987 0.706922 0.656249
O O5 0.500000 0.924846 0.500000
O O6 0.267735 0.908831 0.354471
O O7 0.276888 0.000000 0.528410
O O8 0.511362 0.721284 0.861686
O O9 0.651600 0.824617 0.854163
O O10 0.607317 0.500000 0.254610
O O11 0.512011 0.390952 0.228092
O O12 0.760323 0.432038 0.115657
O O13 0.500000 0.376989 0.000000
O O14 0.252438 0.358841 0.085684
O O15 0.000000 0.599977 0.000000
#
# Coordination Sequence:
#
# PCOD8108122 Si02
#       6
#     8   8   8   8   8   8
#     4  12  23  37  61  91 123 159 206 258 308 365
#     4  10  21  40  64  90 124 165 208 254 309 369
#     4  12  23  38  60  90 124 156 201 252 309 363
#     4  10  22  41  63  87 119 161 204 246 301 367
#     4  10  21  38  60  85 119 159 198 244 301 364
#     4  11  22  37  60  91 125 159 199 249 304 365
#
# _framework density 22.843240999999999
#
# number of rings (size 3 to 8) (size 9 to 14) (size 15 to 20)
#    0.000    1.167    0.000    8.500    0.000    3.333 
#    0.000    0.833    0.000    8.000    0.000    2.333 
#    0.000    0.000    0.000    0.000    0.000    0.000 
#
# Total GULP energy -297317.217615 kJ/mol
# GULP energy per Si atom -12388.217401 kJ/mol
# Density = 2.279125 g / cm^3
# Si number density = 22.843241 Si / 1000 Ang^3
#
#
#
# Elastic Constant Matrix: (Units=GPa)
#
#
# Indices 1 2 3 4 5 6 
#
# 1 86.6578 28.7314 39.9138 0.0000 25.6174 0.0000
# 2 28.7314 109.5594 39.8044 0.0000 15.3779 0.0000
# 3 39.9138 39.8044 97.3903 0.0000 35.1805 0.0000
# 4 0.0000 0.0000 0.0000 33.5106 0.0000 -9.8762
# 5 25.6174 15.3779 35.1805 0.0000 48.4385 0.0000
# 6 0.0000 0.0000 0.0000 -9.8762 0.0000 9.1549
#
#
#
# Elastic Compliance Matrix: (Units=1/GPa)
#
#
# Indices 1 2 3 4 5 6 
#
# 1 0.015333 -0.001990 -0.003755 0.000000 -0.004750 0.000000
# 2 -0.001990 0.010981 -0.003787 0.000000 0.000317 0.000000
# 3 -0.003755 -0.003787 0.016543 0.000000 -0.008827 0.000000
# 4 0.000000 0.000000 0.000000 0.043752 0.000000 0.047198
# 5 -0.004750 0.000317 -0.008827 0.000000 0.029468 0.000000
# 6 0.000000 0.000000 0.000000 0.047198 0.000000 0.160148
#
#
# Mechanical properties :
#
#
# Convention : Reuss Voigt Hill
#
# Bulk Modulus (GPa) = 42.02758 56.72298 49.37528
# Shear Modulus (GPa) = 16.48979 30.56467 23.52723
#
# Velocity S-wave (km/s) = 2.68967 3.66186 3.21275
# Velocity P-wave (km/s) = 5.29943 6.53944 5.95182
#
# Compressibility (1/GPa) = 0.02379390
#
# Stress axis : x y z
#
# Youngs Moduli (GPa) = 65.21836 91.06908 60.44822
#
# Poissons Ratio (x) = 0.18124 0.22696
# Poissons Ratio (y) = 0.12979 0.22890
# Poissons Ratio (z) = 0.24487 0.34485
#
# Static dielectric constant tensor:
#      x y z
#    x 4.169300 0.000000 0.393050 
#    y 0.000000 4.183830 0.000000 
#    z 0.393050 0.000000 4.672060 
# 
# 
# High freq. dielectric constant tensor:
#      x y z
#    x 1.892870 0.000000 0.026400 
#    y 0.000000 1.902740 0.000000 
#    z 0.026400 0.000000 1.909630 
# 
# From -- ./inp_files/122018.got.cif
#   From: 2010.06.25/outbox.cif.g09.slc.cpg/sg12_62_cif.got.tgz:122018.got - 2010.06.28 00:19:55.
