data_PCOD8108949
_publ_section_title
;
Structure prediction by ZEFSAII (Michael W. Deem and Ramdas Pophale) SiO2 
 PCOD8108949
Probable space group: C 2/M
;
_chemical_formula_sum "Si O2"
_cell_formula_units_Z 48
_cell_length_a 17.403136
_cell_length_b 14.747302
_cell_length_c 16.697804
_cell_angle_alpha 90.000000
_cell_angle_beta 33.515212
_cell_angle_gamma 90.000000
_cell_volume 2366.263478
_symmetry_space_group_name_H-M "C 2/M"
_symmetry_group_IT_number 12
_symmetry_cell_setting 'monoclinic'
loop_
_space_group_symop_operation_xyz
x,y,z
-x,y,-z
-x,-y,-z
x,-y,z
1/2+x,1/2+y,z
1/2-x,1/2+y,-z
1/2-x,1/2-y,-z
1/2+x,1/2-y,z
loop_
_atom_site_type_symbol
_atom_site_label
_atom_site_fract_x
_atom_site_fract_y
_atom_site_fract_z
Si Si1 0.035950 0.603244 0.341409
Si Si2 0.611554 0.775528 0.966349
Si Si3 0.671928 0.897175 0.058885
Si Si4 0.459484 0.604144 0.877103
Si Si5 0.745681 0.313326 0.581043
Si Si6 0.144301 0.245176 0.355000
O O1 0.070288 0.500000 0.330282
O O2 0.117713 0.636599 0.191786
O O3 0.091225 0.657137 0.369953
O O4 0.872244 0.616208 0.467594
O O5 0.762824 0.796535 0.796333
O O6 0.500000 0.811634 0.000000
O O7 0.599937 0.832935 0.056999
O O8 0.579132 0.669800 0.014544
O O9 0.624762 0.000000 0.082288
O O10 0.839193 0.887694 0.914218
O O11 0.467698 0.500000 0.901701
O O12 0.601968 0.631916 0.709800
O O13 0.750000 0.250000 0.500000
O O14 0.760732 0.253008 0.648448
O O15 0.000000 0.189358 0.500000
#
# Coordination Sequence:
#
# PCOD8108949 Si02
#       6
#     8   8   8   8   8   8
#     4  10  21  39  60  87 121 158 200 248 303 365
#     4  12  23  40  63  90 123 161 205 254 310 364
#     4  10  23  41  65  90 120 164 208 253 306 363
#     4  11  23  39  62  95 125 159 200 253 312 368
#     4  11  23  38  59  88 124 163 199 247 303 365
#     4  10  23  37  57  89 114 161 201 244 304 363
#
# _framework density 20.285146000000001
#
# number of rings (size 3 to 8) (size 9 to 14) (size 15 to 20)
#    0.000    1.333    3.333    2.000    4.667    4.333 
#    0.000    0.000    0.000    0.500    0.000    0.000 
#    0.000    0.000    0.000    0.000    0.000    0.000 
#
# Total GULP energy -297536.641940 kJ/mol
# GULP energy per Si atom -12397.360081 kJ/mol
# Density = 2.023898 g / cm^3
# Si number density = 20.285146 Si / 1000 Ang^3
#
#
#
# Elastic Constant Matrix: (Units=GPa)
#
#
# Indices 1 2 3 4 5 6 
#
# 1 109.1196 32.7420 20.8898 -0.0001 6.6297 0.0000
# 2 32.7420 46.4963 22.4601 -0.0001 7.1210 0.0000
# 3 20.8898 22.4601 121.5058 -0.0003 -4.5752 0.0001
# 4 -0.0001 -0.0001 -0.0003 25.1187 0.0001 -0.9461
# 5 6.6297 7.1210 -4.5752 0.0001 33.3758 0.0000
# 6 0.0000 0.0000 0.0001 -0.9461 0.0000 17.7733
#
#
#
# Elastic Compliance Matrix: (Units=1/GPa)
#
#
# Indices 1 2 3 4 5 6 
#
# 1 0.011668 -0.007821 -0.000588 0.000000 -0.000730 0.000000
# 2 -0.007821 0.029974 -0.004401 0.000000 -0.005445 0.000000
# 3 -0.000588 -0.004401 0.009232 0.000000 0.002321 0.000000
# 4 0.000000 0.000000 0.000000 0.039891 0.000000 0.002123
# 5 -0.000730 -0.005445 0.002321 0.000000 0.031587 0.000000
# 6 0.000000 0.000000 0.000000 0.002123 0.000000 0.056377
#
#
# Mechanical properties :
#
#
# Convention : Reuss Voigt Hill
#
# Bulk Modulus (GPa) = 39.59632 47.70062 43.64847
# Shear Modulus (GPa) = 23.49999 28.65553 26.07776
#
# Velocity S-wave (km/s) = 3.40734 3.76258 3.58936
# Velocity P-wave (km/s) = 5.91965 6.51476 6.22432
#
# Compressibility (1/GPa) = 0.02525488
#
# Stress axis : x y z
#
# Youngs Moduli (GPa) = 85.70657 33.36216 108.31804
#
# Poissons Ratio (x) = 0.26091 0.06367
# Poissons Ratio (y) = 0.67027 0.47672
# Poissons Ratio (z) = 0.05038 0.14683
#
# Static dielectric constant tensor:
#      x y z
#    x 3.579640 0.000000 -0.112960 
#    y 0.000000 3.350200 0.000000 
#    z -0.112960 0.000000 4.108860 
# 
# 
# High freq. dielectric constant tensor:
#      x y z
#    x 1.792490 0.000000 -0.004950 
#    y 0.000000 1.752900 0.000000 
#    z -0.004950 0.000000 1.819460 
# 
# From -- ./inp_files/216504.got.cif
#   From: 2010.06.25/outbox.cif.g09.slc.cpg/sg12_109_cif.got.tgz:216504.got - 2010.06.28 00:19:55.
