data_PCOD8108976
_publ_section_title
;
Structure prediction by ZEFSAII (Michael W. Deem and Ramdas Pophale) SiO2 
 PCOD8108976
Probable space group: C 2/M
;
_chemical_formula_sum "Si O2"
_cell_formula_units_Z 48
_cell_length_a 27.203837
_cell_length_b 8.859696
_cell_length_c 15.472519
_cell_angle_alpha 90.000000
_cell_angle_beta 139.170695
_cell_angle_gamma 90.000000
_cell_volume 2438.147854
_symmetry_space_group_name_H-M "C 2/M"
_symmetry_group_IT_number 12
_symmetry_cell_setting 'monoclinic'
loop_
_space_group_symop_operation_xyz
x,y,z
-x,y,-z
-x,-y,-z
x,-y,z
1/2+x,1/2+y,z
1/2-x,1/2+y,-z
1/2-x,1/2-y,-z
1/2+x,1/2-y,z
loop_
_atom_site_type_symbol
_atom_site_label
_atom_site_fract_x
_atom_site_fract_y
_atom_site_fract_z
Si Si1 0.915235 0.322597 0.547860
Si Si2 0.830845 0.322470 0.608836
Si Si3 0.170697 0.175704 0.723869
Si Si4 0.074380 0.174604 0.764775
Si Si5 0.085331 0.678725 0.108818
Si Si6 0.831883 0.823031 0.941844
O O1 0.906617 0.500000 0.519184
O O2 0.877598 0.272460 0.587477
O O3 0.874749 0.231293 0.419081
O O4 0.002345 0.281016 0.667863
O O5 0.820783 0.500000 0.598565
O O6 0.750000 0.250000 0.500000
O O7 0.874284 0.263539 0.750898
O O8 0.121334 0.209292 0.741895
O O9 0.247910 0.263392 0.836440
O O10 0.188616 0.000000 0.736844
O O11 0.049286 0.000000 0.735290
O O12 0.125054 0.220266 0.913505
O O13 0.089265 0.500000 0.104597
O O14 0.125326 0.749869 0.080489
O O15 0.000000 0.735970 0.000000
O O16 0.828631 0.000000 0.922557
#
# Coordination Sequence:
#
# PCOD8108976 Si02
#       6
#     8   8   8   8   8   8
#     4  11  23  39  61  89 118 150 193 242 289 341
#     4  10  22  38  57  83 114 149 188 232 283 339
#     4  11  23  40  61  85 117 156 195 236 288 348
#     4  10  23  41  60  85 118 155 193 236 289 347
#     4  10  21  39  61  84 113 152 195 236 285 345
#     4  11  23  39  60  88 119 151 194 244 290 339
#
# _framework density 19.687073999999999
#
# number of rings (size 3 to 8) (size 9 to 14) (size 15 to 20)
#    0.000    1.500    0.000    4.500    0.000   11.000 
#    0.000    0.000    0.000    0.000    0.000    0.000 
#    0.000    0.000    0.000    0.000    0.000    0.000 
#
# Total GULP energy -297743.579390 kJ/mol
# GULP energy per Si atom -12405.982475 kJ/mol
# Density = 1.964227 g / cm^3
# Si number density = 19.687074 Si / 1000 Ang^3
#
#
#
# Elastic Constant Matrix: (Units=GPa)
#
#
# Indices 1 2 3 4 5 6 
#
# 1 52.3557 -100.6269 -21.2460 0.0000 -18.0725 0.0000
# 2 -100.6269 -160.8605 -110.6988 0.0000 -12.1691 0.0000
# 3 -21.2460 -110.6988 64.9431 0.0000 -14.3963 0.0000
# 4 0.0000 0.0000 0.0000 37.5151 0.0000 4.5623
# 5 -18.0725 -12.1691 -14.3963 0.0000 46.8221 0.0000
# 6 0.0000 0.0000 0.0000 4.5623 0.0000 46.6113
#
#
#
# Elastic Compliance Matrix: (Units=1/GPa)
#
#
# Indices 1 2 3 4 5 6 
#
# 1 0.010258 -0.004207 -0.003412 0.000000 0.001817 0.000000
# 2 -0.004207 -0.000904 -0.003572 0.000000 -0.002957 0.000000
# 3 -0.003412 -0.003572 0.008259 0.000000 0.000294 0.000000
# 4 0.000000 0.000000 0.000000 0.026977 0.000000 -0.002641
# 5 0.001817 -0.002957 0.000294 0.000000 0.021381 0.000000
# 6 0.000000 0.000000 0.000000 -0.002641 0.000000 0.021712
#
#
# Mechanical properties :
#
#
# Convention : Reuss Voigt Hill
#
# Bulk Modulus (GPa) = -209.80302 -56.52280 -133.16291
# Shear Modulus (GPa) = 46.09362 38.79036 42.44199
#
# Velocity S-wave (km/s) = 4.84396 4.44367 4.64813
# Velocity P-wave (km/s) = 8.68994 1.56353 6.24338
#
# Compressibility (1/GPa) = -0.00476638
#
# Stress axis : x y z
#
# Youngs Moduli (GPa) = 97.48554 -1106.77243 121.07914
#
# Poissons Ratio (x) = -4.65572 0.41308
# Poissons Ratio (y) = 0.41008 0.43246
# Poissons Ratio (z) = 0.33259 -3.95307
#
# Static dielectric constant tensor:
#      x y z
#    x 3.747470 0.000000 -0.087280 
#    y 0.000000 3.568310 0.000000 
#    z -0.087280 0.000000 3.849600 
# 
# 
# High freq. dielectric constant tensor:
#      x y z
#    x 1.787540 0.000000 -0.002220 
#    y 0.000000 1.768200 0.000000 
#    z -0.002220 0.000000 1.788930 
# 
# From -- ./inp_files/244671.got.cif
#   From: 2010.06.25/outbox.cif.g09.slc.cpg/sg12_123_cif.got.tgz:244671.got - 2010.06.28 00:19:55.
