data_PCOD8108470
_publ_section_title
;
Structure prediction by ZEFSAII (Michael W. Deem and Ramdas Pophale) SiO2 
 PCOD8108470
Probable space group: C 2/M
;
_chemical_formula_sum "Si O2"
_cell_formula_units_Z 64
_cell_length_a 29.577134
_cell_length_b 13.783100
_cell_length_c 21.745265
_cell_angle_alpha 90.000000
_cell_angle_beta 158.107656
_cell_angle_gamma 90.000000
_cell_volume 3305.353563
_symmetry_space_group_name_H-M "C 2/M"
_symmetry_group_IT_number 12
_symmetry_cell_setting 'monoclinic'
loop_
_space_group_symop_operation_xyz
x,y,z
-x,y,-z
-x,-y,-z
x,-y,z
1/2+x,1/2+y,z
1/2-x,1/2+y,-z
1/2-x,1/2-y,-z
1/2+x,1/2-y,z
loop_
_atom_site_type_symbol
_atom_site_label
_atom_site_fract_x
_atom_site_fract_y
_atom_site_fract_z
Si Si1 0.230082 0.220992 0.266566
Si Si2 0.687857 0.110792 0.382401
Si Si3 0.141751 0.607546 0.671329
Si Si4 0.175482 0.886960 0.323501
Si Si5 0.526038 0.254468 0.909524
Si Si6 0.274704 0.263842 0.934793
Si Si7 0.854295 0.114136 0.148797
Si Si8 0.363187 0.389667 0.493432
O O1 0.318596 0.143928 0.345820
O O2 0.198787 0.175904 0.292675
O O3 0.299772 0.322302 0.362869
O O4 0.110147 0.245356 0.076069
O O5 0.725893 0.141264 0.499741
O O6 0.576410 0.172004 0.215200
O O7 0.805118 0.125686 0.487335
O O8 0.644737 0.000000 0.327371
O O9 0.197392 0.500000 0.751857
O O10 0.188057 0.684561 0.777861
O O11 0.000000 0.602367 0.500000
O O12 0.041357 0.858833 0.178713
O O13 0.178425 0.000000 0.311688
O O14 0.599807 0.236567 0.940074
O O15 0.209397 0.164780 0.873218
O O16 0.293270 0.340481 0.012071
O O17 0.996038 0.137967 0.325755
O O18 0.827227 0.000000 0.117367
O O19 0.346330 0.500000 0.449563
#
# Coordination Sequence:
#
# PCOD8108470 Si02
#       8
#     8   8   8   8   8   8   8   8
#     4  11  23  37  60  88 123 157 200 247 301 357
#     4  10  22  39  60  87 120 159 202 246 302 358
#     4  10  21  39  59  83 118 158 199 243 299 364
#     4  11  23  38  59  89 121 159 201 249 300 358
#     4  11  23  38  58  87 123 160 192 245 302 364
#     4  10  22  37  61  87 117 160 194 244 305 357
#     4  10  21  39  61  89 117 150 203 253 296 353
#     4  10  21  38  62  86 116 160 203 248 297 356
#
# _framework density 19.362528000000001
#
# number of rings (size 3 to 8) (size 9 to 14) (size 15 to 20)
#    0.000    1.625    1.250    3.000    1.750    5.500 
#    0.000    3.125    0.000    6.750    0.000    0.000 
#    0.000    0.000    0.000    0.000    0.000    0.000 
#
# Total GULP energy -396816.802224 kJ/mol
# GULP energy per Si atom -12400.525069 kJ/mol
# Density = 1.931846 g / cm^3
# Si number density = 19.362528 Si / 1000 Ang^3
#
#
#
# Elastic Constant Matrix: (Units=GPa)
#
#
# Indices 1 2 3 4 5 6 
#
# 1 105.4235 56.3581 42.6729 0.0000 13.6426 0.0000
# 2 56.3581 116.3790 50.9835 0.0000 4.8569 0.0000
# 3 42.6729 50.9835 80.5127 0.0000 7.6575 0.0000
# 4 0.0000 0.0000 0.0000 47.5095 0.0000 20.6911
# 5 13.6426 4.8569 7.6575 0.0000 31.5568 0.0000
# 6 0.0000 0.0000 0.0000 20.6911 0.0000 47.6281
#
#
#
# Elastic Compliance Matrix: (Units=1/GPa)
#
#
# Indices 1 2 3 4 5 6 
#
# 1 0.014369 -0.005012 -0.004017 0.000000 -0.004466 0.000000
# 2 -0.005012 0.013640 -0.006128 0.000000 0.001555 0.000000
# 3 -0.004017 -0.006128 0.018605 0.000000 -0.001835 0.000000
# 4 0.000000 0.000000 0.000000 0.025960 0.000000 -0.011278
# 5 -0.004466 0.001555 -0.001835 0.000000 0.033825 0.000000
# 6 0.000000 0.000000 0.000000 -0.011278 0.000000 0.025895
#
#
# Mechanical properties :
#
#
# Convention : Reuss Voigt Hill
#
# Bulk Modulus (GPa) = 61.35765 66.92712 64.14239
# Shear Modulus (GPa) = 29.75436 35.49227 32.62331
#
# Velocity S-wave (km/s) = 3.92433 4.28605 4.10917
# Velocity P-wave (km/s) = 7.23128 7.68986 7.46409
#
# Compressibility (1/GPa) = 0.01629789
#
# Stress axis : x y z
#
# Youngs Moduli (GPa) = 69.59470 73.31536 53.74955
#
# Poissons Ratio (x) = 0.36747 0.21592
# Poissons Ratio (y) = 0.34882 0.32940
# Poissons Ratio (z) = 0.27957 0.44931
#
# Static dielectric constant tensor:
#      x y z
#    x 3.995380 0.000000 0.212790 
#    y 0.000000 3.775860 0.000000 
#    z 0.212790 0.000000 3.565960 
# 
# 
# High freq. dielectric constant tensor:
#      x y z
#    x 1.760370 0.000000 0.002580 
#    y 0.000000 1.764730 0.000000 
#    z 0.002580 0.000000 1.755300 
# 
# From -- ./inp_files/330392.got.cif
#   From: 2010.06.25/outbox.cif.g09.slc.cpg/sg12_166_cif.got.tgz:330392.got - 2010.06.28 00:19:55.
