data_PCOD8108031
_publ_section_title
;
Structure prediction by ZEFSAII (Michael W. Deem and Ramdas Pophale) SiO2 
 PCOD8108031
Probable space group: C 2/M
;
_chemical_formula_sum "Si O2"
_cell_formula_units_Z 44
_cell_length_a 26.016196
_cell_length_b 16.911210
_cell_length_c 6.840908
_cell_angle_alpha 90.000000
_cell_angle_beta 49.627649
_cell_angle_gamma 90.000000
_cell_volume 2292.990516
_symmetry_space_group_name_H-M "C 2/M"
_symmetry_group_IT_number 12
_symmetry_cell_setting 'monoclinic'
loop_
_space_group_symop_operation_xyz
x,y,z
-x,y,-z
-x,-y,-z
x,-y,z
1/2+x,1/2+y,z
1/2-x,1/2+y,-z
1/2-x,1/2-y,-z
1/2+x,1/2-y,z
loop_
_atom_site_type_symbol
_atom_site_label
_atom_site_fract_x
_atom_site_fract_y
_atom_site_fract_z
Si Si1 0.172612 0.324733 0.846803
Si Si2 0.054292 0.091218 0.024838
Si Si3 0.500000 0.306192 0.500000
Si Si4 0.120695 0.282853 0.385717
Si Si5 0.676793 0.324508 0.569297
Si Si6 0.421535 0.907917 0.202694
O O1 0.247380 0.358669 0.619573
O O2 0.164854 0.240144 0.765409
O O3 0.115672 0.385091 0.908411
O O4 0.164347 0.312343 0.096730
O O5 0.127422 0.103786 0.746936
O O6 0.044832 0.000000 0.101576
O O7 0.045054 0.140255 0.246085
O O8 0.000000 0.120230 0.000000
O O9 0.452207 0.249224 0.494205
O O10 0.160417 0.213039 0.398650
O O11 0.113155 0.359431 0.539423
O O12 0.411630 0.000000 0.270466
O O13 0.500000 0.885206 0.000000
#
# Coordination Sequence:
#
# PCOD8108031 Si02
#       6
#     8   8   4   8   8   8
#     4  10  21  38  62  85 114 157 194 241 294 347
#     4  11  23  39  58  85 122 159 194 244 296 347
#     4  12  21  36  63  90 118 158 204 240 291 356
#     4  11  21  35  63  89 117 152 200 246 291 341
#     4  10  21  38  59  86 118 152 199 241 289 348
#     4  10  23  40  58  87 122 153 192 241 297 355
#
# _framework density 19.188917
#
# number of rings (size 3 to 8) (size 9 to 14) (size 15 to 20)
#    0.000    1.455    3.636    1.909    2.545    1.455 
#    0.000    2.273    0.000    0.000    0.000    0.000 
#    0.000    0.000    0.000    0.000    0.000    0.000 
#
# Total GULP energy -272886.883005 kJ/mol
# GULP energy per Si atom -12403.949228 kJ/mol
# Density = 1.914524 g / cm^3
# Si number density = 19.188917 Si / 1000 Ang^3
#
#
#
# Elastic Constant Matrix: (Units=GPa)
#
#
# Indices 1 2 3 4 5 6 
#
# 1 102.9966 20.3866 34.1530 0.0000 -12.0873 0.0000
# 2 20.3866 52.5043 24.7539 0.0000 -1.8558 0.0000
# 3 34.1530 24.7539 97.9430 0.0000 4.4910 0.0000
# 4 0.0000 0.0000 0.0000 15.3356 0.0000 -0.5720
# 5 -12.0873 -1.8558 4.4910 0.0000 39.4681 0.0000
# 6 0.0000 0.0000 0.0000 -0.5720 0.0000 17.4476
#
#
#
# Elastic Compliance Matrix: (Units=1/GPa)
#
#
# Indices 1 2 3 4 5 6 
#
# 1 0.011927 -0.002777 -0.003638 0.000000 0.003936 0.000000
# 2 -0.002777 0.022376 -0.004721 0.000000 0.000739 0.000000
# 3 -0.003638 -0.004721 0.012800 0.000000 -0.002792 0.000000
# 4 0.000000 0.000000 0.000000 0.065288 0.000000 0.002140
# 5 0.003936 0.000739 -0.002792 0.000000 0.026895 0.000000
# 6 0.000000 0.000000 0.000000 0.002140 0.000000 0.057385
#
#
# Mechanical properties :
#
#
# Convention : Reuss Voigt Hill
#
# Bulk Modulus (GPa) = 40.27077 45.78121 43.02599
# Shear Modulus (GPa) = 22.00532 26.06028 24.03280
#
# Velocity S-wave (km/s) = 3.39008 3.68923 3.54281
# Velocity P-wave (km/s) = 6.02955 6.48515 6.26150
#
# Compressibility (1/GPa) = 0.02483191
#
# Stress axis : x y z
#
# Youngs Moduli (GPa) = 83.84471 44.69053 78.12721
#
# Poissons Ratio (x) = 0.12410 0.28419
# Poissons Ratio (y) = 0.23283 0.36883
# Poissons Ratio (z) = 0.30499 0.21098
#
# Static dielectric constant tensor:
#      x y z
#    x 3.737510 0.000000 0.030040 
#    y 0.000000 3.262550 0.000000 
#    z 0.030040 0.000000 3.442790 
# 
# 
# High freq. dielectric constant tensor:
#      x y z
#    x 1.758970 0.000000 0.000120 
#    y 0.000000 1.729010 0.000000 
#    z 0.000120 0.000000 1.751900 
# 
# From -- ./inp_files/20469.got.cif
#   From: 2010.06.25/outbox.cif.g09.slc.cpg/sg12_11_cif.got.tgz:20469.got - 2010.06.28 00:19:55.
