data_PCOD8108285
_publ_section_title
;
Structure prediction by ZEFSAII (Michael W. Deem and Ramdas Pophale) SiO2 
 PCOD8108285
Probable space group: C 2/M
;
_chemical_formula_sum "Si O2"
_cell_formula_units_Z 48
_cell_length_a 19.301185
_cell_length_b 9.169581
_cell_length_c 25.830297
_cell_angle_alpha 90.000000
_cell_angle_beta 32.968449
_cell_angle_gamma 90.000000
_cell_volume 2487.729433
_symmetry_space_group_name_H-M "C 2/M"
_symmetry_group_IT_number 12
_symmetry_cell_setting 'monoclinic'
loop_
_space_group_symop_operation_xyz
x,y,z
-x,y,-z
-x,-y,-z
x,-y,z
1/2+x,1/2+y,z
1/2-x,1/2+y,-z
1/2-x,1/2-y,-z
1/2+x,1/2-y,z
loop_
_atom_site_type_symbol
_atom_site_label
_atom_site_fract_x
_atom_site_fract_y
_atom_site_fract_z
Si Si1 0.143780 0.833954 0.915885
Si Si2 0.569620 0.830291 0.578353
Si Si3 0.645357 0.665820 0.033718
Si Si4 0.189212 0.831284 0.269724
Si Si5 0.809630 0.331657 0.389397
Si Si6 0.099780 0.667035 0.779747
O O1 0.236695 0.731484 0.825816
O O2 0.153668 0.000000 0.888802
O O3 0.186350 0.824798 0.948474
O O4 0.000000 0.776222 0.000000
O O5 0.442932 0.750580 0.639528
O O6 0.685911 0.768197 0.472134
O O7 0.592921 0.802050 0.624736
O O8 0.555766 0.000000 0.574697
O O9 0.641229 0.500000 0.055541
O O10 0.506210 0.732223 0.128427
O O11 0.750000 0.750000 0.000000
O O12 0.268951 0.808158 0.272085
O O13 0.161856 0.000000 0.275961
O O14 0.765488 0.500000 0.416348
O O15 0.881094 0.288730 0.291919
O O16 0.054213 0.500000 0.812862
#
# Coordination Sequence:
#
# PCOD8108285 Si02
#       6
#     8   8   8   8   8   8
#     4  10  21  40  61  82 115 156 194 235 286 340
#     4  10  21  38  61  87 115 149 191 238 290 348
#     4  11  24  40  60  86 118 154 193 240 287 341
#     4  11  23  37  59  88 118 152 194 241 286 341
#     4   9  20  40  62  83 113 151 191 236 288 345
#     4  10  22  40  60  85 117 154 194 239 289 340
#
# _framework density 19.294703999999999
#
# number of rings (size 3 to 8) (size 9 to 14) (size 15 to 20)
#    0.000    1.833    1.667    1.500    2.333    4.333 
#    0.000    3.333    0.000    0.000    0.000    0.000 
#    0.000    0.000    0.000    0.000    0.000    0.000 
#
# Total GULP energy -297735.555994 kJ/mol
# GULP energy per Si atom -12405.648166 kJ/mol
# Density = 1.925079 g / cm^3
# Si number density = 19.294704 Si / 1000 Ang^3
#
#
#
# Elastic Constant Matrix: (Units=GPa)
#
#
# Indices 1 2 3 4 5 6 
#
# 1 69.6329 35.4248 14.9908 -0.0013 -5.1534 0.0022
# 2 35.4248 108.7866 38.9745 -0.0010 -9.4838 0.0017
# 3 14.9908 38.9745 53.1917 -0.0005 -1.8783 0.0005
# 4 -0.0013 -0.0010 -0.0005 38.9077 0.0000 -4.9397
# 5 -5.1534 -9.4838 -1.8783 0.0000 36.6674 0.0002
# 6 0.0022 0.0017 0.0005 -4.9397 0.0002 32.7969
#
#
#
# Elastic Compliance Matrix: (Units=1/GPa)
#
#
# Indices 1 2 3 4 5 6 
#
# 1 0.017291 -0.005162 -0.001054 0.000000 0.001041 -0.000001
# 2 -0.005162 0.014291 -0.008928 0.000000 0.002513 0.000000
# 3 -0.001054 -0.008928 0.025598 0.000000 -0.001146 0.000000
# 4 0.000000 0.000000 0.000000 0.026203 0.000000 0.003947
# 5 0.001041 0.002513 -0.001146 0.000000 0.028010 0.000000
# 6 -0.000001 0.000000 0.000000 0.003947 0.000000 0.031085
#
#
# Mechanical properties :
#
#
# Convention : Reuss Voigt Hill
#
# Bulk Modulus (GPa) = 37.18509 45.59906 41.39207
# Shear Modulus (GPa) = 27.51343 31.15579 29.33461
#
# Velocity S-wave (km/s) = 3.78028 4.02273 3.90339
# Velocity P-wave (km/s) = 6.19420 6.72761 6.46641
#
# Compressibility (1/GPa) = 0.02689250
#
# Stress axis : x y z
#
# Youngs Moduli (GPa) = 57.83284 69.97466 39.06584
#
# Poissons Ratio (x) = 0.36123 0.04117
# Poissons Ratio (y) = 0.29855 0.34876
# Poissons Ratio (z) = 0.06095 0.62470
#
# Static dielectric constant tensor:
#      x y z
#    x 3.621490 -0.000010 0.017330 
#    y -0.000010 3.684740 0.000000 
#    z 0.017330 0.000000 3.448710 
# 
# 
# High freq. dielectric constant tensor:
#      x y z
#    x 1.758990 0.000000 -0.001160 
#    y 0.000000 1.757940 0.000000 
#    z -0.001160 0.000000 1.748530 
# 
# From -- ./inp_files/365353.got.cif
#   From: 2010.06.25/outbox.cif.g09.slc.cpg/sg12_183_cif.got.tgz:365353.got - 2010.06.28 00:19:55.
