data_PCOD8108596
_publ_section_title
;
Structure prediction by ZEFSAII (Michael W. Deem and Ramdas Pophale) SiO2 
 PCOD8108596
Probable space group: C 2/M
;
_chemical_formula_sum "Si O2"
_cell_formula_units_Z 40
_cell_length_a 29.924034
_cell_length_b 7.638054
_cell_length_c 14.971252
_cell_angle_alpha 90.000000
_cell_angle_beta 145.327512
_cell_angle_gamma 90.000000
_cell_volume 1946.638133
_symmetry_space_group_name_H-M "C 2/M"
_symmetry_group_IT_number 12
_symmetry_cell_setting 'monoclinic'
loop_
_space_group_symop_operation_xyz
x,y,z
-x,y,-z
-x,-y,-z
x,-y,z
1/2+x,1/2+y,z
1/2-x,1/2+y,-z
1/2-x,1/2-y,-z
1/2+x,1/2-y,z
loop_
_atom_site_type_symbol
_atom_site_label
_atom_site_fract_x
_atom_site_fract_y
_atom_site_fract_z
Si Si1 0.780089 0.695579 0.280527
Si Si2 0.515045 0.705622 0.125537
Si Si3 0.386550 0.500000 0.384327
Si Si4 0.940865 0.000000 0.271945
Si Si5 0.109957 0.304050 0.939546
Si Si6 0.312885 0.296487 0.529277
O O1 0.795133 0.500000 0.268022
O O2 0.794011 0.690889 0.409132
O O3 0.838647 0.825364 0.326666
O O4 0.691211 0.750232 0.117679
O O5 0.500083 0.500000 0.112642
O O6 0.455433 0.805417 0.091431
O O7 0.602709 0.760746 0.295406
O O8 0.500000 0.766815 0.000000
O O9 0.405777 0.500000 0.312329
O O10 0.464704 0.500000 0.573008
O O11 0.911445 0.825498 0.175528
O O12 0.115938 0.500000 0.909504
O O13 0.310707 0.500000 0.501281
O O14 0.250000 0.250000 0.500000
#
# Coordination Sequence:
#
# PCOD8108596 Si02
#       6
#     8   8   4   4   8   8
#     4  12  24  44  69  99 136 178 225 279 334 400
#     4  10  21  38  62  93 134 181 220 271 331 391
#     4  11  26  48  72 100 134 179 221 275 347 409
#     4  11  26  48  71 100 139 169 221 289 338 401
#     4  12  24  43  70 101 134 177 225 280 338 402
#     4  11  22  37  61  95 137 180 226 273 325 396
#
# _framework density 20.548247
#
# number of rings (size 3 to 8) (size 9 to 14) (size 15 to 20)
#    0.000    0.800    4.000    3.000    0.000    7.600 
#    0.000    2.000    0.000    0.000    0.000    0.000 
#    0.000    0.000    0.000    0.000    0.000    0.000 
#
# Total GULP energy -248131.585935 kJ/mol
# GULP energy per Si atom -12406.579297 kJ/mol
# Density = 2.050148 g / cm^3
# Si number density = 20.548247 Si / 1000 Ang^3
#
#
#
# Elastic Constant Matrix: (Units=GPa)
#
#
# Indices 1 2 3 4 5 6 
#
# 1 94.3845 40.3897 57.0746 0.0000 11.8704 0.0000
# 2 40.3897 153.3703 60.0282 0.0000 4.9528 0.0000
# 3 57.0746 60.0282 177.2090 0.0000 11.8781 0.0000
# 4 0.0000 0.0000 0.0000 25.9381 0.0000 -5.5972
# 5 11.8704 4.9528 11.8781 0.0000 38.9225 0.0000
# 6 0.0000 0.0000 0.0000 -5.5972 0.0000 0.7593
#
#
#
# Elastic Compliance Matrix: (Units=1/GPa)
#
#
# Indices 1 2 3 4 5 6 
#
# 1 0.014078 -0.002208 -0.003591 0.000000 -0.002917 0.000000
# 2 -0.002208 0.007864 -0.001971 0.000000 0.000274 0.000000
# 3 -0.003591 -0.001971 0.007531 0.000000 -0.000952 0.000000
# 4 0.000000 0.000000 0.000000 -0.065265 0.000000 -0.481108
# 5 -0.002917 0.000274 -0.000952 0.000000 0.026837 0.000000
# 6 0.000000 0.000000 0.000000 -0.481108 0.000000 -2.229519
#
#
# Mechanical properties :
#
#
# Convention : Reuss Voigt Hill
#
# Bulk Modulus (GPa) = 71.76862 82.21652 76.99257
# Shear Modulus (GPa) = -2.25399 30.95540 14.35070
#
# Velocity S-wave (km/s) = -1.04848 3.88554 2.64558
# Velocity P-wave (km/s) = 5.79111 7.76069 6.84709
#
# Compressibility (1/GPa) = 0.01393367
#
# Stress axis : x y z
#
# Youngs Moduli (GPa) = 71.03329 127.15733 132.78211
#
# Poissons Ratio (x) = 0.28074 0.47679
# Poissons Ratio (y) = 0.15683 0.26175
# Poissons Ratio (z) = 0.25506 0.25066
#
# Static dielectric constant tensor:
#      x y z
#    x 3.582710 0.000000 0.046450 
#    y 0.000000 3.786670 0.000000 
#    z 0.046450 0.000000 4.021880 
# 
# 
# High freq. dielectric constant tensor:
#      x y z
#    x 1.801950 0.000000 0.005770 
#    y 0.000000 1.814850 0.000000 
#    z 0.005770 0.000000 1.823580 
# 
# From -- ./inp_files/249534.got.cif
#   From: 2010.06.25/outbox.cif.g09.slc.cpg/sg12_125_cif.got.tgz:249534.got - 2010.06.28 00:19:55.
