data_PCOD8108995
_publ_section_title
;
Structure prediction by ZEFSAII (Michael W. Deem and Ramdas Pophale) SiO2 
 PCOD8108995
Probable space group: C 2/M
;
_chemical_formula_sum "Si O2"
_cell_formula_units_Z 56
_cell_length_a 18.921693
_cell_length_b 8.823975
_cell_length_c 19.248297
_cell_angle_alpha 90.000000
_cell_angle_beta 114.700305
_cell_angle_gamma 90.000000
_cell_volume 2919.741142
_symmetry_space_group_name_H-M "C 2/M"
_symmetry_group_IT_number 12
_symmetry_cell_setting 'monoclinic'
loop_
_space_group_symop_operation_xyz
x,y,z
-x,y,-z
-x,-y,-z
x,-y,z
1/2+x,1/2+y,z
1/2-x,1/2+y,-z
1/2-x,1/2-y,-z
1/2+x,1/2-y,z
loop_
_atom_site_type_symbol
_atom_site_label
_atom_site_fract_x
_atom_site_fract_y
_atom_site_fract_z
Si Si1 0.625343 0.680614 0.258504
Si Si2 0.468407 0.173095 0.561731
Si Si3 0.594222 0.663153 0.688874
Si Si4 0.742357 0.823064 0.202287
Si Si5 0.050466 0.833554 0.827697
Si Si6 0.323884 0.678031 0.567774
Si Si7 0.203341 0.320866 0.918028
O O1 0.629781 0.500000 0.258162
O O2 0.669237 0.751995 0.211496
O O3 0.536191 0.736415 0.212872
O O4 0.660800 0.738038 0.347157
O O5 0.500000 0.217040 0.500000
O O6 0.541530 0.199360 0.641812
O O7 0.398142 0.282917 0.551497
O O8 0.440425 0.000000 0.555607
O O9 0.572894 0.500000 0.644547
O O10 0.685068 0.701102 0.714954
O O11 0.583793 0.642898 0.765556
O O12 0.757229 0.737596 0.136432
O O13 0.727653 0.000000 0.180928
O O14 0.112212 0.724320 0.891105
O O15 0.048269 0.000000 0.863391
O O16 0.311472 0.500000 0.563771
O O17 0.250000 0.750000 0.500000
O O18 0.209749 0.500000 0.922403
O O19 0.250000 0.250000 0.000000
#
# Coordination Sequence:
#
# PCOD8108995 Si02
#       7
#     8   8   8   8   8   8   8
#     4  10  21  39  61  85 119 157 196 243 297 353
#     4  11  24  38  54  80 112 149 196 249 298 350
#     4   9  18  36  57  79 108 149 193 240 292 345
#     4  10  22  38  59  89 121 153 195 240 288 347
#     4   9  18  37  61  86 116 152 192 237 291 349
#     4  11  24  42  60  83 116 157 201 249 305 358
#     4  11  22  39  64  93 123 157 193 237 288 344
#
# _framework density 19.179781999999999
#
# number of rings (size 3 to 8) (size 9 to 14) (size 15 to 20)
#    0.000    1.857    1.429    3.429    2.000    5.714 
#    0.000    0.714    0.000    4.286    0.000    0.000 
#    0.000    0.000    0.000    0.000    0.000    0.000 
#
# Total GULP energy -347074.015025 kJ/mol
# GULP energy per Si atom -12395.500537 kJ/mol
# Density = 1.913613 g / cm^3
# Si number density = 19.179782 Si / 1000 Ang^3
#
#
#
# Elastic Constant Matrix: (Units=GPa)
#
#
# Indices 1 2 3 4 5 6 
#
# 1 126.0991 48.1546 60.6920 0.0000 15.2141 0.0000
# 2 48.1546 84.3548 54.5453 0.0000 7.4515 0.0000
# 3 60.6920 54.5453 110.5252 0.0000 20.2090 0.0000
# 4 0.0000 0.0000 0.0000 32.1388 0.0000 1.7229
# 5 15.2141 7.4515 20.2090 0.0000 28.1882 0.0000
# 6 0.0000 0.0000 0.0000 1.7229 0.0000 38.8982
#
#
#
# Elastic Compliance Matrix: (Units=1/GPa)
#
#
# Indices 1 2 3 4 5 6 
#
# 1 0.011626 -0.003788 -0.004086 0.000000 -0.002344 0.000000
# 2 -0.003788 0.018724 -0.007629 0.000000 0.002564 0.000000
# 3 -0.004086 -0.007629 0.016440 0.000000 -0.007564 0.000000
# 4 0.000000 0.000000 0.000000 0.031189 0.000000 -0.001381
# 5 -0.002344 0.002564 -0.007564 0.000000 0.041486 0.000000
# 6 0.000000 0.000000 0.000000 -0.001381 0.000000 0.025769
#
#
# Mechanical properties :
#
#
# Convention : Reuss Voigt Hill
#
# Bulk Modulus (GPa) = 63.35911 71.97366 67.66639
# Shear Modulus (GPa) = 27.54795 30.35086 28.94940
#
# Velocity S-wave (km/s) = 3.79397 3.98231 3.88928
# Velocity P-wave (km/s) = 7.23176 7.66500 7.45153
#
# Compressibility (1/GPa) = 0.01578305
#
# Stress axis : x y z
#
# Youngs Moduli (GPa) = 86.01179 53.40870 60.82778
#
# Poissons Ratio (x) = 0.20229 0.24857
# Poissons Ratio (y) = 0.32577 0.46408
# Poissons Ratio (z) = 0.35149 0.40747
#
# Static dielectric constant tensor:
#      x y z
#    x 3.651100 0.000000 0.195690 
#    y 0.000000 3.609380 0.000000 
#    z 0.195690 0.000000 3.422050 
# 
# 
# High freq. dielectric constant tensor:
#      x y z
#    x 1.752970 0.000000 0.011310 
#    y 0.000000 1.748280 0.000000 
#    z 0.011310 0.000000 1.731770 
# 
# From -- ./inp_files/275513.got.cif
#   From: 2010.06.25/outbox.cif.g09.slc.cpg/sg12_138_cif.got.tgz:275513.got - 2010.06.28 00:19:55.
