data_PCOD8108893
_publ_section_title
;
Structure prediction by ZEFSAII (Michael W. Deem and Ramdas Pophale) SiO2 
 PCOD8108893
Probable space group: C 2/M
;
_chemical_formula_sum "Si O2"
_cell_formula_units_Z 56
_cell_length_a 21.948769
_cell_length_b 8.858959
_cell_length_c 14.850024
_cell_angle_alpha 90.000000
_cell_angle_beta 114.247487
_cell_angle_gamma 90.000000
_cell_volume 2632.752924
_symmetry_space_group_name_H-M "C 2/M"
_symmetry_group_IT_number 12
_symmetry_cell_setting 'monoclinic'
loop_
_space_group_symop_operation_xyz
x,y,z
-x,y,-z
-x,-y,-z
x,-y,z
1/2+x,1/2+y,z
1/2-x,1/2+y,-z
1/2-x,1/2-y,-z
1/2+x,1/2-y,z
loop_
_atom_site_type_symbol
_atom_site_label
_atom_site_fract_x
_atom_site_fract_y
_atom_site_fract_z
Si Si1 0.977787 0.169376 0.086608
Si Si2 0.176570 0.322376 0.457159
Si Si3 0.882852 0.169978 0.747608
Si Si4 0.156017 0.829367 0.752328
Si Si5 0.804421 0.670926 0.847411
Si Si6 0.076278 0.678267 0.552499
Si Si7 0.648799 0.172635 0.933241
O O1 0.926836 0.299306 0.082227
O O2 0.037895 0.179744 0.194429
O O3 0.946745 0.000000 0.071895
O O4 0.000000 0.207103 0.000000
O O5 0.185994 0.500000 0.473857
O O6 0.250000 0.250000 0.500000
O O7 0.140817 0.286836 0.341742
O O8 0.127088 0.258939 0.506086
O O9 0.851379 0.212509 0.824604
O O10 0.860347 0.000000 0.708563
O O11 0.230924 0.816635 0.758730
O O12 0.105340 0.724592 0.666880
O O13 0.163098 0.782215 0.859698
O O14 0.129190 0.000000 0.730290
O O15 0.831930 0.500000 0.853829
O O16 0.803288 0.713531 0.953069
O O17 0.073584 0.500000 0.543546
O O18 0.000000 0.742538 0.500000
O O19 0.657746 0.000000 0.907966
#
# Coordination Sequence:
#
# PCOD8108893 Si02
#       7
#     8   8   8   8   8   8   8
#     4  10  21  39  59  87 125 164 204 252 307 364
#     4  11  24  43  68  96 128 164 210 266 320 379
#     4  11  23  38  63  93 126 164 204 252 310 371
#     4  11  24  41  63  90 123 161 203 255 311 368
#     4  10  22  40  61  91 127 164 206 251 303 367
#     4  10  24  46  67  91 123 162 211 264 318 375
#     4  11  23  38  61  90 123 165 209 251 301 366
#
# _framework density 21.270509000000001
#
# number of rings (size 3 to 8) (size 9 to 14) (size 15 to 20)
#    0.000    1.429    1.429    3.000    2.000    6.857 
#    0.000    0.000    0.000    0.000    0.000    0.000 
#    0.000    0.000    0.000    0.000    0.000    0.000 
#
# Total GULP energy -347215.462214 kJ/mol
# GULP energy per Si atom -12400.552222 kJ/mol
# Density = 2.122210 g / cm^3
# Si number density = 21.270509 Si / 1000 Ang^3
#
#
#
# Elastic Constant Matrix: (Units=GPa)
#
#
# Indices 1 2 3 4 5 6 
#
# 1 98.4822 23.1980 35.9488 0.0000 9.5658 0.0000
# 2 23.1980 31.3987 15.8748 0.0000 5.5421 0.0000
# 3 35.9488 15.8748 104.3018 0.0000 9.4688 0.0000
# 4 0.0000 0.0000 0.0000 24.4943 0.0000 1.2302
# 5 9.5658 5.5421 9.4688 0.0000 34.1956 0.0000
# 6 0.0000 0.0000 0.0000 1.2302 0.0000 29.7954
#
#
#
# Elastic Compliance Matrix: (Units=1/GPa)
#
#
# Indices 1 2 3 4 5 6 
#
# 1 0.013367 -0.007957 -0.003256 0.000000 -0.001548 0.000000
# 2 -0.007957 0.039851 -0.003015 0.000000 -0.003398 0.000000
# 3 -0.003256 -0.003015 0.011326 0.000000 -0.001737 0.000000
# 4 0.000000 0.000000 0.000000 0.040911 0.000000 -0.001689
# 5 -0.001548 -0.003398 -0.001737 0.000000 0.030708 0.000000
# 6 0.000000 0.000000 0.000000 -0.001689 0.000000 0.033632
#
#
# Mechanical properties :
#
#
# Convention : Reuss Voigt Hill
#
# Bulk Modulus (GPa) = 27.70796 42.69175 35.19985
# Shear Modulus (GPa) = 23.77798 28.30779 26.04288
#
# Velocity S-wave (km/s) = 3.34711 3.65204 3.50289
# Velocity P-wave (km/s) = 5.29077 6.15610 5.73977
#
# Compressibility (1/GPa) = 0.03609072
#
# Stress axis : x y z
#
# Youngs Moduli (GPa) = 74.81061 25.09359 88.29143
#
# Poissons Ratio (x) = 0.19966 0.28744
# Poissons Ratio (y) = 0.59524 0.26615
# Poissons Ratio (z) = 0.24355 0.07564
#
# Static dielectric constant tensor:
#      x y z
#    x 4.073000 0.000000 0.092840 
#    y 0.000000 3.711740 0.000000 
#    z 0.092840 0.000000 3.813350 
# 
# 
# High freq. dielectric constant tensor:
#      x y z
#    x 1.836650 0.000000 0.006540 
#    y 0.000000 1.828860 0.000000 
#    z 0.006540 0.000000 1.841120 
# 
# From -- ./inp_files/238983.got.cif
#   From: 2010.06.25/outbox.cif.g09.slc.cpg/sg12_120_cif.got.tgz:238983.got - 2010.06.28 00:19:55.
