data_PCOD8108999
_publ_section_title
;
Structure prediction by ZEFSAII (Michael W. Deem and Ramdas Pophale) SiO2 
 PCOD8108999
Probable space group: C 2/M
;
_chemical_formula_sum "Si O2"
_cell_formula_units_Z 60
_cell_length_a 26.429270
_cell_length_b 21.108176
_cell_length_c 8.389131
_cell_angle_alpha 90.000000
_cell_angle_beta 139.868060
_cell_angle_gamma 90.000000
_cell_volume 3016.542328
_symmetry_space_group_name_H-M "C 2/M"
_symmetry_group_IT_number 12
_symmetry_cell_setting 'monoclinic'
loop_
_space_group_symop_operation_xyz
x,y,z
-x,y,-z
-x,-y,-z
x,-y,z
1/2+x,1/2+y,z
1/2-x,1/2+y,-z
1/2-x,1/2-y,-z
1/2+x,1/2-y,z
loop_
_atom_site_type_symbol
_atom_site_label
_atom_site_fract_x
_atom_site_fract_y
_atom_site_fract_z
Si Si1 0.212319 0.313156 0.595817
Si Si2 0.769779 0.067801 0.878811
Si Si3 0.166740 0.572213 0.934970
Si Si4 0.431699 0.429926 0.443267
Si Si5 0.000000 0.633217 0.500000
Si Si6 0.459488 0.196379 0.735671
Si Si7 0.570378 0.661106 0.274456
Si Si8 0.246104 0.821598 0.650815
O O1 0.269404 0.372500 0.761103
O O2 0.129327 0.328640 0.476395
O O3 0.247426 0.246329 0.748790
O O4 0.202269 0.309006 0.381562
O O5 0.703241 0.077518 0.849592
O O6 0.754057 0.000000 0.752557
O O7 0.854632 0.064724 0.155629
O O8 0.175269 0.500000 0.022205
O O9 0.075535 0.588959 0.700688
O O10 0.214236 0.621270 0.159480
O O11 0.500000 0.399677 0.500000
O O12 0.457293 0.500000 0.564929
O O13 0.412129 0.385614 0.541302
O O14 0.002244 0.673649 0.339742
O O15 0.460803 0.272202 0.734858
O O16 0.500000 0.172413 0.000000
O O17 0.654028 0.666222 0.384730
O O18 0.500000 0.631556 0.000000
#
# Coordination Sequence:
#
# PCOD8108999 Si02
#       8
#     8   8   8   8   4   8   8   8
#     4  10  21  40  61  89 122 158 205 252 310 381
#     4  10  21  39  61  85 122 159 199 256 304 369
#     4  11  23  41  62  90 123 161 213 260 307 372
#     4  10  22  39  57  83 118 155 198 251 308 375
#     4  12  23  40  68  92 119 178 208 256 325 366
#     4  10  22  40  59  92 130 155 206 263 307 370
#     4  10  22  38  58  89 119 156 200 252 308 374
#     4  10  22  39  64  87 121 163 198 260 319 361
#
# _framework density 19.890322000000001
#
# number of rings (size 3 to 8) (size 9 to 14) (size 15 to 20)
#    0.000    1.733    2.667    1.000    2.800    3.467 
#    0.000    0.000    0.000    2.000    0.000    0.000 
#    0.000    0.000    0.000    0.000    0.000    0.000 
#
# Total GULP energy -371752.359270 kJ/mol
# GULP energy per Si atom -12391.745309 kJ/mol
# Density = 1.984505 g / cm^3
# Si number density = 19.890322 Si / 1000 Ang^3
#
#
#
# Elastic Constant Matrix: (Units=GPa)
#
#
# Indices 1 2 3 4 5 6 
#
# 1 96.1437 26.7828 21.2481 0.0000 9.0815 0.0000
# 2 26.7828 131.5312 53.3865 0.0000 -2.7232 0.0000
# 3 21.2481 53.3865 82.7337 0.0000 9.4881 0.0000
# 4 0.0000 0.0000 0.0000 30.3306 0.0000 14.5148
# 5 9.0815 -2.7232 9.4881 0.0000 34.0412 0.0000
# 6 0.0000 0.0000 0.0000 14.5148 0.0000 -7.5863
#
#
#
# Elastic Compliance Matrix: (Units=1/GPa)
#
#
# Indices 1 2 3 4 5 6 
#
# 1 0.011492 -0.001803 -0.001467 0.000000 -0.002801 0.000000
# 2 -0.001803 0.010842 -0.006908 0.000000 0.003274 0.000000
# 3 -0.001467 -0.006908 0.017499 0.000000 -0.005039 0.000000
# 4 0.000000 0.000000 0.000000 0.017211 0.000000 0.032930
# 5 -0.002801 0.003274 -0.005039 0.000000 0.031790 0.000000
# 6 0.000000 0.000000 0.000000 0.032930 0.000000 -0.068812
#
#
# Mechanical properties :
#
#
# Convention : Reuss Voigt Hill
#
# Bulk Modulus (GPa) = 51.34229 57.02705 54.18467
# Shear Modulus (GPa) = 106.67615 25.28985 65.98300
#
# Velocity S-wave (km/s) = 7.33134 3.56963 5.76589
# Velocity P-wave (km/s) = 9.87591 6.76185 8.46334
#
# Compressibility (1/GPa) = 0.01947712
#
# Stress axis : x y z
#
# Youngs Moduli (GPa) = 87.01668 92.23741 57.14469
#
# Poissons Ratio (x) = 0.16627 0.08383
# Poissons Ratio (y) = 0.15686 0.39478
# Poissons Ratio (z) = 0.12765 0.63721
#
# Static dielectric constant tensor:
#      x y z
#    x 3.609270 0.000000 0.234460 
#    y 0.000000 3.939450 0.000000 
#    z 0.234460 0.000000 3.469020 
# 
# 
# High freq. dielectric constant tensor:
#      x y z
#    x 1.779900 0.000000 0.021000 
#    y 0.000000 1.785480 0.000000 
#    z 0.021000 0.000000 1.762890 
# 
# From -- ./inp_files/106573.got.cif
#   From: 2010.06.25/outbox.cif.g09.slc.cpg/sg12_54_cif.got.tgz:106573.got - 2010.06.28 00:19:55.
