data_PCOD8108895
_publ_section_title
;
Structure prediction by ZEFSAII (Michael W. Deem and Ramdas Pophale) SiO2 
 PCOD8108895
Probable space group: C 2/M
;
_chemical_formula_sum "Si O2"
_cell_formula_units_Z 40
_cell_length_a 5.319076
_cell_length_b 27.731542
_cell_length_c 13.251744
_cell_angle_alpha 90.000000
_cell_angle_beta 66.335122
_cell_angle_gamma 90.000000
_cell_volume 1790.339898
_symmetry_space_group_name_H-M "C 2/M"
_symmetry_group_IT_number 12
_symmetry_cell_setting 'monoclinic'
loop_
_space_group_symop_operation_xyz
x,y,z
-x,y,-z
-x,-y,-z
x,-y,z
1/2+x,1/2+y,z
1/2-x,1/2+y,-z
1/2-x,1/2-y,-z
1/2+x,1/2-y,z
loop_
_atom_site_type_symbol
_atom_site_label
_atom_site_fract_x
_atom_site_fract_y
_atom_site_fract_z
Si Si1 0.490975 0.230132 0.126170
Si Si2 0.500000 0.140492 0.000000
Si Si3 0.743315 0.769868 0.373830
Si Si4 0.380366 0.500000 0.678436
Si Si5 0.000000 0.079830 0.000000
Si Si6 0.500000 0.859508 0.500000
Si Si7 0.500000 0.420170 0.500000
Si Si8 0.762762 0.000000 0.178436
O O1 0.813113 0.243172 0.068040
O O2 0.394748 0.250000 0.250000
O O3 0.453780 0.173117 0.108796
O O4 0.224115 0.110018 0.027061
O O5 0.449194 0.743172 0.431960
O O6 0.671371 0.826883 0.391204
O O7 0.453842 0.452131 0.605795
O O8 0.568944 0.500000 0.745946
O O9 0.060836 0.500000 0.754054
O O10 0.165433 0.047869 0.894205
O O11 0.721765 0.889982 0.527060
#
# Coordination Sequence:
#
# PCOD8108895 Si02
#       8
#     8   4   8   4   4   4   4   4
#     4  10  21  39  59  88 133 185 220 273 335 380
#     4  12  22  42  66  99 138 173 240 280 314 404
#     4  10  21  39  59  88 133 185 220 273 335 380
#     4  11  24  51  74 100 146 173 210 281 372 408
#     4  11  26  45  72 109 132 177 228 283 336 419
#     4  12  22  42  66  99 138 173 240 280 314 404
#     4  11  26  45  72 109 132 177 228 283 336 419
#     4  11  24  51  74 100 146 173 210 281 372 408
#
# _framework density 22.342126
#
# number of rings (size 3 to 8) (size 9 to 14) (size 15 to 20)
#    0.000    1.200    0.000    6.000    0.000    3.200 
#   43.200    0.000    0.000    0.000    0.000    0.000 
#    0.000    0.000    0.000    0.000    0.000    0.000 
#
# Total GULP energy -247817.944386 kJ/mol
# GULP energy per Si atom -12390.897219 kJ/mol
# Density = 2.229127 g / cm^3
# Si number density = 22.342126 Si / 1000 Ang^3
#
#
#
# Elastic Constant Matrix: (Units=GPa)
#
#
# Indices 1 2 3 4 5 6 
#
# 1 237.9671 70.1568 53.1941 0.0000 3.4014 0.0000
# 2 70.1568 145.3581 44.4050 0.0000 0.8066 0.0000
# 3 53.1941 44.4050 123.4830 0.0000 0.1849 0.0000
# 4 0.0000 0.0000 0.0000 16.1728 0.0000 0.2953
# 5 3.4014 0.8066 0.1849 0.0000 38.1984 0.0000
# 6 0.0000 0.0000 0.0000 0.2953 0.0000 25.5856
#
#
#
# Elastic Compliance Matrix: (Units=1/GPa)
#
#
# Indices 1 2 3 4 5 6 
#
# 1 0.005136 -0.002023 -0.001484 0.000000 -0.000407 0.000000
# 2 -0.002023 0.008526 -0.002195 0.000000 0.000011 0.000000
# 3 -0.001484 -0.002195 0.009527 0.000000 0.000132 0.000000
# 4 0.000000 0.000000 0.000000 0.061845 0.000000 -0.000714
# 5 -0.000407 0.000011 0.000132 0.000000 0.026215 0.000000
# 6 0.000000 0.000000 0.000000 -0.000714 0.000000 0.039093
#
#
# Mechanical properties :
#
#
# Convention : Reuss Voigt Hill
#
# Bulk Modulus (GPa) = 84.85425 93.59112 89.22268
# Shear Modulus (GPa) = 30.17954 38.59485 34.38720
#
# Velocity S-wave (km/s) = 3.67930 4.16077 3.92742
# Velocity P-wave (km/s) = 7.49077 8.06620 7.78380
#
# Compressibility (1/GPa) = 0.01178491
#
# Stress axis : x y z
#
# Youngs Moduli (GPa) = 194.68771 117.28176 104.96779
#
# Poissons Ratio (x) = 0.23730 0.15582
# Poissons Ratio (y) = 0.39392 0.23036
# Poissons Ratio (z) = 0.28901 0.25738
#
# Static dielectric constant tensor:
#      x y z
#    x 5.301400 0.000000 0.022640 
#    y 0.000000 4.041880 0.000000 
#    z 0.022640 0.000000 4.579190 
# 
# 
# High freq. dielectric constant tensor:
#      x y z
#    x 1.934830 0.000000 0.000990 
#    y 0.000000 1.869330 0.000000 
#    z 0.000990 0.000000 1.903170 
# 
# From -- ./inp_files/191572.got.cif
#   From: 2010.06.25/outbox.cif.g09.slc.cpg/sg12_96_cif.got.tgz:191572.got - 2010.06.28 00:19:55.
