data_PCOD8108614
_publ_section_title
;
Structure prediction by ZEFSAII (Michael W. Deem and Ramdas Pophale) SiO2 
 PCOD8108614
Probable space group: C 2/M
;
_chemical_formula_sum "Si O2"
_cell_formula_units_Z 40
_cell_length_a 22.094414
_cell_length_b 21.736468
_cell_length_c 5.107279
_cell_angle_alpha 90.000000
_cell_angle_beta 51.038379
_cell_angle_gamma 90.000000
_cell_volume 1907.212359
_symmetry_space_group_name_H-M "C 2/M"
_symmetry_group_IT_number 12
_symmetry_cell_setting 'monoclinic'
loop_
_space_group_symop_operation_xyz
x,y,z
-x,y,-z
-x,-y,-z
x,-y,z
1/2+x,1/2+y,z
1/2-x,1/2+y,-z
1/2-x,1/2-y,-z
1/2+x,1/2-y,z
loop_
_atom_site_type_symbol
_atom_site_label
_atom_site_fract_x
_atom_site_fract_y
_atom_site_fract_z
Si Si1 0.075012 0.069720 0.466304
Si Si2 0.746369 0.430265 0.848641
Si Si3 0.083603 0.262175 0.200416
Si Si4 0.883102 0.186565 0.378855
Si Si5 0.282115 0.857213 0.255406
O O1 0.082055 0.117287 0.689557
O O2 0.000000 0.086877 0.500000
O O3 0.068933 0.000000 0.596046
O O4 0.152665 0.076384 0.077459
O O5 0.772782 0.500000 0.735825
O O6 0.788885 0.389135 0.517992
O O7 0.774957 0.409311 0.055215
O O8 0.114351 0.219171 0.347627
O O9 0.000000 0.290598 0.500000
O O10 0.070230 0.221465 0.975248
O O11 0.140651 0.318199 0.994247
O O12 0.792600 0.187145 0.544185
#
# Coordination Sequence:
#
# PCOD8108614 Si02
#       5
#     8   8   8   8   8
#     4   9  19  37  59  87 123 159 196 237 283 337
#     4  10  21  38  63  89 116 154 194 236 287 346
#     4  12  25  40  61  86 117 153 195 245 294 341
#     4  11  22  39  60  86 117 157 197 235 285 343
#     4  11  22  40  62  86 118 153 194 238 286 348
#
# _framework density 20.973016000000001
#
# number of rings (size 3 to 8) (size 9 to 14) (size 15 to 20)
#    0.000    1.400    0.000    6.600    0.000    2.400 
#    0.000    4.000    0.000   34.200    0.000    0.000 
#    0.000    0.000    0.000    0.000    0.000    0.000 
#
# Total GULP energy -248105.709973 kJ/mol
# GULP energy per Si atom -12405.285499 kJ/mol
# Density = 2.092528 g / cm^3
# Si number density = 20.973016 Si / 1000 Ang^3
#
#
#
# Elastic Constant Matrix: (Units=GPa)
#
#
# Indices 1 2 3 4 5 6 
#
# 1 68.0252 37.3269 42.1181 0.0000 -1.1795 0.0000
# 2 37.3269 97.5850 54.2391 0.0000 -13.0223 0.0000
# 3 42.1181 54.2391 112.6441 0.0000 -2.9000 0.0000
# 4 0.0000 0.0000 0.0000 14.3608 0.0000 6.6333
# 5 -1.1795 -13.0223 -2.9000 0.0000 43.8453 0.0000
# 6 0.0000 0.0000 0.0000 6.6333 0.0000 28.9502
#
#
#
# Elastic Compliance Matrix: (Units=1/GPa)
#
#
# Indices 1 2 3 4 5 6 
#
# 1 0.020816 -0.005182 -0.005322 0.000000 -0.001331 0.000000
# 2 -0.005182 0.015914 -0.005617 0.000000 0.004216 0.000000
# 3 -0.005322 -0.005617 0.013549 0.000000 -0.000915 0.000000
# 4 0.000000 0.000000 0.000000 0.077876 0.000000 -0.017844
# 5 -0.001331 0.004216 -0.000915 0.000000 0.023963 0.000000
# 6 0.000000 0.000000 0.000000 -0.017844 0.000000 0.038630
#
#
# Mechanical properties :
#
#
# Convention : Reuss Voigt Hill
#
# Bulk Modulus (GPa) = 55.44197 60.62473 58.03335
# Shear Modulus (GPa) = 21.83387 27.06928 24.45157
#
# Velocity S-wave (km/s) = 3.23002 3.59649 3.41817
# Velocity P-wave (km/s) = 6.35634 6.79817 6.58096
#
# Compressibility (1/GPa) = 0.01803688
#
# Stress axis : x y z
#
# Youngs Moduli (GPa) = 48.03985 62.83829 73.80858
#
# Poissons Ratio (x) = 0.32560 0.39285
# Poissons Ratio (y) = 0.24892 0.41456
# Poissons Ratio (z) = 0.25569 0.35295
#
# Static dielectric constant tensor:
#      x y z
#    x 3.743560 0.000000 0.034980 
#    y 0.000000 3.793250 0.000000 
#    z 0.034980 0.000000 3.762640 
# 
# 
# High freq. dielectric constant tensor:
#      x y z
#    x 1.817790 0.000000 0.011400 
#    y 0.000000 1.818060 0.000000 
#    z 0.011400 0.000000 1.822080 
# 
# From -- ./inp_files/15745.got.cif
#   From: 2010.06.25/outbox.cif.g09.slc.cpg/sg12_8_cif.got.tgz:15745.got - 2010.06.28 00:19:55.
