data_PCOD8108908
_publ_section_title
;
Structure prediction by ZEFSAII (Michael W. Deem and Ramdas Pophale) SiO2 
 PCOD8108908
Probable space group: C 2/M
;
_chemical_formula_sum "Si O2"
_cell_formula_units_Z 64
_cell_length_a 20.149247
_cell_length_b 8.469843
_cell_length_c 31.420596
_cell_angle_alpha 90.000000
_cell_angle_beta 143.154919
_cell_angle_gamma 90.000000
_cell_volume 3215.503062
_symmetry_space_group_name_H-M "C 2/M"
_symmetry_group_IT_number 12
_symmetry_cell_setting 'monoclinic'
loop_
_space_group_symop_operation_xyz
x,y,z
-x,y,-z
-x,-y,-z
x,-y,z
1/2+x,1/2+y,z
1/2-x,1/2+y,-z
1/2-x,1/2-y,-z
1/2+x,1/2-y,z
loop_
_atom_site_type_symbol
_atom_site_label
_atom_site_fract_x
_atom_site_fract_y
_atom_site_fract_z
Si Si1 0.306436 0.812313 0.688486
Si Si2 0.332801 0.687957 0.304332
Si Si3 0.672570 0.814969 0.147439
Si Si4 0.951643 0.181560 0.066884
Si Si5 0.736737 0.817923 0.085489
Si Si6 0.772265 0.312850 0.576542
Si Si7 0.453319 0.816146 0.159471
Si Si8 0.921542 0.187179 0.583381
O O1 0.219796 0.746324 0.678850
O O2 0.272443 0.746429 0.624707
O O3 0.428905 0.754068 0.763173
O O4 0.303270 0.000000 0.687527
O O5 0.336531 0.500000 0.306623
O O6 0.258603 0.747061 0.226918
O O7 0.456655 0.756733 0.363261
O O8 0.557546 0.723362 0.092763
O O9 0.723572 0.774053 0.128040
O O10 0.648853 0.000000 0.140903
O O11 0.947323 0.291285 0.105974
O O12 0.955158 0.000000 0.082897
O O13 0.842332 0.209184 0.983184
O O14 0.862604 0.785957 0.137376
O O15 0.706567 0.000000 0.061754
O O16 0.777786 0.500000 0.579382
O O17 0.880369 0.248817 0.607852
O O18 0.661049 0.252085 0.496090
O O19 0.435306 0.000000 0.160187
O O20 0.924225 0.000000 0.585961
#
# Coordination Sequence:
#
# PCOD8108908 Si02
#       8
#     8   8   8   8   8   8   8   8
#     4   9  18  33  56  80 109 145 184 230 276 324
#     4   9  17  33  56  81 108 143 185 227 273 321
#     4  10  21  39  60  82 113 150 187 231 283 338
#     4  12  24  40  61  84 113 146 186 235 283 340
#     4  11  24  39  59  86 113 146 188 234 283 339
#     4   9  18  33  53  83 115 146 182 223 273 323
#     4  11  22  39  60  82 113 151 189 234 286 337
#     4   9  18  32  55  83 113 147 183 224 269 323
#
# _framework density 19.903573000000002
#
# number of rings (size 3 to 8) (size 9 to 14) (size 15 to 20)
#    0.000    2.000    1.250    2.625    1.750    3.000 
#    0.000    3.750    0.000    0.000    0.000    3.500 
#    0.000    0.000    0.000    0.000    0.000    0.000 
#
# Total GULP energy -396908.504745 kJ/mol
# GULP energy per Si atom -12403.390773 kJ/mol
# Density = 1.985827 g / cm^3
# Si number density = 19.903573 Si / 1000 Ang^3
#
#
#
# Elastic Constant Matrix: (Units=GPa)
#
#
# Indices 1 2 3 4 5 6 
#
# 1 128.4526 7.2179 57.5019 0.0002 1.8258 -0.0007
# 2 7.2179 25.7701 6.6076 0.0003 0.2423 -0.0007
# 3 57.5019 6.6076 107.7053 0.0002 1.5588 -0.0005
# 4 0.0002 0.0003 0.0002 18.0139 0.0000 4.4246
# 5 1.8258 0.2423 1.5588 0.0000 45.1996 -0.0001
# 6 -0.0007 -0.0007 -0.0005 4.4246 -0.0001 25.6878
#
#
#
# Elastic Compliance Matrix: (Units=1/GPa)
#
#
# Indices 1 2 3 4 5 6 
#
# 1 0.010289 -0.001496 -0.005398 0.000000 -0.000221 0.000000
# 2 -0.001496 0.039643 -0.001632 -0.000001 -0.000096 0.000001
# 3 -0.005398 -0.001632 0.012269 0.000000 -0.000196 0.000000
# 4 0.000000 -0.000001 0.000000 0.057965 0.000000 -0.009984
# 5 -0.000221 -0.000096 -0.000196 0.000000 0.022140 0.000000
# 6 0.000000 0.000001 0.000000 -0.009984 0.000000 0.040649
#
#
# Mechanical properties :
#
#
# Convention : Reuss Voigt Hill
#
# Bulk Modulus (GPa) = 22.14864 44.95364 33.55114
# Shear Modulus (GPa) = 23.24976 30.48696 26.86836
#
# Velocity S-wave (km/s) = 3.42148 3.91798 3.67812
# Velocity P-wave (km/s) = 5.17309 6.56523 5.91029
#
# Compressibility (1/GPa) = 0.04514950
#
# Stress axis : x y z
#
# Youngs Moduli (GPa) = 97.19554 25.22521 81.50343
#
# Poissons Ratio (x) = 0.03773 0.43995
# Poissons Ratio (y) = 0.14536 0.13303
# Poissons Ratio (z) = 0.52465 0.04117
#
# Static dielectric constant tensor:
#      x y z
#    x 3.813090 0.000000 0.008150 
#    y 0.000000 3.244980 0.000000 
#    z 0.008150 0.000000 3.824930 
# 
# 
# High freq. dielectric constant tensor:
#      x y z
#    x 1.789090 0.000000 0.000670 
#    y 0.000000 1.745220 0.000000 
#    z 0.000670 0.000000 1.782950 
# 
# From -- ./inp_files/378524.got.cif
#   From: 2010.06.25/outbox.cif.g09.slc.cpg/sg12_190_cif.got.tgz:378524.got - 2010.06.28 00:19:55.
