data_PCOD8108749
_publ_section_title
;
Structure prediction by ZEFSAII (Michael W. Deem and Ramdas Pophale) SiO2 
 PCOD8108749
Probable space group: C 2/M
;
_chemical_formula_sum "Si O2"
_cell_formula_units_Z 32
_cell_length_a 7.532025
_cell_length_b 20.592278
_cell_length_c 13.629862
_cell_angle_alpha 90.000000
_cell_angle_beta 43.292577
_cell_angle_gamma 90.000000
_cell_volume 1449.629412
_symmetry_space_group_name_H-M "C 2/M"
_symmetry_group_IT_number 12
_symmetry_cell_setting 'monoclinic'
loop_
_space_group_symop_operation_xyz
x,y,z
-x,y,-z
-x,-y,-z
x,-y,z
1/2+x,1/2+y,z
1/2-x,1/2+y,-z
1/2-x,1/2-y,-z
1/2+x,1/2-y,z
loop_
_atom_site_type_symbol
_atom_site_label
_atom_site_fract_x
_atom_site_fract_y
_atom_site_fract_z
Si Si1 0.594833 0.427683 0.599316
Si Si2 0.649535 0.177558 0.039704
Si Si3 0.098198 0.607465 0.698444
Si Si4 0.065969 0.926947 0.832239
O O1 0.717446 0.500000 0.541571
O O2 0.757311 0.378400 0.463760
O O3 0.295891 0.433810 0.685820
O O4 0.616154 0.402134 0.701321
O O5 0.876437 0.124431 0.959658
O O6 0.500000 0.162054 0.000000
O O7 0.750000 0.250000 0.000000
O O8 0.468041 0.171421 0.209770
O O9 0.834034 0.569212 0.783449
O O10 0.945682 0.000000 0.880937
#
# Coordination Sequence:
#
# PCOD8108749 Si02
#       4
#     8   8   8   8
#     4  10  21  38  65 100 138 169 207 267 324 387
#     4  12  26  47  67  91 130 176 224 274 325 385
#     4  11  21  39  65  96 130 173 211 260 324 383
#     4  11  23  40  67 101 133 170 217 267 323 388
#
# _framework density 22.074607
#
# number of rings (size 3 to 8) (size 9 to 14) (size 15 to 20)
#    0.000    1.000    2.500    6.000    0.000    6.500 
#    0.000    1.250    5.500    0.000    0.000    0.000 
#    0.000    0.000    0.000    0.000    0.000    0.000 
#
# Total GULP energy -198277.475732 kJ/mol
# GULP energy per Si atom -12392.342233 kJ/mol
# Density = 2.202436 g / cm^3
# Si number density = 22.074607 Si / 1000 Ang^3
#
#
#
# Elastic Constant Matrix: (Units=GPa)
#
#
# Indices 1 2 3 4 5 6 
#
# 1 121.6788 19.4429 50.3898 0.0000 -2.4157 0.0000
# 2 19.4429 111.1678 66.0068 0.0000 -4.9992 0.0000
# 3 50.3898 66.0068 151.2447 0.0000 21.0640 0.0000
# 4 0.0000 0.0000 0.0000 26.0743 0.0000 -3.9227
# 5 -2.4157 -4.9992 21.0640 0.0000 44.7882 0.0000
# 6 0.0000 0.0000 0.0000 -3.9227 0.0000 20.4550
#
#
#
# Elastic Compliance Matrix: (Units=1/GPa)
#
#
# Indices 1 2 3 4 5 6 
#
# 1 0.009772 0.000724 -0.003913 0.000000 0.002448 0.000000
# 2 0.000724 0.012949 -0.006527 0.000000 0.004554 0.000000
# 3 -0.003913 -0.006527 0.011658 0.000000 -0.006422 0.000000
# 4 0.000000 0.000000 0.000000 0.039491 0.000000 0.007573
# 5 0.002448 0.004554 -0.006422 0.000000 0.025988 0.000000
# 6 0.000000 0.000000 0.000000 0.007573 0.000000 0.050340
#
#
# Mechanical properties :
#
#
# Convention : Reuss Voigt Hill
#
# Bulk Modulus (GPa) = 66.89654 72.86335 69.87995
# Shear Modulus (GPa) = 28.63509 34.81362 31.72436
#
# Velocity S-wave (km/s) = 3.60557 3.97557 3.79508
# Velocity P-wave (km/s) = 6.90681 7.35887 7.13642
#
# Compressibility (1/GPa) = 0.01494846
#
# Stress axis : x y z
#
# Youngs Moduli (GPa) = 102.33835 77.22720 85.77670
#
# Poissons Ratio (x) = -0.05593 0.33560
# Poissons Ratio (y) = -0.07411 0.55984
# Poissons Ratio (z) = 0.40040 0.50404
#
# Static dielectric constant tensor:
#      x y z
#    x 4.335190 0.000000 0.142760 
#    y 0.000000 3.483890 0.000000 
#    z 0.142760 0.000000 4.269950 
# 
# 
# High freq. dielectric constant tensor:
#      x y z
#    x 1.897470 0.000000 0.012150 
#    y 0.000000 1.814160 0.000000 
#    z 0.012150 0.000000 1.878980 
# 
# From -- ./inp_files/196735.got.cif
#   From: 2010.06.25/outbox.cif.g09.slc.cpg/sg12_99_cif.got.tgz:196735.got - 2010.06.28 00:19:55.
