data_PCOD8108210
_publ_section_title
;
Structure prediction by ZEFSAII (Michael W. Deem and Ramdas Pophale) SiO2 
 PCOD8108210
Probable space group: C 2/M
;
_chemical_formula_sum "Si O2"
_cell_formula_units_Z 64
_cell_length_a 9.465529
_cell_length_b 23.054246
_cell_length_c 14.108172
_cell_angle_alpha 90.000000
_cell_angle_beta 97.277522
_cell_angle_gamma 90.000000
_cell_volume 3053.892943
_symmetry_space_group_name_H-M "C 2/M"
_symmetry_group_IT_number 12
_symmetry_cell_setting 'monoclinic'
loop_
_space_group_symop_operation_xyz
x,y,z
-x,y,-z
-x,-y,-z
x,-y,z
1/2+x,1/2+y,z
1/2-x,1/2+y,-z
1/2-x,1/2-y,-z
1/2+x,1/2-y,z
loop_
_atom_site_type_symbol
_atom_site_label
_atom_site_fract_x
_atom_site_fract_y
_atom_site_fract_z
Si Si1 0.747356 0.712431 0.594472
Si Si2 0.822890 0.742014 0.208267
Si Si3 0.542733 0.566088 0.190083
Si Si4 0.258758 0.937612 0.746597
Si Si5 0.985792 0.647482 0.714140
Si Si6 0.537686 0.312253 0.110073
Si Si7 0.846901 0.092526 0.458787
Si Si8 0.213521 0.566183 0.640163
O O1 0.750000 0.750000 0.500000
O O2 0.694883 0.748633 0.680580
O O3 0.637495 0.659885 0.569078
O O4 0.904458 0.686853 0.629543
O O5 0.923430 0.685931 0.205571
O O6 0.670810 0.728286 0.149323
O O7 0.901412 0.796212 0.164563
O O8 0.568462 0.500000 0.151324
O O9 0.379287 0.574942 0.202908
O O10 0.576155 0.618799 0.120443
O O11 0.641063 0.576632 0.289733
O O12 0.372213 0.886302 0.771060
O O13 0.214669 0.943655 0.633210
O O14 0.324612 0.000000 0.782033
O O15 0.083244 0.602099 0.668954
O O16 0.500000 0.296877 0.000000
O O17 0.737248 0.086156 0.535312
O O18 0.000000 0.066920 0.500000
O O19 0.165522 0.500000 0.640733
#
# Coordination Sequence:
#
# PCOD8108210 Si02
#       8
#     8   8   8   8   8   8   8   8
#     4  11  26  39  60  91 133 179 218 266 328 396
#     4  12  25  45  67 101 134 174 223 275 334 410
#     4  10  22  41  68  97 128 170 218 275 338 404
#     4  10  21  38  60  88 126 175 218 264 328 392
#     4  11  23  41  60  91 133 169 218 274 329 385
#     4  12  26  47  73 100 132 172 222 286 346 403
#     4  11  22  34  55  84 123 171 222 269 313 382
#     4  11  22  37  62  92 128 172 225 274 327 393
#
# _framework density 20.956859000000001
#
# number of rings (size 3 to 8) (size 9 to 14) (size 15 to 20)
#    0.000    1.000    3.750    3.375    1.750    4.750 
#    0.000    3.125    0.000    0.000    0.000    1.750 
#    0.000    0.000    0.000    0.000    0.000    0.000 
#
# Total GULP energy -396767.720629 kJ/mol
# GULP energy per Si atom -12398.991270 kJ/mol
# Density = 2.090916 g / cm^3
# Si number density = 20.956859 Si / 1000 Ang^3
#
#
#
# Elastic Constant Matrix: (Units=GPa)
#
#
# Indices 1 2 3 4 5 6 
#
# 1 90.2351 39.2040 17.1570 0.0000 1.7008 0.0000
# 2 39.2040 114.0074 28.1580 0.0000 5.4014 0.0000
# 3 17.1570 28.1580 78.9095 0.0000 4.4260 0.0000
# 4 0.0000 0.0000 0.0000 23.6302 0.0000 2.4172
# 5 1.7008 5.4014 4.4260 0.0000 17.1271 0.0000
# 6 0.0000 0.0000 0.0000 2.4172 0.0000 33.4512
#
#
#
# Elastic Compliance Matrix: (Units=1/GPa)
#
#
# Indices 1 2 3 4 5 6 
#
# 1 0.013164 -0.004203 -0.001384 0.000000 0.000376 0.000000
# 2 -0.004203 0.011042 -0.002896 0.000000 -0.002316 0.000000
# 3 -0.001384 -0.002896 0.014153 0.000000 -0.002607 0.000000
# 4 0.000000 0.000000 0.000000 0.042634 0.000000 -0.003081
# 5 0.000376 -0.002316 -0.002607 0.000000 0.059754 0.000000
# 6 0.000000 0.000000 0.000000 -0.003081 0.000000 0.030117
#
#
# Mechanical properties :
#
#
# Convention : Reuss Voigt Hill
#
# Bulk Modulus (GPa) = 46.74304 50.24334 48.49319
# Shear Modulus (GPa) = 25.64623 28.08391 26.86507
#
# Velocity S-wave (km/s) = 3.50203 3.66468 3.58428
# Velocity P-wave (km/s) = 6.22134 6.47559 6.34974
#
# Compressibility (1/GPa) = 0.02139356
#
# Stress axis : x y z
#
# Youngs Moduli (GPa) = 75.96394 90.56572 70.65483
#
# Poissons Ratio (x) = 0.38064 0.09776
# Poissons Ratio (y) = 0.31927 0.20464
# Poissons Ratio (z) = 0.10510 0.26231
#
# Static dielectric constant tensor:
#      x y z
#    x 3.962080 0.000000 0.071040 
#    y 0.000000 4.156940 0.000000 
#    z 0.071040 0.000000 3.404730 
# 
# 
# High freq. dielectric constant tensor:
#      x y z
#    x 1.827670 0.000000 0.001450 
#    y 0.000000 1.842620 0.000000 
#    z 0.001450 0.000000 1.779810 
# 
# From -- ./inp_files/198877.got.cif
#   From: 2010.06.25/outbox.cif.g09.slc.cpg/sg12_100_cif.got.tgz:198877.got - 2010.06.28 00:19:55.
