data_PCOD8108855
_publ_section_title
;
Structure prediction by ZEFSAII (Michael W. Deem and Ramdas Pophale) SiO2 
 PCOD8108855
Probable space group: C 2/M
;
_chemical_formula_sum "Si O2"
_cell_formula_units_Z 64
_cell_length_a 29.096710
_cell_length_b 8.765473
_cell_length_c 14.906471
_cell_angle_alpha 90.000000
_cell_angle_beta 59.889702
_cell_angle_gamma 90.000000
_cell_volume 3288.826392
_symmetry_space_group_name_H-M "C 2/M"
_symmetry_group_IT_number 12
_symmetry_cell_setting 'monoclinic'
loop_
_space_group_symop_operation_xyz
x,y,z
-x,y,-z
-x,-y,-z
x,-y,z
1/2+x,1/2+y,z
1/2-x,1/2+y,-z
1/2-x,1/2-y,-z
1/2+x,1/2-y,z
loop_
_atom_site_type_symbol
_atom_site_label
_atom_site_fract_x
_atom_site_fract_y
_atom_site_fract_z
Si Si1 0.776676 0.679782 0.887887
Si Si2 0.363592 0.677755 0.566690
Si Si3 0.032629 0.676020 0.208108
Si Si4 0.855536 0.825033 0.223779
Si Si5 0.078790 0.823076 0.663925
Si Si6 0.250698 0.819468 0.268036
Si Si7 0.556348 0.177127 0.982560
Si Si8 0.613266 0.677638 0.257609
O O1 0.771124 0.500000 0.895303
O O2 0.745235 0.744833 0.833583
O O3 0.838403 0.724439 0.827976
O O4 0.750000 0.750000 0.000000
O O5 0.359990 0.500000 0.550795
O O6 0.395891 0.748462 0.451731
O O7 0.303202 0.741227 0.631148
O O8 0.394606 0.713126 0.628949
O O9 0.036756 0.500000 0.231452
O O10 0.060144 0.777281 0.257501
O O11 0.971672 0.723315 0.260780
O O12 0.059949 0.705104 0.085379
O O13 0.878594 0.801810 0.299758
O O14 0.801532 0.728240 0.275624
O O15 0.896372 0.770670 0.108099
O O16 0.841953 0.000000 0.217315
O O17 0.062055 0.000000 0.669482
O O18 0.248453 0.000000 0.257737
O O19 0.563249 0.000000 0.950940
O O20 0.500000 0.237362 0.000000
O O21 0.626216 0.500000 0.230947
#
# Coordination Sequence:
#
# PCOD8108855 Si02
#       8
#     8   8   8   8   8   8   8   8
#     4  11  22  38  59  85 117 151 192 240 289 343
#     4   8  18  39  63  84 111 153 197 238 289 349
#     4  11  23  38  58  86 117 152 196 243 293 350
#     4  11  23  36  57  89 120 150 192 244 293 345
#     4  10  21  39  61  85 115 152 197 244 293 349
#     4  10  21  39  61  84 116 156 196 236 286 346
#     4  10  21  39  59  78 112 156 194 235 288 351
#     4  10  21  39  61  85 116 154 194 238 289 346
#
# _framework density 19.459828999999999
#
# number of rings (size 3 to 8) (size 9 to 14) (size 15 to 20)
#    0.000    1.875    1.250    3.375    1.750    2.750 
#    0.000    6.250    0.000    0.000    0.000    0.000 
#    0.000    0.000    0.000    0.000    0.000    0.000 
#
# Total GULP energy -396903.238839 kJ/mol
# GULP energy per Si atom -12403.226214 kJ/mol
# Density = 1.941554 g / cm^3
# Si number density = 19.459829 Si / 1000 Ang^3
#
#
#
# Elastic Constant Matrix: (Units=GPa)
#
#
# Indices 1 2 3 4 5 6 
#
# 1 84.8942 27.2242 11.8953 0.0000 10.8333 0.0000
# 2 27.2242 87.5545 35.6480 0.0000 6.7256 0.0000
# 3 11.8953 35.6480 103.0788 0.0000 13.7898 0.0000
# 4 0.0000 0.0000 0.0000 21.3419 0.0000 -0.1081
# 5 10.8333 6.7256 13.7898 0.0000 18.8798 0.0000
# 6 0.0000 0.0000 0.0000 -0.1081 0.0000 36.1884
#
#
#
# Elastic Compliance Matrix: (Units=1/GPa)
#
#
# Indices 1 2 3 4 5 6 
#
# 1 0.013884 -0.004082 0.000754 0.000000 -0.007064 0.000000
# 2 -0.004082 0.014533 -0.004628 0.000000 0.000545 0.000000
# 3 0.000754 -0.004628 0.012249 0.000000 -0.007731 0.000000
# 4 0.000000 0.000000 0.000000 0.046857 0.000000 0.000140
# 5 -0.007064 0.000545 -0.007731 0.000000 0.062472 0.000000
# 6 0.000000 0.000000 0.000000 0.000140 0.000000 0.027634
#
#
# Mechanical properties :
#
#
# Convention : Reuss Voigt Hill
#
# Bulk Modulus (GPa) = 40.39500 47.22917 43.81209
# Shear Modulus (GPa) = 24.77817 28.66604 26.72211
#
# Velocity S-wave (km/s) = 3.57220 3.84225 3.70968
# Velocity P-wave (km/s) = 6.14958 6.63375 6.39625
#
# Compressibility (1/GPa) = 0.02475554
#
# Stress axis : x y z
#
# Youngs Moduli (GPa) = 72.02555 68.80911 81.63952
#
# Poissons Ratio (x) = 0.28085 -0.06158
# Poissons Ratio (y) = 0.29398 0.37782
# Poissons Ratio (z) = -0.05433 0.31844
#
# Static dielectric constant tensor:
#      x y z
#    x 3.615370 0.000000 -0.000120 
#    y 0.000000 3.488100 0.000000 
#    z -0.000120 0.000000 3.672800 
# 
# 
# High freq. dielectric constant tensor:
#      x y z
#    x 1.762640 0.000000 0.003370 
#    y 0.000000 1.752260 0.000000 
#    z 0.003370 0.000000 1.761790 
# 
# From -- ./inp_files/249025.got.cif
#   From: 2010.06.25/outbox.cif.g09.slc.cpg/sg12_125_cif.got.tgz:249025.got - 2010.06.28 00:19:55.
