data_PCOD8108439
_publ_section_title
;
Structure prediction by ZEFSAII (Michael W. Deem and Ramdas Pophale) SiO2 
 PCOD8108439
Probable space group: C 2/M
;
_chemical_formula_sum "Si O2"
_cell_formula_units_Z 56
_cell_length_a 14.074177
_cell_length_b 22.034562
_cell_length_c 9.028252
_cell_angle_alpha 90.000000
_cell_angle_beta 114.455709
_cell_angle_gamma 90.000000
_cell_volume 2548.630357
_symmetry_space_group_name_H-M "C 2/M"
_symmetry_group_IT_number 12
_symmetry_cell_setting 'monoclinic'
loop_
_space_group_symop_operation_xyz
x,y,z
-x,y,-z
-x,-y,-z
x,-y,z
1/2+x,1/2+y,z
1/2-x,1/2+y,-z
1/2-x,1/2-y,-z
1/2+x,1/2-y,z
loop_
_atom_site_type_symbol
_atom_site_label
_atom_site_fract_x
_atom_site_fract_y
_atom_site_fract_z
Si Si1 0.255487 0.931785 0.965635
Si Si2 0.513375 0.568396 0.834933
Si Si3 0.384087 0.241706 0.988056
Si Si4 0.411703 0.336590 0.562535
Si Si5 0.597024 0.196499 0.462243
Si Si6 0.709088 0.175817 0.819037
Si Si7 0.198211 0.642365 0.268024
O O1 0.132525 0.920868 0.863890
O O2 0.311774 0.916327 0.844177
O O3 0.282506 0.000000 0.025726
O O4 0.302719 0.893169 0.132697
O O5 0.478973 0.500000 0.762208
O O6 0.439498 0.620694 0.719270
O O7 0.500000 0.574288 0.000000
O O8 0.327952 0.306749 0.942801
O O9 0.305346 0.199265 0.844797
O O10 0.500000 0.243738 0.000000
O O11 0.380099 0.217364 0.155505
O O12 0.500000 0.346509 0.500000
O O13 0.404941 0.265294 0.602442
O O14 0.304487 0.359196 0.426118
O O15 0.500000 0.177818 0.500000
O O16 0.696657 0.185046 0.634732
O O17 0.604833 0.150317 0.327963
#
# Coordination Sequence:
#
# PCOD8108439 Si02
#       7
#     8   8   8   8   8   8   8
#     4  10  23  43  64  90 128 171 221 266 313 386
#     4  10  23  41  63  96 134 177 219 256 311 388
#     4  10  21  38  61  91 129 174 208 257 318 386
#     4  11  22  38  63  95 140 175 202 259 323 394
#     4  11  24  40  62  95 133 163 212 276 330 382
#     4  10  22  39  61  94 128 164 217 261 321 386
#     4  11  22  40  62  93 130 171 216 256 323 390
#
# _framework density 21.972587000000001
#
# number of rings (size 3 to 8) (size 9 to 14) (size 15 to 20)
#    0.000    1.571    2.857    1.286    2.000    2.571 
#    0.000    3.571    0.000   16.286    0.000    0.000 
#    0.000    0.000    0.000    0.000    0.000    0.000 
#
# Total GULP energy -347109.379033 kJ/mol
# GULP energy per Si atom -12396.763537 kJ/mol
# Density = 2.192258 g / cm^3
# Si number density = 21.972587 Si / 1000 Ang^3
#
#
#
# Elastic Constant Matrix: (Units=GPa)
#
#
# Indices 1 2 3 4 5 6 
#
# 1 82.1025 38.4700 16.1090 0.0000 -12.3023 0.0000
# 2 38.4700 131.2525 51.7919 0.0000 -4.8945 0.0000
# 3 16.1090 51.7919 79.0829 0.0000 -17.3784 0.0000
# 4 0.0000 0.0000 0.0000 32.7618 0.0000 -6.4518
# 5 -12.3023 -4.8945 -17.3784 0.0000 32.0263 0.0000
# 6 0.0000 0.0000 0.0000 -6.4518 0.0000 5.2384
#
#
#
# Elastic Compliance Matrix: (Units=1/GPa)
#
#
# Indices 1 2 3 4 5 6 
#
# 1 0.014981 -0.004679 0.001272 0.000000 0.005730 0.000000
# 2 -0.004679 0.011895 -0.007758 0.000000 -0.004189 0.000000
# 3 0.001272 -0.007758 0.019657 0.000000 0.009970 0.000000
# 4 0.000000 0.000000 0.000000 0.040297 0.000000 0.049631
# 5 0.005730 -0.004189 0.009970 0.000000 0.038195 0.000000
# 6 0.000000 0.000000 0.000000 0.049631 0.000000 0.252023
#
#
# Mechanical properties :
#
#
# Convention : Reuss Voigt Hill
#
# Bulk Modulus (GPa) = 41.31561 56.13107 48.72334
# Shear Modulus (GPa) = 12.27154 26.40977 19.34065
#
# Velocity S-wave (km/s) = 2.36581 3.47066 2.97006
# Velocity P-wave (km/s) = 5.12902 6.45462 5.82962
#
# Compressibility (1/GPa) = 0.02420393
#
# Stress axis : x y z
#
# Youngs Moduli (GPa) = 66.74927 84.06633 50.87172
#
# Poissons Ratio (x) = 0.39337 -0.06471
# Poissons Ratio (y) = 0.31234 0.39465
# Poissons Ratio (z) = -0.08490 0.65217
#
# Static dielectric constant tensor:
#      x y z
#    x 4.234700 0.000000 -0.195870 
#    y 0.000000 3.925980 0.000000 
#    z -0.195870 0.000000 4.053720 
# 
# 
# High freq. dielectric constant tensor:
#      x y z
#    x 1.869440 0.000000 -0.015610 
#    y 0.000000 1.837880 0.000000 
#    z -0.015610 0.000000 1.867260 
# 
# From -- ./inp_files/65984.got.cif
#   From: 2010.06.25/outbox.cif.g09.slc.cpg/sg12_33_cif.got.tgz:65984.got - 2010.06.28 00:19:55.
