data_PCOD8108938
_publ_section_title
;
Structure prediction by ZEFSAII (Michael W. Deem and Ramdas Pophale) SiO2 
 PCOD8108938
Probable space group: C 2/M
;
_chemical_formula_sum "Si O2"
_cell_formula_units_Z 64
_cell_length_a 15.396696
_cell_length_b 8.830601
_cell_length_c 23.845571
_cell_angle_alpha 90.000000
_cell_angle_beta 91.309134
_cell_angle_gamma 90.000000
_cell_volume 3241.247159
_symmetry_space_group_name_H-M "C 2/M"
_symmetry_group_IT_number 12
_symmetry_cell_setting 'monoclinic'
loop_
_space_group_symop_operation_xyz
x,y,z
-x,y,-z
-x,-y,-z
x,-y,z
1/2+x,1/2+y,z
1/2-x,1/2+y,-z
1/2-x,1/2-y,-z
1/2+x,1/2-y,z
loop_
_atom_site_type_symbol
_atom_site_label
_atom_site_fract_x
_atom_site_fract_y
_atom_site_fract_z
Si Si1 0.246829 0.320142 0.312590
Si Si2 0.092827 0.674515 0.884819
Si Si3 0.601856 0.173831 0.107205
Si Si4 0.406759 0.320979 0.388911
Si Si5 0.582530 0.823517 0.379016
Si Si6 0.737983 0.679199 0.813594
Si Si7 0.343558 0.823629 0.498381
Si Si8 0.344406 0.321363 0.002788
O O1 0.247041 0.500000 0.313552
O O2 0.329101 0.259263 0.348663
O O3 0.159034 0.260590 0.340376
O O4 0.251365 0.259080 0.249294
O O5 0.118712 0.500000 0.893640
O O6 0.152473 0.745225 0.837755
O O7 0.103780 0.760639 0.943298
O O8 0.992129 0.691737 0.864806
O O9 0.676183 0.228285 0.151133
O O10 0.618006 0.000000 0.089443
O O11 0.603674 0.277385 0.052213
O O12 0.402651 0.500000 0.395077
O O13 0.496682 0.269935 0.361911
O O14 0.400398 0.247896 0.450017
O O15 0.606400 0.792364 0.443547
O O16 0.565266 0.000000 0.367797
O O17 0.725091 0.500000 0.814783
O O18 0.250000 0.750000 0.500000
O O19 0.331627 0.000000 0.486849
O O20 0.335936 0.500000 0.007557
O O21 0.250000 0.250000 0.000000
#
# Coordination Sequence:
#
# PCOD8108938 Si02
#       8
#     8   8   8   8   8   8   8   8
#     4   9  20  40  61  82 115 157 200 243 293 346
#     4  11  23  39  60  90 124 154 192 244 292 344
#     4  10  22  39  60  88 120 155 195 239 291 346
#     4  11  22  38  59  88 121 155 195 243 294 349
#     4  10  21  39  60  85 118 156 196 240 293 354
#     4  10  21  40  64  84 111 159 205 242 290 347
#     4  11  21  36  60  88 119 155 193 238 297 357
#     4  12  23  37  61  90 121 156 193 237 294 353
#
# _framework density 19.745486
#
# number of rings (size 3 to 8) (size 9 to 14) (size 15 to 20)
#    0.000    1.500    2.500    3.000    0.000    6.000 
#    0.000    3.125    0.000    0.000    0.000    0.000 
#    0.000    0.000    0.000    0.000    0.000    0.000 
#
# Total GULP energy -396937.162307 kJ/mol
# GULP energy per Si atom -12404.286322 kJ/mol
# Density = 1.970054 g / cm^3
# Si number density = 19.745486 Si / 1000 Ang^3
#
#
#
# Elastic Constant Matrix: (Units=GPa)
#
#
# Indices 1 2 3 4 5 6 
#
# 1 149.3557 37.0325 62.3199 0.0000 -21.6841 0.0000
# 2 37.0325 71.7782 44.2023 0.0000 -8.0589 0.0000
# 3 62.3199 44.2023 143.3547 0.0000 -20.5068 0.0000
# 4 0.0000 0.0000 0.0000 24.8572 0.0000 -5.9658
# 5 -21.6841 -8.0589 -20.5068 0.0000 18.7339 0.0000
# 6 0.0000 0.0000 0.0000 -5.9658 0.0000 35.0942
#
#
#
# Elastic Compliance Matrix: (Units=1/GPa)
#
#
# Indices 1 2 3 4 5 6 
#
# 1 0.009320 -0.002639 -0.002202 0.000000 0.007242 0.000000
# 2 -0.002639 0.018001 -0.004425 0.000000 -0.000156 0.000000
# 3 -0.002202 -0.004425 0.010268 0.000000 0.006788 0.000000
# 4 0.000000 0.000000 0.000000 0.041941 0.000000 0.007130
# 5 0.007242 -0.000156 0.006788 0.000000 0.069125 0.000000
# 6 0.000000 0.000000 0.000000 0.007130 0.000000 0.029707
#
#
# Mechanical properties :
#
#
# Convention : Reuss Voigt Hill
#
# Bulk Modulus (GPa) = 52.47557 72.39978 62.43768
# Shear Modulus (GPa) = 24.60048 30.46599 27.53323
#
# Velocity S-wave (km/s) = 3.53353 3.93228 3.73823
# Velocity P-wave (km/s) = 6.57886 7.57385 7.09382
#
# Compressibility (1/GPa) = 0.01905649
#
# Stress axis : x y z
#
# Youngs Moduli (GPa) = 107.29563 55.55137 97.38575
#
# Poissons Ratio (x) = 0.14663 0.21443
# Poissons Ratio (y) = 0.28320 0.43097
# Poissons Ratio (z) = 0.23625 0.24584
#
# Static dielectric constant tensor:
#      x y z
#    x 3.714480 0.000000 -0.040510 
#    y 0.000000 3.543310 0.000000 
#    z -0.040510 0.000000 3.625680 
# 
# 
# High freq. dielectric constant tensor:
#      x y z
#    x 1.787320 0.000000 -0.003420 
#    y 0.000000 1.758540 0.000000 
#    z -0.003420 0.000000 1.765350 
# 
# From -- ./inp_files/338732.got.cif
#   From: 2010.06.25/outbox.cif.g09.slc.cpg/sg12_170_cif.got.tgz:338732.got - 2010.06.28 00:19:55.
