data_PCOD8108884
_publ_section_title
;
Structure prediction by ZEFSAII (Michael W. Deem and Ramdas Pophale) SiO2 
 PCOD8108884
Probable space group: C 2/M
;
_chemical_formula_sum "Si O2"
_cell_formula_units_Z 64
_cell_length_a 24.157964
_cell_length_b 17.814358
_cell_length_c 14.342673
_cell_angle_alpha 90.000000
_cell_angle_beta 148.840991
_cell_angle_gamma 90.000000
_cell_volume 3193.739978
_symmetry_space_group_name_H-M "C 2/M"
_symmetry_group_IT_number 12
_symmetry_cell_setting 'monoclinic'
loop_
_space_group_symop_operation_xyz
x,y,z
-x,y,-z
-x,-y,-z
x,-y,z
1/2+x,1/2+y,z
1/2-x,1/2+y,-z
1/2-x,1/2-y,-z
1/2+x,1/2-y,z
loop_
_atom_site_type_symbol
_atom_site_label
_atom_site_fract_x
_atom_site_fract_y
_atom_site_fract_z
Si Si1 0.749846 0.310337 0.378298
Si Si2 0.150875 0.792595 0.044615
Si Si3 0.580558 0.915692 0.436510
Si Si4 0.348591 0.413974 0.252963
Si Si5 0.139190 0.655345 0.897639
Si Si6 0.693649 0.087115 0.787376
Si Si7 0.463249 0.411621 0.598697
Si Si8 0.408416 0.310136 0.690291
O O1 0.711520 0.269658 0.227521
O O2 0.808463 0.389539 0.447956
O O3 0.651453 0.334787 0.301868
O O4 0.838462 0.257132 0.550029
O O5 0.192805 0.877023 0.081707
O O6 0.171391 0.736492 0.986231
O O7 0.026726 0.786412 0.890445
O O8 0.483610 0.864729 0.257834
O O9 0.599391 0.911452 0.574951
O O10 0.554816 0.000000 0.368217
O O11 0.379184 0.500000 0.305136
O O12 0.388708 0.378928 0.408073
O O13 0.415801 0.385197 0.258276
O O14 0.222406 0.403093 0.062446
O O15 0.151444 0.644728 0.804732
O O16 0.713325 0.000000 0.848480
O O17 0.454067 0.500000 0.601292
O O18 0.422438 0.375478 0.635033
#
# Coordination Sequence:
#
# PCOD8108884 Si02
#       8
#     8   8   8   8   8   8   8   8
#     4  10  23  41  58  83 114 152 200 252 298 350
#     4  11  23  38  60  87 115 149 203 248 295 351
#     4  10  21  39  59  84 122 160 196 241 294 355
#     4   9  18  33  55  85 122 154 183 232 294 354
#     4  12  20  34  58  89 115 156 200 237 288 353
#     4  10  22  38  57  86 126 161 190 235 294 358
#     4   9  19  35  56  85 117 151 191 236 293 354
#     4  11  21  39  61  81 110 155 197 247 306 340
#
# _framework density 20.039202
#
# number of rings (size 3 to 8) (size 9 to 14) (size 15 to 20)
#    0.000    1.750    1.250    4.500    0.000    3.000 
#    0.000    1.250    0.000    3.750    0.000    4.375 
#    0.000    0.000    0.000    0.000    0.000    0.000 
#
# Total GULP energy -396420.683183 kJ/mol
# GULP energy per Si atom -12388.146349 kJ/mol
# Density = 1.999359 g / cm^3
# Si number density = 20.039202 Si / 1000 Ang^3
#
#
#
# Elastic Constant Matrix: (Units=GPa)
#
#
# Indices 1 2 3 4 5 6 
#
# 1 110.5979 41.8996 33.2256 0.0000 7.5260 0.0000
# 2 41.8996 73.7099 29.2174 0.0000 0.7165 0.0000
# 3 33.2256 29.2174 110.8102 0.0000 11.4357 0.0000
# 4 0.0000 0.0000 0.0000 29.1388 0.0000 -1.8966
# 5 7.5260 0.7165 11.4357 0.0000 30.5762 0.0000
# 6 0.0000 0.0000 0.0000 -1.8966 0.0000 27.4901
#
#
#
# Elastic Compliance Matrix: (Units=1/GPa)
#
#
# Indices 1 2 3 4 5 6 
#
# 1 0.012040 -0.006120 -0.001774 0.000000 -0.002157 0.000000
# 2 -0.006120 0.018302 -0.003226 0.000000 0.002284 0.000000
# 3 -0.001774 -0.003226 0.010770 0.000000 -0.003516 0.000000
# 4 0.000000 0.000000 0.000000 0.034473 0.000000 0.002378
# 5 -0.002157 0.002284 -0.003516 0.000000 0.034497 0.000000
# 6 0.000000 0.000000 0.000000 0.002378 0.000000 0.036541
#
#
# Mechanical properties :
#
#
# Convention : Reuss Voigt Hill
#
# Bulk Modulus (GPa) = 52.98986 55.97813 54.48400
# Shear Modulus (GPa) = 28.54624 30.15938 29.35281
#
# Velocity S-wave (km/s) = 3.77838 3.88367 3.83138
# Velocity P-wave (km/s) = 6.74799 6.93581 6.84254
#
# Compressibility (1/GPa) = 0.01887153
#
# Stress axis : x y z
#
# Youngs Moduli (GPa) = 83.05706 54.63832 92.85152
#
# Poissons Ratio (x) = 0.33438 0.16471
# Poissons Ratio (y) = 0.50830 0.29958
# Poissons Ratio (z) = 0.14733 0.17629
#
# Static dielectric constant tensor:
#      x y z
#    x 3.732780 0.000000 -0.019930 
#    y 0.000000 3.439060 0.000000 
#    z -0.019930 0.000000 3.815460 
# 
# 
# High freq. dielectric constant tensor:
#      x y z
#    x 1.770600 0.000000 -0.000840 
#    y 0.000000 1.763830 0.000000 
#    z -0.000840 0.000000 1.804420 
# 
# From -- ./inp_files/241499.got.cif
#   From: 2010.06.25/outbox.cif.g09.slc.cpg/sg12_121_cif.got.tgz:241499.got - 2010.06.28 00:19:55.
