data_PCOD8108574
_publ_section_title
;
Structure prediction by ZEFSAII (Michael W. Deem and Ramdas Pophale) SiO2 
 PCOD8108574
Probable space group: C 2/M
;
_chemical_formula_sum "Si O2"
_cell_formula_units_Z 64
_cell_length_a 29.220762
_cell_length_b 8.984008
_cell_length_c 18.910918
_cell_angle_alpha 90.000000
_cell_angle_beta 139.238963
_cell_angle_gamma 90.000000
_cell_volume 3241.340978
_symmetry_space_group_name_H-M "C 2/M"
_symmetry_group_IT_number 12
_symmetry_cell_setting 'monoclinic'
loop_
_space_group_symop_operation_xyz
x,y,z
-x,y,-z
-x,-y,-z
x,-y,z
1/2+x,1/2+y,z
1/2-x,1/2+y,-z
1/2-x,1/2-y,-z
1/2+x,1/2-y,z
loop_
_atom_site_type_symbol
_atom_site_label
_atom_site_fract_x
_atom_site_fract_y
_atom_site_fract_z
Si Si1 0.568225 0.675116 0.121638
Si Si2 0.529452 0.167773 0.210839
Si Si3 0.371767 0.168547 0.021861
Si Si4 0.350116 0.323479 0.390831
Si Si5 0.921823 0.168123 0.330330
Si Si6 0.822521 0.831576 0.090310
Si Si7 0.543264 0.823227 0.388161
Si Si8 0.202589 0.824025 0.188257
O O1 0.561164 0.500000 0.118687
O O2 0.574914 0.736546 0.209344
O O3 0.639696 0.722949 0.166750
O O4 0.500000 0.738762 0.000000
O O5 0.532990 0.230556 0.295030
O O6 0.558362 0.000000 0.244458
O O7 0.450963 0.172829 0.087106
O O8 0.318342 0.265306 0.913353
O O9 0.342965 0.000000 0.992147
O O10 0.376446 0.241126 0.104769
O O11 0.342098 0.500000 0.387942
O O12 0.400501 0.279930 0.383873
O O13 0.385703 0.254603 0.502003
O O14 0.273531 0.253142 0.295814
O O15 0.849890 0.173564 0.202178
O O16 0.978990 0.275063 0.362782
O O17 0.952664 0.000000 0.367210
O O18 0.815285 0.000000 0.054571
O O19 0.750000 0.750000 0.000000
O O20 0.549926 0.000000 0.400606
O O21 0.213710 0.000000 0.198214
#
# Coordination Sequence:
#
# PCOD8108574 Si02
#       8
#     8   8   8   8   8   8   8   8
#     4  10  21  38  62  92 124 155 195 245 302 366
#     4  10  22  38  60  90 121 154 197 246 296 356
#     4  11  21  36  57  85 121 159 197 243 298 361
#     4  11  24  42  62  88 121 161 205 252 302 358
#     4  10  22  39  59  85 118 157 204 251 298 356
#     4  11  22  35  54  82 119 162 202 248 304 362
#     4  11  23  41  63  90 121 158 205 254 298 352
#     4  11  23  40  62  91 123 159 200 249 305 364
#
# _framework density 19.744914000000001
#
# number of rings (size 3 to 8) (size 9 to 14) (size 15 to 20)
#    0.000    1.375    2.500    3.000    0.000    6.750 
#    0.000    0.625    0.000    0.000    0.000    0.000 
#    0.000    0.000    0.000    0.000    0.000    0.000 
#
# Total GULP energy -396834.629137 kJ/mol
# GULP energy per Si atom -12401.082161 kJ/mol
# Density = 1.969997 g / cm^3
# Si number density = 19.744914 Si / 1000 Ang^3
#
#
#
# Elastic Constant Matrix: (Units=GPa)
#
#
# Indices 1 2 3 4 5 6 
#
# 1 92.0660 46.6819 41.7965 0.0000 -10.8890 0.0000
# 2 46.6819 84.4842 42.7048 0.0000 0.7548 0.0000
# 3 41.7965 42.7048 120.8520 0.0000 -1.8939 0.0000
# 4 0.0000 0.0000 0.0000 32.9791 0.0000 -0.0886
# 5 -10.8890 0.7548 -1.8939 0.0000 22.7753 0.0000
# 6 0.0000 0.0000 0.0000 -0.0886 0.0000 36.0362
#
#
#
# Elastic Compliance Matrix: (Units=1/GPa)
#
#
# Indices 1 2 3 4 5 6 
#
# 1 0.017326 -0.008138 -0.002986 0.000000 0.008305 0.000000
# 2 -0.008138 0.018252 -0.003710 0.000000 -0.004804 0.000000
# 3 -0.002986 -0.003710 0.010612 0.000000 -0.000422 0.000000
# 4 0.000000 0.000000 0.000000 0.030322 0.000000 0.000075
# 5 0.008305 -0.004804 -0.000422 0.000000 0.048002 0.000000
# 6 0.000000 0.000000 0.000000 0.000075 0.000000 0.027750
#
#
# Mechanical properties :
#
#
# Convention : Reuss Voigt Hill
#
# Bulk Modulus (GPa) = 60.53208 62.19652 61.36430
# Shear Modulus (GPa) = 26.67509 29.43940 28.05725
#
# Velocity S-wave (km/s) = 3.67956 3.86552 3.77369
# Velocity P-wave (km/s) = 6.98397 7.17575 7.08051
#
# Compressibility (1/GPa) = 0.01652017
#
# Stress axis : x y z
#
# Youngs Moduli (GPa) = 57.71558 54.78933 94.23448
#
# Poissons Ratio (x) = 0.44590 0.28141
# Poissons Ratio (y) = 0.46971 0.34963
# Poissons Ratio (z) = 0.17236 0.20328
#
# Static dielectric constant tensor:
#      x y z
#    x 3.668570 0.000000 -0.136740 
#    y 0.000000 3.686990 0.000000 
#    z -0.136740 0.000000 3.637340 
# 
# 
# High freq. dielectric constant tensor:
#      x y z
#    x 1.764190 0.000000 -0.004170 
#    y 0.000000 1.774020 0.000000 
#    z -0.004170 0.000000 1.771680 
# 
# From -- ./inp_files/295670.got.cif
#   From: 2010.06.25/outbox.cif.g09.slc.cpg/sg12_148_cif.got.tgz:295670.got - 2010.06.28 00:19:55.
