data_PCOD8108113
_publ_section_title
;
Structure prediction by ZEFSAII (Michael W. Deem and Ramdas Pophale) SiO2 
 PCOD8108113
Probable space group: C 2/M
;
_chemical_formula_sum "Si O2"
_cell_formula_units_Z 40
_cell_length_a 17.474084
_cell_length_b 13.688286
_cell_length_c 11.953480
_cell_angle_alpha 90.000000
_cell_angle_beta 138.726547
_cell_angle_gamma 90.000000
_cell_volume 1886.052285
_symmetry_space_group_name_H-M "C 2/M"
_symmetry_group_IT_number 12
_symmetry_cell_setting 'monoclinic'
loop_
_space_group_symop_operation_xyz
x,y,z
-x,y,-z
-x,-y,-z
x,-y,z
1/2+x,1/2+y,z
1/2-x,1/2+y,-z
1/2-x,1/2-y,-z
1/2+x,1/2-y,z
loop_
_atom_site_type_symbol
_atom_site_label
_atom_site_fract_x
_atom_site_fract_y
_atom_site_fract_z
Si Si1 0.413934 0.385985 0.506147
Si Si2 0.614483 0.750890 0.330247
Si Si3 0.574882 0.108969 0.869968
Si Si4 0.198283 0.272659 0.194531
Si Si5 0.625489 0.890639 0.676168
O O1 0.500000 0.354183 0.500000
O O2 0.425134 0.500000 0.542516
O O3 0.447096 0.331660 0.659886
O O4 0.282478 0.360076 0.327691
O O5 0.750000 0.750000 0.500000
O O6 0.556700 0.855106 0.298375
O O7 0.602185 0.741246 0.181911
O O8 0.642188 0.107177 0.827610
O O9 0.573095 0.000000 0.921343
O O10 0.634339 0.189443 0.014105
O O11 0.274370 0.176674 0.261051
O O12 0.500000 0.849357 0.500000
O O13 0.640703 0.000000 0.643815
#
# Coordination Sequence:
#
# PCOD8108113 Si02
#       5
#     8   8   8   8   8
#     4  10  21  38  60  85 116 156 199 241 289 351
#     4  10  22  37  57  84 114 152 194 242 297 350
#     4  11  23  39  61  88 119 157 201 248 299 354
#     4  11  21  37  60  88 121 153 195 251 299 346
#     4  10  21  38  62  89 120 162 203 241 291 353
#
# _framework density 21.208321000000002
#
# number of rings (size 3 to 8) (size 9 to 14) (size 15 to 20)
#    0.000    1.600    0.000    6.000    0.000    5.600 
#    0.000    3.000    0.000    2.400    0.000    0.000 
#    0.000    0.000    0.000    0.000    0.000    0.000 
#
# Total GULP energy -247874.975624 kJ/mol
# GULP energy per Si atom -12393.748781 kJ/mol
# Density = 2.116005 g / cm^3
# Si number density = 21.208321 Si / 1000 Ang^3
#
#
#
# Elastic Constant Matrix: (Units=GPa)
#
#
# Indices 1 2 3 4 5 6 
#
# 1 124.3284 61.4575 9.0927 0.0000 -18.4534 0.0000
# 2 61.4575 131.0719 29.6299 0.0000 -4.4332 0.0000
# 3 9.0927 29.6299 60.3557 0.0000 -12.7159 0.0000
# 4 0.0000 0.0000 0.0000 38.2438 0.0000 1.0439
# 5 -18.4534 -4.4332 -12.7159 0.0000 33.7219 0.0000
# 6 0.0000 0.0000 0.0000 1.0439 0.0000 16.8535
#
#
#
# Elastic Compliance Matrix: (Units=1/GPa)
#
#
# Indices 1 2 3 4 5 6 
#
# 1 0.011724 -0.005837 0.002487 0.000000 0.006586 0.000000
# 2 -0.005837 0.011495 -0.005560 0.000000 -0.003779 0.000000
# 3 0.002487 -0.005560 0.020701 0.000000 0.008436 0.000000
# 4 0.000000 0.000000 0.000000 0.026192 0.000000 -0.001622
# 5 0.006586 -0.003779 0.008436 0.000000 0.035942 0.000000
# 6 0.000000 0.000000 0.000000 -0.001622 0.000000 0.059435
#
#
# Mechanical properties :
#
#
# Convention : Reuss Voigt Hill
#
# Bulk Modulus (GPa) = 38.31481 57.34623 47.83052
# Shear Modulus (GPa) = 26.04033 32.13556 29.08795
#
# Velocity S-wave (km/s) = 3.50785 3.89682 3.70744
# Velocity P-wave (km/s) = 5.87468 6.88078 6.39754
#
# Compressibility (1/GPa) = 0.02609957
#
# Stress axis : x y z
#
# Youngs Moduli (GPa) = 85.29534 86.99322 48.30761
#
# Poissons Ratio (x) = 0.50774 -0.12012
# Poissons Ratio (y) = 0.49783 0.26860
# Poissons Ratio (z) = -0.21209 0.48370
#
# Static dielectric constant tensor:
#      x y z
#    x 4.330310 0.000000 -0.361280 
#    y 0.000000 3.867710 0.000000 
#    z -0.361280 0.000000 3.898720 
# 
# 
# High freq. dielectric constant tensor:
#      x y z
#    x 1.844890 0.000000 -0.013420 
#    y 0.000000 1.829790 0.000000 
#    z -0.013420 0.000000 1.820410 
# 
# From -- ./inp_files/143343.got.cif
#   From: 2010.06.25/outbox.cif.g09.slc.cpg/sg12_72_cif.got.tgz:143343.got - 2010.06.28 00:19:55.
