data_PCOD8108549
_publ_section_title
;
Structure prediction by ZEFSAII (Michael W. Deem and Ramdas Pophale) SiO2 
 PCOD8108549
Probable space group: C 2/M
;
_chemical_formula_sum "Si O2"
_cell_formula_units_Z 48
_cell_length_a 22.645387
_cell_length_b 21.858295
_cell_length_c 5.213088
_cell_angle_alpha 90.000000
_cell_angle_beta 55.591214
_cell_angle_gamma 90.000000
_cell_volume 2128.919161
_symmetry_space_group_name_H-M "C 2/M"
_symmetry_group_IT_number 12
_symmetry_cell_setting 'monoclinic'
loop_
_space_group_symop_operation_xyz
x,y,z
-x,y,-z
-x,-y,-z
x,-y,z
1/2+x,1/2+y,z
1/2-x,1/2+y,-z
1/2-x,1/2-y,-z
1/2+x,1/2-y,z
loop_
_atom_site_type_symbol
_atom_site_label
_atom_site_fract_x
_atom_site_fract_y
_atom_site_fract_z
Si Si1 0.428239 0.806899 0.442474
Si Si2 0.360267 0.621774 0.238845
Si Si3 0.287870 0.069055 0.382610
Si Si4 0.087435 0.255701 0.018897
Si Si5 0.620487 0.068224 0.340074
Si Si6 0.076328 0.929895 0.401653
O O1 0.502080 0.769411 0.244824
O O2 0.379988 0.780036 0.793854
O O3 0.439914 0.879948 0.456377
O O4 0.382850 0.794906 0.294660
O O5 0.275536 0.618361 0.500512
O O6 0.400577 0.606777 0.403298
O O7 0.390321 0.686236 0.070247
O O8 0.372183 0.575717 0.971116
O O9 0.319199 0.075484 0.590769
O O10 0.257750 0.000000 0.416293
O O11 0.347146 0.081266 0.019444
O O12 0.586026 0.000000 0.437747
O O13 0.000000 0.903349 0.500000
O O14 0.071002 0.000000 0.499426
#
# Coordination Sequence:
#
# PCOD8108549 Si02
#       6
#     8   8   8   8   8   8
#     4  10  21  41  61  88 124 156 209 262 299 368
#     4  12  23  39  62  87 126 168 208 249 309 373
#     4  10  21  38  62  91 122 161 207 254 307 369
#     4  10  23  38  61  89 119 169 202 249 311 368
#     4  10  21  40  66  92 121 159 202 257 320 368
#     4  11  24  37  56  87 121 159 208 264 311 359
#
# _framework density 22.546651000000001
#
# number of rings (size 3 to 8) (size 9 to 14) (size 15 to 20)
#    0.000    1.500    0.000    5.000    7.000    2.667 
#    0.000    8.333    0.000    0.000    0.000    0.000 
#    0.000    0.000    0.000    0.000    0.000    0.000 
#
# Total GULP energy -297407.701001 kJ/mol
# GULP energy per Si atom -12391.987542 kJ/mol
# Density = 2.249533 g / cm^3
# Si number density = 22.546651 Si / 1000 Ang^3
#
#
#
# Elastic Constant Matrix: (Units=GPa)
#
#
# Indices 1 2 3 4 5 6 
#
# 1 54.6655 16.8385 36.1335 0.0000 29.7852 0.0000
# 2 16.8385 102.5084 33.7751 0.0000 -4.8600 0.0000
# 3 36.1335 33.7751 97.4585 0.0000 41.0264 0.0000
# 4 0.0000 0.0000 0.0000 -51.6922 0.0000 148.9497
# 5 29.7852 -4.8600 41.0264 0.0000 54.1399 0.0000
# 6 0.0000 0.0000 0.0000 148.9497 0.0000 -221.6478
#
#
#
# Elastic Compliance Matrix: (Units=1/GPa)
#
#
# Indices 1 2 3 4 5 6 
#
# 1 0.029612 -0.004339 -0.003603 0.000000 -0.013951 0.000000
# 2 -0.004339 0.012992 -0.006446 0.000000 0.008438 0.000000
# 3 -0.003603 -0.006446 0.019441 0.000000 -0.013329 0.000000
# 4 0.000000 0.000000 0.000000 0.020660 0.000000 0.013883
# 5 -0.013951 0.008438 -0.013329 0.000000 0.037004 0.000000
# 6 0.000000 0.000000 0.000000 0.013883 0.000000 0.004818
#
#
# Mechanical properties :
#
#
# Convention : Reuss Voigt Hill
#
# Bulk Modulus (GPa) = 30.05615 47.56961 38.81288
# Shear Modulus (GPa) = 30.41534 -32.64766 -1.11616
#
# Velocity S-wave (km/s) = 3.67685 -3.80939 -0.70436
# Velocity P-wave (km/s) = 5.60225 1.33995 4.07313
#
# Compressibility (1/GPa) = 0.03327106
#
# Stress axis : x y z
#
# Youngs Moduli (GPa) = 33.77026 76.97152 51.43673
#
# Poissons Ratio (x) = 0.33395 0.18531
# Poissons Ratio (y) = 0.14651 0.33155
# Poissons Ratio (z) = 0.12166 0.49614
#
# Static dielectric constant tensor:
#      x y z
#    x 4.470160 0.000000 1.242830 
#    y 0.000000 4.099930 0.000000 
#    z 1.242830 0.000000 5.176560 
# 
# 
# High freq. dielectric constant tensor:
#      x y z
#    x 1.872460 0.000000 0.044930 
#    y 0.000000 1.891370 0.000000 
#    z 0.044930 0.000000 1.896600 
# 
# From -- ./inp_files/25524.got.cif
#   From: 2010.06.25/outbox.cif.g09.slc.cpg/sg12_13_cif.got.tgz:25524.got - 2010.06.28 00:19:55.
