data_PCOD8108342
_publ_section_title
;
Structure prediction by ZEFSAII (Michael W. Deem and Ramdas Pophale) SiO2 
 PCOD8108342
Probable space group: C 2/M
;
_chemical_formula_sum "Si O2"
_cell_formula_units_Z 48
_cell_length_a 28.223960
_cell_length_b 8.579001
_cell_length_c 10.131164
_cell_angle_alpha 90.000000
_cell_angle_beta 90.752646
_cell_angle_gamma 90.000000
_cell_volume 2452.881346
_symmetry_space_group_name_H-M "C 2/M"
_symmetry_group_IT_number 12
_symmetry_cell_setting 'monoclinic'
loop_
_space_group_symop_operation_xyz
x,y,z
-x,y,-z
-x,-y,-z
x,-y,z
1/2+x,1/2+y,z
1/2-x,1/2+y,-z
1/2-x,1/2-y,-z
1/2+x,1/2-y,z
loop_
_atom_site_type_symbol
_atom_site_label
_atom_site_fract_x
_atom_site_fract_y
_atom_site_fract_z
Si Si1 0.027380 0.814859 0.132204
Si Si2 0.531530 0.674714 0.629190
Si Si3 0.375115 0.181655 0.777921
Si Si4 0.219844 0.316605 0.616811
Si Si5 0.626111 0.684923 0.515188
Si Si6 0.271353 0.183247 0.867544
O O1 0.080621 0.748977 0.138503
O O2 0.996765 0.742638 0.252483
O O3 0.031759 0.000000 0.142888
O O4 0.000000 0.761488 0.000000
O O5 0.500000 0.674385 0.500000
O O6 0.542822 0.500000 0.677725
O O7 0.580676 0.757118 0.590205
O O8 0.369908 0.253841 0.633028
O O9 0.327568 0.217530 0.859852
O O10 0.382722 0.000000 0.758995
O O11 0.214103 0.500000 0.599854
O O12 0.250000 0.250000 0.500000
O O13 0.169101 0.235497 0.608693
O O14 0.244610 0.276701 0.753595
O O15 0.622014 0.500000 0.504216
O O16 0.261000 0.000000 0.854198
O O17 0.250000 0.250000 0.000000
#
# Coordination Sequence:
#
# PCOD8108342 Si02
#       6
#     8   8   8   8   8   8
#     4  10  21  38  61  88 119 159 205 250 301 368
#     4   9  17  33  57  87 118 151 198 250 295 354
#     4  11  23  39  61  89 123 159 201 254 314 376
#     4  12  24  40  63  93 127 164 210 258 309 370
#     4  11  21  36  63  91 122 163 208 258 310 362
#     4  11  25  44  65  92 127 165 208 260 317 379
#
# _framework density 19.568822000000001
#
# number of rings (size 3 to 8) (size 9 to 14) (size 15 to 20)
#    0.000    1.333    3.333    3.000    0.000    3.667 
#    0.000    4.167    0.000    0.000    0.000    0.000 
#    0.000    0.000    0.000    0.000    0.000    0.000 
#
# Total GULP energy -297581.494555 kJ/mol
# GULP energy per Si atom -12399.228940 kJ/mol
# Density = 1.952428 g / cm^3
# Si number density = 19.568822 Si / 1000 Ang^3
#
#
#
# Elastic Constant Matrix: (Units=GPa)
#
#
# Indices 1 2 3 4 5 6 
#
# 1 160.3003 34.2435 56.3822 0.0000 -9.5078 0.0000
# 2 34.2435 54.6279 25.9720 0.0000 -5.1785 0.0000
# 3 56.3822 25.9720 125.4559 0.0000 -9.8975 0.0000
# 4 0.0000 0.0000 0.0000 22.5922 0.0000 -1.7168
# 5 -9.5078 -5.1785 -9.8975 0.0000 39.2621 0.0000
# 6 0.0000 0.0000 0.0000 -1.7168 0.0000 20.0542
#
#
#
# Elastic Compliance Matrix: (Units=1/GPa)
#
#
# Indices 1 2 3 4 5 6 
#
# 1 0.008047 -0.003639 -0.002803 0.000000 0.000762 0.000000
# 2 -0.003639 0.022055 -0.002827 0.000000 0.001315 0.000000
# 3 -0.002803 -0.002827 0.009930 0.000000 0.001452 0.000000
# 4 0.000000 0.000000 0.000000 0.044553 0.000000 0.003814
# 5 0.000762 0.001315 0.001452 0.000000 0.026194 0.000000
# 6 0.000000 0.000000 0.000000 0.003814 0.000000 0.050191
#
#
# Mechanical properties :
#
#
# Convention : Reuss Voigt Hill
#
# Bulk Modulus (GPa) = 46.52241 63.73105 55.12673
# Shear Modulus (GPa) = 26.78480 31.30081 29.04281
#
# Velocity S-wave (km/s) = 3.70367 4.00374 3.85663
# Velocity P-wave (km/s) = 6.48960 7.34926 6.93277
#
# Compressibility (1/GPa) = 0.02149502
#
# Stress axis : x y z
#
# Youngs Moduli (GPa) = 124.27366 45.34019 100.70221
#
# Poissons Ratio (x) = 0.16501 0.28225
# Poissons Ratio (y) = 0.45227 0.28465
# Poissons Ratio (z) = 0.34832 0.12816
#
# Static dielectric constant tensor:
#      x y z
#    x 4.566690 0.000000 -0.378850 
#    y 0.000000 3.535060 0.000000 
#    z -0.378850 0.000000 3.555340 
# 
# 
# High freq. dielectric constant tensor:
#      x y z
#    x 1.784140 0.000000 -0.004080 
#    y 0.000000 1.750960 0.000000 
#    z -0.004080 0.000000 1.762520 
# 
# From -- ./inp_files/108611.got.cif
#   From: 2010.06.25/outbox.cif.g09.slc.cpg/sg12_55_cif.got.tgz:108611.got - 2010.06.28 00:19:55.
