data_PCOD8108717
_publ_section_title
;
Structure prediction by ZEFSAII (Michael W. Deem and Ramdas Pophale) SiO2 
 PCOD8108717
Probable space group: C 2/M
;
_chemical_formula_sum "Si O2"
_cell_formula_units_Z 48
_cell_length_a 8.574745
_cell_length_b 27.927537
_cell_length_c 10.003398
_cell_angle_alpha 90.000000
_cell_angle_beta 86.191976
_cell_angle_gamma 90.000000
_cell_volume 2390.239904
_symmetry_space_group_name_H-M "C 2/M"
_symmetry_group_IT_number 12
_symmetry_cell_setting 'monoclinic'
loop_
_space_group_symop_operation_xyz
x,y,z
-x,y,-z
-x,-y,-z
x,-y,z
1/2+x,1/2+y,z
1/2-x,1/2+y,-z
1/2-x,1/2-y,-z
1/2+x,1/2-y,z
loop_
_atom_site_type_symbol
_atom_site_label
_atom_site_fract_x
_atom_site_fract_y
_atom_site_fract_z
Si Si1 0.814170 0.849222 0.525973
Si Si2 0.860274 0.054342 0.909745
Si Si3 0.152629 0.791890 0.221844
Si Si4 0.213774 0.810410 0.752588
Si Si5 0.681852 0.143137 0.999169
Si Si6 0.854055 0.051611 0.604670
O O1 0.770028 0.813733 0.648755
O O2 0.735489 0.828999 0.396776
O O3 0.749383 0.902939 0.563908
O O4 0.000000 0.853160 0.500000
O O5 0.914437 0.060753 0.752935
O O6 0.806504 0.000000 0.942584
O O7 0.715525 0.089552 0.945580
O O8 0.000000 0.069553 0.000000
O O9 0.185497 0.735794 0.215384
O O10 0.968185 0.799037 0.230514
O O11 0.225757 0.817081 0.089657
O O12 0.259341 0.852360 0.852101
O O13 0.500000 0.153723 0.000000
O O14 0.000000 0.047252 0.500000
O O15 0.762694 0.000000 0.604539
#
# Coordination Sequence:
#
# PCOD8108717 Si02
#       6
#     8   8   8   8   8   8
#     4   9  19  34  57  88 117 151 191 241 299 348
#     4  10  21  38  64  93 119 154 199 246 294 348
#     4  11  21  40  60  85 118 153 199 245 297 354
#     4  11  23  38  62  87 118 154 197 249 295 357
#     4  12  25  40  58  85 121 162 199 240 295 350
#     4   9  17  32  58  91 122 147 185 239 295 350
#
# _framework density 20.081665999999998
#
# number of rings (size 3 to 8) (size 9 to 14) (size 15 to 20)
#    0.000    1.667    1.667    3.500    4.667    0.333 
#    0.000    2.500    0.000    0.000    0.000    2.333 
#    0.000    0.000    0.000    0.000    0.000    0.000 
#
# Total GULP energy -297573.621148 kJ/mol
# GULP energy per Si atom -12398.900881 kJ/mol
# Density = 2.003596 g / cm^3
# Si number density = 20.081666 Si / 1000 Ang^3
#
#
#
# Elastic Constant Matrix: (Units=GPa)
#
#
# Indices 1 2 3 4 5 6 
#
# 1 58.0596 19.2772 26.9711 0.0000 7.3479 0.0000
# 2 19.2772 116.5492 33.9212 0.0000 4.8218 0.0000
# 3 26.9711 33.9212 125.9519 0.0000 12.2475 0.0000
# 4 0.0000 0.0000 0.0000 72.8155 0.0000 -57.4366
# 5 7.3479 4.8218 12.2475 0.0000 18.4263 0.0000
# 6 0.0000 0.0000 0.0000 -57.4366 0.0000 102.9260
#
#
#
# Elastic Compliance Matrix: (Units=1/GPa)
#
#
# Indices 1 2 3 4 5 6 
#
# 1 0.020106 -0.002173 -0.003203 0.000000 -0.005320 0.000000
# 2 -0.002173 0.009556 -0.002084 0.000000 -0.000249 0.000000
# 3 -0.003203 -0.002084 0.009632 0.000000 -0.004580 0.000000
# 4 0.000000 0.000000 0.000000 0.024532 0.000000 0.013690
# 5 -0.005320 -0.000249 -0.004580 0.000000 0.059501 0.000000
# 6 0.000000 0.000000 0.000000 0.013690 0.000000 0.017355
#
#
# Mechanical properties :
#
#
# Convention : Reuss Voigt Hill
#
# Bulk Modulus (GPa) = 41.02702 51.21108 46.11905
# Shear Modulus (GPa) = 30.53849 53.52630 42.03239
#
# Velocity S-wave (km/s) = 3.90386 5.16838 4.57997
# Velocity P-wave (km/s) = 6.38707 7.82132 7.14030
#
# Compressibility (1/GPa) = 0.02437418
#
# Stress axis : x y z
#
# Youngs Moduli (GPa) = 49.73527 104.64184 103.82039
#
# Poissons Ratio (x) = 0.22742 0.33253
# Poissons Ratio (y) = 0.10809 0.21638
# Poissons Ratio (z) = 0.15930 0.21809
#
# Static dielectric constant tensor:
#      x y z
#    x 3.112200 0.000000 -0.017840 
#    y 0.000000 4.161370 0.000000 
#    z -0.017840 0.000000 3.980010 
# 
# 
# High freq. dielectric constant tensor:
#      x y z
#    x 1.728380 0.000000 -0.003010 
#    y 0.000000 1.805720 0.000000 
#    z -0.003010 0.000000 1.807310 
# 
# From -- ./inp_files/42147.got.cif
#   From: 2010.06.25/outbox.cif.g09.slc.cpg/sg12_22_cif.got.tgz:42147.got - 2010.06.28 00:19:55.
