data_PCOD8108849
_publ_section_title
;
Structure prediction by ZEFSAII (Michael W. Deem and Ramdas Pophale) SiO2 
 PCOD8108849
Probable space group: C 2/M
;
_chemical_formula_sum "Si O2"
_cell_formula_units_Z 40
_cell_length_a 14.126589
_cell_length_b 24.765264
_cell_length_c 11.256616
_cell_angle_alpha 90.000000
_cell_angle_beta 150.146351
_cell_angle_gamma 90.000000
_cell_volume 1960.338379
_symmetry_space_group_name_H-M "C 2/M"
_symmetry_group_IT_number 12
_symmetry_cell_setting 'monoclinic'
loop_
_space_group_symop_operation_xyz
x,y,z
-x,y,-z
-x,-y,-z
x,-y,z
1/2+x,1/2+y,z
1/2-x,1/2+y,-z
1/2-x,1/2-y,-z
1/2+x,1/2-y,z
loop_
_atom_site_type_symbol
_atom_site_label
_atom_site_fract_x
_atom_site_fract_y
_atom_site_fract_z
Si Si1 0.767020 0.652766 0.089762
Si Si2 0.691125 0.865966 0.487662
Si Si3 0.283265 0.729313 0.750482
Si Si4 0.275820 0.059831 0.268192
Si Si5 0.566659 0.336811 0.451122
O O1 0.799868 0.699471 0.223037
O O2 0.689748 0.598933 0.073101
O O3 0.963712 0.638970 0.237705
O O4 0.617826 0.672520 0.830895
O O5 0.781577 0.811049 0.637175
O O6 0.767278 0.916284 0.648316
O O7 0.774139 0.872226 0.444613
O O8 0.150718 0.779538 0.580214
O O9 0.500000 0.749033 0.000000
O O10 0.500000 0.058142 0.500000
O O11 0.186224 0.000000 0.158808
O O12 0.500000 0.366975 0.500000
#
# Coordination Sequence:
#
# PCOD8108849 Si02
#       5
#     8   8   8   8   8
#     4  10  22  40  58  85 121 145 189 245 283 335
#     4  10  21  39  58  85 118 148 185 242 288 333
#     4  11  22  37  58  81 114 154 195 240 285 329
#     4   8  16  36  68  95 111 138 182 238 301 342
#     4  12  26  37  54  80 117 162 202 225 275 341
#
# _framework density 20.404641000000002
#
# number of rings (size 3 to 8) (size 9 to 14) (size 15 to 20)
#    0.000    1.800    2.000    3.600    2.800    1.600 
#    0.000    2.000    0.000    2.400    0.000    5.600 
#    0.000    0.000    0.000    0.000    0.000    0.000 
#
# Total GULP energy -247962.100997 kJ/mol
# GULP energy per Si atom -12398.105050 kJ/mol
# Density = 2.035820 g / cm^3
# Si number density = 20.404641 Si / 1000 Ang^3
#
#
#
# Elastic Constant Matrix: (Units=GPa)
#
#
# Indices 1 2 3 4 5 6 
#
# 1 180.9477 49.0892 38.5210 0.0000 -1.5628 0.0000
# 2 49.0892 105.3090 44.3992 0.0000 -13.1763 0.0000
# 3 38.5210 44.3992 104.0875 0.0000 5.1998 0.0000
# 4 0.0000 0.0000 0.0000 2.9182 0.0000 0.0005
# 5 -1.5628 -13.1763 5.1998 0.0000 22.4377 0.0000
# 6 0.0000 0.0000 0.0000 0.0005 0.0000 11.7764
#
#
#
# Elastic Compliance Matrix: (Units=1/GPa)
#
#
# Indices 1 2 3 4 5 6 
#
# 1 0.006491 -0.002593 -0.001257 0.000000 -0.000779 0.000000
# 2 -0.002593 0.014249 -0.005592 0.000000 0.009483 0.000000
# 3 -0.001257 -0.005592 0.012774 0.000000 -0.006332 0.000000
# 4 0.000000 0.000000 0.000000 0.342682 0.000000 -0.000014
# 5 -0.000779 0.009483 -0.006332 0.000000 0.051549 0.000000
# 6 0.000000 0.000000 0.000000 -0.000014 0.000000 0.084916
#
#
# Mechanical properties :
#
#
# Convention : Reuss Voigt Hill
#
# Bulk Modulus (GPa) = 68.35586 72.70699 70.53143
# Shear Modulus (GPa) = 9.32102 24.64876 16.98489
#
# Velocity S-wave (km/s) = 2.13963 3.47940 2.88827
# Velocity P-wave (km/s) = 6.29896 7.20080 6.76493
#
# Compressibility (1/GPa) = 0.01462932
#
# Stress axis : x y z
#
# Youngs Moduli (GPa) = 154.06308 70.18165 78.28351
#
# Poissons Ratio (x) = 0.18200 0.09841
# Poissons Ratio (y) = 0.39952 0.43775
# Poissons Ratio (z) = 0.19367 0.39245
#
# Static dielectric constant tensor:
#      x y z
#    x 4.066120 0.000000 0.076150 
#    y 0.000000 3.798450 0.000000 
#    z 0.076150 0.000000 3.629130 
# 
# 
# High freq. dielectric constant tensor:
#      x y z
#    x 1.806680 0.000000 0.020980 
#    y 0.000000 1.757850 0.000000 
#    z 0.020980 0.000000 1.799250 
# 
# From -- ./inp_files/148799.got.cif
#   From: 2010.06.25/outbox.cif.g09.slc.cpg/sg12_75_cif.got.tgz:148799.got - 2010.06.28 00:19:55.
