data_PCOD8108528
_publ_section_title
;
Structure prediction by ZEFSAII (Michael W. Deem and Ramdas Pophale) SiO2 
 PCOD8108528
Probable space group: C 2/M
;
_chemical_formula_sum "Si O2"
_cell_formula_units_Z 48
_cell_length_a 14.484159
_cell_length_b 26.796718
_cell_length_c 9.508855
_cell_angle_alpha 90.000000
_cell_angle_beta 149.094840
_cell_angle_gamma 90.000000
_cell_volume 1895.587320
_symmetry_space_group_name_H-M "C 2/M"
_symmetry_group_IT_number 12
_symmetry_cell_setting 'monoclinic'
loop_
_space_group_symop_operation_xyz
x,y,z
-x,y,-z
-x,-y,-z
x,-y,z
1/2+x,1/2+y,z
1/2-x,1/2+y,-z
1/2-x,1/2-y,-z
1/2+x,1/2-y,z
loop_
_atom_site_type_symbol
_atom_site_label
_atom_site_fract_x
_atom_site_fract_y
_atom_site_fract_z
Si Si1 0.603944 0.776266 0.399608
Si Si2 0.381587 0.888406 0.552108
Si Si3 0.278771 0.281862 0.177735
Si Si4 0.200150 0.893062 0.857370
Si Si5 0.133032 0.941725 0.046873
Si Si6 0.788339 0.443910 0.697037
O O1 0.750000 0.750000 0.500000
O O2 0.667395 0.830443 0.533304
O O3 0.435733 0.784422 0.070667
O O4 0.593172 0.742149 0.529909
O O5 0.590707 0.898157 0.837987
O O6 0.323249 0.917217 0.335561
O O7 0.262949 0.909482 0.527325
O O8 0.358182 0.335891 0.242357
O O9 0.250000 0.250000 0.000000
O O10 0.080444 0.917542 0.826700
O O11 0.169813 0.922086 0.670837
O O12 0.156136 0.000000 0.056182
O O13 0.000000 0.927679 0.000000
O O14 0.717339 0.500000 0.570040
O O15 0.000000 0.445706 0.000000
#
# Coordination Sequence:
#
# PCOD8108528 Si02
#       6
#     8   8   8   8   8   8
#     4  11  23  40  64  93 127 167 210 260 320 382
#     4  10  21  38  62  90 120 161 208 256 310 379
#     4  11  23  40  61  90 127 165 213 266 315 379
#     4  10  21  39  62  87 119 161 209 261 316 377
#     4  11  24  40  59  88 124 160 204 260 323 389
#     4   9  17  32  58  90 118 147 194 253 307 364
#
# _framework density 25.321964999999999
#
# number of rings (size 3 to 8) (size 9 to 14) (size 15 to 20)
#    0.000    1.667    0.000    4.500    0.000   10.667 
#    0.000    2.500    0.000    3.000    0.000    0.000 
#    0.000    0.000    0.000    0.000    0.000    0.000 
#
# Total GULP energy -297379.646634 kJ/mol
# GULP energy per Si atom -12390.818610 kJ/mol
# Density = 2.526433 g / cm^3
# Si number density = 25.321965 Si / 1000 Ang^3
#
#
#
# Elastic Constant Matrix: (Units=GPa)
#
#
# Indices 1 2 3 4 5 6 
#
# 1 120.5489 53.0647 -17.0044 0.0000 -34.9007 0.0000
# 2 53.0647 184.2978 19.2608 0.0000 -27.1377 0.0000
# 3 -17.0044 19.2608 129.8260 0.0000 -21.7166 0.0000
# 4 0.0000 0.0000 0.0000 20.9835 0.0000 -23.8007
# 5 -34.9007 -27.1377 -21.7166 0.0000 28.5321 0.0000
# 6 0.0000 0.0000 0.0000 -23.8007 0.0000 35.5209
#
#
#
# Elastic Compliance Matrix: (Units=1/GPa)
#
#
# Indices 1 2 3 4 5 6 
#
# 1 0.017023 -0.002077 0.006521 0.000000 0.023810 0.000000
# 2 -0.002077 0.006564 -0.000718 0.000000 0.003156 0.000000
# 3 0.006521 -0.000718 0.011325 0.000000 0.015913 0.000000
# 4 0.000000 0.000000 0.000000 0.198573 0.000000 0.133053
# 5 0.023810 0.003156 0.015913 0.000000 0.079287 0.000000
# 6 0.000000 0.000000 0.000000 0.133053 0.000000 0.117304
#
#
# Mechanical properties :
#
#
# Convention : Reuss Voigt Hill
#
# Bulk Modulus (GPa) = 23.60541 60.59054 42.09798
# Shear Modulus (GPa) = 11.44833 42.29739 26.87286
#
# Velocity S-wave (km/s) = 2.12860 4.09147 3.26121
# Velocity P-wave (km/s) = 3.92219 6.80442 5.55354
#
# Compressibility (1/GPa) = 0.04236317
#
# Stress axis : x y z
#
# Youngs Moduli (GPa) = 58.74516 152.35207 88.30030
#
# Poissons Ratio (x) = 0.31640 -0.57576
# Poissons Ratio (y) = 0.12200 0.06339
# Poissons Ratio (z) = -0.38305 0.10936
#
# Static dielectric constant tensor:
#      x y z
#    x 4.640970 0.000000 -0.456020 
#    y 0.000000 4.181200 0.000000 
#    z -0.456020 0.000000 3.464870 
# 
# 
# High freq. dielectric constant tensor:
#      x y z
#    x 2.023120 0.000000 0.006770 
#    y 0.000000 2.009690 0.000000 
#    z 0.006770 0.000000 2.041430 
# 
# From -- ./inp_files/67415.got.cif
#   From: 2010.06.25/outbox.cif.g09.slc.cpg/sg12_34_cif.got.tgz:67415.got - 2010.06.28 00:19:55.
