data_PCOD8108638
_publ_section_title
;
Structure prediction by ZEFSAII (Michael W. Deem and Ramdas Pophale) SiO2 
 PCOD8108638
Probable space group: C 2/M
;
_chemical_formula_sum "Si O2"
_cell_formula_units_Z 56
_cell_length_a 27.568349
_cell_length_b 9.106444
_cell_length_c 11.617881
_cell_angle_alpha 90.000000
_cell_angle_beta 73.937054
_cell_angle_gamma 90.000000
_cell_volume 2802.793126
_symmetry_space_group_name_H-M "C 2/M"
_symmetry_group_IT_number 12
_symmetry_cell_setting 'monoclinic'
loop_
_space_group_symop_operation_xyz
x,y,z
-x,y,-z
-x,-y,-z
x,-y,z
1/2+x,1/2+y,z
1/2-x,1/2+y,-z
1/2-x,1/2-y,-z
1/2+x,1/2-y,z
loop_
_atom_site_type_symbol
_atom_site_label
_atom_site_fract_x
_atom_site_fract_y
_atom_site_fract_z
Si Si1 0.287682 0.167712 0.892124
Si Si2 0.925215 0.330583 0.291568
Si Si3 0.989242 0.169985 0.637089
Si Si4 0.762838 0.664900 0.650543
Si Si5 0.670200 0.670165 0.558675
Si Si6 0.392594 0.329327 0.843609
Si Si7 0.057672 0.668971 0.978007
O O1 0.260252 0.176055 0.788155
O O2 0.341945 0.242570 0.848890
O O3 0.294918 0.000000 0.928218
O O4 0.250000 0.250000 0.000000
O O5 0.927117 0.500000 0.323706
O O6 0.881465 0.255150 0.392243
O O7 0.915086 0.308883 0.162612
O O8 0.978308 0.261050 0.293067
O O9 0.930920 0.194935 0.711474
O O10 0.000000 0.225747 0.500000
O O11 0.004427 0.000000 0.638026
O O12 0.776803 0.500000 0.600099
O O13 0.707592 0.707163 0.639540
O O14 0.804538 0.777034 0.576382
O O15 0.657249 0.500000 0.556493
O O16 0.379664 0.500000 0.867953
O O17 0.415861 0.273099 0.947648
O O18 0.061026 0.500000 0.017550
O O19 0.000000 0.717214 0.000000
#
# Coordination Sequence:
#
# PCOD8108638 Si02
#       7
#     8   8   8   8   8   8   8
#     4  11  25  44  65  91 125 163 210 259 308 368
#     4  11  23  38  61  92 123 158 203 250 305 365
#     4  10  23  42  62  90 127 165 207 251 304 368
#     4   9  21  42  63  88 120 157 203 253 305 364
#     4  10  21  38  63  91 122 157 198 251 307 364
#     4  11  24  41  64  92 124 164 208 256 312 369
#     4  10  21  40  62  87 121 158 201 250 300 358
#
# _framework density 19.980070000000001
#
# number of rings (size 3 to 8) (size 9 to 14) (size 15 to 20)
#    0.000    1.714    1.429    1.714    4.000    4.000 
#    0.000    0.000    0.000    0.000    0.000    0.000 
#    0.000    0.000    0.000    0.000    0.000    0.000 
#
# Total GULP energy -347321.772274 kJ/mol
# GULP energy per Si atom -12404.349010 kJ/mol
# Density = 1.993459 g / cm^3
# Si number density = 19.980070 Si / 1000 Ang^3
#
#
#
# Elastic Constant Matrix: (Units=GPa)
#
#
# Indices 1 2 3 4 5 6 
#
# 1 80.0624 47.6279 33.6790 0.0000 -15.2917 0.0000
# 2 47.6279 115.9102 51.0217 0.0000 -9.4874 0.0000
# 3 33.6790 51.0217 94.1759 0.0000 -6.0571 0.0000
# 4 0.0000 0.0000 0.0000 33.0273 0.0000 -1.8155
# 5 -15.2917 -9.4874 -6.0571 0.0000 30.9205 0.0000
# 6 0.0000 0.0000 0.0000 -1.8155 0.0000 36.6239
#
#
#
# Elastic Compliance Matrix: (Units=1/GPa)
#
#
# Indices 1 2 3 4 5 6 
#
# 1 0.018459 -0.005668 -0.003095 0.000000 0.006784 0.000000
# 2 -0.005668 0.013233 -0.005126 0.000000 0.000253 0.000000
# 3 -0.003095 -0.005126 0.014485 0.000000 -0.000266 0.000000
# 4 0.000000 0.000000 0.000000 0.030361 0.000000 0.001505
# 5 0.006784 0.000253 -0.000266 0.000000 0.035722 0.000000
# 6 0.000000 0.000000 0.000000 0.001505 0.000000 0.027379
#
#
# Mechanical properties :
#
#
# Convention : Reuss Voigt Hill
#
# Bulk Modulus (GPa) = 54.34462 61.64507 57.99485
# Shear Modulus (GPa) = 28.81012 30.63565 29.72288
#
# Velocity S-wave (km/s) = 3.80141 3.92000 3.86116
# Velocity P-wave (km/s) = 6.82100 7.16999 6.99767
#
# Compressibility (1/GPa) = 0.01840109
#
# Stress axis : x y z
#
# Youngs Moduli (GPa) = 54.17350 75.56607 69.03537
#
# Poissons Ratio (x) = 0.42827 0.21363
# Poissons Ratio (y) = 0.30703 0.35390
# Poissons Ratio (z) = 0.16764 0.38738
#
# Static dielectric constant tensor:
#      x y z
#    x 3.636560 0.000000 -0.022740 
#    y 0.000000 3.741810 0.000000 
#    z -0.022740 0.000000 3.651450 
# 
# 
# High freq. dielectric constant tensor:
#      x y z
#    x 1.780530 0.000000 -0.003120 
#    y 0.000000 1.787250 0.000000 
#    z -0.003120 0.000000 1.784770 
# 
# From -- ./inp_files/180793.got.cif
#   From: 2010.06.25/outbox.cif.g09.slc.cpg/sg12_91_cif.got.tgz:180793.got - 2010.06.28 00:19:55.
