data_PCOD8108979
_publ_section_title
;
Structure prediction by ZEFSAII (Michael W. Deem and Ramdas Pophale) SiO2 
 PCOD8108979
Probable space group: C 2/M
;
_chemical_formula_sum "Si O2"
_cell_formula_units_Z 56
_cell_length_a 16.328860
_cell_length_b 9.030421
_cell_length_c 17.610329
_cell_angle_alpha 90.000000
_cell_angle_beta 103.398826
_cell_angle_gamma 90.000000
_cell_volume 2526.075028
_symmetry_space_group_name_H-M "C 2/M"
_symmetry_group_IT_number 12
_symmetry_cell_setting 'monoclinic'
loop_
_space_group_symop_operation_xyz
x,y,z
-x,y,-z
-x,-y,-z
x,-y,z
1/2+x,1/2+y,z
1/2-x,1/2+y,-z
1/2-x,1/2-y,-z
1/2+x,1/2-y,z
loop_
_atom_site_type_symbol
_atom_site_label
_atom_site_fract_x
_atom_site_fract_y
_atom_site_fract_z
Si Si1 0.663257 0.834854 0.457520
Si Si2 0.282967 0.175878 0.082627
Si Si3 0.264038 0.327184 0.659219
Si Si4 0.388897 0.672488 0.408353
Si Si5 0.505127 0.836803 0.334034
Si Si6 0.359534 0.327527 0.828420
Si Si7 0.026842 0.326850 0.843872
O O1 0.731440 0.723829 0.431308
O O2 0.609967 0.762588 0.513118
O O3 0.604142 0.848843 0.370217
O O4 0.697115 0.000000 0.484465
O O5 0.219988 0.225371 0.137324
O O6 0.379764 0.231332 0.114216
O O7 0.282177 0.000000 0.074753
O O8 0.250000 0.250000 0.000000
O O9 0.244760 0.500000 0.656250
O O10 0.182084 0.234125 0.665898
O O11 0.337943 0.291548 0.735055
O O12 0.378854 0.500000 0.422760
O O13 0.474999 0.708645 0.384590
O O14 0.485689 0.783935 0.245754
O O15 0.463559 0.000000 0.339852
O O16 0.374558 0.500000 0.844021
O O17 0.447849 0.249170 0.871224
O O18 0.019082 0.500000 0.858375
#
# Coordination Sequence:
#
# PCOD8108979 Si02
#       7
#     8   8   8   8   8   8   8
#     4  11  22  38  59  83 115 155 202 254 312 371
#     4  10  23  43  66  96 133 169 204 249 304 372
#     4  11  22  39  61  84 116 155 202 255 310 369
#     4  12  25  37  54  82 118 159 206 258 311 366
#     4  10  21  39  61  84 115 155 201 253 310 370
#     4  10  22  41  67  95 127 165 208 258 313 370
#     4  10  21  41  68  95 127 166 210 256 312 374
#
# _framework density 22.168780000000002
#
# number of rings (size 3 to 8) (size 9 to 14) (size 15 to 20)
#    0.000    1.429    1.429    3.857    0.000    8.000 
#    0.000    4.286    0.000    0.000    0.000    0.000 
#    0.000    0.000    0.000    0.000    0.000    0.000 
#
# Total GULP energy -346966.127616 kJ/mol
# GULP energy per Si atom -12391.647415 kJ/mol
# Density = 2.211832 g / cm^3
# Si number density = 22.168780 Si / 1000 Ang^3
#
#
#
# Elastic Constant Matrix: (Units=GPa)
#
#
# Indices 1 2 3 4 5 6 
#
# 1 119.2286 33.3869 21.5756 0.0000 10.4524 0.0000
# 2 33.3869 103.6373 24.0401 0.0000 -4.0381 0.0000
# 3 21.5756 24.0401 69.7308 0.0000 7.3225 0.0000
# 4 0.0000 0.0000 0.0000 32.2418 0.0000 -0.4464
# 5 10.4524 -4.0381 7.3225 0.0000 36.0451 0.0000
# 6 0.0000 0.0000 0.0000 -0.4464 0.0000 39.5433
#
#
#
# Elastic Compliance Matrix: (Units=1/GPa)
#
#
# Indices 1 2 3 4 5 6 
#
# 1 0.009743 -0.002844 -0.001741 0.000000 -0.002790 0.000000
# 2 -0.002844 0.011454 -0.003362 0.000000 0.002791 0.000000
# 3 -0.001741 -0.003362 0.016375 0.000000 -0.003198 0.000000
# 4 0.000000 0.000000 0.000000 0.031021 0.000000 0.000350
# 5 -0.002790 0.002791 -0.003198 0.000000 0.029514 0.000000
# 6 0.000000 0.000000 0.000000 0.000350 0.000000 0.025293
#
#
# Mechanical properties :
#
#
# Convention : Reuss Voigt Hill
#
# Bulk Modulus (GPa) = 46.13026 50.06687 48.09856
# Shear Modulus (GPa) = 34.12532 35.80564 34.96548
#
# Velocity S-wave (km/s) = 3.92770 4.02324 3.97576
# Velocity P-wave (km/s) = 6.43607 6.64946 6.54363
#
# Compressibility (1/GPa) = 0.02167775
#
# Stress axis : x y z
#
# Youngs Moduli (GPa) = 102.63529 87.30813 61.07038
#
# Poissons Ratio (x) = 0.24827 0.10634
# Poissons Ratio (y) = 0.29185 0.20532
# Poissons Ratio (z) = 0.17872 0.29352
#
# Static dielectric constant tensor:
#      x y z
#    x 4.232220 0.000000 0.217350 
#    y 0.000000 3.890850 0.000000 
#    z 0.217350 0.000000 3.981390 
# 
# 
# High freq. dielectric constant tensor:
#      x y z
#    x 1.885760 0.000000 0.016600 
#    y 0.000000 1.862720 0.000000 
#    z 0.016600 0.000000 1.868630 
# 
# From -- ./inp_files/275555.got.cif
#   From: 2010.06.25/outbox.cif.g09.slc.cpg/sg12_138_cif.got.tgz:275555.got - 2010.06.28 00:19:55.
