data_PCOD8108407
_publ_section_title
;
Structure prediction by ZEFSAII (Michael W. Deem and Ramdas Pophale) SiO2 
 PCOD8108407
Probable space group: C 2/M
;
_chemical_formula_sum "Si O2"
_cell_formula_units_Z 48
_cell_length_a 19.947255
_cell_length_b 9.055673
_cell_length_c 20.580595
_cell_angle_alpha 90.000000
_cell_angle_beta 137.995975
_cell_angle_gamma 90.000000
_cell_volume 2487.749079
_symmetry_space_group_name_H-M "C 2/M"
_symmetry_group_IT_number 12
_symmetry_cell_setting 'monoclinic'
loop_
_space_group_symop_operation_xyz
x,y,z
-x,y,-z
-x,-y,-z
x,-y,z
1/2+x,1/2+y,z
1/2-x,1/2+y,-z
1/2-x,1/2-y,-z
1/2+x,1/2-y,z
loop_
_atom_site_type_symbol
_atom_site_label
_atom_site_fract_x
_atom_site_fract_y
_atom_site_fract_z
Si Si1 0.957407 0.825226 0.284422
Si Si2 0.225370 0.330621 0.783726
Si Si3 0.005491 0.671522 0.820916
Si Si4 0.074031 0.830499 0.996721
Si Si5 0.780848 0.669058 0.695520
Si Si6 0.671136 0.329107 0.488209
O O1 0.867840 0.770010 0.264846
O O2 0.947883 0.756027 0.206446
O O3 0.059622 0.772319 0.392712
O O4 0.951196 0.000000 0.273781
O O5 0.191148 0.500000 0.753780
O O6 0.267675 0.280178 0.745034
O O7 0.311698 0.312185 0.899237
O O8 0.030237 0.500000 0.830661
O O9 0.059772 0.728757 0.924268
O O10 0.887156 0.701775 0.738462
O O11 0.048182 0.000000 0.960755
O O12 0.000000 0.774057 0.000000
O O13 0.776188 0.500000 0.717064
O O14 0.694489 0.701303 0.580630
O O15 0.681338 0.500000 0.478993
O O16 0.750000 0.250000 0.500000
#
# Coordination Sequence:
#
# PCOD8108407 Si02
#       6
#     8   8   8   8   8   8
#     4  11  24  41  62  88 124 163 198 245 302 355
#     4  11  24  41  62  88 122 160 199 249 302 354
#     4  11  22  37  63  93 121 155 199 249 297 355
#     4  10  21  39  62  88 119 156 201 249 298 356
#     4  10  21  38  61  90 122 155 197 246 297 357
#     4  10  21  38  62  90 120 158 200 245 295 352
#
# _framework density 19.294549
#
# number of rings (size 3 to 8) (size 9 to 14) (size 15 to 20)
#    0.000    1.500    3.333    1.500    0.000    5.000 
#    0.000    3.333    0.000    0.000    0.000    0.000 
#    0.000    0.000    0.000    0.000    0.000    0.000 
#
# Total GULP energy -297746.227408 kJ/mol
# GULP energy per Si atom -12406.092809 kJ/mol
# Density = 1.925063 g / cm^3
# Si number density = 19.294549 Si / 1000 Ang^3
#
#
#
# Elastic Constant Matrix: (Units=GPa)
#
#
# Indices 1 2 3 4 5 6 
#
# 1 54.6820 30.9919 9.3076 0.0000 4.0037 0.0000
# 2 30.9919 82.4341 35.1706 0.0000 -0.9712 0.0000
# 3 9.3076 35.1706 81.9412 0.0000 0.5521 0.0000
# 4 0.0000 0.0000 0.0000 28.3587 0.0000 0.0712
# 5 4.0037 -0.9712 0.5521 0.0000 30.1694 0.0000
# 6 0.0000 0.0000 0.0000 0.0712 0.0000 37.5721
#
#
#
# Elastic Compliance Matrix: (Units=1/GPa)
#
#
# Indices 1 2 3 4 5 6 
#
# 1 0.023724 -0.009574 0.001438 0.000000 -0.003483 0.000000
# 2 -0.009574 0.018725 -0.006963 0.000000 0.002001 0.000000
# 3 0.001438 -0.006963 0.015034 0.000000 -0.000690 0.000000
# 4 0.000000 0.000000 0.000000 0.035263 0.000000 -0.000067
# 5 -0.003483 0.002001 -0.000690 0.000000 0.033685 0.000000
# 6 0.000000 0.000000 0.000000 -0.000067 0.000000 0.026616
#
#
# Mechanical properties :
#
#
# Convention : Reuss Voigt Hill
#
# Bulk Modulus (GPa) = 36.65051 41.11083 38.88067
# Shear Modulus (GPa) = 25.99586 28.79253 27.39420
#
# Velocity S-wave (km/s) = 3.67456 3.86717 3.77210
# Velocity P-wave (km/s) = 6.08603 6.42598 6.25831
#
# Compressibility (1/GPa) = 0.02728475
#
# Stress axis : x y z
#
# Youngs Moduli (GPa) = 42.15165 53.40582 66.51678
#
# Poissons Ratio (x) = 0.51129 -0.09565
# Poissons Ratio (y) = 0.40355 0.46315
# Poissons Ratio (z) = -0.06061 0.37186
#
# Static dielectric constant tensor:
#      x y z
#    x 3.446470 0.000000 0.058550 
#    y 0.000000 3.545440 0.000000 
#    z 0.058550 0.000000 3.701980 
# 
# 
# High freq. dielectric constant tensor:
#      x y z
#    x 1.747410 0.000000 -0.001200 
#    y 0.000000 1.755480 0.000000 
#    z -0.001200 0.000000 1.761790 
# 
# From -- ./inp_files/229809.got.cif
#   From: 2010.06.25/outbox.cif.g09.slc.cpg/sg12_115_cif.got.tgz:229809.got - 2010.06.28 00:19:55.
