data_PCOD8108444
_publ_section_title
;
Structure prediction by ZEFSAII (Michael W. Deem and Ramdas Pophale) SiO2 
 PCOD8108444
Probable space group: C 2/M
;
_chemical_formula_sum "Si O2"
_cell_formula_units_Z 56
_cell_length_a 15.119964
_cell_length_b 26.352402
_cell_length_c 9.449213
_cell_angle_alpha 90.000000
_cell_angle_beta 46.639397
_cell_angle_gamma 90.000000
_cell_volume 2737.341976
_symmetry_space_group_name_H-M "C 2/M"
_symmetry_group_IT_number 12
_symmetry_cell_setting 'monoclinic'
loop_
_space_group_symop_operation_xyz
x,y,z
-x,y,-z
-x,-y,-z
x,-y,z
1/2+x,1/2+y,z
1/2-x,1/2+y,-z
1/2-x,1/2-y,-z
1/2+x,1/2-y,z
loop_
_atom_site_type_symbol
_atom_site_label
_atom_site_fract_x
_atom_site_fract_y
_atom_site_fract_z
Si Si1 0.119525 0.941452 0.445097
Si Si2 0.536314 0.135067 0.811206
Si Si3 0.568865 0.212353 0.284164
Si Si4 0.702725 0.629547 0.576586
Si Si5 0.989694 0.198941 0.853366
Si Si6 0.329182 0.059287 0.988882
Si Si7 0.269321 0.365320 0.132153
O O1 0.125168 0.915588 0.592694
O O2 0.000000 0.919027 0.500000
O O3 0.100617 0.000000 0.497755
O O4 0.238650 0.931543 0.218761
O O5 0.508761 0.169903 0.708395
O O6 0.680568 0.130316 0.653075
O O7 0.462210 0.081858 0.880836
O O8 0.500000 0.161170 0.000000
O O9 0.500000 0.229764 0.500000
O O10 0.577030 0.261612 0.176398
O O11 0.698283 0.187598 0.180059
O O12 0.624862 0.682060 0.653652
O O13 0.743622 0.617130 0.691164
O O14 0.909589 0.147520 0.946317
O O15 0.000000 0.222541 0.000000
O O16 0.276515 0.087793 0.909786
O O17 0.344014 0.000000 0.936568
#
# Coordination Sequence:
#
# PCOD8108444 Si02
#       7
#     8   8   8   8   8   8   8
#     4  10  21  38  61  92 125 161 207 253 301 360
#     4  11  22  40  61  87 123 163 198 252 306 357
#     4  11  22  40  62  90 124 159 201 252 304 364
#     4  11  22  40  63  89 122 159 206 251 300 363
#     4  10  23  41  61  89 120 164 206 250 303 364
#     4  10  22  38  62  91 125 163 202 250 306 365
#     4  10  22  42  63  88 128 159 202 252 306 360
#
# _framework density 20.457801
#
# number of rings (size 3 to 8) (size 9 to 14) (size 15 to 20)
#    0.000    1.571    2.857    1.714    0.000    3.714 
#    2.571    0.714    0.000    5.143    0.000    0.000 
#    0.000    0.000    0.000    0.000    0.000    0.000 
#
# Total GULP energy -347121.279118 kJ/mol
# GULP energy per Si atom -12397.188540 kJ/mol
# Density = 2.041124 g / cm^3
# Si number density = 20.457801 Si / 1000 Ang^3
#
#
#
# Elastic Constant Matrix: (Units=GPa)
#
#
# Indices 1 2 3 4 5 6 
#
# 1 117.0069 45.2203 52.9095 0.0000 14.4396 0.0000
# 2 45.2203 86.9555 52.5472 0.0000 8.8071 0.0000
# 3 52.9095 52.5472 110.5060 0.0000 3.8907 0.0000
# 4 0.0000 0.0000 0.0000 18.2573 0.0000 9.0567
# 5 14.4396 8.8071 3.8907 0.0000 42.8506 0.0000
# 6 0.0000 0.0000 0.0000 9.0567 0.0000 22.5065
#
#
#
# Elastic Compliance Matrix: (Units=1/GPa)
#
#
# Indices 1 2 3 4 5 6 
#
# 1 0.012101 -0.003583 -0.003985 0.000000 -0.002979 0.000000
# 2 -0.003583 0.017499 -0.006542 0.000000 -0.001795 0.000000
# 3 -0.003985 -0.006542 0.014018 0.000000 0.001415 0.000000
# 4 0.000000 0.000000 0.000000 0.068433 0.000000 -0.027538
# 5 -0.002979 -0.001795 0.001415 0.000000 0.024581 0.000000
# 6 0.000000 0.000000 0.000000 -0.027538 0.000000 0.055513
#
#
# Mechanical properties :
#
#
# Convention : Reuss Voigt Hill
#
# Bulk Modulus (GPa) = 64.94591 68.42473 66.68532
# Shear Modulus (GPa) = 22.17306 27.64229 24.90767
#
# Velocity S-wave (km/s) = 3.29575 3.67984 3.49308
# Velocity P-wave (km/s) = 6.80425 7.18152 6.99543
#
# Compressibility (1/GPa) = 0.01539743
#
# Stress axis : x y z
#
# Youngs Moduli (GPa) = 82.63770 57.14713 71.33440
#
# Poissons Ratio (x) = 0.20476 0.28428
# Poissons Ratio (y) = 0.29609 0.46668
# Poissons Ratio (z) = 0.32933 0.37387
#
# Static dielectric constant tensor:
#      x y z
#    x 3.992050 0.000000 -0.029530 
#    y 0.000000 3.420970 0.000000 
#    z -0.029530 0.000000 3.653110 
# 
# 
# High freq. dielectric constant tensor:
#      x y z
#    x 1.820480 0.000000 0.000350 
#    y 0.000000 1.778710 0.000000 
#    z 0.000350 0.000000 1.802900 
# 
# From -- ./inp_files/68103.got.cif
#   From: 2010.06.25/outbox.cif.g09.slc.cpg/sg12_35_cif.got.tgz:68103.got - 2010.06.28 00:19:55.
