data_PCOD8108730
_publ_section_title
;
Structure prediction by ZEFSAII (Michael W. Deem and Ramdas Pophale) SiO2 
 PCOD8108730
Probable space group: C 2/M
;
_chemical_formula_sum "Si O2"
_cell_formula_units_Z 64
_cell_length_a 13.200728
_cell_length_b 27.606432
_cell_length_c 13.296869
_cell_angle_alpha 90.000000
_cell_angle_beta 137.700207
_cell_angle_gamma 90.000000
_cell_volume 3261.211517
_symmetry_space_group_name_H-M "C 2/M"
_symmetry_group_IT_number 12
_symmetry_cell_setting 'monoclinic'
loop_
_space_group_symop_operation_xyz
x,y,z
-x,y,-z
-x,-y,-z
x,-y,z
1/2+x,1/2+y,z
1/2-x,1/2+y,-z
1/2-x,1/2-y,-z
1/2+x,1/2-y,z
loop_
_atom_site_type_symbol
_atom_site_label
_atom_site_fract_x
_atom_site_fract_y
_atom_site_fract_z
Si Si1 0.191258 0.364122 0.375260
Si Si2 0.331083 0.298011 0.847849
Si Si3 0.828737 0.056308 0.347015
Si Si4 0.841016 0.556456 0.331832
Si Si5 0.675862 0.381506 0.843506
Si Si6 0.352440 0.128257 0.162511
Si Si7 0.839376 0.201536 0.328535
Si Si8 0.363941 0.624809 0.701041
O O1 0.215398 0.415907 0.338314
O O2 0.221483 0.321076 0.319834
O O3 0.307379 0.359792 0.550716
O O4 0.026109 0.357190 0.298870
O O5 0.255813 0.328297 0.882328
O O6 0.223707 0.252743 0.751623
O O7 0.335235 0.329740 0.751017
O O8 0.500000 0.281521 0.000000
O O9 0.802907 0.072549 0.213587
O O10 0.000000 0.070029 0.500000
O O11 0.794492 0.000000 0.333935
O O12 0.812949 0.500000 0.295863
O O13 0.826368 0.581023 0.211994
O O14 0.716023 0.576914 0.315614
O O15 0.000000 0.567893 0.500000
O O16 0.650706 0.332459 0.762032
O O17 0.538333 0.388899 0.819668
O O18 0.822042 0.380979 0.022207
O O19 0.000000 0.207494 0.500000
#
# Coordination Sequence:
#
# PCOD8108730 Si02
#       8
#     8   8   8   8   8   8   8   8
#     4  11  22  41  63  91 122 163 205 248 302 365
#     4  11  26  42  61  91 125 158 204 258 307 366
#     4  10  21  38  64  95 123 159 209 253 297 363
#     4  10  22  39  62  94 125 157 207 257 298 360
#     4  11  22  43  62  87 129 162 200 253 307 362
#     4  11  25  41  63  91 126 164 201 250 313 361
#     4  11  25  41  63  93 123 158 208 256 300 366
#     4  11  21  41  64  85 122 165 200 248 306 361
#
# _framework density 19.624609
#
# number of rings (size 3 to 8) (size 9 to 14) (size 15 to 20)
#    0.000    1.250    5.000    0.750    3.500    5.500 
#    0.000    1.250    0.000    0.000    0.000    0.000 
#    0.000    0.000    0.000    0.000    0.000    0.000 
#
# Total GULP energy -396930.874669 kJ/mol
# GULP energy per Si atom -12404.089833 kJ/mol
# Density = 1.957994 g / cm^3
# Si number density = 19.624609 Si / 1000 Ang^3
#
#
#
# Elastic Constant Matrix: (Units=GPa)
#
#
# Indices 1 2 3 4 5 6 
#
# 1 85.5271 25.4121 11.4428 0.0000 -2.7644 0.0000
# 2 25.4121 93.9448 50.5115 0.0000 -3.6345 0.0000
# 3 11.4428 50.5115 91.9899 0.0000 -15.4197 0.0000
# 4 0.0000 0.0000 0.0000 22.0249 0.0000 0.7993
# 5 -2.7644 -3.6345 -15.4197 0.0000 34.4141 0.0000
# 6 0.0000 0.0000 0.0000 0.7993 0.0000 7.1983
#
#
#
# Elastic Compliance Matrix: (Units=1/GPa)
#
#
# Indices 1 2 3 4 5 6 
#
# 1 0.012752 -0.003751 0.000625 0.000000 0.000908 0.000000
# 2 -0.003751 0.016376 -0.008959 0.000000 -0.002586 0.000000
# 3 0.000625 -0.008959 0.016826 0.000000 0.006643 0.000000
# 4 0.000000 0.000000 0.000000 0.045587 0.000000 -0.005062
# 5 0.000908 -0.002586 0.006643 0.000000 0.031834 0.000000
# 6 0.000000 0.000000 0.000000 -0.005062 0.000000 0.139483
#
#
# Mechanical properties :
#
#
# Convention : Reuss Voigt Hill
#
# Bulk Modulus (GPa) = 45.90128 49.57719 47.73924
# Shear Modulus (GPa) = 16.99012 25.00049 20.99531
#
# Velocity S-wave (km/s) = 2.94557 3.57310 3.27440
# Velocity P-wave (km/s) = 5.91683 6.50694 6.21889
#
# Compressibility (1/GPa) = 0.02178588
#
# Stress axis : x y z
#
# Youngs Moduli (GPa) = 78.41729 61.06481 59.43238
#
# Poissons Ratio (x) = 0.22903 -0.03717
# Poissons Ratio (y) = 0.29412 0.53245
# Poissons Ratio (z) = -0.04905 0.54708
#
# Static dielectric constant tensor:
#      x y z
#    x 3.647860 0.000000 -0.035810 
#    y 0.000000 3.433610 0.000000 
#    z -0.035810 0.000000 3.630130 
# 
# 
# High freq. dielectric constant tensor:
#      x y z
#    x 1.775930 0.000000 -0.004290 
#    y 0.000000 1.757400 0.000000 
#    z -0.004290 0.000000 1.773810 
# 
# From -- ./inp_files/149786.got.cif
#   From: 2010.06.25/outbox.cif.g09.slc.cpg/sg12_75_cif.got.tgz:149786.got - 2010.06.28 00:19:55.
