data_PCOD8108931
_publ_section_title
;
Structure prediction by ZEFSAII (Michael W. Deem and Ramdas Pophale) SiO2 
 PCOD8108931
Probable space group: C 2/M
;
_chemical_formula_sum "Si O2"
_cell_formula_units_Z 56
_cell_length_a 23.760053
_cell_length_b 8.915258
_cell_length_c 15.715809
_cell_angle_alpha 90.000000
_cell_angle_beta 123.405879
_cell_angle_gamma 90.000000
_cell_volume 2779.047797
_symmetry_space_group_name_H-M "C 2/M"
_symmetry_group_IT_number 12
_symmetry_cell_setting 'monoclinic'
loop_
_space_group_symop_operation_xyz
x,y,z
-x,y,-z
-x,-y,-z
x,-y,z
1/2+x,1/2+y,z
1/2-x,1/2+y,-z
1/2-x,1/2-y,-z
1/2+x,1/2-y,z
loop_
_atom_site_type_symbol
_atom_site_label
_atom_site_fract_x
_atom_site_fract_y
_atom_site_fract_z
Si Si1 0.952366 0.678602 0.386490
Si Si2 0.458601 0.174854 0.201452
Si Si3 0.681473 0.175675 0.647551
Si Si4 0.321287 0.323168 0.834211
Si Si5 0.314223 0.175412 0.009258
Si Si6 0.321358 0.824234 0.546240
Si Si7 0.416739 0.675745 0.761748
O O1 0.952184 0.500000 0.393361
O O2 0.976096 0.727122 0.312383
O O3 0.876293 0.739098 0.338095
O O4 0.000000 0.746728 0.500000
O O5 0.505941 0.268058 0.176295
O O6 0.474255 0.000000 0.201156
O O7 0.380288 0.209653 0.120167
O O8 0.754359 0.243280 0.732298
O O9 0.657323 0.212891 0.532288
O O10 0.689650 0.000000 0.665967
O O11 0.316330 0.500000 0.847594
O O12 0.329826 0.239455 0.929660
O O13 0.384894 0.284898 0.826944
O O14 0.299695 0.000000 0.990657
O O15 0.250000 0.250000 0.000000
O O16 0.250000 0.750000 0.500000
O O17 0.377033 0.757840 0.654104
O O18 0.315198 0.000000 0.557954
O O19 0.412700 0.500000 0.741343
#
# Coordination Sequence:
#
# PCOD8108931 Si02
#       7
#     8   8   8   8   8   8   8
#     4   9  16  29  54  84 109 142 192 239 285 346
#     4  10  22  40  61  86 118 156 197 248 302 359
#     4   9  17  32  55  82 115 155 198 244 293 352
#     4  10  21  39  60  84 116 156 204 250 298 358
#     4  11  24  42  65  91 119 154 198 247 306 365
#     4  11  20  34  57  86 123 162 202 246 298 358
#     4  11  23  39  59  87 122 160 203 249 304 364
#
# _framework density 20.150786
#
# number of rings (size 3 to 8) (size 9 to 14) (size 15 to 20)
#    0.000    1.857    1.429    3.000    0.000    7.429 
#    0.000    2.857    0.000    4.714    0.000    0.000 
#    0.000    0.000    0.000    0.000    0.000    0.000 
#
# Total GULP energy -347173.080158 kJ/mol
# GULP energy per Si atom -12399.038577 kJ/mol
# Density = 2.010492 g / cm^3
# Si number density = 20.150786 Si / 1000 Ang^3
#
#
#
# Elastic Constant Matrix: (Units=GPa)
#
#
# Indices 1 2 3 4 5 6 
#
# 1 153.7901 48.1690 52.3707 0.0000 -8.0747 0.0000
# 2 48.1690 68.1183 45.7538 0.0000 -7.3600 0.0000
# 3 52.3707 45.7538 113.4887 0.0000 -10.6675 0.0000
# 4 0.0000 0.0000 0.0000 29.8806 0.0000 1.2221
# 5 -8.0747 -7.3600 -10.6675 0.0000 29.3870 0.0000
# 6 0.0000 0.0000 0.0000 1.2221 0.0000 30.7100
#
#
#
# Elastic Compliance Matrix: (Units=1/GPa)
#
#
# Indices 1 2 3 4 5 6 
#
# 1 0.008710 -0.004716 -0.002075 0.000000 0.000459 0.000000
# 2 -0.004716 0.022820 -0.006842 0.000000 0.001936 0.000000
# 3 -0.002075 -0.006842 0.012748 0.000000 0.002344 0.000000
# 4 0.000000 0.000000 0.000000 0.033521 0.000000 -0.001334
# 5 0.000459 0.001936 0.002344 0.000000 0.035490 0.000000
# 6 0.000000 0.000000 0.000000 -0.001334 0.000000 0.032616
#
#
# Mechanical properties :
#
#
# Convention : Reuss Voigt Hill
#
# Bulk Modulus (GPa) = 58.78162 69.77603 64.27882
# Shear Modulus (GPa) = 27.95778 30.60242 29.28010
#
# Velocity S-wave (km/s) = 3.72886 3.90124 3.81602
# Velocity P-wave (km/s) = 6.91183 7.41586 7.16828
#
# Compressibility (1/GPa) = 0.01701212
#
# Stress axis : x y z
#
# Youngs Moduli (GPa) = 114.80829 43.82147 78.44605
#
# Poissons Ratio (x) = 0.20666 0.16278
# Poissons Ratio (y) = 0.54143 0.53671
# Poissons Ratio (z) = 0.23823 0.29982
#
# Static dielectric constant tensor:
#      x y z
#    x 3.889750 0.000000 0.022770 
#    y 0.000000 3.431460 0.000000 
#    z 0.022770 0.000000 3.624730 
# 
# 
# High freq. dielectric constant tensor:
#      x y z
#    x 1.806150 0.000000 -0.000600 
#    y 0.000000 1.753730 0.000000 
#    z -0.000600 0.000000 1.790400 
# 
# From -- ./inp_files/238976.got.cif
#   From: 2010.06.25/outbox.cif.g09.slc.cpg/sg12_120_cif.got.tgz:238976.got - 2010.06.28 00:19:55.
