data_PCOD8108797
_publ_section_title
;
Structure prediction by ZEFSAII (Michael W. Deem and Ramdas Pophale) SiO2 
 PCOD8108797
Probable space group: C 2/M
;
_chemical_formula_sum "Si O2"
_cell_formula_units_Z 40
_cell_length_a 22.324351
_cell_length_b 11.062276
_cell_length_c 7.491830
_cell_angle_alpha 90.000000
_cell_angle_beta 83.592446
_cell_angle_gamma 90.000000
_cell_volume 1838.610739
_symmetry_space_group_name_H-M "C 2/M"
_symmetry_group_IT_number 12
_symmetry_cell_setting 'monoclinic'
loop_
_space_group_symop_operation_xyz
x,y,z
-x,y,-z
-x,-y,-z
x,-y,z
1/2+x,1/2+y,z
1/2-x,1/2+y,-z
1/2-x,1/2-y,-z
1/2+x,1/2-y,z
loop_
_atom_site_type_symbol
_atom_site_label
_atom_site_fract_x
_atom_site_fract_y
_atom_site_fract_z
Si Si1 0.458089 0.000000 0.262072
Si Si2 0.375968 0.213525 0.245490
Si Si3 0.411649 0.000000 0.678089
Si Si4 0.251482 0.639433 0.639466
Si Si5 0.371505 0.256804 0.657204
Si Si6 0.562825 0.358630 0.053090
O O1 0.428777 0.881673 0.184571
O O2 0.440552 0.000000 0.474409
O O3 0.530724 0.000000 0.206143
O O4 0.311344 0.149095 0.233899
O O5 0.382621 0.270460 0.441579
O O6 0.383147 0.317818 0.096203
O O7 0.368029 0.884494 0.714588
O O8 0.256531 0.500000 0.563097
O O9 0.250000 0.750000 0.500000
O O10 0.310831 0.670728 0.736543
O O11 0.427238 0.312743 0.747702
O O12 0.561776 0.500000 0.058198
O O13 0.500000 0.306865 0.000000
#
# Coordination Sequence:
#
# PCOD8108797 Si02
#       6
#     4   8   4   8   8   8
#     4   9  16  33  61  87 126 151 211 263 312 371
#     4  10  21  39  65  90 124 167 211 265 329 379
#     4   9  18  33  59  95 118 167 203 261 318 375
#     4  10  21  38  66  96 132 171 216 268 321 388
#     4  10  22  40  63  92 131 164 217 262 325 386
#     4  11  25  42  60  90 127 168 219 269 323 393
#
# _framework density 21.755555000000001
#
# number of rings (size 3 to 8) (size 9 to 14) (size 15 to 20)
#    0.000    2.000    1.000    1.800    4.200    8.000 
#    0.000    4.000    0.000    0.000    0.000    0.000 
#    0.000    0.000    0.000    0.000    0.000    0.000 
#
# Total GULP energy -247819.949864 kJ/mol
# GULP energy per Si atom -12390.997493 kJ/mol
# Density = 2.170604 g / cm^3
# Si number density = 21.755555 Si / 1000 Ang^3
#
#
#
# Elastic Constant Matrix: (Units=GPa)
#
#
# Indices 1 2 3 4 5 6 
#
# 1 98.1697 54.5537 32.4968 0.0000 9.4296 0.0000
# 2 54.5537 131.7969 23.9861 0.0000 -5.3399 0.0000
# 3 32.4968 23.9861 57.9059 0.0000 5.1261 0.0000
# 4 0.0000 0.0000 0.0000 25.7764 0.0000 2.2164
# 5 9.4296 -5.3399 5.1261 0.0000 25.3379 0.0000
# 6 0.0000 0.0000 0.0000 2.2164 0.0000 38.1811
#
#
#
# Elastic Compliance Matrix: (Units=1/GPa)
#
#
# Indices 1 2 3 4 5 6 
#
# 1 0.015947 -0.005740 -0.006048 0.000000 -0.005921 0.000000
# 2 -0.005740 0.010426 -0.001508 0.000000 0.004638 0.000000
# 3 -0.006048 -0.001508 0.021502 0.000000 -0.002417 0.000000
# 4 0.000000 0.000000 0.000000 0.038990 0.000000 -0.002263
# 5 -0.005921 0.004638 -0.002417 0.000000 0.043137 0.000000
# 6 0.000000 0.000000 0.000000 -0.002263 0.000000 0.026322
#
#
# Mechanical properties :
#
#
# Convention : Reuss Voigt Hill
#
# Bulk Modulus (GPa) = 46.98486 56.66063 51.82274
# Shear Modulus (GPa) = 26.31458 29.64815 27.98136
#
# Velocity S-wave (km/s) = 3.48164 3.69560 3.59021
# Velocity P-wave (km/s) = 6.14866 6.65663 6.40768
#
# Compressibility (1/GPa) = 0.02128345
#
# Stress axis : x y z
#
# Youngs Moduli (GPa) = 62.70824 95.91652 46.50760
#
# Poissons Ratio (x) = 0.55057 0.28126
# Poissons Ratio (y) = 0.35995 0.07013
# Poissons Ratio (z) = 0.37923 0.14463
#
# Static dielectric constant tensor:
#      x y z
#    x 4.655820 0.000000 0.201140 
#    y 0.000000 4.050550 0.000000 
#    z 0.201140 0.000000 3.516640 
# 
# 
# High freq. dielectric constant tensor:
#      x y z
#    x 1.867400 0.000000 0.013830 
#    y 0.000000 1.864440 0.000000 
#    z 0.013830 0.000000 1.815740 
# 
# From -- ./inp_files/93739.got.cif
#   From: 2010.06.25/outbox.cif.g09.slc.cpg/sg12_47_cif.got.tgz:93739.got - 2010.06.28 00:19:55.
