data_PCOD8108612
_publ_section_title
;
Structure prediction by ZEFSAII (Michael W. Deem and Ramdas Pophale) SiO2 
 PCOD8108612
Probable space group: C 2/M
;
_chemical_formula_sum "Si O2"
_cell_formula_units_Z 44
_cell_length_a 19.764803
_cell_length_b 10.735624
_cell_length_c 19.537701
_cell_angle_alpha 90.000000
_cell_angle_beta 31.341409
_cell_angle_gamma 90.000000
_cell_volume 2156.306956
_symmetry_space_group_name_H-M "C 2/M"
_symmetry_group_IT_number 12
_symmetry_cell_setting 'monoclinic'
loop_
_space_group_symop_operation_xyz
x,y,z
-x,y,-z
-x,-y,-z
x,-y,z
1/2+x,1/2+y,z
1/2-x,1/2+y,-z
1/2-x,1/2-y,-z
1/2+x,1/2-y,z
loop_
_atom_site_type_symbol
_atom_site_label
_atom_site_fract_x
_atom_site_fract_y
_atom_site_fract_z
Si Si1 0.774654 0.755613 0.839963
Si Si2 0.201583 0.641350 0.637311
Si Si3 0.753620 0.500000 0.062705
Si Si4 0.979386 0.000000 0.257257
Si Si5 0.430697 0.256898 0.365702
Si Si6 0.813557 0.000000 0.025930
Si Si7 0.370393 0.853444 0.150673
O O1 0.707230 0.624212 0.913008
O O2 0.753637 0.785480 0.778039
O O3 0.925656 0.743702 0.728625
O O4 0.697634 0.869315 0.946244
O O5 0.250881 0.500000 0.603203
O O6 0.327293 0.730634 0.516847
O O7 0.102126 0.645179 0.658476
O O8 0.128984 0.683523 0.769842
O O9 0.598577 0.500000 0.209052
O O10 0.785361 0.500000 0.954098
O O11 0.900619 0.875755 0.342062
O O12 0.036936 0.000000 0.130331
O O13 0.354433 0.000000 0.154198
O O14 0.500000 0.805345 0.000000
#
# Coordination Sequence:
#
# PCOD8108612 Si02
#       7
#     8   8   4   4   8   4   8
#     4  11  21  39  60  92 123 163 205 251 304 369
#     4  10  22  40  61  91 121 161 206 255 307 358
#     4   8  18  32  54  82 120 156 192 254 286 336
#     4   8  18  34  53  88 116 152 196 249 289 358
#     4  10  21  38  63  88 121 158 208 253 302 360
#     4  10  22  32  57  94 125 153 206 248 309 355
#     4  10  23  40  60  89 126 159 202 255 308 363
#
# _framework density 20.405256999999999
#
# number of rings (size 3 to 8) (size 9 to 14) (size 15 to 20)
#    0.545    1.636    1.818    0.545    3.818    0.727 
#    0.000    3.182    0.000    1.091    0.000    0.000 
#    0.000    0.000    0.000    0.000    0.000    0.000 
#
# Total GULP energy -272549.190076 kJ/mol
# GULP energy per Si atom -12388.599549 kJ/mol
# Density = 2.035881 g / cm^3
# Si number density = 20.405257 Si / 1000 Ang^3
#
#
#
# Elastic Constant Matrix: (Units=GPa)
#
#
# Indices 1 2 3 4 5 6 
#
# 1 104.4918 15.7910 48.1473 0.0000 11.6521 0.0000
# 2 15.7910 90.1810 24.3064 0.0000 13.9544 0.0000
# 3 48.1473 24.3064 118.2948 0.0000 18.4031 0.0000
# 4 0.0000 0.0000 0.0000 22.3592 0.0000 6.5615
# 5 11.6521 13.9544 18.4031 0.0000 29.5813 0.0000
# 6 0.0000 0.0000 0.0000 6.5615 0.0000 29.1883
#
#
#
# Elastic Compliance Matrix: (Units=1/GPa)
#
#
# Indices 1 2 3 4 5 6 
#
# 1 0.011902 -0.000631 -0.004464 0.000000 -0.001614 0.000000
# 2 -0.000631 0.012332 -0.001562 0.000000 -0.004597 0.000000
# 3 -0.004464 -0.001562 0.011296 0.000000 -0.004533 0.000000
# 4 0.000000 0.000000 0.000000 0.047883 0.000000 -0.010764
# 5 -0.001614 -0.004597 -0.004533 0.000000 0.039429 0.000000
# 6 0.000000 0.000000 0.000000 -0.010764 0.000000 0.036680
#
#
# Mechanical properties :
#
#
# Convention : Reuss Voigt Hill
#
# Bulk Modulus (GPa) = 45.01111 54.38412 49.69762
# Shear Modulus (GPa) = 27.74058 31.20727 29.47393
#
# Velocity S-wave (km/s) = 3.69112 3.91496 3.80469
# Velocity P-wave (km/s) = 6.34604 6.86628 6.61128
#
# Compressibility (1/GPa) = 0.02221674
#
# Stress axis : x y z
#
# Youngs Moduli (GPa) = 84.01821 81.09244 88.52511
#
# Poissons Ratio (x) = 0.05120 0.39514
# Poissons Ratio (y) = 0.05305 0.13825
# Poissons Ratio (z) = 0.37502 0.12664
#
# Static dielectric constant tensor:
#      x y z
#    x 3.502650 0.000000 0.089700 
#    y 0.000000 3.640650 0.000000 
#    z 0.089700 0.000000 3.549440 
# 
# 
# High freq. dielectric constant tensor:
#      x y z
#    x 1.776790 0.000000 0.001080 
#    y 0.000000 1.790350 0.000000 
#    z 0.001080 0.000000 1.782820 
# 
# From -- ./inp_files/276902.got.cif
#   From: 2010.06.25/outbox.cif.g09.slc.cpg/sg12_139_cif.got.tgz:276902.got - 2010.06.28 00:19:55.
