data_PCOD8108495
_publ_section_title
;
Structure prediction by ZEFSAII (Michael W. Deem and Ramdas Pophale) SiO2 
 PCOD8108495
Probable space group: C 2/M
;
_chemical_formula_sum "Si O2"
_cell_formula_units_Z 56
_cell_length_a 20.159994
_cell_length_b 9.023292
_cell_length_c 22.570392
_cell_angle_alpha 90.000000
_cell_angle_beta 133.168006
_cell_angle_gamma 90.000000
_cell_volume 2994.545768
_symmetry_space_group_name_H-M "C 2/M"
_symmetry_group_IT_number 12
_symmetry_cell_setting 'monoclinic'
loop_
_space_group_symop_operation_xyz
x,y,z
-x,y,-z
-x,-y,-z
x,-y,z
1/2+x,1/2+y,z
1/2-x,1/2+y,-z
1/2-x,1/2-y,-z
1/2+x,1/2-y,z
loop_
_atom_site_type_symbol
_atom_site_label
_atom_site_fract_x
_atom_site_fract_y
_atom_site_fract_z
Si Si1 0.015032 0.170673 0.172998
Si Si2 0.951039 0.170312 0.265057
Si Si3 0.824859 0.829970 0.007276
Si Si4 0.516034 0.829442 0.414182
Si Si5 0.736502 0.171713 0.830648
Si Si6 0.352805 0.829507 0.402131
Si Si7 0.695781 0.174952 0.245800
O O1 0.004336 0.189877 0.236609
O O2 0.924997 0.229109 0.084416
O O3 0.095056 0.274527 0.199728
O O4 0.036185 0.000000 0.169417
O O5 0.860228 0.266976 0.207674
O O6 0.018456 0.227324 0.357711
O O7 0.924749 0.000000 0.260639
O O8 0.818809 0.000000 0.022700
O O9 0.750000 0.750000 0.000000
O O10 0.808107 0.806908 0.927479
O O11 0.419034 0.808751 0.386635
O O12 0.596595 0.777830 0.507121
O O13 0.529894 0.000000 0.404569
O O14 0.775199 0.258936 0.798977
O O15 0.724477 0.000000 0.806099
O O16 0.264012 0.729870 0.338908
O O17 0.322934 0.000000 0.389343
O O18 0.699818 0.000000 0.244483
#
# Coordination Sequence:
#
# PCOD8108495 Si02
#       7
#     8   8   8   8   8   8   8
#     4  10  23  42  60  82 119 159 192 236 295 351
#     4  11  21  35  59  90 119 150 194 243 286 339
#     4  10  21  38  62  89 116 151 195 241 289 342
#     4   9  18  33  58  88 117 151 193 236 285 346
#     4  11  22  37  61  87 117 156 193 236 291 350
#     4   9  18  35  58  85 117 154 191 235 290 346
#     4  12  25  39  58  87 119 154 197 244 290 343
#
# _framework density 18.700665999999998
#
# number of rings (size 3 to 8) (size 9 to 14) (size 15 to 20)
#    0.000    1.714    2.857    3.000    0.000    3.429 
#    0.000    5.000    0.000    0.000    0.000    0.000 
#    0.000    0.000    0.000    0.000    0.000    0.000 
#
# Total GULP energy -347303.575453 kJ/mol
# GULP energy per Si atom -12403.699123 kJ/mol
# Density = 1.865810 g / cm^3
# Si number density = 18.700666 Si / 1000 Ang^3
#
#
#
# Elastic Constant Matrix: (Units=GPa)
#
#
# Indices 1 2 3 4 5 6 
#
# 1 79.0671 47.1581 35.1271 0.0000 16.9521 0.0000
# 2 47.1581 108.7521 49.6372 0.0000 10.3996 0.0000
# 3 35.1271 49.6372 109.7775 0.0000 12.5867 0.0000
# 4 0.0000 0.0000 0.0000 26.9791 0.0000 0.1747
# 5 16.9521 10.3996 12.5867 0.0000 27.4879 0.0000
# 6 0.0000 0.0000 0.0000 0.1747 0.0000 33.1951
#
#
#
# Elastic Compliance Matrix: (Units=1/GPa)
#
#
# Indices 1 2 3 4 5 6 
#
# 1 0.019375 -0.006561 -0.002267 0.000000 -0.008429 0.000000
# 2 -0.006561 0.013924 -0.004281 0.000000 0.000739 0.000000
# 3 -0.002267 -0.004281 0.012057 0.000000 -0.002504 0.000000
# 4 0.000000 0.000000 0.000000 0.037067 0.000000 -0.000195
# 5 -0.008429 0.000739 -0.002504 0.000000 0.042445 0.000000
# 6 0.000000 0.000000 0.000000 -0.000195 0.000000 0.030126
#
#
# Mechanical properties :
#
#
# Convention : Reuss Voigt Hill
#
# Bulk Modulus (GPa) = 52.25057 62.38240 57.31648
# Shear Modulus (GPa) = 26.65391 28.57737 27.61564
#
# Velocity S-wave (km/s) = 3.77940 3.91339 3.84698
# Velocity P-wave (km/s) = 6.85903 7.33828 7.10270
#
# Compressibility (1/GPa) = 0.01913855
#
# Stress axis : x y z
#
# Youngs Moduli (GPa) = 51.61371 71.82083 82.93672
#
# Poissons Ratio (x) = 0.47121 0.18799
# Poissons Ratio (y) = 0.33863 0.35505
# Poissons Ratio (z) = 0.11699 0.30747
#
# Static dielectric constant tensor:
#      x y z
#    x 3.222730 0.000000 -0.017560 
#    y 0.000000 3.440000 0.000000 
#    z -0.017560 0.000000 3.775310 
# 
# 
# High freq. dielectric constant tensor:
#      x y z
#    x 1.705570 0.000000 -0.000990 
#    y 0.000000 1.725190 0.000000 
#    z -0.000990 0.000000 1.746470 
# 
# From -- ./inp_files/314410.got.cif
#   From: 2010.06.25/outbox.cif.g09.slc.cpg/sg12_158_cif.got.tgz:314410.got - 2010.06.28 00:19:55.
