data_PCOD8108426
_publ_section_title
;
Structure prediction by ZEFSAII (Michael W. Deem and Ramdas Pophale) SiO2 
 PCOD8108426
Probable space group: C 2/M
;
_chemical_formula_sum "Si O2"
_cell_formula_units_Z 40
_cell_length_a 9.192883
_cell_length_b 28.465731
_cell_length_c 15.424156
_cell_angle_alpha 90.000000
_cell_angle_beta 152.928144
_cell_angle_gamma 90.000000
_cell_volume 1836.917057
_symmetry_space_group_name_H-M "C 2/M"
_symmetry_group_IT_number 12
_symmetry_cell_setting 'monoclinic'
loop_
_space_group_symop_operation_xyz
x,y,z
-x,y,-z
-x,-y,-z
x,-y,z
1/2+x,1/2+y,z
1/2-x,1/2+y,-z
1/2-x,1/2-y,-z
1/2+x,1/2-y,z
loop_
_atom_site_type_symbol
_atom_site_label
_atom_site_fract_x
_atom_site_fract_y
_atom_site_fract_z
Si Si1 0.408313 0.890751 0.048473
Si Si2 0.831568 0.699547 0.728252
Si Si3 0.434081 0.780561 0.319892
Si Si4 0.621391 0.948054 0.803772
Si Si5 0.344450 0.881645 0.332110
O O1 0.603625 0.843678 0.173718
O O2 0.503639 0.930884 0.168466
O O3 0.500000 0.907197 0.000000
O O4 0.034747 0.881746 0.861263
O O5 0.500000 0.691891 0.500000
O O6 0.846202 0.747223 0.793030
O O7 0.113937 0.705158 0.806567
O O8 0.461891 0.828127 0.389069
O O9 0.750000 0.750000 0.500000
O O10 0.513523 0.911212 0.673053
O O11 0.475671 0.000000 0.709608
O O12 0.000000 0.951192 0.000000
O O13 0.500000 0.904483 0.500000
#
# Coordination Sequence:
#
# PCOD8108426 Si02
#       5
#     8   8   8   8   8
#     4  11  25  39  62  98 126 168 208 263 318 373
#     4  10  22  39  61  86 131 168 209 258 314 370
#     4  10  21  38  61  91 123 172 209 255 310 368
#     4   9  20  43  68  91 123 164 210 266 322 374
#     4  11  23  41  65  92 130 165 215 258 311 381
#
# _framework density 21.775614999999998
#
# number of rings (size 3 to 8) (size 9 to 14) (size 15 to 20)
#    0.000    1.800    2.000    1.800    8.400    1.600 
#    0.000    0.000    0.000    4.200    0.000    0.000 
#    0.000    0.000    0.000    0.000    0.000    0.000 
#
# Total GULP energy -247938.168298 kJ/mol
# GULP energy per Si atom -12396.908415 kJ/mol
# Density = 2.172605 g / cm^3
# Si number density = 21.775615 Si / 1000 Ang^3
#
#
#
# Elastic Constant Matrix: (Units=GPa)
#
#
# Indices 1 2 3 4 5 6 
#
# 1 166.7817 60.0257 25.0109 0.0000 -30.6894 0.0000
# 2 60.0257 162.7240 32.5040 0.0000 -16.9419 0.0000
# 3 25.0109 32.5040 53.0796 0.0000 -15.7366 0.0000
# 4 0.0000 0.0000 0.0000 14.1737 0.0000 -6.7310
# 5 -30.6894 -16.9419 -15.7366 0.0000 25.1348 0.0000
# 6 0.0000 0.0000 0.0000 -6.7310 0.0000 25.3083
#
#
#
# Elastic Compliance Matrix: (Units=1/GPa)
#
#
# Indices 1 2 3 4 5 6 
#
# 1 0.008398 -0.002180 -0.000022 0.000000 0.008770 0.000000
# 2 -0.002180 0.007698 -0.003607 0.000000 0.000268 0.000000
# 3 -0.000022 -0.003607 0.024964 0.000000 0.013172 0.000000
# 4 0.000000 0.000000 0.000000 0.080753 0.000000 0.021477
# 5 0.008770 0.000268 0.013172 0.000000 0.058921 0.000000
# 6 0.000000 0.000000 0.000000 0.021477 0.000000 0.045225
#
#
# Mechanical properties :
#
#
# Convention : Reuss Voigt Hill
#
# Bulk Modulus (GPa) = 33.96589 68.62961 51.29775
# Shear Modulus (GPa) = 20.21099 30.59301 25.40200
#
# Velocity S-wave (km/s) = 3.04986 3.75229 3.41916
# Velocity P-wave (km/s) = 5.29473 7.09634 6.26068
#
# Compressibility (1/GPa) = 0.02944130
#
# Stress axis : x y z
#
# Youngs Moduli (GPa) = 119.08139 129.90224 40.05810
#
# Poissons Ratio (x) = 0.28322 0.00087
# Poissons Ratio (y) = 0.25963 0.14449
# Poissons Ratio (z) = 0.00258 0.46857
#
# Static dielectric constant tensor:
#      x y z
#    x 4.678130 0.000000 -0.166450 
#    y 0.000000 4.097540 0.000000 
#    z -0.166450 0.000000 3.864040 
# 
# 
# High freq. dielectric constant tensor:
#      x y z
#    x 1.873240 0.000000 -0.012530 
#    y 0.000000 1.850450 0.000000 
#    z -0.012530 0.000000 1.827870 
# 
# From -- ./inp_files/41421.got.cif
#   From: 2010.06.25/outbox.cif.g09.slc.cpg/sg12_21_cif.got.tgz:41421.got - 2010.06.28 00:19:55.
