data_PCOD8108704
_publ_section_title
;
Structure prediction by ZEFSAII (Michael W. Deem and Ramdas Pophale) SiO2 
 PCOD8108704
Probable space group: C 2/M
;
_chemical_formula_sum "Si O2"
_cell_formula_units_Z 48
_cell_length_a 14.260316
_cell_length_b 17.077844
_cell_length_c 18.270065
_cell_angle_alpha 90.000000
_cell_angle_beta 150.270651
_cell_angle_gamma 90.000000
_cell_volume 2206.477482
_symmetry_space_group_name_H-M "C 2/M"
_symmetry_group_IT_number 12
_symmetry_cell_setting 'monoclinic'
loop_
_space_group_symop_operation_xyz
x,y,z
-x,y,-z
-x,-y,-z
x,-y,z
1/2+x,1/2+y,z
1/2-x,1/2+y,-z
1/2-x,1/2-y,-z
1/2+x,1/2-y,z
loop_
_atom_site_type_symbol
_atom_site_label
_atom_site_fract_x
_atom_site_fract_y
_atom_site_fract_z
Si Si1 0.903749 0.589645 0.356979
Si Si2 0.157653 0.500000 0.199432
Si Si3 0.730913 0.500000 0.891554
Si Si4 0.436932 0.689145 0.874199
Si Si5 0.323192 0.336537 0.102581
Si Si6 0.060734 0.710169 0.344827
Si Si7 0.388349 0.158963 0.777759
O O1 0.927134 0.500000 0.345834
O O2 0.681379 0.609166 0.213901
O O3 0.000000 0.602422 0.500000
O O4 0.986580 0.650211 0.354809
O O5 0.220716 0.500000 0.160026
O O6 0.233779 0.581898 0.284388
O O7 0.934946 0.500000 0.069229
O O8 0.606725 0.424283 0.829742
O O9 0.615883 0.685103 0.939367
O O10 0.301475 0.761584 0.754940
O O11 0.500000 0.701199 0.000000
O O12 0.406901 0.276185 0.218854
O O13 0.097540 0.338726 0.956034
O O14 0.250000 0.750000 0.500000
O O15 0.110367 0.658624 0.308213
#
# Coordination Sequence:
#
# PCOD8108704 Si02
#       7
#     8   4   4   8   8   8   8
#     4  11  25  42  62  87 121 162 202 247 302 363
#     4   9  20  34  61  93 120 155 203 249 311 349
#     4   9  20  36  60  91 124 157 196 257 303 360
#     4  11  22  37  62  92 124 157 201 249 300 357
#     4  10  21  40  62  92 122 161 203 250 305 358
#     4  11  23  43  63  88 118 161 204 246 306 363
#     4  10  21  38  64  90 122 158 203 254 304 357
#
# _framework density 21.754131999999998
#
# number of rings (size 3 to 8) (size 9 to 14) (size 15 to 20)
#    0.000    1.667    0.000    6.000    9.333    0.333 
#    4.500    0.000    0.000    1.000    0.000    0.000 
#    0.000    0.000    0.000    0.000    0.000    0.000 
#
# Total GULP energy -297451.067290 kJ/mol
# GULP energy per Si atom -12393.794470 kJ/mol
# Density = 2.170462 g / cm^3
# Si number density = 21.754132 Si / 1000 Ang^3
#
#
#
# Elastic Constant Matrix: (Units=GPa)
#
#
# Indices 1 2 3 4 5 6 
#
# 1 76.3347 50.7774 23.8116 -0.0062 -24.6839 -0.0031
# 2 50.7774 178.8129 22.8570 -0.0040 -27.4874 0.0007
# 3 23.8116 22.8570 63.1133 -0.0229 -16.9627 -0.0030
# 4 -0.0062 -0.0040 -0.0229 22.8369 -0.0025 -4.3135
# 5 -24.6839 -27.4874 -16.9627 -0.0025 29.3388 0.0035
# 6 -0.0031 0.0007 -0.0030 -4.3135 0.0035 40.9170
#
#
#
# Elastic Compliance Matrix: (Units=1/GPa)
#
#
# Indices 1 2 3 4 5 6 
#
# 1 0.020293 -0.003522 -0.003172 0.000003 0.011940 0.000001
# 2 -0.003522 0.007184 -0.000308 0.000000 0.003589 -0.000001
# 3 -0.003172 -0.000308 0.019368 0.000020 0.008240 0.000003
# 4 0.000003 0.000000 0.000020 0.044678 0.000018 0.004710
# 5 0.011940 0.003589 0.008240 0.000018 0.052257 -0.000001
# 6 0.000001 -0.000001 0.000003 0.004710 -0.000001 0.024936
#
#
# Mechanical properties :
#
#
# Convention : Reuss Voigt Hill
#
# Bulk Modulus (GPa) = 30.44990 57.01700 43.73345
# Shear Modulus (GPa) = 25.81752 33.33954 29.57853
#
# Velocity S-wave (km/s) = 3.44871 3.91904 3.69138
# Velocity P-wave (km/s) = 5.46680 6.83704 6.18995
#
# Compressibility (1/GPa) = 0.03284083
#
# Stress axis : x y z
#
# Youngs Moduli (GPa) = 49.27737 139.20526 51.63287
#
# Poissons Ratio (x) = 0.49025 0.16377
# Poissons Ratio (y) = 0.17354 0.01592
# Poissons Ratio (z) = 0.15629 0.04292
#
# Static dielectric constant tensor:
#      x y z
#    x 3.837850 0.000000 -0.121720 
#    y 0.000000 5.008310 0.000010 
#    z -0.121720 0.000010 3.705660 
# 
# 
# High freq. dielectric constant tensor:
#      x y z
#    x 1.853720 0.000000 -0.019780 
#    y 0.000000 1.882490 0.000000 
#    z -0.019780 0.000000 1.822250 
# 
# From -- ./inp_files/271814.got.cif
#   From: 2010.06.25/outbox.cif.g09.slc.cpg/sg12_136_cif.got.tgz:271814.got - 2010.06.28 00:19:55.
