data_PCOD8108782
_publ_section_title
;
Structure prediction by ZEFSAII (Michael W. Deem and Ramdas Pophale) SiO2 
 PCOD8108782
Probable space group: C 2/M
;
_chemical_formula_sum "Si O2"
_cell_formula_units_Z 40
_cell_length_a 9.748782
_cell_length_b 20.284142
_cell_length_c 10.589695
_cell_angle_alpha 90.000000
_cell_angle_beta 118.296015
_cell_angle_gamma 90.000000
_cell_volume 1843.847106
_symmetry_space_group_name_H-M "C 2/M"
_symmetry_group_IT_number 12
_symmetry_cell_setting 'monoclinic'
loop_
_space_group_symop_operation_xyz
x,y,z
-x,y,-z
-x,-y,-z
x,-y,z
1/2+x,1/2+y,z
1/2-x,1/2+y,-z
1/2-x,1/2-y,-z
1/2+x,1/2-y,z
loop_
_atom_site_type_symbol
_atom_site_label
_atom_site_fract_x
_atom_site_fract_y
_atom_site_fract_z
Si Si1 0.833661 0.077308 0.631233
Si Si2 0.841135 0.576620 0.195223
Si Si3 0.350160 0.575241 0.116957
Si Si4 0.100638 0.644248 0.158365
Si Si5 0.320464 0.694235 0.444528
O O1 0.698445 0.088167 0.675769
O O2 0.796440 0.120912 0.492384
O O3 0.994259 0.108154 0.758173
O O4 0.843938 0.000000 0.596126
O O5 0.874908 0.500000 0.182278
O O6 0.993477 0.617818 0.225245
O O7 0.695055 0.600021 0.043734
O O8 0.397800 0.500000 0.129628
O O9 0.200691 0.584857 0.141574
O O10 0.222806 0.696407 0.270690
O O11 0.000000 0.677031 0.000000
O O12 0.500000 0.710562 0.500000
O O13 0.250000 0.750000 0.500000
#
# Coordination Sequence:
#
# PCOD8108782 Si02
#       5
#     8   8   8   8   8
#     4  10  21  38  65  98 130 169 217 266 318 378
#     4   9  18  32  58  98 138 170 206 261 323 376
#     4   9  16  32  59  94 134 171 210 261 318 377
#     4  10  21  40  64  92 126 168 219 259 313 382
#     4  12  28  48  68  92 130 172 212 266 328 384
#
# _framework density 21.693773
#
# number of rings (size 3 to 8) (size 9 to 14) (size 15 to 20)
#    0.000    2.000    2.000    1.200    2.800    6.800 
#    0.000    5.000    0.000    0.000    0.000    0.000 
#    0.000    0.000    0.000    0.000    0.000    0.000 
#
# Total GULP energy -247899.701319 kJ/mol
# GULP energy per Si atom -12394.985066 kJ/mol
# Density = 2.164440 g / cm^3
# Si number density = 21.693773 Si / 1000 Ang^3
#
#
#
# Elastic Constant Matrix: (Units=GPa)
#
#
# Indices 1 2 3 4 5 6 
#
# 1 112.8874 30.2641 43.8711 0.0000 6.2847 0.0000
# 2 30.2641 61.7497 33.8276 0.0000 2.4753 0.0000
# 3 43.8711 33.8276 124.6317 0.0000 18.6533 0.0000
# 4 0.0000 0.0000 0.0000 16.9167 0.0000 -7.8859
# 5 6.2847 2.4753 18.6533 0.0000 30.9498 0.0000
# 6 0.0000 0.0000 0.0000 -7.8859 0.0000 24.0203
#
#
#
# Elastic Compliance Matrix: (Units=1/GPa)
#
#
# Indices 1 2 3 4 5 6 
#
# 1 0.010987 -0.003848 -0.002786 0.000000 -0.000244 0.000000
# 2 -0.003848 0.020457 -0.004473 0.000000 0.001841 0.000000
# 3 -0.002786 -0.004473 0.011080 0.000000 -0.005754 0.000000
# 4 0.000000 0.000000 0.000000 0.069795 0.000000 0.022914
# 5 -0.000244 0.001841 -0.005754 0.000000 0.035681 0.000000
# 6 0.000000 0.000000 0.000000 0.022914 0.000000 0.049154
#
#
# Mechanical properties :
#
#
# Convention : Reuss Voigt Hill
#
# Bulk Modulus (GPa) = 49.24329 57.24382 53.24355
# Shear Modulus (GPa) = 22.11035 27.13109 24.62072
#
# Velocity S-wave (km/s) = 3.19596 3.54027 3.37251
# Velocity P-wave (km/s) = 6.03054 6.56931 6.30568
#
# Compressibility (1/GPa) = 0.02030734
#
# Stress axis : x y z
#
# Youngs Moduli (GPa) = 91.02062 48.88207 90.25403
#
# Poissons Ratio (x) = 0.18812 0.25147
# Poissons Ratio (y) = 0.35029 0.40375
# Poissons Ratio (z) = 0.25361 0.21867
#
# Static dielectric constant tensor:
#      x y z
#    x 3.949780 0.000000 0.116550 
#    y 0.000000 3.425570 0.000000 
#    z 0.116550 0.000000 4.215060 
# 
# 
# High freq. dielectric constant tensor:
#      x y z
#    x 1.863850 0.000000 0.007420 
#    y 0.000000 1.797350 0.000000 
#    z 0.007420 0.000000 1.866420 
# 
# From -- ./inp_files/122187.got.cif
#   From: 2010.06.25/outbox.cif.g09.slc.cpg/sg12_62_cif.got.tgz:122187.got - 2010.06.28 00:19:55.
