data_PCOD8108747
_publ_section_title
;
Structure prediction by ZEFSAII (Michael W. Deem and Ramdas Pophale) SiO2 
 PCOD8108747
Probable space group: C 2/M
;
_chemical_formula_sum "Si O2"
_cell_formula_units_Z 64
_cell_length_a 17.255853
_cell_length_b 12.853206
_cell_length_c 18.574396
_cell_angle_alpha 90.000000
_cell_angle_beta 41.490136
_cell_angle_gamma 90.000000
_cell_volume 2729.245785
_symmetry_space_group_name_H-M "C 2/M"
_symmetry_group_IT_number 12
_symmetry_cell_setting 'monoclinic'
loop_
_space_group_symop_operation_xyz
x,y,z
-x,y,-z
-x,-y,-z
x,-y,z
1/2+x,1/2+y,z
1/2-x,1/2+y,-z
1/2-x,1/2-y,-z
1/2+x,1/2-y,z
loop_
_atom_site_type_symbol
_atom_site_label
_atom_site_fract_x
_atom_site_fract_y
_atom_site_fract_z
Si Si1 0.330417 0.760600 0.243719
Si Si2 0.959228 0.122769 0.383014
Si Si3 0.795441 0.623027 0.973550
Si Si4 0.201732 0.620732 0.596453
Si Si5 0.968971 0.123309 0.830497
Si Si6 0.365523 0.886392 0.081378
Si Si7 0.454868 0.881341 0.736179
Si Si8 0.413279 0.203910 0.619664
O O1 0.326077 0.858410 0.300379
O O2 0.438689 0.683701 0.183301
O O3 0.322653 0.801697 0.167754
O O4 0.208451 0.701620 0.338409
O O5 0.825135 0.166291 0.482414
O O6 0.007476 0.147380 0.269878
O O7 0.041182 0.182928 0.383481
O O8 0.966442 0.000000 0.396031
O O9 0.794866 0.500000 0.967958
O O10 0.877995 0.672237 0.853287
O O11 0.661844 0.663070 0.057139
O O12 0.844420 0.658917 0.016600
O O13 0.209211 0.500000 0.576454
O O14 0.086122 0.668384 0.637074
O O15 0.982588 0.000000 0.835491
O O16 0.301911 0.000000 0.134162
O O17 0.500000 0.905445 0.000000
O O18 0.395336 0.871676 0.700184
O O19 0.468645 0.000000 0.749716
O O20 0.500000 0.156620 0.500000
#
# Coordination Sequence:
#
# PCOD8108747 Si02
#       8
#     8   8   8   8   8   8   8   8
#     4  12  24  38  61  95 133 167 209 262 326 382
#     4  10  22  42  66  92 126 170 218 263 317 379
#     4   9  19  42  69  92 124 168 222 267 310 374
#     4  10  21  39  65  93 124 166 215 263 314 381
#     4  10  23  42  67  94 125 175 225 265 306 371
#     4  10  21  38  64  99 134 162 201 263 330 386
#     4  10  23  43  68  93 124 171 215 260 316 380
#     4  12  26  41  60  94 132 166 208 264 327 386
#
# _framework density 23.449701999999998
#
# number of rings (size 3 to 8) (size 9 to 14) (size 15 to 20)
#    0.000    1.625    1.250    2.625    1.750    7.000 
#    0.000    3.750    0.000    2.625    0.000    0.875 
#    0.000    0.000    0.000    0.000    0.000    0.000 
#
# Total GULP energy -396670.303323 kJ/mol
# GULP energy per Si atom -12395.946979 kJ/mol
# Density = 2.339633 g / cm^3
# Si number density = 23.449702 Si / 1000 Ang^3
#
#
#
# Elastic Constant Matrix: (Units=GPa)
#
#
# Indices 1 2 3 4 5 6 
#
# 1 125.5041 16.5249 57.6618 0.0000 -16.9922 0.0000
# 2 16.5249 34.9051 32.6244 0.0000 -5.8850 0.0000
# 3 57.6618 32.6244 156.5324 0.0000 -6.3569 0.0000
# 4 0.0000 0.0000 0.0000 22.5952 0.0000 5.0755
# 5 -16.9922 -5.8850 -6.3569 0.0000 54.3576 0.0000
# 6 0.0000 0.0000 0.0000 5.0755 0.0000 32.0663
#
#
#
# Elastic Compliance Matrix: (Units=1/GPa)
#
#
# Indices 1 2 3 4 5 6 
#
# 1 0.010009 -0.001181 -0.003335 0.000000 0.002611 0.000000
# 2 -0.001181 0.036213 -0.007001 0.000000 0.002732 0.000000
# 3 -0.003335 -0.007001 0.009046 0.000000 -0.000743 0.000000
# 4 0.000000 0.000000 0.000000 0.045889 0.000000 -0.007263
# 5 0.002611 0.002732 -0.000743 0.000000 0.019422 0.000000
# 6 0.000000 0.000000 0.000000 -0.007263 0.000000 0.032335
#
#
# Mechanical properties :
#
#
# Convention : Reuss Voigt Hill
#
# Bulk Modulus (GPa) = 31.02415 58.95152 44.98784
# Shear Modulus (GPa) = 26.78194 35.81252 31.29723
#
# Velocity S-wave (km/s) = 3.38317 3.91219 3.65725
# Velocity P-wave (km/s) = 5.34040 6.75286 6.08773
#
# Compressibility (1/GPa) = 0.03223295
#
# Stress axis : x y z
#
# Youngs Moduli (GPa) = 99.90955 27.61437 110.54697
#
# Poissons Ratio (x) = 0.03263 0.36865
# Poissons Ratio (y) = 0.11804 0.77397
# Poissons Ratio (z) = 0.33317 0.19334
#
# Static dielectric constant tensor:
#      x y z
#    x 4.144900 0.000000 -0.287030 
#    y 0.000000 4.118190 0.000000 
#    z -0.287030 0.000000 4.596660 
# 
# 
# High freq. dielectric constant tensor:
#      x y z
#    x 1.923430 0.000000 -0.012330 
#    y 0.000000 1.932830 0.000000 
#    z -0.012330 0.000000 1.941680 
# 
# From -- ./inp_files/278121.got.cif
#   From: 2010.06.25/outbox.cif.g09.slc.cpg/sg12_140_cif.got.tgz:278121.got - 2010.06.28 00:19:55.
