data_PCOD8108229
_publ_section_title
;
Structure prediction by ZEFSAII (Michael W. Deem and Ramdas Pophale) SiO2 
 PCOD8108229
Probable space group: C 2/M
;
_chemical_formula_sum "Si O2"
_cell_formula_units_Z 36
_cell_length_a 27.941009
_cell_length_b 10.700754
_cell_length_c 18.736834
_cell_angle_alpha 90.000000
_cell_angle_beta 16.701877
_cell_angle_gamma 90.000000
_cell_volume 1610.004889
_symmetry_space_group_name_H-M "C 2/M"
_symmetry_group_IT_number 12
_symmetry_cell_setting 'monoclinic'
loop_
_space_group_symop_operation_xyz
x,y,z
-x,y,-z
-x,-y,-z
x,-y,z
1/2+x,1/2+y,z
1/2-x,1/2+y,-z
1/2-x,1/2-y,-z
1/2+x,1/2-y,z
loop_
_atom_site_type_symbol
_atom_site_label
_atom_site_fract_x
_atom_site_fract_y
_atom_site_fract_z
Si Si1 0.500000 0.731352 0.000000
Si Si2 0.174189 0.728155 0.225326
Si Si3 0.926726 0.358706 0.959490
Si Si4 0.436968 0.363237 0.747876
Si Si5 0.140880 0.638913 0.518022
O O1 0.505494 0.818514 0.061066
O O2 0.339564 0.643282 0.233402
O O3 0.140963 0.845006 0.219408
O O4 0.000000 0.666271 0.500000
O O5 0.268748 0.776572 0.160662
O O6 0.289241 0.631496 0.017713
O O7 0.864381 0.500000 0.053205
O O8 0.078231 0.342201 0.687953
O O9 0.524788 0.500000 0.625507
O O10 0.565482 0.250053 0.577610
O O11 0.087428 0.500000 0.566283
#
# Coordination Sequence:
#
# PCOD8108229 Si02
#       5
#     4   8   8   8   8
#     4  12  22  38  64  90 113 158 215 254 289 354
#     4  10  21  38  60  90 127 162 194 241 306 363
#     4  10  22  39  59  89 126 161 199 249 303 354
#     4  10  22  40  64  93 123 157 201 249 296 358
#     4  10  23  43  63  87 124 162 197 247 310 362
#
# _framework density 22.36018
#
# number of rings (size 3 to 8) (size 9 to 14) (size 15 to 20)
#    0.000    1.778    0.000    3.333    0.000   11.111 
#    0.000   15.556    0.000    0.000    0.000    0.000 
#    0.000    0.000    0.000    0.000    0.000    0.000 
#
# Total GULP energy -223156.515236 kJ/mol
# GULP energy per Si atom -12397.584180 kJ/mol
# Density = 2.230929 g / cm^3
# Si number density = 22.360180 Si / 1000 Ang^3
#
#
#
# Elastic Constant Matrix: (Units=GPa)
#
#
# Indices 1 2 3 4 5 6 
#
# 1 112.7147 52.0965 6.7910 -0.0002 -1.5636 0.0001
# 2 52.0965 131.4665 26.2099 -0.0003 -12.4596 0.0003
# 3 6.7910 26.2099 121.8396 -0.0005 -14.0483 0.0004
# 4 -0.0002 -0.0003 -0.0005 -19.1005 0.0003 -7.4956
# 5 -1.5636 -12.4596 -14.0483 0.0003 26.9921 -0.0003
# 6 0.0001 0.0003 0.0004 -7.4956 -0.0003 21.1975
#
#
#
# Elastic Compliance Matrix: (Units=1/GPa)
#
#
# Indices 1 2 3 4 5 6 
#
# 1 0.010918 -0.004494 0.000204 0.000000 -0.001336 0.000000
# 2 -0.004494 0.010025 -0.001492 0.000000 0.003591 0.000000
# 3 0.000204 -0.001492 0.008978 0.000000 0.003996 0.000000
# 4 0.000000 0.000000 0.000000 -0.045975 0.000000 -0.016257
# 5 -0.001336 0.003591 0.003996 0.000000 0.040707 0.000000
# 6 0.000000 0.000000 0.000000 -0.016257 0.000000 0.041427
#
#
# Mechanical properties :
#
#
# Convention : Reuss Voigt Hill
#
# Bulk Modulus (GPa) = 54.47369 59.57953 57.02661
# Shear Modulus (GPa) = 59.69210 24.54605 42.11907
#
# Velocity S-wave (km/s) = 5.17239 3.31684 4.34483
# Velocity P-wave (km/s) = 7.75154 6.43209 7.12243
#
# Compressibility (1/GPa) = 0.01835749
#
# Stress axis : x y z
#
# Youngs Moduli (GPa) = 91.59034 99.74999 111.38566
#
# Poissons Ratio (x) = 0.44826 -0.02274
# Poissons Ratio (y) = 0.41159 0.16620
# Poissons Ratio (z) = -0.01870 0.14884
#
# Static dielectric constant tensor:
#      x y z
#    x 4.006930 0.000000 0.113400 
#    y 0.000000 3.723610 0.000000 
#    z 0.113400 0.000000 4.201310 
# 
# 
# High freq. dielectric constant tensor:
#      x y z
#    x 1.878370 0.000000 0.013930 
#    y 0.000000 1.862340 0.000000 
#    z 0.013930 0.000000 1.896270 
# 
# From -- ./inp_files/293021.got.cif
#   From: 2010.06.25/outbox.cif.g09.slc.cpg/sg12_147_cif.got.tgz:293021.got - 2010.06.28 00:19:55.
