data_PCOD8108570
_publ_section_title
;
Structure prediction by ZEFSAII (Michael W. Deem and Ramdas Pophale) SiO2 
 PCOD8108570
Probable space group: C 2/M
;
_chemical_formula_sum "Si O2"
_cell_formula_units_Z 56
_cell_length_a 15.220220
_cell_length_b 8.640960
_cell_length_c 20.862724
_cell_angle_alpha 90.000000
_cell_angle_beta 90.702497
_cell_angle_gamma 90.000000
_cell_volume 2743.603151
_symmetry_space_group_name_H-M "C 2/M"
_symmetry_group_IT_number 12
_symmetry_cell_setting 'monoclinic'
loop_
_space_group_symop_operation_xyz
x,y,z
-x,y,-z
-x,-y,-z
x,-y,z
1/2+x,1/2+y,z
1/2-x,1/2+y,-z
1/2-x,1/2-y,-z
1/2+x,1/2-y,z
loop_
_atom_site_type_symbol
_atom_site_label
_atom_site_fract_x
_atom_site_fract_y
_atom_site_fract_z
Si Si1 0.837919 0.320143 0.580239
Si Si2 0.339167 0.818505 0.130190
Si Si3 0.003104 0.821121 0.792514
Si Si4 0.597737 0.183441 0.004855
Si Si5 0.659525 0.817988 0.143069
Si Si6 0.498145 0.678002 0.356389
Si Si7 0.656452 0.179595 0.567042
O O1 0.852455 0.500000 0.594075
O O2 0.902431 0.223749 0.626028
O O3 0.737869 0.275690 0.596697
O O4 0.858752 0.275570 0.507055
O O5 0.428760 0.782741 0.167843
O O6 0.259042 0.726677 0.162306
O O7 0.320441 0.000000 0.134021
O O8 0.347661 0.760795 0.056578
O O9 0.904885 0.769342 0.809204
O O10 0.018629 0.790816 0.718099
O O11 0.016497 0.000000 0.810412
O O12 0.642863 0.241980 0.070403
O O13 0.591290 0.000000 0.004445
O O14 0.500000 0.254764 0.000000
O O15 0.644562 0.000000 0.150148
O O16 0.482373 0.500000 0.374217
O O17 0.431677 0.783115 0.395745
O O18 0.679391 0.000000 0.573866
#
# Coordination Sequence:
#
# PCOD8108570 Si02
#       7
#     8   8   8   8   8   8   8
#     4  10  21  38  62  92 123 154 192 239 290 346
#     4  11  22  39  63  88 118 154 193 241 296 352
#     4  11  25  43  59  83 117 156 203 246 289 345
#     4   9  17  34  60  89 118 148 188 239 294 351
#     4  11  22  39  63  88 118 154 193 241 296 352
#     4  11  24  40  60  85 118 158 199 244 291 344
#     4  10  21  38  62  92 123 154 192 239 290 346
#
# _framework density 20.411114999999999
#
# number of rings (size 3 to 8) (size 9 to 14) (size 15 to 20)
#    0.000    1.571    1.429    3.429    0.000    6.857 
#    0.000    2.857    0.000    0.000    0.000    0.000 
#    0.000    0.000    0.000    0.000    0.000    0.000 
#
# Total GULP energy -347361.077657 kJ/mol
# GULP energy per Si atom -12405.752773 kJ/mol
# Density = 2.036466 g / cm^3
# Si number density = 20.411115 Si / 1000 Ang^3
#
#
#
# Elastic Constant Matrix: (Units=GPa)
#
#
# Indices 1 2 3 4 5 6 
#
# 1 91.0006 12.9738 9.5541 0.0000 -7.7938 0.0000
# 2 12.9738 52.1493 35.5000 0.0000 0.7242 0.0000
# 3 9.5541 35.5000 47.0749 0.0000 3.2634 0.0000
# 4 0.0000 0.0000 0.0000 27.6111 0.0000 0.2655
# 5 -7.7938 0.7242 3.2634 0.0000 14.4831 0.0000
# 6 0.0000 0.0000 0.0000 0.2655 0.0000 38.8927
#
#
#
# Elastic Compliance Matrix: (Units=1/GPa)
#
#
# Indices 1 2 3 4 5 6 
#
# 1 0.012026 -0.002264 -0.001208 0.000000 0.006857 0.000000
# 2 -0.002264 0.040162 -0.030073 0.000000 0.003549 0.000000
# 3 -0.001208 -0.030073 0.044807 0.000000 -0.009243 0.000000
# 4 0.000000 0.000000 0.000000 0.036220 0.000000 -0.000247
# 5 0.006857 0.003549 -0.009243 0.000000 0.074641 0.000000
# 6 0.000000 0.000000 0.000000 -0.000247 0.000000 0.025713
#
#
# Mechanical properties :
#
#
# Convention : Reuss Voigt Hill
#
# Bulk Modulus (GPa) = 33.44139 34.03118 33.73629
# Shear Modulus (GPa) = 16.09641 25.01051 20.55346
#
# Velocity S-wave (km/s) = 2.81127 3.50428 3.17673
# Velocity P-wave (km/s) = 5.19202 5.75173 5.47903
#
# Compressibility (1/GPa) = 0.02990306
#
# Stress axis : x y z
#
# Youngs Moduli (GPa) = 83.15371 24.89945 22.31781
#
# Poissons Ratio (x) = 0.05638 0.02697
# Poissons Ratio (y) = 0.18829 0.67116
# Poissons Ratio (z) = 0.10049 0.74880
#
# Static dielectric constant tensor:
#      x y z
#    x 3.672990 0.000000 -0.015320 
#    y 0.000000 3.543290 0.000000 
#    z -0.015320 0.000000 3.681260 
# 
# 
# High freq. dielectric constant tensor:
#      x y z
#    x 1.809660 0.000000 -0.001630 
#    y 0.000000 1.794320 0.000000 
#    z -0.001630 0.000000 1.790220 
# 
# From -- ./inp_files/309048.got.cif
#   From: 2010.06.25/outbox.cif.g09.slc.cpg/sg12_155_cif.got.tgz:309048.got - 2010.06.28 00:19:55.
