data_PCOD8108033
_publ_section_title
;
Structure prediction by ZEFSAII (Michael W. Deem and Ramdas Pophale) SiO2 
 PCOD8108033
Probable space group: C 2/M
;
_chemical_formula_sum "Si O2"
_cell_formula_units_Z 28
_cell_length_a 14.796060
_cell_length_b 15.607426
_cell_length_c 11.691081
_cell_angle_alpha 90.000000
_cell_angle_beta 28.933867
_cell_angle_gamma 90.000000
_cell_volume 1306.163977
_symmetry_space_group_name_H-M "C 2/M"
_symmetry_group_IT_number 12
_symmetry_cell_setting 'monoclinic'
loop_
_space_group_symop_operation_xyz
x,y,z
-x,y,-z
-x,-y,-z
x,-y,z
1/2+x,1/2+y,z
1/2-x,1/2+y,-z
1/2-x,1/2-y,-z
1/2+x,1/2-y,z
loop_
_atom_site_type_symbol
_atom_site_label
_atom_site_fract_x
_atom_site_fract_y
_atom_site_fract_z
Si Si1 0.500000 0.324502 0.500000
Si Si2 0.297865 0.401615 0.188149
Si Si3 0.520887 0.829498 0.321591
Si Si4 0.882342 0.401648 0.019943
O O1 0.535214 0.265799 0.574135
O O2 0.669400 0.387605 0.288982
O O3 0.323934 0.500000 0.125386
O O4 0.216433 0.352872 0.167728
O O5 0.148438 0.392951 0.456572
O O6 0.500000 0.362783 0.000000
O O7 0.552861 0.836515 0.151309
O O8 0.911595 0.500000 0.948463
O O9 0.000000 0.377877 0.000000
#
# Coordination Sequence:
#
# PCOD8108033 Si02
#       4
#     4   8   8   8
#     4  10  23  40  63  88 116 156 200 246 297 344
#     4   9  17  31  56  87 117 153 195 242 295 346
#     4  10  21  38  59  86 119 152 195 249 293 343
#     4  11  24  41  61  87 122 161 197 238 292 355
#
# _framework density 21.436820000000001
#
# number of rings (size 3 to 8) (size 9 to 14) (size 15 to 20)
#    0.000    2.286    0.000    4.714    0.000    8.000 
#    0.000    2.857    0.000    0.000    0.000    0.000 
#    0.000    1.143    0.000    0.000    0.000    0.000 
#
# Total GULP energy -173588.703807 kJ/mol
# GULP energy per Si atom -12399.193129 kJ/mol
# Density = 2.138803 g / cm^3
# Si number density = 21.436820 Si / 1000 Ang^3
#
#
#
# Elastic Constant Matrix: (Units=GPa)
#
#
# Indices 1 2 3 4 5 6 
#
# 1 123.4989 19.6947 71.5816 0.0109 10.2998 0.0243
# 2 19.6947 32.5899 5.3569 0.0093 6.9617 0.0076
# 3 71.5816 5.3569 109.7147 0.0153 2.7189 0.0272
# 4 0.0109 0.0093 0.0153 35.6528 -0.0053 31.8307
# 5 10.2998 6.9617 2.7189 -0.0053 40.5620 -0.0052
# 6 0.0243 0.0076 0.0272 31.8307 -0.0052 84.1827
#
#
#
# Elastic Compliance Matrix: (Units=1/GPa)
#
#
# Indices 1 2 3 4 5 6 
#
# 1 0.014703 -0.006962 -0.009205 0.000003 -0.001922 -0.000002
# 2 -0.006962 0.035372 0.002927 -0.000010 -0.004499 0.000002
# 3 -0.009205 0.002927 0.014957 -0.000003 0.000833 -0.000001
# 4 0.000003 -0.000010 -0.000003 0.042342 0.000005 -0.016010
# 5 -0.001922 -0.004499 0.000833 0.000005 0.025858 0.000000
# 6 -0.000002 0.000002 -0.000001 -0.016010 0.000000 0.017933
#
#
# Mechanical properties :
#
#
# Convention : Reuss Voigt Hill
#
# Bulk Modulus (GPa) = 25.93997 51.00776 38.47387
# Shear Modulus (GPa) = 26.24726 43.35752 34.80239
#
# Velocity S-wave (km/s) = 3.50294 4.50218 4.03362
# Velocity P-wave (km/s) = 5.33739 7.13248 6.29921
#
# Compressibility (1/GPa) = 0.03855055
#
# Stress axis : x y z
#
# Youngs Moduli (GPa) = 68.01187 28.27126 66.85855
#
# Poissons Ratio (x) = 0.19682 0.61546
# Poissons Ratio (y) = 0.47349 -0.19567
# Poissons Ratio (z) = 0.62608 -0.08274
#
# Static dielectric constant tensor:
#      x y z
#    x 3.757810 0.000000 -0.155840 
#    y 0.000000 3.691300 0.000000 
#    z -0.155840 0.000000 3.986620 
# 
# 
# High freq. dielectric constant tensor:
#      x y z
#    x 1.827040 0.000000 -0.007790 
#    y 0.000000 1.835540 0.000000 
#    z -0.007790 0.000000 1.847710 
# 
# From -- ./inp_files/144533.got.cif
#   From: 2010.06.25/outbox.cif.g09.slc.cpg/sg12_73_cif.got.tgz:144533.got - 2010.06.28 00:19:55.
