data_PCOD8108465
_publ_section_title
;
Structure prediction by ZEFSAII (Michael W. Deem and Ramdas Pophale) SiO2 
 PCOD8108465
Probable space group: C 2/M
;
_chemical_formula_sum "Si O2"
_cell_formula_units_Z 56
_cell_length_a 19.741214
_cell_length_b 28.020989
_cell_length_c 8.624250
_cell_angle_alpha 90.000000
_cell_angle_beta 38.131391
_cell_angle_gamma 90.000000
_cell_volume 2945.726035
_symmetry_space_group_name_H-M "C 2/M"
_symmetry_group_IT_number 12
_symmetry_cell_setting 'monoclinic'
loop_
_space_group_symop_operation_xyz
x,y,z
-x,y,-z
-x,-y,-z
x,-y,z
1/2+x,1/2+y,z
1/2-x,1/2+y,-z
1/2-x,1/2-y,-z
1/2+x,1/2-y,z
loop_
_atom_site_type_symbol
_atom_site_label
_atom_site_fract_x
_atom_site_fract_y
_atom_site_fract_z
Si Si1 0.446132 0.796277 0.437703
Si Si2 0.108689 0.552492 0.407978
Si Si3 0.500938 0.296715 0.816429
Si Si4 0.219735 0.556307 0.903900
Si Si5 0.514500 0.112757 0.153897
Si Si6 0.280662 0.700586 0.026035
Si Si7 0.104968 0.869952 0.409235
O O1 0.500000 0.777327 0.500000
O O2 0.434708 0.751639 0.343075
O O3 0.525239 0.836486 0.221385
O O4 0.325577 0.817891 0.688074
O O5 0.126089 0.500000 0.446834
O O6 0.000000 0.554836 0.500000
O O7 0.095014 0.587591 0.578609
O O8 0.207250 0.565148 0.112449
O O9 0.565997 0.341724 0.630905
O O10 0.500000 0.303632 0.000000
O O11 0.378304 0.292594 0.971984
O O12 0.224001 0.500000 0.857134
O O13 0.331999 0.582121 0.650729
O O14 0.119986 0.579736 0.988932
O O15 0.500000 0.122603 0.000000
O O16 0.250000 0.750000 0.000000
O O17 0.312377 0.662767 0.837828
O O18 0.000000 0.885818 0.500000
#
# Coordination Sequence:
#
# PCOD8108465 Si02
#       7
#     8   8   8   8   8   8   8
#     4  12  21  36  59  83 117 157 201 236 286 354
#     4   8  15  31  51  74 103 140 183 227 277 333
#     4  11  24  38  56  87 121 155 191 244 292 350
#     4  10  21  38  62  85 110 151 200 247 295 340
#     4  11  22  32  51  87 124 155 187 233 294 356
#     4  11  20  38  61  83 111 159 200 230 288 348
#     4  10  21  40  60  82 113 150 196 246 290 343
#
# _framework density 19.010593
#
# number of rings (size 3 to 8) (size 9 to 14) (size 15 to 20)
#    0.000    1.571    2.857    5.143    0.000    3.143 
#    0.000    0.000    0.000    0.429    0.000    0.000 
#    0.000    0.000    0.000    0.000    0.000    0.000 
#
# Total GULP energy -347180.184861 kJ/mol
# GULP energy per Si atom -12399.292316 kJ/mol
# Density = 1.896732 g / cm^3
# Si number density = 19.010593 Si / 1000 Ang^3
#
#
#
# Elastic Constant Matrix: (Units=GPa)
#
#
# Indices 1 2 3 4 5 6 
#
# 1 82.5174 42.6597 54.6229 0.0000 12.9495 0.0000
# 2 42.6597 114.9826 52.2365 0.0000 0.1120 0.0000
# 3 54.6229 52.2365 106.9432 0.0000 -1.2703 0.0000
# 4 0.0000 0.0000 0.0000 33.9336 0.0000 -7.1040
# 5 12.9495 0.1120 -1.2703 0.0000 34.2028 0.0000
# 6 0.0000 0.0000 0.0000 -7.1040 0.0000 15.7003
#
#
#
# Elastic Compliance Matrix: (Units=1/GPa)
#
#
# Indices 1 2 3 4 5 6 
#
# 1 0.021525 -0.003775 -0.009251 0.000000 -0.008481 0.000000
# 2 -0.003775 0.011841 -0.003841 0.000000 0.001248 0.000000
# 3 -0.009251 -0.003841 0.016001 0.000000 0.004109 0.000000
# 4 0.000000 0.000000 0.000000 0.032553 0.000000 0.014729
# 5 -0.008481 0.001248 0.004109 0.000000 0.032597 0.000000
# 6 0.000000 0.000000 0.000000 0.014729 0.000000 0.070358
#
#
# Mechanical properties :
#
#
# Convention : Reuss Voigt Hill
#
# Bulk Modulus (GPa) = 63.96688 67.05348 65.51018
# Shear Modulus (GPa) = 22.33947 27.09562 24.71754
#
# Velocity S-wave (km/s) = 3.43170 3.77940 3.60974
# Velocity P-wave (km/s) = 7.03016 7.37518 7.20474
#
# Compressibility (1/GPa) = 0.01563309
#
# Stress axis : x y z
#
# Youngs Moduli (GPa) = 46.45781 84.45068 62.49701
#
# Poissons Ratio (x) = 0.31880 0.57816
# Poissons Ratio (y) = 0.17538 0.24005
# Poissons Ratio (z) = 0.42978 0.32437
#
# Static dielectric constant tensor:
#      x y z
#    x 3.162410 0.000000 -0.024820 
#    y 0.000000 3.506480 0.000000 
#    z -0.024820 0.000000 3.831670 
# 
# 
# High freq. dielectric constant tensor:
#      x y z
#    x 1.704460 0.000000 0.002570 
#    y 0.000000 1.744840 0.000000 
#    z 0.002570 0.000000 1.741110 
# 
# From -- ./inp_files/80013.got.cif
#   From: 2010.06.25/outbox.cif.g09.slc.cpg/sg12_41_cif.got.tgz:80013.got - 2010.06.28 00:19:55.
