data_PCOD8108003
_publ_section_title
;
Structure prediction by ZEFSAII (Michael W. Deem and Ramdas Pophale) SiO2 
 PCOD8108003
Probable space group: C 2/M
;
_chemical_formula_sum "Si O2"
_cell_formula_units_Z 56
_cell_length_a 22.527157
_cell_length_b 8.840661
_cell_length_c 16.619491
_cell_angle_alpha 90.000000
_cell_angle_beta 125.150367
_cell_angle_gamma 90.000000
_cell_volume 2706.282068
_symmetry_space_group_name_H-M "C 2/M"
_symmetry_group_IT_number 12
_symmetry_cell_setting 'monoclinic'
loop_
_space_group_symop_operation_xyz
x,y,z
-x,y,-z
-x,-y,-z
x,-y,z
1/2+x,1/2+y,z
1/2-x,1/2+y,-z
1/2-x,1/2-y,-z
1/2+x,1/2-y,z
loop_
_atom_site_type_symbol
_atom_site_label
_atom_site_fract_x
_atom_site_fract_y
_atom_site_fract_z
Si Si1 0.861164 0.823394 0.230738
Si Si2 0.417126 0.320745 0.444497
Si Si3 0.174486 0.827718 0.241733
Si Si4 0.216252 0.178752 0.554968
Si Si5 0.033368 0.331554 0.107882
Si Si6 0.602840 0.832490 0.889825
Si Si7 0.786738 0.827445 0.910111
O O1 0.874389 0.765412 0.331687
O O2 0.914707 0.736433 0.211797
O O3 0.781444 0.782674 0.137289
O O4 0.876038 0.000000 0.236521
O O5 0.500000 0.254871 0.500000
O O6 0.422515 0.500000 0.452354
O O7 0.366738 0.268846 0.482678
O O8 0.232111 0.721984 0.330923
O O9 0.093412 0.772968 0.196879
O O10 0.179053 0.808015 0.150300
O O11 0.185624 0.000000 0.279401
O O12 0.250000 0.250000 0.500000
O O13 0.216952 0.000000 0.543344
O O14 0.064554 0.500000 0.112032
O O15 0.973401 0.343636 0.127935
O O16 0.000000 0.259817 0.000000
O O17 0.637692 0.000000 0.910507
O O18 0.656104 0.721309 0.978688
O O19 0.763124 0.000000 0.907275
#
# Coordination Sequence:
#
# PCOD8108003 Si02
#       7
#     8   8   8   8   8   8   8
#     4  11  22  38  61  88 120 160 204 250 306 365
#     4   9  20  40  66  93 121 159 205 255 311 371
#     4  11  23  38  62  91 121 158 204 254 303 361
#     4  11  23  42  68  96 127 160 206 260 319 386
#     4  10  21  38  59  84 120 164 205 247 303 367
#     4  11  23  38  58  87 124 162 204 252 305 363
#     4  11  22  37  59  87 120 158 204 251 298 357
#
# _framework density 20.692595000000001
#
# number of rings (size 3 to 8) (size 9 to 14) (size 15 to 20)
#    0.000    1.429    2.857    2.571    0.000    3.714 
#    0.000    1.429    0.000    6.000    0.000    0.000 
#    0.000    0.000    0.000    0.000    0.000    0.000 
#
# Total GULP energy -347030.283274 kJ/mol
# GULP energy per Si atom -12393.938688 kJ/mol
# Density = 2.064550 g / cm^3
# Si number density = 20.692595 Si / 1000 Ang^3
#
#
#
# Elastic Constant Matrix: (Units=GPa)
#
#
# Indices 1 2 3 4 5 6 
#
# 1 143.9822 42.5951 50.5345 0.0000 -6.2226 0.0000
# 2 42.5951 67.6384 27.9009 0.0000 -7.6517 0.0000
# 3 50.5345 27.9009 68.5718 0.0000 -2.4861 0.0000
# 4 0.0000 0.0000 0.0000 28.5668 0.0000 -7.9166
# 5 -6.2226 -7.6517 -2.4861 0.0000 33.6418 0.0000
# 6 0.0000 0.0000 0.0000 -7.9166 0.0000 32.1826
#
#
#
# Elastic Compliance Matrix: (Units=1/GPa)
#
#
# Indices 1 2 3 4 5 6 
#
# 1 0.010202 -0.003928 -0.005900 0.000000 0.000558 0.000000
# 2 -0.003928 0.019703 -0.005000 0.000000 0.003385 0.000000
# 3 -0.005900 -0.005000 0.020941 0.000000 -0.000681 0.000000
# 4 0.000000 0.000000 0.000000 0.037567 0.000000 0.009241
# 5 0.000558 0.003385 -0.000681 0.000000 0.030548 0.000000
# 6 0.000000 0.000000 0.000000 0.009241 0.000000 0.033346
#
#
# Mechanical properties :
#
#
# Convention : Reuss Voigt Hill
#
# Bulk Modulus (GPa) = 47.18920 58.02816 52.60868
# Shear Modulus (GPa) = 26.45137 29.48904 27.97020
#
# Velocity S-wave (km/s) = 3.57921 3.77915 3.68054
# Velocity P-wave (km/s) = 6.31945 6.86633 6.59855
#
# Compressibility (1/GPa) = 0.02119129
#
# Stress axis : x y z
#
# Youngs Moduli (GPa) = 98.01749 50.75267 47.75314
#
# Poissons Ratio (x) = 0.19935 0.28175
# Poissons Ratio (y) = 0.38500 0.23875
# Poissons Ratio (z) = 0.57832 0.25374
#
# Static dielectric constant tensor:
#      x y z
#    x 4.172320 0.000000 -0.130560 
#    y 0.000000 3.818920 0.000000 
#    z -0.130560 0.000000 3.664620 
# 
# 
# High freq. dielectric constant tensor:
#      x y z
#    x 1.828010 0.000000 -0.007520 
#    y 0.000000 1.798830 0.000000 
#    z -0.007520 0.000000 1.796610 
# 
# From -- ./inp_files/288426.got.cif
#   From: 2010.06.25/outbox.cif.g09.slc.cpg/sg12_145_cif.got.tgz:288426.got - 2010.06.28 00:19:55.
