data_PCOD8108086
_publ_section_title
;
Structure prediction by ZEFSAII (Michael W. Deem and Ramdas Pophale) SiO2 
 PCOD8108086
Probable space group: C 2/M
;
_chemical_formula_sum "Si O2"
_cell_formula_units_Z 56
_cell_length_a 18.141389
_cell_length_b 8.328115
_cell_length_c 20.283420
_cell_angle_alpha 90.000000
_cell_angle_beta 62.667546
_cell_angle_gamma 90.000000
_cell_volume 2722.363462
_symmetry_space_group_name_H-M "C 2/M"
_symmetry_group_IT_number 12
_symmetry_cell_setting 'monoclinic'
loop_
_space_group_symop_operation_xyz
x,y,z
-x,y,-z
-x,-y,-z
x,-y,z
1/2+x,1/2+y,z
1/2-x,1/2+y,-z
1/2-x,1/2-y,-z
1/2+x,1/2-y,z
loop_
_atom_site_type_symbol
_atom_site_label
_atom_site_fract_x
_atom_site_fract_y
_atom_site_fract_z
Si Si1 0.279451 0.813109 0.270501
Si Si2 0.953222 0.190733 0.422413
Si Si3 0.931251 0.812510 0.285314
Si Si4 0.577335 0.186994 0.007794
Si Si5 0.590127 0.190544 0.150808
Si Si6 0.731507 0.314856 0.868918
Si Si7 0.122198 0.190642 0.414082
O O1 0.368376 0.789102 0.267106
O O2 0.274552 0.712087 0.206204
O O3 0.208387 0.745290 0.348789
O O4 0.266649 0.000000 0.259267
O O5 0.924480 0.254164 0.362998
O O6 0.888970 0.250029 0.505475
O O7 0.045399 0.255983 0.401872
O O8 0.957288 0.000000 0.418983
O O9 0.023882 0.782924 0.222287
O O10 0.909213 0.000000 0.289964
O O11 0.582173 0.257429 0.079555
O O12 0.560570 0.000000 0.021338
O O13 0.500000 0.266954 0.000000
O O14 0.662404 0.212949 0.934504
O O15 0.679579 0.242046 0.141322
O O16 0.576461 0.000000 0.161437
O O17 0.715871 0.500000 0.891696
O O18 0.121780 0.000000 0.413591
#
# Coordination Sequence:
#
# PCOD8108086 Si02
#       7
#     8   8   8   8   8   8   8
#     4  11  22  36  55  79 110 149 189 228 277 333
#     4   8  15  30  52  79 108 138 181 232 274 320
#     4  11  22  35  55  83 113 146 185 230 278 326
#     4  10  21  38  60  84 112 148 185 221 267 325
#     4  10  22  39  58  83 115 148 183 225 272 324
#     4  11  23  38  58  84 113 145 184 231 276 320
#     4   8  15  30  53  78 105 142 185 226 271 325
#
# _framework density 20.570360999999998
#
# number of rings (size 3 to 8) (size 9 to 14) (size 15 to 20)
#    0.000    2.143    0.000    4.286    0.000    4.857 
#    0.000    0.000    0.000    2.571    0.000   10.000 
#    0.000    0.000    0.000    0.000    0.000    0.000 
#
# Total GULP energy -347225.662952 kJ/mol
# GULP energy per Si atom -12400.916534 kJ/mol
# Density = 2.052354 g / cm^3
# Si number density = 20.570361 Si / 1000 Ang^3
#
#
#
# Elastic Constant Matrix: (Units=GPa)
#
#
# Indices 1 2 3 4 5 6 
#
# 1 95.7473 3.6464 40.0238 -0.0001 20.1050 0.0001
# 2 3.6464 16.7106 2.0923 -0.0002 2.4767 -0.0004
# 3 40.0238 2.0923 135.4496 0.0000 16.7632 -0.0001
# 4 -0.0001 -0.0002 0.0000 15.6248 0.0000 -7.0309
# 5 20.1050 2.4767 16.7632 0.0000 42.4547 0.0000
# 6 0.0001 -0.0004 -0.0001 -7.0309 0.0000 15.1940
#
#
#
# Elastic Compliance Matrix: (Units=1/GPa)
#
#
# Indices 1 2 3 4 5 6 
#
# 1 0.012830 -0.001702 -0.003181 0.000000 -0.004721 0.000000
# 2 -0.001702 0.060625 -0.000101 0.000002 -0.002691 0.000002
# 3 -0.003181 -0.000101 0.008555 0.000000 -0.001866 0.000000
# 4 0.000000 0.000002 0.000000 0.080832 0.000000 0.037404
# 5 -0.004721 -0.002691 -0.001866 0.000000 0.026684 0.000000
# 6 0.000000 0.000002 0.000000 0.037404 0.000000 0.083124
#
#
# Mechanical properties :
#
#
# Convention : Reuss Voigt Hill
#
# Bulk Modulus (GPa) = 13.88035 37.71471 25.79753
# Shear Modulus (GPa) = 16.30631 28.13105 22.21868
#
# Velocity S-wave (km/s) = 2.81856 3.70206 3.29010
# Velocity P-wave (km/s) = 4.16591 6.05375 5.19628
#
# Compressibility (1/GPa) = 0.07204432
#
# Stress axis : x y z
#
# Youngs Moduli (GPa) = 77.94413 16.49483 116.88920
#
# Poissons Ratio (x) = 0.02807 0.37177
# Poissons Ratio (y) = 0.13264 0.01176
# Poissons Ratio (z) = 0.24790 0.00166
#
# Static dielectric constant tensor:
#      x y z
#    x 3.859780 0.000000 0.099740 
#    y 0.000000 3.264140 0.000000 
#    z 0.099740 0.000000 4.064580 
# 
# 
# High freq. dielectric constant tensor:
#      x y z
#    x 1.810740 0.000000 0.002360 
#    y 0.000000 1.769330 0.000000 
#    z 0.002360 0.000000 1.821700 
# 
# From -- ./inp_files/275331.got.cif
#   From: 2010.06.25/outbox.cif.g09.slc.cpg/sg12_138_cif.got.tgz:275331.got - 2010.06.28 00:19:55.
