data_PCOD8108553
_publ_section_title
;
Structure prediction by ZEFSAII (Michael W. Deem and Ramdas Pophale) SiO2 
 PCOD8108553
Probable space group: C 2/M
;
_chemical_formula_sum "Si O2"
_cell_formula_units_Z 64
_cell_length_a 24.212712
_cell_length_b 20.668171
_cell_length_c 11.290892
_cell_angle_alpha 90.000000
_cell_angle_beta 32.585530
_cell_angle_gamma 90.000000
_cell_volume 3043.029923
_symmetry_space_group_name_H-M "C 2/M"
_symmetry_group_IT_number 12
_symmetry_cell_setting 'monoclinic'
loop_
_space_group_symop_operation_xyz
x,y,z
-x,y,-z
-x,-y,-z
x,-y,z
1/2+x,1/2+y,z
1/2-x,1/2+y,-z
1/2-x,1/2-y,-z
1/2+x,1/2-y,z
loop_
_atom_site_type_symbol
_atom_site_label
_atom_site_fract_x
_atom_site_fract_y
_atom_site_fract_z
Si Si1 0.258932 0.187589 0.067277
Si Si2 0.234481 0.125032 0.627425
Si Si3 0.012385 0.640928 0.347747
Si Si4 0.055247 0.928758 0.092334
Si Si5 0.452505 0.074078 0.207778
Si Si6 0.653449 0.771971 0.433170
Si Si7 0.077847 0.817626 0.754639
Si Si8 0.387843 0.426356 0.747576
O O1 0.212097 0.209766 0.276712
O O2 0.198102 0.123716 0.138240
O O3 0.250000 0.250000 0.000000
O O4 0.375830 0.169262 0.872229
O O5 0.330465 0.081760 0.416191
O O6 0.264138 0.174100 0.678968
O O7 0.192210 0.165207 0.592026
O O8 0.140410 0.079983 0.837280
O O9 0.000000 0.604313 0.500000
O O10 0.988889 0.601711 0.269522
O O11 0.927671 0.697951 0.513060
O O12 0.114748 0.923014 0.107275
O O13 0.964943 0.876471 0.247725
O O14 0.005620 0.000000 0.167518
O O15 0.484904 0.000000 0.153453
O O16 0.500000 0.105026 0.000000
O O17 0.586582 0.748563 0.665852
O O18 0.000000 0.801626 0.000000
O O19 0.500000 0.405165 0.500000
O O20 0.362441 0.500000 0.749550
#
# Coordination Sequence:
#
# PCOD8108553 Si02
#       8
#     8   8   8   8   8   8   8   8
#     4  12  25  39  69  94 132 176 220 282 333 403
#     4  10  22  40  61  92 123 166 217 261 330 394
#     4  11  26  44  64 101 131 173 224 274 335 400
#     4  10  21  38  62  91 123 159 206 267 327 390
#     4  10  24  46  69  93 130 174 219 275 332 397
#     4  11  24  40  62  91 131 167 216 268 335 390
#     4  10  23  37  62  92 125 165 210 269 322 403
#     4  10  23  42  64  93 131 171 216 270 341 403
#
# _framework density 21.031669000000001
#
# number of rings (size 3 to 8) (size 9 to 14) (size 15 to 20)
#    0.000    1.500    1.250    2.250   10.500    5.500 
#    0.000    0.000    0.000    0.000    0.000    0.000 
#    0.000    0.000    0.000    0.000    0.000    0.000 
#
# Total GULP energy -396657.008303 kJ/mol
# GULP energy per Si atom -12395.531509 kJ/mol
# Density = 2.098380 g / cm^3
# Si number density = 21.031669 Si / 1000 Ang^3
#
#
#
# Elastic Constant Matrix: (Units=GPa)
#
#
# Indices 1 2 3 4 5 6 
#
# 1 106.0791 33.2536 40.8151 0.0000 -4.1788 0.0000
# 2 33.2536 73.6243 24.0863 0.0000 -2.4451 0.0000
# 3 40.8151 24.0863 82.2987 0.0000 -0.4484 0.0000
# 4 0.0000 0.0000 0.0000 32.2513 0.0000 7.8840
# 5 -4.1788 -2.4451 -0.4484 0.0000 47.6819 0.0000
# 6 0.0000 0.0000 0.0000 7.8840 0.0000 19.5113
#
#
#
# Elastic Compliance Matrix: (Units=1/GPa)
#
#
# Indices 1 2 3 4 5 6 
#
# 1 0.012690 -0.004032 -0.005109 0.000000 0.000857 0.000000
# 2 -0.004032 0.016327 -0.002776 0.000000 0.000458 0.000000
# 3 -0.005109 -0.002776 0.015495 0.000000 -0.000444 0.000000
# 4 0.000000 0.000000 0.000000 0.034405 0.000000 -0.013902
# 5 0.000857 0.000458 -0.000444 0.000000 0.021067 0.000000
# 6 0.000000 0.000000 0.000000 -0.013902 0.000000 0.056870
#
#
# Mechanical properties :
#
#
# Convention : Reuss Voigt Hill
#
# Bulk Modulus (GPa) = 48.36130 50.92355 49.64243
# Shear Modulus (GPa) = 26.65522 30.81207 28.73364
#
# Velocity S-wave (km/s) = 3.56390 3.83173 3.70024
# Velocity P-wave (km/s) = 6.32294 6.62129 6.47384
#
# Compressibility (1/GPa) = 0.02067769
#
# Stress axis : x y z
#
# Youngs Moduli (GPa) = 78.80010 61.24807 64.53818
#
# Poissons Ratio (x) = 0.24695 0.32972
# Poissons Ratio (y) = 0.31772 0.17918
# Poissons Ratio (z) = 0.40258 0.17005
#
# Static dielectric constant tensor:
#      x y z
#    x 3.981490 0.000000 0.105620 
#    y 0.000000 3.793310 0.000000 
#    z 0.105620 0.000000 3.912110 
# 
# 
# High freq. dielectric constant tensor:
#      x y z
#    x 1.831210 0.000000 0.004700 
#    y 0.000000 1.818130 0.000000 
#    z 0.004700 0.000000 1.832650 
# 
# From -- ./inp_files/184685.got.cif
#   From: 2010.06.25/outbox.cif.g09.slc.cpg/sg12_93_cif.got.tgz:184685.got - 2010.06.28 00:19:55.
