data_PCOD8108930
_publ_section_title
;
Structure prediction by ZEFSAII (Michael W. Deem and Ramdas Pophale) SiO2 
 PCOD8108930
Probable space group: C 2/M
;
_chemical_formula_sum "Si O2"
_cell_formula_units_Z 56
_cell_length_a 15.235739
_cell_length_b 8.835730
_cell_length_c 24.490883
_cell_angle_alpha 90.000000
_cell_angle_beta 118.903849
_cell_angle_gamma 90.000000
_cell_volume 2886.242724
_symmetry_space_group_name_H-M "C 2/M"
_symmetry_group_IT_number 12
_symmetry_cell_setting 'monoclinic'
loop_
_space_group_symop_operation_xyz
x,y,z
-x,y,-z
-x,-y,-z
x,-y,z
1/2+x,1/2+y,z
1/2-x,1/2+y,-z
1/2-x,1/2-y,-z
1/2+x,1/2-y,z
loop_
_atom_site_type_symbol
_atom_site_label
_atom_site_fract_x
_atom_site_fract_y
_atom_site_fract_z
Si Si1 0.348066 0.678276 0.504068
Si Si2 0.916553 0.177730 0.706651
Si Si3 0.513425 0.321472 0.849435
Si Si4 0.223715 0.679261 0.934193
Si Si5 0.996585 0.326469 0.370797
Si Si6 0.690604 0.826679 0.617917
Si Si7 0.579876 0.679112 0.066874
O O1 0.341065 0.500000 0.506715
O O2 0.250000 0.750000 0.500000
O O3 0.443700 0.733327 0.566061
O O4 0.357803 0.725967 0.444160
O O5 0.986375 0.262252 0.684298
O O6 0.801728 0.231243 0.665703
O O7 0.952478 0.224521 0.777384
O O8 0.926940 0.000000 0.699822
O O9 0.533144 0.500000 0.858988
O O10 0.619371 0.238379 0.879743
O O11 0.447717 0.262752 0.880917
O O12 0.220721 0.500000 0.940096
O O13 0.308545 0.730623 0.916226
O O14 0.250000 0.750000 0.000000
O O15 0.032173 0.500000 0.383560
O O16 0.878589 0.311196 0.349179
O O17 0.694015 0.000000 0.598582
O O18 0.572183 0.500000 0.063037
O O19 0.500000 0.748415 0.000000
#
# Coordination Sequence:
#
# PCOD8108930 Si02
#       7
#     8   8   8   8   8   8   8
#     4  12  23  37  61  91 121 155 197 247 304 355
#     4  10  22  40  61  83 115 160 199 241 294 352
#     4  10  21  39  60  84 116 154 198 240 289 348
#     4  11  21  35  59  88 116 148 188 237 292 349
#     4  11  23  39  62  90 121 156 199 249 295 349
#     4  10  22  40  61  87 119 157 202 246 294 351
#     4   9  17  33  58  84 112 149 190 228 281 352
#
# _framework density 19.402387999999998
#
# number of rings (size 3 to 8) (size 9 to 14) (size 15 to 20)
#    0.000    1.571    2.857    2.571    0.000    4.571 
#    0.000    5.000    0.000    0.000    0.000    0.000 
#    0.000    0.000    0.000    0.000    0.000    0.000 
#
# Total GULP energy -347280.228123 kJ/mol
# GULP energy per Si atom -12402.865290 kJ/mol
# Density = 1.935823 g / cm^3
# Si number density = 19.402388 Si / 1000 Ang^3
#
#
#
# Elastic Constant Matrix: (Units=GPa)
#
#
# Indices 1 2 3 4 5 6 
#
# 1 153.6534 40.8108 65.2513 0.0000 -19.4011 0.0000
# 2 40.8108 77.2074 45.2203 0.0000 -7.4058 0.0000
# 3 65.2513 45.2203 132.8561 0.0000 -20.7417 0.0000
# 4 0.0000 0.0000 0.0000 28.3618 0.0000 -0.5744
# 5 -19.4011 -7.4058 -20.7417 0.0000 26.8180 0.0000
# 6 0.0000 0.0000 0.0000 -0.5744 0.0000 31.1957
#
#
#
# Elastic Compliance Matrix: (Units=1/GPa)
#
#
# Indices 1 2 3 4 5 6 
#
# 1 0.008890 -0.002656 -0.002926 0.000000 0.003435 0.000000
# 2 -0.002656 0.016972 -0.004595 0.000000 -0.000789 0.000000
# 3 -0.002926 -0.004595 0.011373 0.000000 0.005410 0.000000
# 4 0.000000 0.000000 0.000000 0.035272 0.000000 0.000649
# 5 0.003435 -0.000789 0.005410 0.000000 0.043740 0.000000
# 6 0.000000 0.000000 0.000000 0.000649 0.000000 0.032068
#
#
# Mechanical properties :
#
#
# Convention : Reuss Voigt Hill
#
# Bulk Modulus (GPa) = 59.24183 74.03130 66.63657
# Shear Modulus (GPa) = 28.68701 31.43742 30.06221
#
# Velocity S-wave (km/s) = 3.84934 4.02964 3.94052
# Velocity P-wave (km/s) = 7.09620 7.73882 7.42447
#
# Compressibility (1/GPa) = 0.01687996
#
# Stress axis : x y z
#
# Youngs Moduli (GPa) = 112.48854 58.92106 87.92903
#
# Poissons Ratio (x) = 0.15648 0.25728
# Poissons Ratio (y) = 0.29875 0.40407
# Poissons Ratio (z) = 0.32914 0.27077
#
# Static dielectric constant tensor:
#      x y z
#    x 3.459670 0.000000 -0.007070 
#    y 0.000000 3.478630 0.000000 
#    z -0.007070 0.000000 3.611980 
# 
# 
# High freq. dielectric constant tensor:
#      x y z
#    x 1.772980 0.000000 -0.003100 
#    y 0.000000 1.741730 0.000000 
#    z -0.003100 0.000000 1.750690 
# 
# From -- ./inp_files/339091.got.cif
#   From: 2010.06.25/outbox.cif.g09.slc.cpg/sg12_170_cif.got.tgz:339091.got - 2010.06.28 00:19:55.
