data_PCOD8108690
_publ_section_title
;
Structure prediction by ZEFSAII (Michael W. Deem and Ramdas Pophale) SiO2 
 PCOD8108690
Probable space group: C 2/M
;
_chemical_formula_sum "Si O2"
_cell_formula_units_Z 64
_cell_length_a 18.020396
_cell_length_b 13.038481
_cell_length_c 18.556242
_cell_angle_alpha 90.000000
_cell_angle_beta 139.729586
_cell_angle_gamma 90.000000
_cell_volume 2818.252694
_symmetry_space_group_name_H-M "C 2/M"
_symmetry_group_IT_number 12
_symmetry_cell_setting 'monoclinic'
loop_
_space_group_symop_operation_xyz
x,y,z
-x,y,-z
-x,-y,-z
x,-y,z
1/2+x,1/2+y,z
1/2-x,1/2+y,-z
1/2-x,1/2-y,-z
1/2+x,1/2-y,z
loop_
_atom_site_type_symbol
_atom_site_label
_atom_site_fract_x
_atom_site_fract_y
_atom_site_fract_z
Si Si1 0.701410 0.621702 0.451161
Si Si2 0.772582 0.384068 0.343409
Si Si3 0.336079 0.884093 0.684199
Si Si4 0.756408 0.719591 0.924481
Si Si5 0.876761 0.820307 0.386934
Si Si6 0.483844 0.118039 0.068180
Si Si7 0.446398 0.380092 0.288399
Si Si8 0.367656 0.616844 0.901872
O O1 0.704288 0.500000 0.462964
O O2 0.721792 0.650631 0.382979
O O3 0.801797 0.667869 0.579860
O O4 0.576721 0.662732 0.385184
O O5 0.823269 0.500000 0.383434
O O6 0.870699 0.302655 0.395476
O O7 0.672065 0.374461 0.210410
O O8 0.218936 0.883773 0.642339
O O9 0.434447 0.830751 0.807770
O O10 0.375319 0.000000 0.697241
O O11 0.627110 0.677129 0.825634
O O12 0.789159 0.813051 0.895197
O O13 0.750000 0.750000 0.000000
O O14 0.850910 0.630006 0.988356
O O15 0.866873 0.848661 0.296764
O O16 0.000000 0.863463 0.500000
O O17 0.520365 0.000000 0.091703
O O18 0.500000 0.167494 0.000000
O O19 0.447827 0.500000 0.275057
O O20 0.354754 0.500000 0.920085
O O21 0.500000 0.651780 0.000000
#
# Coordination Sequence:
#
# PCOD8108690 Si02
#       8
#     8   8   8   8   8   8   8   8
#     4   9  20  40  66  96 128 169 215 265 321 377
#     4  10  23  44  66  89 124 171 222 266 314 381
#     4  10  21  38  63  97 133 166 213 267 320 387
#     4  12  26  41  65  97 132 165 212 265 327 387
#     4  12  23  38  63  97 129 167 208 258 325 390
#     4  10  22  42  67  94 129 175 217 260 318 387
#     4  11  23  42  66  96 136 168 206 263 330 391
#     4  10  23  43  66  89 119 165 220 268 311 373
#
# _framework density 22.709106999999999
#
# number of rings (size 3 to 8) (size 9 to 14) (size 15 to 20)
#    0.000    1.500    2.500    1.875    3.500    3.250 
#    2.250    0.000    0.000    0.000    0.000    0.000 
#    0.000    0.000    0.000    0.000    0.000    0.000 
#
# Total GULP energy -396496.702553 kJ/mol
# GULP energy per Si atom -12390.521955 kJ/mol
# Density = 2.265742 g / cm^3
# Si number density = 22.709107 Si / 1000 Ang^3
#
#
#
# Elastic Constant Matrix: (Units=GPa)
#
#
# Indices 1 2 3 4 5 6 
#
# 1 55.5841 15.5649 42.3202 0.0000 -21.3588 0.0000
# 2 15.5649 74.8643 23.4407 0.0000 -1.1773 0.0000
# 3 42.3202 23.4407 169.2590 0.0000 -17.1029 0.0000
# 4 0.0000 0.0000 0.0000 26.2624 0.0000 6.8153
# 5 -21.3588 -1.1773 -17.1029 0.0000 46.1613 0.0000
# 6 0.0000 0.0000 0.0000 6.8153 0.0000 20.4119
#
#
#
# Elastic Compliance Matrix: (Units=1/GPa)
#
#
# Indices 1 2 3 4 5 6 
#
# 1 0.027032 -0.003837 -0.005167 0.000000 0.010496 0.000000
# 2 -0.003837 0.014514 -0.001239 0.000000 -0.001864 0.000000
# 3 -0.005167 -0.001239 0.007404 0.000000 0.000321 0.000000
# 4 0.000000 0.000000 0.000000 0.041690 0.000000 -0.013920
# 5 0.010496 -0.001864 0.000321 0.000000 0.026591 0.000000
# 6 0.000000 0.000000 0.000000 -0.013920 0.000000 0.053639
#
#
# Mechanical properties :
#
#
# Convention : Reuss Voigt Hill
#
# Bulk Modulus (GPa) = 35.13247 51.37321 43.25284
# Shear Modulus (GPa) = 24.89496 33.12589 29.01042
#
# Velocity S-wave (km/s) = 3.31457 3.82344 3.57806
# Velocity P-wave (km/s) = 5.49115 6.49331 6.01314
#
# Compressibility (1/GPa) = 0.02846370
#
# Stress axis : x y z
#
# Youngs Moduli (GPa) = 36.99269 68.89928 135.06173
#
# Poissons Ratio (x) = 0.26439 0.69786
# Poissons Ratio (y) = 0.14195 0.16734
# Poissons Ratio (z) = 0.19114 0.08536
#
# Static dielectric constant tensor:
#      x y z
#    x 1.193140 0.000000 -3.862530 
#    y 0.000000 4.091110 0.000000 
#    z -3.862530 0.000000 0.192840 
# 
# 
# High freq. dielectric constant tensor:
#      x y z
#    x 1.878690 0.000000 -0.014870 
#    y 0.000000 1.901730 0.000000 
#    z -0.014870 0.000000 1.915390 
# 
# From -- ./inp_files/278188.got.cif
#   From: 2010.06.25/outbox.cif.g09.slc.cpg/sg12_140_cif.got.tgz:278188.got - 2010.06.28 00:19:55.
