data_PCOD8108595
_publ_section_title
;
Structure prediction by ZEFSAII (Michael W. Deem and Ramdas Pophale) SiO2 
 PCOD8108595
Probable space group: C 2/M
;
_chemical_formula_sum "Si O2"
_cell_formula_units_Z 40
_cell_length_a 29.696629
_cell_length_b 8.483921
_cell_length_c 14.754045
_cell_angle_alpha 90.000000
_cell_angle_beta 30.303368
_cell_angle_gamma 90.000000
_cell_volume 1875.614179
_symmetry_space_group_name_H-M "C 2/M"
_symmetry_group_IT_number 12
_symmetry_cell_setting 'monoclinic'
loop_
_space_group_symop_operation_xyz
x,y,z
-x,y,-z
-x,-y,-z
x,-y,z
1/2+x,1/2+y,z
1/2-x,1/2+y,-z
1/2-x,1/2-y,-z
1/2+x,1/2-y,z
loop_
_atom_site_type_symbol
_atom_site_label
_atom_site_fract_x
_atom_site_fract_y
_atom_site_fract_z
Si Si1 0.970097 0.680621 0.269226
Si Si2 0.565795 0.818764 0.465257
Si Si3 0.350181 0.318106 0.086724
Si Si4 0.718433 0.316014 0.459870
Si Si5 0.251639 0.317167 0.897044
O O1 0.984446 0.500000 0.217005
O O2 0.983124 0.704493 0.354212
O O3 0.872038 0.730557 0.410595
O O4 0.044446 0.782350 0.087308
O O5 0.500000 0.764697 0.500000
O O6 0.651537 0.706881 0.315224
O O7 0.596264 0.000000 0.398467
O O8 0.331568 0.500000 0.140286
O O9 0.294858 0.213776 0.253232
O O10 0.321270 0.275152 0.035112
O O11 0.699578 0.500000 0.500126
O O12 0.750000 0.250000 0.500000
O O13 0.225994 0.500000 0.942205
O O14 0.250000 0.250000 0.000000
#
# Coordination Sequence:
#
# PCOD8108595 Si02
#       5
#     8   8   8   8   8
#     4  11  23  42  69 101 139 179 224 279 341 403
#     4  10  21  38  62  93 133 176 222 273 334 400
#     4  12  25  44  69 100 138 179 227 280 337 403
#     4  12  26  47  73 102 136 177 228 283 345 406
#     4  12  24  39  62  93 133 178 228 279 336 400
#
# _framework density 21.326347999999999
#
# number of rings (size 3 to 8) (size 9 to 14) (size 15 to 20)
#    0.000    0.600    2.000    7.200    0.000    3.600 
#    0.000    4.000    0.000    0.000    0.000    0.000 
#    0.000    0.000    0.000    0.000    0.000    0.000 
#
# Total GULP energy -248162.383626 kJ/mol
# GULP energy per Si atom -12408.119181 kJ/mol
# Density = 2.127781 g / cm^3
# Si number density = 21.326348 Si / 1000 Ang^3
#
#
#
# Elastic Constant Matrix: (Units=GPa)
#
#
# Indices 1 2 3 4 5 6 
#
# 1 117.2888 16.9781 32.4659 0.0000 2.5109 0.0000
# 2 16.9781 90.7976 7.1425 0.0000 0.0842 0.0000
# 3 32.4659 7.1425 109.0764 0.0000 -11.4277 0.0000
# 4 0.0000 0.0000 0.0000 40.0278 0.0000 -2.8087
# 5 2.5109 0.0842 -11.4277 0.0000 28.5601 0.0000
# 6 0.0000 0.0000 0.0000 -2.8087 0.0000 34.4380
#
#
#
# Elastic Compliance Matrix: (Units=1/GPa)
#
#
# Indices 1 2 3 4 5 6 
#
# 1 0.009619 -0.001563 -0.002973 0.000000 -0.002031 0.000000
# 2 -0.001563 0.011328 -0.000277 0.000000 -0.000007 0.000000
# 3 -0.002973 -0.000277 0.010540 0.000000 0.004480 0.000000
# 4 0.000000 0.000000 0.000000 0.025126 0.000000 0.002049
# 5 -0.002031 -0.000007 0.004480 0.000000 0.036985 0.000000
# 6 0.000000 0.000000 0.000000 0.002049 0.000000 0.029205
#
#
# Mechanical properties :
#
#
# Convention : Reuss Voigt Hill
#
# Bulk Modulus (GPa) = 45.74641 47.81511 46.78076
# Shear Modulus (GPa) = 35.78680 37.97694 36.88187
#
# Velocity S-wave (km/s) = 4.10085 4.22447 4.16312
# Velocity P-wave (km/s) = 6.62721 6.80178 6.71506
#
# Compressibility (1/GPa) = 0.02185964
#
# Stress axis : x y z
#
# Youngs Moduli (GPa) = 103.96418 88.28035 94.87325
#
# Poissons Ratio (x) = 0.13796 0.28209
# Poissons Ratio (y) = 0.16248 0.02631
# Poissons Ratio (z) = 0.30912 0.02448
#
# Static dielectric constant tensor:
#      x y z
#    x 3.963320 0.000000 -0.024940 
#    y 0.000000 3.781030 0.000000 
#    z -0.024940 0.000000 3.868460 
# 
# 
# High freq. dielectric constant tensor:
#      x y z
#    x 1.840790 0.000000 -0.003290 
#    y 0.000000 1.842700 0.000000 
#    z -0.003290 0.000000 1.846190 
# 
# From -- ./inp_files/211196.got.cif
#   From: 2010.06.25/outbox.cif.g09.slc.cpg/sg12_106_cif.got.tgz:211196.got - 2010.06.28 00:19:55.
