data_PCOD8108178
_publ_section_title
;
Structure prediction by ZEFSAII (Michael W. Deem and Ramdas Pophale) SiO2 
 PCOD8108178
Probable space group: C 2/M
;
_chemical_formula_sum "Si O2"
_cell_formula_units_Z 56
_cell_length_a 16.030665
_cell_length_b 9.034617
_cell_length_c 19.790201
_cell_angle_alpha 90.000000
_cell_angle_beta 78.533761
_cell_angle_gamma 90.000000
_cell_volume 2809.028740
_symmetry_space_group_name_H-M "C 2/M"
_symmetry_group_IT_number 12
_symmetry_cell_setting 'monoclinic'
loop_
_space_group_symop_operation_xyz
x,y,z
-x,y,-z
-x,-y,-z
x,-y,z
1/2+x,1/2+y,z
1/2-x,1/2+y,-z
1/2-x,1/2-y,-z
1/2+x,1/2-y,z
loop_
_atom_site_type_symbol
_atom_site_label
_atom_site_fract_x
_atom_site_fract_y
_atom_site_fract_z
Si Si1 0.981124 0.675035 0.079302
Si Si2 0.883195 0.829783 0.847665
Si Si3 0.493093 0.669487 0.704094
Si Si4 0.799694 0.674601 0.157491
Si Si5 0.159533 0.326675 0.701521
Si Si6 0.047792 0.331913 0.425105
Si Si7 0.258020 0.832257 0.568643
O O1 0.981857 0.500000 0.089170
O O2 0.887651 0.741448 0.113162
O O3 0.055788 0.738018 0.113759
O O4 0.000000 0.722540 0.000000
O O5 0.910474 0.815717 0.764814
O O6 0.785595 0.767518 0.866989
O O7 0.887148 0.000000 0.870477
O O8 0.524485 0.500000 0.695590
O O9 0.563327 0.772952 0.727490
O O10 0.474807 0.722971 0.631603
O O11 0.803687 0.500000 0.148113
O O12 0.790689 0.714878 0.238075
O O13 0.161802 0.500000 0.686180
O O14 0.196763 0.242996 0.631885
O O15 0.018835 0.500000 0.412552
O O16 0.147384 0.323162 0.419624
O O17 0.000000 0.276099 0.500000
O O18 0.250000 0.750000 0.500000
O O19 0.228052 0.000000 0.563050
#
# Coordination Sequence:
#
# PCOD8108178 Si02
#       7
#     8   8   8   8   8   8   8
#     4  10  21  39  62  89 122 160 204 250 299 363
#     4  10  21  38  60  87 121 157 199 248 302 364
#     4  11  22  36  58  87 116 149 197 253 303 358
#     4   9  19  37  60  86 119 161 201 243 303 366
#     4  11  21  37  61  83 114 159 200 242 305 365
#     4  10  22  39  57  80 112 152 195 240 298 362
#     4  11  23  38  57  84 117 152 196 248 300 358
#
# _framework density 19.935714999999998
#
# number of rings (size 3 to 8) (size 9 to 14) (size 15 to 20)
#    0.000    1.714    1.429    3.000    0.000    5.143 
#    0.000    2.143    0.000    0.000    0.000    0.000 
#    0.000    0.000    0.000    0.000    0.000    0.000 
#
# Total GULP energy -347197.786097 kJ/mol
# GULP energy per Si atom -12399.920932 kJ/mol
# Density = 1.989034 g / cm^3
# Si number density = 19.935715 Si / 1000 Ang^3
#
#
#
# Elastic Constant Matrix: (Units=GPa)
#
#
# Indices 1 2 3 4 5 6 
#
# 1 131.5578 28.8331 60.5031 0.0000 0.3265 0.0000
# 2 28.8331 70.9886 48.8097 0.0000 -0.0530 0.0000
# 3 60.5031 48.8097 119.1860 0.0000 3.8333 0.0000
# 4 0.0000 0.0000 0.0000 36.4522 0.0000 -4.3856
# 5 0.3265 -0.0530 3.8333 0.0000 27.4247 0.0000
# 6 0.0000 0.0000 0.0000 -4.3856 0.0000 39.9201
#
#
#
# Elastic Compliance Matrix: (Units=1/GPa)
#
#
# Indices 1 2 3 4 5 6 
#
# 1 0.009956 -0.000774 -0.004754 0.000000 0.000545 0.000000
# 2 -0.000774 0.019705 -0.007713 0.000000 0.001125 0.000000
# 3 -0.004754 -0.007713 0.014024 0.000000 -0.001919 0.000000
# 4 0.000000 0.000000 0.000000 0.027801 0.000000 0.003054
# 5 0.000545 0.001125 -0.001919 0.000000 0.036727 0.000000
# 6 0.000000 0.000000 0.000000 0.003054 0.000000 0.025386
#
#
# Mechanical properties :
#
#
# Convention : Reuss Voigt Hill
#
# Bulk Modulus (GPa) = 58.13265 66.44712 62.28989
# Shear Modulus (GPa) = 30.15376 32.99849 31.57613
#
# Velocity S-wave (km/s) = 3.89337 4.07288 3.98414
# Velocity P-wave (km/s) = 7.03096 7.45123 7.24415
#
# Compressibility (1/GPa) = 0.01720204
#
# Stress axis : x y z
#
# Youngs Moduli (GPa) = 100.44018 50.74771 71.30561
#
# Poissons Ratio (x) = 0.03930 0.33902
# Poissons Ratio (y) = 0.07778 0.54997
# Poissons Ratio (z) = 0.47754 0.39141
#
# Static dielectric constant tensor:
#      x y z
#    x 3.950290 0.000000 -0.051780 
#    y 0.000000 3.549110 0.000000 
#    z -0.051780 0.000000 3.264420 
# 
# 
# High freq. dielectric constant tensor:
#      x y z
#    x 1.792500 0.000000 -0.003120 
#    y 0.000000 1.762830 0.000000 
#    z -0.003120 0.000000 1.780830 
# 
# From -- ./inp_files/309064.got.cif
#   From: 2010.06.25/outbox.cif.g09.slc.cpg/sg12_155_cif.got.tgz:309064.got - 2010.06.28 00:19:55.
