data_PCOD8108509
_publ_section_title
;
Structure prediction by ZEFSAII (Michael W. Deem and Ramdas Pophale) SiO2 
 PCOD8108509
Probable space group: C 2/M
;
_chemical_formula_sum "Si O2"
_cell_formula_units_Z 56
_cell_length_a 29.885305
_cell_length_b 8.898291
_cell_length_c 11.041004
_cell_angle_alpha 90.000000
_cell_angle_beta 66.418363
_cell_angle_gamma 90.000000
_cell_volume 2690.921725
_symmetry_space_group_name_H-M "C 2/M"
_symmetry_group_IT_number 12
_symmetry_cell_setting 'monoclinic'
loop_
_space_group_symop_operation_xyz
x,y,z
-x,y,-z
-x,-y,-z
x,-y,z
1/2+x,1/2+y,z
1/2-x,1/2+y,-z
1/2-x,1/2-y,-z
1/2+x,1/2-y,z
loop_
_atom_site_type_symbol
_atom_site_label
_atom_site_fract_x
_atom_site_fract_y
_atom_site_fract_z
Si Si1 0.366182 0.829342 0.818033
Si Si2 0.525334 0.178073 0.348619
Si Si3 0.870119 0.175404 0.280559
Si Si4 0.216781 0.828815 0.223289
Si Si5 0.794824 0.675182 0.518921
Si Si6 0.173798 0.333873 0.888690
Si Si7 0.526181 0.176874 0.844741
O O1 0.418076 0.770677 0.711510
O O2 0.323281 0.714339 0.832138
O O3 0.355911 0.000000 0.783506
O O4 0.367156 0.826444 0.962879
O O5 0.500000 0.242099 0.500000
O O6 0.501361 0.234865 0.247842
O O7 0.522171 0.000000 0.353084
O O8 0.846439 0.257962 0.420631
O O9 0.836785 0.208470 0.199523
O O10 0.923658 0.235954 0.202141
O O11 0.871025 0.000000 0.304775
O O12 0.209027 0.709080 0.336732
O O13 0.271991 0.809955 0.113615
O O14 0.207795 0.000000 0.276056
O O15 0.793287 0.500000 0.494688
O O16 0.750000 0.750000 0.500000
O O17 0.171294 0.500000 0.829985
O O18 0.535716 0.000000 0.825528
O O19 0.500000 0.216914 0.000000
#
# Coordination Sequence:
#
# PCOD8108509 Si02
#       7
#     8   8   8   8   8   8   8
#     4  10  21  38  62  89 119 161 210 255 306 369
#     4   9  19  36  59  88 118 155 209 263 310 367
#     4  12  25  39  62  94 127 163 206 257 317 376
#     4  11  23  38  59  89 125 163 204 250 305 371
#     4  12  24  41  63  89 123 163 206 255 310 371
#     4  10  21  39  61  87 123 165 207 252 304 372
#     4  10  21  40  66  92 122 164 213 264 319 380
#
# _framework density 20.810713
#
# number of rings (size 3 to 8) (size 9 to 14) (size 15 to 20)
#    0.000    1.429    1.429    4.286    2.000    3.714 
#    0.000    0.714    0.000    0.857    0.000    0.000 
#    0.000    0.000    0.000    0.000    0.000    0.000 
#
# Total GULP energy -347149.214203 kJ/mol
# GULP energy per Si atom -12398.186222 kJ/mol
# Density = 2.076335 g / cm^3
# Si number density = 20.810713 Si / 1000 Ang^3
#
#
#
# Elastic Constant Matrix: (Units=GPa)
#
#
# Indices 1 2 3 4 5 6 
#
# 1 99.7568 35.1456 39.2256 0.0000 -8.7309 0.0000
# 2 35.1456 87.5548 42.3986 0.0000 -19.2438 0.0000
# 3 39.2256 42.3986 131.7288 0.0000 -11.9130 0.0000
# 4 0.0000 0.0000 0.0000 22.2409 0.0000 -1.4036
# 5 -8.7309 -19.2438 -11.9130 0.0000 37.4527 0.0000
# 6 0.0000 0.0000 0.0000 -1.4036 0.0000 33.2142
#
#
#
# Elastic Compliance Matrix: (Units=1/GPa)
#
#
# Indices 1 2 3 4 5 6 
#
# 1 0.012314 -0.003714 -0.002455 0.000000 0.000181 0.000000
# 2 -0.003714 0.015962 -0.003468 0.000000 0.006232 0.000000
# 3 -0.002455 -0.003468 0.009499 0.000000 0.000667 0.000000
# 4 0.000000 0.000000 0.000000 0.045082 0.000000 0.001905
# 5 0.000181 0.006232 0.000667 0.000000 0.030157 0.000000
# 6 0.000000 0.000000 0.000000 0.001905 0.000000 0.030188
#
#
# Mechanical properties :
#
#
# Convention : Reuss Voigt Hill
#
# Bulk Modulus (GPa) = 54.05293 61.39781 57.72537
# Shear Modulus (GPa) = 29.64837 32.06625 30.85731
#
# Velocity S-wave (km/s) = 3.77857 3.92963 3.85484
# Velocity P-wave (km/s) = 6.71318 7.08211 6.90011
#
# Compressibility (1/GPa) = 0.01850038
#
# Stress axis : x y z
#
# Youngs Moduli (GPa) = 81.20708 62.65071 105.27581
#
# Poissons Ratio (x) = 0.23271 0.25845
# Poissons Ratio (y) = 0.30164 0.36507
# Poissons Ratio (z) = 0.19936 0.21726
#
# Static dielectric constant tensor:
#      x y z
#    x 3.699420 0.000000 -0.038890 
#    y 0.000000 3.520230 0.000000 
#    z -0.038890 0.000000 4.195660 
# 
# 
# High freq. dielectric constant tensor:
#      x y z
#    x 1.814580 0.000000 -0.008820 
#    y 0.000000 1.791930 0.000000 
#    z -0.008820 0.000000 1.828210 
# 
# From -- ./inp_files/180628.got.cif
#   From: 2010.06.25/outbox.cif.g09.slc.cpg/sg12_91_cif.got.tgz:180628.got - 2010.06.28 00:19:55.
