data_PCOD8108798
_publ_section_title
;
Structure prediction by ZEFSAII (Michael W. Deem and Ramdas Pophale) SiO2 
 PCOD8108798
Probable space group: C 2/M
;
_chemical_formula_sum "Si O2"
_cell_formula_units_Z 52
_cell_length_a 14.564122
_cell_length_b 25.877351
_cell_length_c 7.188575
_cell_angle_alpha 90.000000
_cell_angle_beta 126.718163
_cell_angle_gamma 90.000000
_cell_volume 2171.686543
_symmetry_space_group_name_H-M "C 2/M"
_symmetry_group_IT_number 12
_symmetry_cell_setting 'monoclinic'
loop_
_space_group_symop_operation_xyz
x,y,z
-x,y,-z
-x,-y,-z
x,-y,z
1/2+x,1/2+y,z
1/2-x,1/2+y,-z
1/2-x,1/2-y,-z
1/2+x,1/2-y,z
loop_
_atom_site_type_symbol
_atom_site_label
_atom_site_fract_x
_atom_site_fract_y
_atom_site_fract_z
Si Si1 0.131765 0.659602 0.128393
Si Si2 0.285426 0.443444 0.941760
Si Si3 0.500000 0.681537 0.000000
Si Si4 0.632386 0.853994 0.695791
Si Si5 0.974076 0.901171 0.680772
Si Si6 0.261541 0.056248 0.682741
Si Si7 0.774953 0.238269 0.819097
O O1 0.161577 0.606780 0.278336
O O2 0.216017 0.707974 0.289963
O O3 0.156171 0.653049 0.941119
O O4 0.000000 0.673991 0.000000
O O5 0.268834 0.500000 0.831644
O O6 0.207771 0.403955 0.726175
O O7 0.418552 0.428601 0.091113
O O8 0.245116 0.444180 0.104268
O O9 0.554991 0.649282 0.235929
O O10 0.599170 0.714860 0.029992
O O11 0.500000 0.864238 0.500000
O O12 0.677612 0.803384 0.635040
O O13 0.865113 0.939112 0.557354
O O14 0.000000 0.884804 0.500000
O O15 0.312660 0.000000 0.680171
O O16 0.750000 0.250000 0.000000
#
# Coordination Sequence:
#
# PCOD8108798 Si02
#       7
#     8   8   4   8   8   8   8
#     4  10  21  40  62  87 123 167 222 271 330 406
#     4   9  17  35  62  88 125 178 221 273 339 399
#     4  12  22  42  71  96 137 180 220 280 346 398
#     4  10  21  39  60  87 131 169 216 280 338 401
#     4  10  21  38  66  97 134 171 226 280 339 406
#     4   9  19  37  62  91 125 169 219 275 338 399
#     4  10  22  42  65  92 133 178 220 285 335 401
#
# _framework density 23.944523
#
# number of rings (size 3 to 8) (size 9 to 14) (size 15 to 20)
#    0.000    2.154    2.308    0.462    2.154    3.692 
#    5.538    3.077    0.000    0.000    0.000    0.000 
#    0.000    0.000    0.000    0.000    0.000    0.000 
#
# Total GULP energy -322172.498391 kJ/mol
# GULP energy per Si atom -12391.249938 kJ/mol
# Density = 2.389002 g / cm^3
# Si number density = 23.944523 Si / 1000 Ang^3
#
#
#
# Elastic Constant Matrix: (Units=GPa)
#
#
# Indices 1 2 3 4 5 6 
#
# 1 79.8754 54.2053 18.9652 0.0000 29.7223 0.0000
# 2 54.2053 229.1457 61.1123 0.0000 35.0367 0.0000
# 3 18.9652 61.1123 81.7334 0.0000 31.8961 0.0000
# 4 0.0000 0.0000 0.0000 15.9706 0.0000 16.5974
# 5 29.7223 35.0367 31.8961 0.0000 39.9642 0.0000
# 6 0.0000 0.0000 0.0000 16.5974 0.0000 26.1188
#
#
#
# Elastic Compliance Matrix: (Units=1/GPa)
#
#
# Indices 1 2 3 4 5 6 
#
# 1 0.019226 -0.003326 0.003584 0.000000 -0.014243 0.000000
# 2 -0.003326 0.006165 -0.003913 0.000000 0.000191 0.000000
# 3 0.003584 -0.003913 0.020377 0.000000 -0.015499 0.000000
# 4 0.000000 0.000000 0.000000 0.184379 0.000000 -0.117165
# 5 -0.014243 0.000191 -0.015499 0.000000 0.047817 0.000000
# 6 0.000000 0.000000 0.000000 -0.117165 0.000000 0.112740
#
#
# Mechanical properties :
#
#
# Convention : Reuss Voigt Hill
#
# Bulk Modulus (GPa) = 26.00183 73.25778 49.62980
# Shear Modulus (GPa) = 12.17042 33.50884 22.83963
#
# Velocity S-wave (km/s) = 2.25694 3.74496 3.09181
# Velocity P-wave (km/s) = 4.20410 7.02573 5.78945
#
# Compressibility (1/GPa) = 0.03845884
#
# Stress axis : x y z
#
# Youngs Moduli (GPa) = 52.01399 162.20608 49.07505
#
# Poissons Ratio (x) = 0.53949 -0.17589
# Poissons Ratio (y) = 0.17300 0.19201
# Poissons Ratio (z) = -0.18642 0.63464
#
# Static dielectric constant tensor:
#      x y z
#    x 4.330690 0.000000 0.089770 
#    y 0.000000 5.280460 0.000000 
#    z 0.089770 0.000000 3.894970 
# 
# 
# High freq. dielectric constant tensor:
#      x y z
#    x 1.948510 0.000000 -0.001470 
#    y 0.000000 1.966940 0.000000 
#    z -0.001470 0.000000 1.921880 
# 
# From -- ./inp_files/67133.got.cif
#   From: 2010.06.25/outbox.cif.g09.slc.cpg/sg12_34_cif.got.tgz:67133.got - 2010.06.28 00:19:55.
