data_PCOD8108916
_publ_section_title
;
Structure prediction by ZEFSAII (Michael W. Deem and Ramdas Pophale) SiO2 
 PCOD8108916
Probable space group: C 2/M
;
_chemical_formula_sum "Si O2"
_cell_formula_units_Z 56
_cell_length_a 18.444662
_cell_length_b 8.742657
_cell_length_c 18.515191
_cell_angle_alpha 90.000000
_cell_angle_beta 104.896989
_cell_angle_gamma 90.000000
_cell_volume 2885.323953
_symmetry_space_group_name_H-M "C 2/M"
_symmetry_group_IT_number 12
_symmetry_cell_setting 'monoclinic'
loop_
_space_group_symop_operation_xyz
x,y,z
-x,y,-z
-x,-y,-z
x,-y,z
1/2+x,1/2+y,z
1/2-x,1/2+y,-z
1/2-x,1/2-y,-z
1/2+x,1/2-y,z
loop_
_atom_site_type_symbol
_atom_site_label
_atom_site_fract_x
_atom_site_fract_y
_atom_site_fract_z
Si Si1 0.362518 0.179466 0.142180
Si Si2 0.418971 0.818555 0.001324
Si Si3 0.705789 0.819053 0.142080
Si Si4 0.984587 0.825155 0.268366
Si Si5 0.347152 0.680189 0.723697
Si Si6 0.959846 0.825003 0.563382
Si Si7 0.689629 0.178291 0.432458
O O1 0.286559 0.271798 0.133809
O O2 0.421084 0.215236 0.220618
O O3 0.344601 0.000000 0.136895
O O4 0.398305 0.236806 0.076220
O O5 0.356528 0.757377 0.929805
O O6 0.422086 0.000000 0.999451
O O7 0.500000 0.749630 0.000000
O O8 0.690969 0.743534 0.214862
O O9 0.701853 0.000000 0.149481
O O10 0.065245 0.773321 0.257497
O O11 0.983356 0.805915 0.354795
O O12 0.967196 0.000000 0.242056
O O13 0.338047 0.500000 0.718026
O O14 0.302470 0.749292 0.644747
O O15 0.891436 0.710115 0.554622
O O16 0.000000 0.779314 0.500000
O O17 0.929982 0.000000 0.553866
O O18 0.750000 0.250000 0.500000
O O19 0.703959 0.000000 0.429407
#
# Coordination Sequence:
#
# PCOD8108916 Si02
#       7
#     8   8   8   8   8   8   8
#     4  11  22  36  56  82 115 151 188 232 279 331
#     4   9  19  36  58  83 110 145 189 233 278 333
#     4  11  22  37  58  83 114 149 186 231 284 337
#     4   9  19  36  57  81 110 144 185 234 285 338
#     4  10  21  39  60  83 112 145 187 235 283 338
#     4   9  19  37  59  82 112 149 189 236 286 335
#     4  11  22  37  58  84 116 152 191 233 280 334
#
# _framework density 19.408566
#
# number of rings (size 3 to 8) (size 9 to 14) (size 15 to 20)
#    0.000    2.000    0.000    4.714    0.000    5.429 
#    0.000    6.429    0.000    5.143    0.000    0.000 
#    0.000    0.000    0.000    0.000    0.000    0.000 
#
# Total GULP energy -347299.813321 kJ/mol
# GULP energy per Si atom -12403.564761 kJ/mol
# Density = 1.936439 g / cm^3
# Si number density = 19.408566 Si / 1000 Ang^3
#
#
#
# Elastic Constant Matrix: (Units=GPa)
#
#
# Indices 1 2 3 4 5 6 
#
# 1 107.3743 26.0668 71.3285 0.0000 -3.0559 0.0000
# 2 26.0668 70.8047 33.8245 0.0000 6.5930 0.0000
# 3 71.3285 33.8245 144.6845 0.0000 -0.0469 0.0000
# 4 0.0000 0.0000 0.0000 27.6433 0.0000 -0.0583
# 5 -3.0559 6.5930 -0.0469 0.0000 42.2094 0.0000
# 6 0.0000 0.0000 0.0000 -0.0583 0.0000 27.5517
#
#
#
# Elastic Compliance Matrix: (Units=1/GPa)
#
#
# Indices 1 2 3 4 5 6 
#
# 1 0.014201 -0.002265 -0.006471 0.000000 0.001375 0.000000
# 2 -0.002265 0.016526 -0.002748 0.000000 -0.002748 0.000000
# 3 -0.006471 -0.002748 0.010744 0.000000 -0.000027 0.000000
# 4 0.000000 0.000000 0.000000 0.036175 0.000000 0.000077
# 5 0.001375 -0.002748 -0.000027 0.000000 0.024220 0.000000
# 6 0.000000 0.000000 0.000000 0.000077 0.000000 0.036296
#
#
# Mechanical properties :
#
#
# Convention : Reuss Voigt Hill
#
# Bulk Modulus (GPa) = 54.04361 65.03367 59.53864
# Shear Modulus (GPa) = 29.88704 32.25713 31.07209
#
# Velocity S-wave (km/s) = 3.92840 4.08119 4.00552
# Velocity P-wave (km/s) = 6.96291 7.46918 7.22048
#
# Compressibility (1/GPa) = 0.01850358
#
# Stress axis : x y z
#
# Youngs Moduli (GPa) = 70.41844 60.51183 93.07409
#
# Poissons Ratio (x) = 0.13704 0.60228
# Poissons Ratio (y) = 0.15948 0.25575
# Poissons Ratio (z) = 0.45568 0.16627
#
# Static dielectric constant tensor:
#      x y z
#    x 3.561640 0.000000 -0.033710 
#    y 0.000000 3.426700 0.000000 
#    z -0.033710 0.000000 3.734230 
# 
# 
# High freq. dielectric constant tensor:
#      x y z
#    x 1.754600 0.000000 -0.002250 
#    y 0.000000 1.747380 0.000000 
#    z -0.002250 0.000000 1.771320 
# 
# From -- ./inp_files/275089.got.cif
#   From: 2010.06.25/outbox.cif.g09.slc.cpg/sg12_138_cif.got.tgz:275089.got - 2010.06.28 00:19:55.
