data_PCOD8108196
_publ_section_title
;
Structure prediction by ZEFSAII (Michael W. Deem and Ramdas Pophale) SiO2 
 PCOD8108196
Probable space group: C 2/M
;
_chemical_formula_sum "Si O2"
_cell_formula_units_Z 56
_cell_length_a 18.568176
_cell_length_b 8.825200
_cell_length_c 18.151657
_cell_angle_alpha 90.000000
_cell_angle_beta 74.099172
_cell_angle_gamma 90.000000
_cell_volume 2860.662082
_symmetry_space_group_name_H-M "C 2/M"
_symmetry_group_IT_number 12
_symmetry_cell_setting 'monoclinic'
loop_
_space_group_symop_operation_xyz
x,y,z
-x,y,-z
-x,-y,-z
x,-y,z
1/2+x,1/2+y,z
1/2-x,1/2+y,-z
1/2-x,1/2-y,-z
1/2+x,1/2-y,z
loop_
_atom_site_type_symbol
_atom_site_label
_atom_site_fract_x
_atom_site_fract_y
_atom_site_fract_z
Si Si1 0.434314 0.822856 0.575259
Si Si2 0.853148 0.674013 0.292614
Si Si3 0.050025 0.172258 0.126992
Si Si4 0.826903 0.322956 0.001951
Si Si5 0.117672 0.825291 0.866623
Si Si6 0.783715 0.175258 0.562502
Si Si7 0.998407 0.822735 0.303015
O O1 0.500000 0.786383 0.500000
O O2 0.358053 0.764589 0.561934
O O3 0.449154 0.734438 0.646509
O O4 0.428298 0.000000 0.594092
O O5 0.871308 0.500000 0.269304
O O6 0.847129 0.767866 0.219296
O O7 0.774412 0.692047 0.354823
O O8 0.918852 0.737259 0.326799
O O9 0.041932 0.211964 0.215163
O O10 0.971430 0.196757 0.108045
O O11 0.077643 0.000000 0.108296
O O12 0.109832 0.283886 0.075184
O O13 0.815719 0.500000 0.007396
O O14 0.848340 0.268611 0.076748
O O15 0.750000 0.250000 0.000000
O O16 0.139514 0.000000 0.870115
O O17 0.750000 0.250000 0.500000
O O18 0.802494 0.000000 0.541769
O O19 0.981816 0.000000 0.315746
#
# Coordination Sequence:
#
# PCOD8108196 Si02
#       7
#     8   8   8   8   8   8   8
#     4  11  24  40  59  85 117 153 194 241 289 339
#     4  10  21  38  60  88 120 151 189 237 285 338
#     4   9  20  39  61  86 117 150 188 235 285 341
#     4  12  25  39  58  84 116 154 194 238 288 340
#     4  10  21  39  63  88 116 152 191 234 286 342
#     4  11  24  40  60  86 117 154 193 237 288 341
#     4  10  21  38  62  89 117 152 191 235 288 342
#
# _framework density 19.575887999999999
#
# number of rings (size 3 to 8) (size 9 to 14) (size 15 to 20)
#    0.000    1.571    0.000    5.571    0.000   13.143 
#    0.000    1.429    0.000    0.000    0.000    0.000 
#    0.000    0.000    0.000    0.000    0.000    0.000 
#
# Total GULP energy -347371.068311 kJ/mol
# GULP energy per Si atom -12406.109583 kJ/mol
# Density = 1.953133 g / cm^3
# Si number density = 19.575888 Si / 1000 Ang^3
#
#
#
# Elastic Constant Matrix: (Units=GPa)
#
#
# Indices 1 2 3 4 5 6 
#
# 1 114.1512 47.9833 55.4510 0.0000 8.5430 0.0000
# 2 47.9833 122.4808 49.1828 0.0000 -4.5811 0.0000
# 3 55.4510 49.1828 85.4839 0.0000 7.6773 0.0000
# 4 0.0000 0.0000 0.0000 36.6505 0.0000 4.9246
# 5 8.5430 -4.5811 7.6773 0.0000 32.7665 0.0000
# 6 0.0000 0.0000 0.0000 4.9246 0.0000 38.0562
#
#
#
# Elastic Compliance Matrix: (Units=1/GPa)
#
#
# Indices 1 2 3 4 5 6 
#
# 1 0.013404 -0.002498 -0.007061 0.000000 -0.002189 0.000000
# 2 -0.002498 0.011375 -0.005236 0.000000 0.003468 0.000000
# 3 -0.007061 -0.005236 0.019604 0.000000 -0.003484 0.000000
# 4 0.000000 0.000000 0.000000 0.027768 0.000000 -0.003593
# 5 -0.002189 0.003468 -0.003484 0.000000 0.032391 0.000000
# 6 0.000000 0.000000 0.000000 -0.003593 0.000000 0.026742
#
#
# Mechanical properties :
#
#
# Convention : Reuss Voigt Hill
#
# Bulk Modulus (GPa) = 67.59702 69.70554 68.65128
# Shear Modulus (GPa) = 30.15583 32.79456 31.47519
#
# Velocity S-wave (km/s) = 3.92912 4.09743 4.01416
# Velocity P-wave (km/s) = 7.42898 7.62039 7.52529
#
# Compressibility (1/GPa) = 0.01479355
#
# Stress axis : x y z
#
# Youngs Moduli (GPa) = 74.60350 87.90942 51.00984
#
# Poissons Ratio (x) = 0.21957 0.36019
# Poissons Ratio (y) = 0.18633 0.26709
# Poissons Ratio (z) = 0.52680 0.46030
#
# Static dielectric constant tensor:
#      x y z
#    x 3.527070 0.000000 0.066130 
#    y 0.000000 3.747770 0.000000 
#    z 0.066130 0.000000 3.604230 
# 
# 
# High freq. dielectric constant tensor:
#      x y z
#    x 1.765250 0.000000 0.004160 
#    y 0.000000 1.778600 0.000000 
#    z 0.004160 0.000000 1.773820 
# 
# From -- ./inp_files/275016.got.cif
#   From: 2010.06.25/outbox.cif.g09.slc.cpg/sg12_138_cif.got.tgz:275016.got - 2010.06.28 00:19:55.
