data_PCOD8108254
_publ_section_title
;
Structure prediction by ZEFSAII (Michael W. Deem and Ramdas Pophale) SiO2 
 PCOD8108254
Probable space group: C 2/M
;
_chemical_formula_sum "Si O2"
_cell_formula_units_Z 56
_cell_length_a 29.302838
_cell_length_b 8.943972
_cell_length_c 18.453473
_cell_angle_alpha 90.000000
_cell_angle_beta 146.419387
_cell_angle_gamma 90.000000
_cell_volume 2675.035140
_symmetry_space_group_name_H-M "C 2/M"
_symmetry_group_IT_number 12
_symmetry_cell_setting 'monoclinic'
loop_
_space_group_symop_operation_xyz
x,y,z
-x,y,-z
-x,-y,-z
x,-y,z
1/2+x,1/2+y,z
1/2-x,1/2+y,-z
1/2-x,1/2-y,-z
1/2+x,1/2-y,z
loop_
_atom_site_type_symbol
_atom_site_label
_atom_site_fract_x
_atom_site_fract_y
_atom_site_fract_z
Si Si1 0.116848 0.172603 0.680807
Si Si2 0.857118 0.677134 0.536368
Si Si3 0.468374 0.323123 0.574064
Si Si4 0.895653 0.177102 0.011633
Si Si5 0.085183 0.824250 0.247692
Si Si6 0.217068 0.674350 0.028586
Si Si7 0.686579 0.323407 0.243762
O O1 0.089731 0.239285 0.567961
O O2 0.212397 0.204034 0.818404
O O3 0.061474 0.229138 0.675959
O O4 0.094080 0.000000 0.645547
O O5 0.856832 0.500000 0.539115
O O6 0.940309 0.736598 0.608432
O O7 0.858100 0.739732 0.618950
O O8 0.776349 0.738697 0.386641
O O9 0.460801 0.500000 0.579228
O O10 0.990120 0.225727 0.126400
O O11 0.887158 0.000000 0.007840
O O12 0.864142 0.250159 0.045202
O O13 0.842906 0.239621 0.873310
O O14 0.118449 0.776992 0.212936
O O15 0.095105 0.000000 0.274207
O O16 0.201720 0.500000 0.993566
O O17 0.250000 0.750000 0.000000
O O18 0.691081 0.500000 0.243848
#
# Coordination Sequence:
#
# PCOD8108254 Si02
#       7
#     8   8   8   8   8   8   8
#     4   8  17  34  56  78 103 139 189 234 269 322
#     4  11  22  34  53  85 122 149 179 231 293 343
#     4   9  17  34  58  80 103 141 188 231 273 329
#     4  10  21  39  63  87 111 147 196 243 286 333
#     4  10  21  38  61  85 112 152 197 236 279 340
#     4  11  23  38  56  82 116 152 189 229 280 338
#     4   9  19  38  62  86 113 148 193 241 285 337
#
# _framework density 20.934304999999998
#
# number of rings (size 3 to 8) (size 9 to 14) (size 15 to 20)
#    0.000    2.286    0.000    3.429    2.000    2.286 
#    0.000    5.000    0.000    1.714    0.000    0.000 
#    0.000    0.000    0.000    0.000    0.000    0.000 
#
# Total GULP energy -347124.096966 kJ/mol
# GULP energy per Si atom -12397.289177 kJ/mol
# Density = 2.088666 g / cm^3
# Si number density = 20.934305 Si / 1000 Ang^3
#
#
#
# Elastic Constant Matrix: (Units=GPa)
#
#
# Indices 1 2 3 4 5 6 
#
# 1 130.5603 30.5550 20.1486 0.0000 3.2088 0.0000
# 2 30.5550 48.9211 23.1208 0.0000 1.8822 0.0000
# 3 20.1486 23.1208 64.7445 0.0000 0.9889 0.0000
# 4 0.0000 0.0000 0.0000 24.5502 0.0000 -2.9673
# 5 3.2088 1.8822 0.9889 0.0000 35.1128 0.0000
# 6 0.0000 0.0000 0.0000 -2.9673 0.0000 28.4268
#
#
#
# Elastic Compliance Matrix: (Units=1/GPa)
#
#
# Indices 1 2 3 4 5 6 
#
# 1 0.009029 -0.005167 -0.000957 0.000000 -0.000521 0.000000
# 2 -0.005167 0.027589 -0.008232 0.000000 -0.000775 0.000000
# 3 -0.000957 -0.008232 0.018683 0.000000 0.000003 0.000000
# 4 0.000000 0.000000 0.000000 0.041253 0.000000 0.004306
# 5 -0.000521 -0.000775 0.000003 0.000000 0.028569 0.000000
# 6 0.000000 0.000000 0.000000 0.004306 0.000000 0.035628
#
#
# Mechanical properties :
#
#
# Convention : Reuss Voigt Hill
#
# Bulk Modulus (GPa) = 37.61033 43.54162 40.57597
# Shear Modulus (GPa) = 25.21108 28.97807 27.09457
#
# Velocity S-wave (km/s) = 3.47406 3.72457 3.60149
# Velocity P-wave (km/s) = 5.83926 6.27223 6.05962
#
# Compressibility (1/GPa) = 0.02658844
#
# Stress axis : x y z
#
# Youngs Moduli (GPa) = 110.75419 36.24646 53.52507
#
# Poissons Ratio (x) = 0.18729 0.05120
# Poissons Ratio (y) = 0.57228 0.44064
# Poissons Ratio (z) = 0.10595 0.29839
#
# Static dielectric constant tensor:
#      x y z
#    x 3.854240 0.000000 -0.001030 
#    y 0.000000 3.337620 0.000000 
#    z -0.001030 0.000000 5.165390 
# 
# 
# High freq. dielectric constant tensor:
#      x y z
#    x 1.835840 0.000000 0.001690 
#    y 0.000000 1.777660 0.000000 
#    z 0.001690 0.000000 1.826260 
# 
# From -- ./inp_files/292562.got.cif
#   From: 2010.06.25/outbox.cif.g09.slc.cpg/sg12_147_cif.got.tgz:292562.got - 2010.06.28 00:19:55.
