data_PCOD8108298
_publ_section_title
;
Structure prediction by ZEFSAII (Michael W. Deem and Ramdas Pophale) SiO2 
 PCOD8108298
Probable space group: C 2/M
;
_chemical_formula_sum "Si O2"
_cell_formula_units_Z 48
_cell_length_a 31.537765
_cell_length_b 8.402211
_cell_length_c 20.339974
_cell_angle_alpha 90.000000
_cell_angle_beta 154.719158
_cell_angle_gamma 90.000000
_cell_volume 2301.755826
_symmetry_space_group_name_H-M "C 2/M"
_symmetry_group_IT_number 12
_symmetry_cell_setting 'monoclinic'
loop_
_space_group_symop_operation_xyz
x,y,z
-x,y,-z
-x,-y,-z
x,-y,z
1/2+x,1/2+y,z
1/2-x,1/2+y,-z
1/2-x,1/2-y,-z
1/2+x,1/2-y,z
loop_
_atom_site_type_symbol
_atom_site_label
_atom_site_fract_x
_atom_site_fract_y
_atom_site_fract_z
Si Si1 0.358191 0.815159 0.637204
Si Si2 0.232953 0.683932 0.212534
Si Si3 0.973498 0.815264 0.036267
Si Si4 0.611882 0.683911 0.461156
Si Si5 0.909984 0.316487 0.216313
Si Si6 0.250610 0.183962 0.098187
O O1 0.250000 0.750000 0.500000
O O2 0.433206 0.715175 0.786621
O O3 0.385073 0.792924 0.598840
O O4 0.365153 0.000000 0.665675
O O5 0.251041 0.500000 0.222134
O O6 0.298707 0.739195 0.366442
O O7 0.268843 0.784136 0.200178
O O8 0.118175 0.712070 0.067118
O O9 0.943853 0.000000 0.997361
O O10 0.000000 0.760973 0.000000
O O11 0.623673 0.500000 0.457552
O O12 0.508122 0.709492 0.352957
O O13 0.941454 0.500000 0.261884
O O14 0.848844 0.266432 0.195585
O O15 0.843496 0.285290 0.058428
O O16 0.226116 0.000000 0.051321
#
# Coordination Sequence:
#
# PCOD8108298 Si02
#       6
#     8   8   8   8   8   8
#     4  12  25  42  65  91 122 157 196 243 293 349
#     4  11  24  40  60  87 120 158 198 244 296 350
#     4  11  24  42  65  91 120 156 197 242 293 350
#     4  11  24  41  61  87 121 159 199 244 295 351
#     4  10  21  38  61  88 118 155 199 246 297 352
#     4  10  21  38  61  87 118 156 198 246 297 353
#
# _framework density 20.853645
#
# number of rings (size 3 to 8) (size 9 to 14) (size 15 to 20)
#    0.000    1.167    0.000    6.000    0.000    9.333 
#    0.000    3.333    0.000    0.000    0.000    0.000 
#    0.000    0.000    0.000    0.000    0.000    0.000 
#
# Total GULP energy -297814.068297 kJ/mol
# GULP energy per Si atom -12408.919512 kJ/mol
# Density = 2.080618 g / cm^3
# Si number density = 20.853645 Si / 1000 Ang^3
#
#
#
# Elastic Constant Matrix: (Units=GPa)
#
#
# Indices 1 2 3 4 5 6 
#
# 1 117.8728 19.3014 54.6659 0.0000 -5.0350 0.0000
# 2 19.3014 50.6960 7.3090 0.0000 -1.4946 0.0000
# 3 54.6659 7.3090 125.5990 0.0000 1.2941 0.0000
# 4 0.0000 0.0000 0.0000 29.5966 0.0000 1.9371
# 5 -5.0350 -1.4946 1.2941 0.0000 39.6813 0.0000
# 6 0.0000 0.0000 0.0000 1.9371 0.0000 35.0888
#
#
#
# Elastic Compliance Matrix: (Units=1/GPa)
#
#
# Indices 1 2 3 4 5 6 
#
# 1 0.011331 -0.003588 -0.004738 0.000000 0.001457 0.000000
# 2 -0.003588 0.021053 0.000333 0.000000 0.000327 0.000000
# 3 -0.004738 0.000333 0.010014 0.000000 -0.000915 0.000000
# 4 0.000000 0.000000 0.000000 0.033910 0.000000 -0.001872
# 5 0.001457 0.000327 -0.000915 0.000000 0.025428 0.000000
# 6 0.000000 0.000000 0.000000 -0.001872 0.000000 0.028602
#
#
# Mechanical properties :
#
#
# Convention : Reuss Voigt Hill
#
# Bulk Modulus (GPa) = 37.86084 50.74670 44.30377
# Shear Modulus (GPa) = 32.23150 35.06610 33.64880
#
# Velocity S-wave (km/s) = 3.93568 4.10510 4.02128
# Velocity P-wave (km/s) = 6.23279 6.84519 6.54616
#
# Compressibility (1/GPa) = 0.02641251
#
# Stress axis : x y z
#
# Youngs Moduli (GPa) = 88.25555 47.49904 99.86032
#
# Poissons Ratio (x) = 0.17042 0.47312
# Poissons Ratio (y) = 0.31665 -0.03326
# Poissons Ratio (z) = 0.41814 -0.01582
#
# Static dielectric constant tensor:
#      x y z
#    x 3.898890 0.000000 0.022070 
#    y 0.000000 3.705850 0.000000 
#    z 0.022070 0.000000 3.776950 
# 
# 
# High freq. dielectric constant tensor:
#      x y z
#    x 1.827940 0.000000 0.001960 
#    y 0.000000 1.823710 0.000000 
#    z 0.001960 0.000000 1.819400 
# 
# From -- ./inp_files/295911.got.cif
#   From: 2010.06.25/outbox.cif.g09.slc.cpg/sg12_148_cif.got.tgz:295911.got - 2010.06.28 00:19:55.
