data_PCOD8108631
_publ_section_title
;
Structure prediction by ZEFSAII (Michael W. Deem and Ramdas Pophale) SiO2 
 PCOD8108631
Probable space group: C 2/M
;
_chemical_formula_sum "Si O2"
_cell_formula_units_Z 60
_cell_length_a 23.038655
_cell_length_b 24.440167
_cell_length_c 6.508506
_cell_angle_alpha 90.000000
_cell_angle_beta 124.056042
_cell_angle_gamma 90.000000
_cell_volume 3036.197274
_symmetry_space_group_name_H-M "C 2/M"
_symmetry_group_IT_number 12
_symmetry_cell_setting 'monoclinic'
loop_
_space_group_symop_operation_xyz
x,y,z
-x,y,-z
-x,-y,-z
x,-y,z
1/2+x,1/2+y,z
1/2-x,1/2+y,-z
1/2-x,1/2-y,-z
1/2+x,1/2-y,z
loop_
_atom_site_type_symbol
_atom_site_label
_atom_site_fract_x
_atom_site_fract_y
_atom_site_fract_z
Si Si1 0.597798 0.276900 0.022288
Si Si2 0.884274 0.849805 0.561572
Si Si3 0.217058 0.807070 0.971810
Si Si4 0.081006 0.652948 0.103515
Si Si5 0.816094 0.391099 0.358005
Si Si6 0.646416 0.061507 0.966474
Si Si7 0.000000 0.826520 0.500000
Si Si8 0.780822 0.062150 0.492899
O O1 0.582988 0.308086 0.206713
O O2 0.668890 0.303565 0.078042
O O3 0.605037 0.211943 0.067840
O O4 0.537309 0.286499 0.735778
O O5 0.852479 0.903916 0.602787
O O6 0.945850 0.864833 0.519967
O O7 0.822531 0.820662 0.316415
O O8 0.279398 0.848741 0.133620
O O9 0.250000 0.750000 0.000000
O O10 0.126571 0.639851 0.393678
O O11 0.093661 0.605606 0.960415
O O12 0.000000 0.654436 0.000000
O O13 0.855153 0.433610 0.284034
O O14 0.757341 0.421992 0.371982
O O15 0.622047 0.000000 0.980073
O O16 0.726101 0.071468 0.200010
O O17 0.806041 0.000000 0.557558
#
# Coordination Sequence:
#
# PCOD8108631 Si02
#       8
#     8   8   8   8   8   8   4   8
#     4  11  23  40  61  88 128 162 199 247 301 365
#     4  11  21  39  61  90 123 160 199 246 307 357
#     4  11  22  33  59  94 121 155 196 246 307 368
#     4  11  25  40  60  88 122 166 207 248 300 364
#     4  11  21  39  60  90 120 155 203 253 305 356
#     4  10  22  41  62  87 122 158 203 259 305 354
#     4  10  24  40  61  88 123 166 202 236 300 378
#     4  10  21  38  63  91 119 156 204 253 307 360
#
# _framework density 19.761562999999999
#
# number of rings (size 3 to 8) (size 9 to 14) (size 15 to 20)
#    0.000    1.333    2.667    3.200    1.867    5.600 
#    0.000    1.000    0.000    1.600    0.000    0.000 
#    0.000    0.000    0.000    0.000    0.000    0.000 
#
# Total GULP energy -372018.841651 kJ/mol
# GULP energy per Si atom -12400.628055 kJ/mol
# Density = 1.971658 g / cm^3
# Si number density = 19.761563 Si / 1000 Ang^3
#
#
#
# Elastic Constant Matrix: (Units=GPa)
#
#
# Indices 1 2 3 4 5 6 
#
# 1 66.4259 37.4686 34.3322 0.0000 -7.0429 0.0000
# 2 37.4686 123.7391 36.1454 0.0000 -5.9200 0.0000
# 3 34.3322 36.1454 109.7326 0.0000 -11.9460 0.0000
# 4 0.0000 0.0000 0.0000 22.4498 0.0000 -4.0715
# 5 -7.0429 -5.9200 -11.9460 0.0000 30.0281 0.0000
# 6 0.0000 0.0000 0.0000 -4.0715 0.0000 22.3913
#
#
#
# Elastic Compliance Matrix: (Units=1/GPa)
#
#
# Indices 1 2 3 4 5 6 
#
# 1 0.020291 -0.004711 -0.004578 0.000000 0.002009 0.000000
# 2 -0.004711 0.010047 -0.001819 0.000000 0.000152 0.000000
# 3 -0.004578 -0.001819 0.011486 0.000000 0.003137 0.000000
# 4 0.000000 0.000000 0.000000 0.046063 0.000000 0.008376
# 5 0.002009 0.000152 0.003137 0.000000 0.035051 0.000000
# 6 0.000000 0.000000 0.000000 0.008376 0.000000 0.046183
#
#
# Mechanical properties :
#
#
# Convention : Reuss Voigt Hill
#
# Bulk Modulus (GPa) = 50.99922 57.31002 54.15462
# Shear Modulus (GPa) = 25.26891 27.77062 26.51976
#
# Velocity S-wave (km/s) = 3.57976 3.75278 3.66729
# Velocity P-wave (km/s) = 6.55359 6.91676 6.73762
#
# Compressibility (1/GPa) = 0.01960814
#
# Stress axis : x y z
#
# Youngs Moduli (GPa) = 49.28379 99.53699 87.06227
#
# Poissons Ratio (x) = 0.46889 0.39857
# Poissons Ratio (y) = 0.23216 0.15835
# Poissons Ratio (z) = 0.22562 0.18104
#
# Static dielectric constant tensor:
#      x y z
#    x 3.114330 0.000000 0.259640 
#    y 0.000000 3.506370 0.000000 
#    z 0.259640 0.000000 3.388990 
# 
# 
# High freq. dielectric constant tensor:
#      x y z
#    x 1.774800 0.000000 -0.013280 
#    y 0.000000 1.763300 0.000000 
#    z -0.013280 0.000000 1.775690 
# 
# From -- ./inp_files/22468.got.cif
#   From: 2010.06.25/outbox.cif.g09.slc.cpg/sg12_12_cif.got.tgz:22468.got - 2010.06.28 00:19:55.
