data_PCOD8108739
_publ_section_title
;
Structure prediction by ZEFSAII (Michael W. Deem and Ramdas Pophale) SiO2 
 PCOD8108739
Probable space group: C 2/M
;
_chemical_formula_sum "Si O2"
_cell_formula_units_Z 64
_cell_length_a 18.889189
_cell_length_b 32.534759
_cell_length_c 9.912933
_cell_angle_alpha 90.000000
_cell_angle_beta 31.468107
_cell_angle_gamma 90.000000
_cell_volume 3180.192731
_symmetry_space_group_name_H-M "C 2/M"
_symmetry_group_IT_number 12
_symmetry_cell_setting 'monoclinic'
loop_
_space_group_symop_operation_xyz
x,y,z
-x,y,-z
-x,-y,-z
x,-y,z
1/2+x,1/2+y,z
1/2-x,1/2+y,-z
1/2-x,1/2-y,-z
1/2+x,1/2-y,z
loop_
_atom_site_type_symbol
_atom_site_label
_atom_site_fract_x
_atom_site_fract_y
_atom_site_fract_z
Si Si1 0.368455 0.046459 0.309333
Si Si2 0.440985 0.546064 0.233285
Si Si3 0.971685 0.773568 0.704608
Si Si4 0.663931 0.865879 0.529946
Si Si5 0.085267 0.683528 0.128714
Si Si6 0.307937 0.667952 0.561094
Si Si7 0.500301 0.604410 0.355416
Si Si8 0.261523 0.664304 0.083265
O O1 0.221254 0.048514 0.475633
O O2 0.358639 0.084461 0.429949
O O3 0.381767 0.000000 0.352537
O O4 0.500000 0.053711 0.000000
O O5 0.493894 0.500000 0.152065
O O6 0.527158 0.568930 0.205880
O O7 0.500000 0.566303 0.000000
O O8 0.988076 0.726013 0.714616
O O9 0.000000 0.781499 0.500000
O O10 0.070959 0.798867 0.644003
O O11 0.818326 0.788697 0.989751
O O12 0.516377 0.846670 0.782071
O O13 0.756730 0.846782 0.497595
O O14 0.726148 0.852461 0.287115
O O15 0.134707 0.662581 0.187854
O O16 0.199397 0.690655 0.831534
O O17 0.358498 0.626616 0.551945
O O18 0.500000 0.582309 0.500000
O O19 0.618485 0.637449 0.171617
#
# Coordination Sequence:
#
# PCOD8108739 Si02
#       8
#     8   8   8   8   8   8   8   8
#     4  10  21  40  66  94 129 172 213 256 325 402
#     4  10  21  38  64  96 127 162 211 264 321 392
#     4  11  23  42  68  84 122 175 216 260 306 389
#     4  12  25  39  65  97 127 160 210 275 321 377
#     4  12  24  42  64  87 125 170 214 257 313 386
#     4  11  23  42  59  91 120 160 215 260 315 368
#     4  11  21  38  64  86 123 166 202 263 314 376
#     4  11  23  42  63  90 122 167 213 257 318 381
#
# _framework density 20.124566999999999
#
# number of rings (size 3 to 8) (size 9 to 14) (size 15 to 20)
#    0.000    1.000    3.750    4.125    1.750    2.250 
#    2.250    0.000    0.000    2.250    0.000    0.000 
#    0.000    0.000    0.000    0.000    0.000    0.000 
#
# Total GULP energy -396558.466824 kJ/mol
# GULP energy per Si atom -12392.452088 kJ/mol
# Density = 2.007876 g / cm^3
# Si number density = 20.124567 Si / 1000 Ang^3
#
#
#
# Elastic Constant Matrix: (Units=GPa)
#
#
# Indices 1 2 3 4 5 6 
#
# 1 120.8608 49.0290 24.4052 0.0000 12.1785 0.0000
# 2 49.0290 121.0660 20.4794 0.0000 11.9085 0.0000
# 3 24.4052 20.4794 78.4549 0.0000 12.7434 0.0000
# 4 0.0000 0.0000 0.0000 14.3281 0.0000 21.0134
# 5 12.1785 11.9085 12.7434 0.0000 36.6023 0.0000
# 6 0.0000 0.0000 0.0000 21.0134 0.0000 0.1409
#
#
#
# Elastic Compliance Matrix: (Units=1/GPa)
#
#
# Indices 1 2 3 4 5 6 
#
# 1 0.010332 -0.003694 -0.001999 0.000000 -0.001539 0.000000
# 2 -0.003694 0.010125 -0.001228 0.000000 -0.001637 0.000000
# 3 -0.001999 -0.001228 0.014326 0.000000 -0.003923 0.000000
# 4 0.000000 0.000000 0.000000 -0.000320 0.000000 0.047807
# 5 -0.001539 -0.001637 -0.003923 0.000000 0.029731 0.000000
# 6 0.000000 0.000000 0.000000 0.047807 0.000000 -0.032598
#
#
# Mechanical properties :
#
#
# Convention : Reuss Voigt Hill
#
# Bulk Modulus (GPa) = 47.75759 56.46768 52.11263
# Shear Modulus (GPa) = 95.38610 25.31213 60.34911
#
# Velocity S-wave (km/s) = 6.89208 3.55036 5.48205
# Velocity P-wave (km/s) = 9.33364 6.70274 8.12538
#
# Compressibility (1/GPa) = 0.02093908
#
# Stress axis : x y z
#
# Youngs Moduli (GPa) = 96.79104 98.76694 69.80396
#
# Poissons Ratio (x) = 0.36488 0.13957
# Poissons Ratio (y) = 0.35758 0.08570
# Poissons Ratio (z) = 0.19353 0.12126
#
# Static dielectric constant tensor:
#      x y z
#    x 3.682320 0.000000 -0.166820 
#    y 0.000000 3.818280 0.000000 
#    z -0.166820 0.000000 3.784000 
# 
# 
# High freq. dielectric constant tensor:
#      x y z
#    x 1.776610 0.000000 -0.010290 
#    y 0.000000 1.789110 0.000000 
#    z -0.010290 0.000000 1.792000 
# 
# From -- ./inp_files/80734.got.cif
#   From: 2010.06.25/outbox.cif.g09.slc.cpg/sg12_41_cif.got.tgz:80734.got - 2010.06.28 00:19:55.
