data_PCOD8108151
_publ_section_title
;
Structure prediction by ZEFSAII (Michael W. Deem and Ramdas Pophale) SiO2 
 PCOD8108151
Probable space group: C 2/M
;
_chemical_formula_sum "Si O2"
_cell_formula_units_Z 48
_cell_length_a 18.437005
_cell_length_b 27.341065
_cell_length_c 8.564249
_cell_angle_alpha 90.000000
_cell_angle_beta 147.972569
_cell_angle_gamma 90.000000
_cell_volume 2289.482689
_symmetry_space_group_name_H-M "C 2/M"
_symmetry_group_IT_number 12
_symmetry_cell_setting 'monoclinic'
loop_
_space_group_symop_operation_xyz
x,y,z
-x,y,-z
-x,-y,-z
x,-y,z
1/2+x,1/2+y,z
1/2-x,1/2+y,-z
1/2-x,1/2-y,-z
1/2+x,1/2-y,z
loop_
_atom_site_type_symbol
_atom_site_label
_atom_site_fract_x
_atom_site_fract_y
_atom_site_fract_z
Si Si1 0.458936 0.307062 0.597919
Si Si2 0.456930 0.205397 0.742960
Si Si3 0.350627 0.444959 0.769694
Si Si4 0.685432 0.143756 0.015408
Si Si5 0.232525 0.857848 0.186346
Si Si6 0.879701 0.444857 0.896196
O O1 0.500000 0.289460 0.500000
O O2 0.416649 0.260270 0.622012
O O3 0.332519 0.344640 0.359746
O O4 0.584046 0.333722 0.909433
O O5 0.323208 0.172327 0.474434
O O6 0.500000 0.202166 0.000000
O O7 0.582821 0.187764 0.866471
O O8 0.359466 0.500000 0.852499
O O9 0.281790 0.412949 0.778980
O O10 0.263820 0.443240 0.453640
O O11 0.500000 0.424562 0.000000
O O12 0.626384 0.092475 0.970852
O O13 0.693408 0.140063 0.844312
O O14 0.909685 0.500000 0.012778
O O15 0.000000 0.427660 0.000000
#
# Coordination Sequence:
#
# PCOD8108151 Si02
#       6
#     8   8   8   8   8   8
#     4  10  23  41  59  84 118 154 194 241 293 344
#     4  12  25  39  59  87 118 155 198 241 288 345
#     4  10  21  38  60  86 118 154 191 236 289 344
#     4  11  22  39  62  87 118 155 194 241 291 343
#     4  11  23  39  62  88 118 155 194 240 291 345
#     4  10  21  38  60  86 118 154 192 239 291 342
#
# _framework density 20.965434999999999
#
# number of rings (size 3 to 8) (size 9 to 14) (size 15 to 20)
#    0.000    1.333    0.000    6.000    0.000    8.000 
#    0.000    0.000    0.000   11.000    0.000    0.000 
#    0.000    0.000    0.000    0.000    0.000    0.000 
#
# Total GULP energy -297759.016449 kJ/mol
# GULP energy per Si atom -12406.625685 kJ/mol
# Density = 2.091772 g / cm^3
# Si number density = 20.965435 Si / 1000 Ang^3
#
#
#
# Elastic Constant Matrix: (Units=GPa)
#
#
# Indices 1 2 3 4 5 6 
#
# 1 70.4179 55.4283 5.4551 0.0000 -8.8328 0.0000
# 2 55.4283 119.6963 15.5743 0.0000 -13.2338 0.0000
# 3 5.4551 15.5743 83.7214 0.0000 -5.6906 0.0000
# 4 0.0000 0.0000 0.0000 25.4558 0.0000 6.5578
# 5 -8.8328 -13.2338 -5.6906 0.0000 32.2435 0.0000
# 6 0.0000 0.0000 0.0000 6.5578 0.0000 39.9286
#
#
#
# Elastic Compliance Matrix: (Units=1/GPa)
#
#
# Indices 1 2 3 4 5 6 
#
# 1 0.022493 -0.010265 0.000583 0.000000 0.002052 0.000000
# 2 -0.010265 0.013602 -0.001693 0.000000 0.002472 0.000000
# 3 0.000583 -0.001693 0.012333 0.000000 0.001641 0.000000
# 4 0.000000 0.000000 0.000000 0.041019 0.000000 -0.006737
# 5 0.002052 0.002472 0.001641 0.000000 0.032880 0.000000
# 6 0.000000 0.000000 0.000000 -0.006737 0.000000 0.026151
#
#
# Mechanical properties :
#
#
# Convention : Reuss Voigt Hill
#
# Bulk Modulus (GPa) = 38.94458 47.41679 43.18068
# Shear Modulus (GPa) = 27.81063 32.68411 30.24737
#
# Velocity S-wave (km/s) = 3.64606 3.95264 3.80244
# Velocity P-wave (km/s) = 6.02835 6.59522 6.31814
#
# Compressibility (1/GPa) = 0.02567752
#
# Stress axis : x y z
#
# Youngs Moduli (GPa) = 44.45816 73.52094 81.08363
#
# Poissons Ratio (x) = 0.75470 -0.04731
# Poissons Ratio (y) = 0.45637 0.13731
# Poissons Ratio (z) = -0.02594 0.12450
#
# Static dielectric constant tensor:
#      x y z
#    x 3.625700 0.000000 0.114400 
#    y 0.000000 3.854620 0.000000 
#    z 0.114400 0.000000 3.981360 
# 
# 
# High freq. dielectric constant tensor:
#      x y z
#    x 1.811340 0.000000 0.010230 
#    y 0.000000 1.827490 0.000000 
#    z 0.010230 0.000000 1.839400 
# 
# From -- ./inp_files/80842.got.cif
#   From: 2010.06.25/outbox.cif.g09.slc.cpg/sg12_41_cif.got.tgz:80842.got - 2010.06.28 00:19:55.
