data_PCOD8108242
_publ_section_title
;
Structure prediction by ZEFSAII (Michael W. Deem and Ramdas Pophale) SiO2 
 PCOD8108242
Probable space group: C 2/M
;
_chemical_formula_sum "Si O2"
_cell_formula_units_Z 32
_cell_length_a 12.171596
_cell_length_b 22.203982
_cell_length_c 7.026400
_cell_angle_alpha 90.000000
_cell_angle_beta 127.769601
_cell_angle_gamma 90.000000
_cell_volume 1501.074333
_symmetry_space_group_name_H-M "C 2/M"
_symmetry_group_IT_number 12
_symmetry_cell_setting 'monoclinic'
loop_
_space_group_symop_operation_xyz
x,y,z
-x,y,-z
-x,-y,-z
x,-y,z
1/2+x,1/2+y,z
1/2-x,1/2+y,-z
1/2-x,1/2-y,-z
1/2+x,1/2-y,z
loop_
_atom_site_type_symbol
_atom_site_label
_atom_site_fract_x
_atom_site_fract_y
_atom_site_fract_z
Si Si1 0.268616 0.749689 0.794400
Si Si2 0.903529 0.433001 0.216034
Si Si3 0.120401 0.872122 0.999639
Si Si4 0.500000 0.310321 0.500000
Si Si5 0.500000 0.156917 0.000000
O O1 0.325581 0.683278 0.809631
O O2 0.369670 0.800571 0.819366
O O3 0.119295 0.765546 0.542463
O O4 0.250000 0.750000 0.000000
O O5 0.905578 0.500000 0.127803
O O6 0.744281 0.418764 0.099452
O O7 0.000000 0.431033 0.500000
O O8 0.967648 0.384477 0.144022
O O9 0.000000 0.903271 0.000000
O O10 0.062168 0.851889 0.732223
#
# Coordination Sequence:
#
# PCOD8108242 Si02
#       5
#     8   8   8   4   4
#     4  10  21  38  61 100 131 161 210 262 330 390
#     4  11  27  46  67  95 129 178 231 272 318 385
#     4  11  24  41  64  98 134 173 211 269 334 389
#     4  10  22  40  59  96 137 168 214 258 332 402
#     4  12  21  44  72  94 133 172 218 274 328 396
#
# _framework density 21.318062999999999
#
# number of rings (size 3 to 8) (size 9 to 14) (size 15 to 20)
#    0.000    1.250    6.250    0.375    5.250    1.500 
#    0.000    0.625    0.000    0.000    0.000    0.000 
#    0.000    0.000    0.000    0.000    0.000    0.000 
#
# Total GULP energy -198341.079057 kJ/mol
# GULP energy per Si atom -12396.317441 kJ/mol
# Density = 2.126954 g / cm^3
# Si number density = 21.318063 Si / 1000 Ang^3
#
#
#
# Elastic Constant Matrix: (Units=GPa)
#
#
# Indices 1 2 3 4 5 6 
#
# 1 123.1914 35.5097 26.3179 0.0000 28.8109 0.0000
# 2 35.5097 97.1438 20.1801 0.0000 13.6343 0.0000
# 3 26.3179 20.1801 99.4118 0.0000 27.0091 0.0000
# 4 0.0000 0.0000 0.0000 166.4396 0.0000 53.8343
# 5 28.8109 13.6343 27.0091 0.0000 41.0866 0.0000
# 6 0.0000 0.0000 0.0000 53.8343 0.0000 17.2135
#
#
#
# Elastic Compliance Matrix: (Units=1/GPa)
#
#
# Indices 1 2 3 4 5 6 
#
# 1 0.010472 -0.002867 -0.000552 0.000000 -0.006029 0.000000
# 2 -0.002867 0.011764 -0.001357 0.000000 -0.001002 0.000000
# 3 -0.000552 -0.001357 0.012483 0.000000 -0.007368 0.000000
# 4 0.000000 0.000000 0.000000 -0.519768 0.000000 1.625543
# 5 -0.006029 -0.001002 -0.007368 0.000000 0.033742 0.000000
# 6 0.000000 0.000000 0.000000 1.625543 0.000000 -5.025695
#
#
# Mechanical properties :
#
#
# Convention : Reuss Voigt Hill
#
# Bulk Modulus (GPa) = 39.73587 53.75137 46.74362
# Shear Modulus (GPa) = -0.91591 60.79723 29.94066
#
# Velocity S-wave (km/s) = -0.65618 5.34612 3.75170
# Velocity P-wave (km/s) = 4.25510 7.96095 6.38289
#
# Compressibility (1/GPa) = 0.02516618
#
# Stress axis : x y z
#
# Youngs Moduli (GPa) = 95.49498 85.00171 80.11078
#
# Poissons Ratio (x) = 0.24370 0.04425
# Poissons Ratio (y) = 0.27378 0.10871
# Poissons Ratio (z) = 0.05275 0.11535
#
# Static dielectric constant tensor:
#      x y z
#    x 4.167530 0.000000 0.383150 
#    y 0.000000 4.039170 0.000000 
#    z 0.383150 0.000000 4.065300 
# 
# 
# High freq. dielectric constant tensor:
#      x y z
#    x 1.856860 0.000000 0.014900 
#    y 0.000000 1.817100 0.000000 
#    z 0.014900 0.000000 1.836450 
# 
# From -- ./inp_files/63036.got.cif
#   From: 2010.06.25/outbox.cif.g09.slc.cpg/sg12_32_cif.got.tgz:63036.got - 2010.06.28 00:19:55.
