data_PCOD8108777
_publ_section_title
;
Structure prediction by ZEFSAII (Michael W. Deem and Ramdas Pophale) SiO2 
 PCOD8108777
Probable space group: C 2/M
;
_chemical_formula_sum "Si O2"
_cell_formula_units_Z 40
_cell_length_a 14.341764
_cell_length_b 18.694332
_cell_length_c 11.002806
_cell_angle_alpha 90.000000
_cell_angle_beta 40.364447
_cell_angle_gamma 90.000000
_cell_volume 1910.532766
_symmetry_space_group_name_H-M "C 2/M"
_symmetry_group_IT_number 12
_symmetry_cell_setting 'monoclinic'
loop_
_space_group_symop_operation_xyz
x,y,z
-x,y,-z
-x,-y,-z
x,-y,z
1/2+x,1/2+y,z
1/2-x,1/2+y,-z
1/2-x,1/2-y,-z
1/2+x,1/2-y,z
loop_
_atom_site_type_symbol
_atom_site_label
_atom_site_fract_x
_atom_site_fract_y
_atom_site_fract_z
Si Si1 0.212343 0.164210 0.313145
Si Si2 0.595770 0.185542 0.516886
Si Si3 0.296770 0.417912 0.441592
Si Si4 0.387007 0.418071 0.803550
Si Si5 0.343529 0.816763 0.946559
O O1 0.154725 0.235698 0.433816
O O2 0.257187 0.108236 0.372446
O O3 0.093013 0.128226 0.340908
O O4 0.350059 0.181432 0.088492
O O5 0.500000 0.158281 0.500000
O O6 0.725418 0.129785 0.406855
O O7 0.501992 0.186899 0.733531
O O8 0.249538 0.500000 0.471587
O O9 0.469238 0.409022 0.259080
O O10 0.359595 0.500000 0.796261
O O11 0.245845 0.386863 0.013484
O O12 0.250000 0.750000 0.000000
#
# Coordination Sequence:
#
# PCOD8108777 Si02
#       5
#     8   8   8   8   8
#     4  10  21  39  70  94 122 160 216 268 316 367
#     4  12  23  41  64  91 131 170 211 260 321 379
#     4  11  23  39  63  95 128 167 213 262 318 377
#     4   9  20  40  66  94 121 157 210 268 316 363
#     4  10  21  38  65  97 125 165 206 261 321 376
#
# _framework density 20.936568000000001
#
# number of rings (size 3 to 8) (size 9 to 14) (size 15 to 20)
#    1.200    0.400    2.000    4.200    0.000    3.600 
#    0.000    2.000    0.000    2.400    0.000    0.000 
#    0.000    0.000    0.000    0.000    0.000    0.000 
#
# Total GULP energy -247801.267818 kJ/mol
# GULP energy per Si atom -12390.063391 kJ/mol
# Density = 2.088892 g / cm^3
# Si number density = 20.936568 Si / 1000 Ang^3
#
#
#
# Elastic Constant Matrix: (Units=GPa)
#
#
# Indices 1 2 3 4 5 6 
#
# 1 78.3290 62.4058 8.5857 -0.0010 2.9012 0.0027
# 2 62.4058 175.9626 36.1444 -0.0003 -7.4048 0.0008
# 3 8.5857 36.1444 98.8896 -0.0002 -21.7859 0.0016
# 4 -0.0010 -0.0003 -0.0002 25.1821 0.0002 10.1206
# 5 2.9012 -7.4048 -21.7859 0.0002 16.6595 -0.0010
# 6 0.0027 0.0008 0.0016 10.1206 -0.0010 38.2833
#
#
#
# Elastic Compliance Matrix: (Units=1/GPa)
#
#
# Indices 1 2 3 4 5 6 
#
# 1 0.018442 -0.006691 -0.000728 0.000001 -0.007138 -0.000002
# 2 -0.006691 0.008573 -0.002046 0.000000 0.002301 0.000001
# 3 -0.000728 -0.002046 0.015102 0.000000 0.018966 0.000000
# 4 0.000001 0.000000 0.000000 0.044432 -0.000002 -0.011746
# 5 -0.007138 0.002301 0.018966 -0.000002 0.087094 0.000002
# 6 -0.000002 0.000001 0.000000 -0.011746 0.000002 0.029226
#
#
# Mechanical properties :
#
#
# Convention : Reuss Voigt Hill
#
# Bulk Modulus (GPa) = 43.12830 63.05034 53.08932
# Shear Modulus (GPa) = 21.78393 32.42799 27.10596
#
# Velocity S-wave (km/s) = 3.22914 3.93984 3.60206
# Velocity P-wave (km/s) = 5.87770 7.13279 6.53544
#
# Compressibility (1/GPa) = 0.02318663
#
# Stress axis : x y z
#
# Youngs Moduli (GPa) = 54.22427 116.64311 66.21856
#
# Poissons Ratio (x) = 0.78050 0.04820
# Poissons Ratio (y) = 0.36283 0.13546
# Poissons Ratio (z) = 0.03947 0.23862
#
# Static dielectric constant tensor:
#      x y z
#    x 3.621520 0.000000 -0.074740 
#    y 0.000000 3.863430 0.000000 
#    z -0.074740 0.000000 3.944390 
# 
# 
# High freq. dielectric constant tensor:
#      x y z
#    x 1.804680 0.000000 -0.004060 
#    y 0.000000 1.826830 0.000000 
#    z -0.004060 0.000000 1.804030 
# 
# From -- ./inp_files/48478.got.cif
#   From: 2010.06.25/outbox.cif.g09.slc.cpg/sg12_25_cif.got.tgz:48478.got - 2010.06.28 00:19:55.
