data_PCOD8108135
_publ_section_title
;
Structure prediction by ZEFSAII (Michael W. Deem and Ramdas Pophale) SiO2 
 PCOD8108135
Probable space group: C 2/M
;
_chemical_formula_sum "Si O2"
_cell_formula_units_Z 48
_cell_length_a 15.360038
_cell_length_b 9.456296
_cell_length_c 28.594722
_cell_angle_alpha 90.000000
_cell_angle_beta 143.644540
_cell_angle_gamma 90.000000
_cell_volume 2462.080785
_symmetry_space_group_name_H-M "C 2/M"
_symmetry_group_IT_number 12
_symmetry_cell_setting 'monoclinic'
loop_
_space_group_symop_operation_xyz
x,y,z
-x,y,-z
-x,-y,-z
x,-y,z
1/2+x,1/2+y,z
1/2-x,1/2+y,-z
1/2-x,1/2-y,-z
1/2+x,1/2-y,z
loop_
_atom_site_type_symbol
_atom_site_label
_atom_site_fract_x
_atom_site_fract_y
_atom_site_fract_z
Si Si1 0.643695 0.834806 0.318118
Si Si2 0.870982 0.333875 0.580544
Si Si3 0.380788 0.337969 0.852527
Si Si4 0.177016 0.662012 0.852700
Si Si5 0.603635 0.839963 0.999920
Si Si6 0.189386 0.334781 0.681716
O O1 0.638640 0.788711 0.369706
O O2 0.490972 0.794171 0.227290
O O3 0.774378 0.749959 0.349738
O O4 0.676066 0.000000 0.327335
O O5 0.844410 0.500000 0.562857
O O6 0.750000 0.250000 0.500000
O O7 0.029442 0.288706 0.629862
O O8 0.434112 0.500000 0.875592
O O9 0.258486 0.314271 0.839006
O O10 0.522309 0.239185 0.922159
O O11 0.308646 0.293984 0.772477
O O12 0.193098 0.500000 0.875870
O O13 0.244436 0.760863 0.922353
O O14 0.638673 0.000000 0.999879
O O15 0.500000 0.834471 0.000000
O O16 0.194323 0.500000 0.672648
#
# Coordination Sequence:
#
# PCOD8108135 Si02
#       6
#     8   8   8   8   8   8
#     4  10  21  38  60  86 116 149 189 234 280 334
#     4  10  22  42  64  87 116 149 185 228 281 342
#     4   9  16  31  54  76 104 148 193 230 273 330
#     4   9  16  31  54  76 104 148 193 230 273 330
#     4   9  17  27  44  77 114 144 182 236 284 323
#     4  10  21  38  60  86 116 149 189 234 280 334
#
# _framework density 19.495702999999999
#
# number of rings (size 3 to 8) (size 9 to 14) (size 15 to 20)
#    0.000    2.500    1.667    0.500    0.000    5.333 
#    0.000    4.167    0.000    0.000    0.000    0.000 
#    0.000    0.000    0.000    0.000    0.000    0.000 
#
# Total GULP energy -297656.460987 kJ/mol
# GULP energy per Si atom -12402.352541 kJ/mol
# Density = 1.945133 g / cm^3
# Si number density = 19.495703 Si / 1000 Ang^3
#
#
#
# Elastic Constant Matrix: (Units=GPa)
#
#
# Indices 1 2 3 4 5 6 
#
# 1 112.9667 58.6669 68.9991 0.0000 -1.2814 0.0000
# 2 58.6669 92.9420 74.7490 0.0000 1.1765 0.0000
# 3 68.9991 74.7490 137.1530 0.0000 3.7454 0.0000
# 4 0.0000 0.0000 0.0000 37.6962 0.0000 0.4865
# 5 -1.2814 1.1765 3.7454 0.0000 4.3527 0.0000
# 6 0.0000 0.0000 0.0000 0.4865 0.0000 29.0431
#
#
#
# Elastic Compliance Matrix: (Units=1/GPa)
#
#
# Indices 1 2 3 4 5 6 
#
# 1 0.014731 -0.005781 -0.004528 0.000000 0.009795 0.000000
# 2 -0.005781 0.021489 -0.008805 0.000000 0.000067 0.000000
# 3 -0.004528 -0.008805 0.014684 0.000000 -0.011588 0.000000
# 4 0.000000 0.000000 0.000000 0.026534 0.000000 -0.000445
# 5 0.009795 0.000067 -0.011588 0.000000 0.242579 0.000000
# 6 0.000000 0.000000 0.000000 -0.000445 0.000000 0.034439
#
#
# Mechanical properties :
#
#
# Convention : Reuss Voigt Hill
#
# Bulk Modulus (GPa) = 78.88541 83.09906 80.99223
# Shear Modulus (GPa) = 12.59731 23.59483 18.09607
#
# Velocity S-wave (km/s) = 2.54472 3.48265 3.04996
# Velocity P-wave (km/s) = 7.01320 7.67389 7.35097
#
# Compressibility (1/GPa) = 0.01267662
#
# Stress axis : x y z
#
# Youngs Moduli (GPa) = 67.88383 46.53455 68.10018
#
# Poissons Ratio (x) = 0.26902 0.30833
# Poissons Ratio (y) = 0.39245 0.59964
# Poissons Ratio (z) = 0.30735 0.40975
#
# Static dielectric constant tensor:
#      x y z
#    x 3.395290 0.000000 0.009290 
#    y 0.000000 3.467350 0.000000 
#    z 0.009290 0.000000 3.569060 
# 
# 
# High freq. dielectric constant tensor:
#      x y z
#    x 1.749860 0.000000 0.000630 
#    y 0.000000 1.751230 0.000000 
#    z 0.000630 0.000000 1.760760 
# 
# From -- ./inp_files/360325.got.cif
#   From: 2010.06.25/outbox.cif.g09.slc.cpg/sg12_181_cif.got.tgz:360325.got - 2010.06.28 00:19:55.
