data_PCOD8108315
_publ_section_title
;
Structure prediction by ZEFSAII (Michael W. Deem and Ramdas Pophale) SiO2 
 PCOD8108315
Probable space group: C 2/M
;
_chemical_formula_sum "Si O2"
_cell_formula_units_Z 40
_cell_length_a 9.044716
_cell_length_b 26.882241
_cell_length_c 6.982943
_cell_angle_alpha 90.000000
_cell_angle_beta 78.912114
_cell_angle_gamma 90.000000
_cell_volume 1666.155223
_symmetry_space_group_name_H-M "C 2/M"
_symmetry_group_IT_number 12
_symmetry_cell_setting 'monoclinic'
loop_
_space_group_symop_operation_xyz
x,y,z
-x,y,-z
-x,-y,-z
x,-y,z
1/2+x,1/2+y,z
1/2-x,1/2+y,-z
1/2-x,1/2-y,-z
1/2+x,1/2-y,z
loop_
_atom_site_type_symbol
_atom_site_label
_atom_site_fract_x
_atom_site_fract_y
_atom_site_fract_z
Si Si1 0.811059 0.637004 0.803568
Si Si2 0.464024 0.055360 0.286162
Si Si3 0.664661 0.685652 0.210342
Si Si4 0.977399 0.718311 0.218981
Si Si5 0.842878 0.903467 0.531007
O O1 0.919310 0.680098 0.681815
O O2 0.704737 0.612142 0.671059
O O3 0.923786 0.593116 0.853766
O O4 0.709694 0.662255 0.993469
O O5 0.500000 0.057655 0.500000
O O6 0.288194 0.069917 0.314544
O O7 0.489328 0.000000 0.196584
O O8 0.529424 0.724956 0.222989
O O9 0.602624 0.643902 0.362214
O O10 0.798982 0.713519 0.294145
O O11 0.000000 0.697710 0.000000
O O12 0.000000 0.935745 0.500000
#
# Coordination Sequence:
#
# PCOD8108315 Si02
#       5
#     8   8   8   8   8
#     4  10  21  42  62  89 126 161 204 260 305 367
#     4   9  19  41  70  93 120 160 206 261 316 365
#     4  11  24  41  61  90 128 167 208 255 301 371
#     4  10  21  38  61  87 123 167 205 246 311 356
#     4  11  25  39  60  94 124 164 208 252 311 367
#
# _framework density 24.007368
#
# number of rings (size 3 to 8) (size 9 to 14) (size 15 to 20)
#    0.000    1.800    2.000    2.400    5.600    1.200 
#    0.000    2.000    0.000    0.000    0.000    7.000 
#    0.000    0.000    0.000    0.000    0.000    0.000 
#
# Total GULP energy -247781.574681 kJ/mol
# GULP energy per Si atom -12389.078734 kJ/mol
# Density = 2.395273 g / cm^3
# Si number density = 24.007368 Si / 1000 Ang^3
#
#
#
# Elastic Constant Matrix: (Units=GPa)
#
#
# Indices 1 2 3 4 5 6 
#
# 1 105.0631 12.7567 12.9665 0.0000 4.8670 0.0000
# 2 12.7567 129.3409 4.5610 0.0000 -5.1096 0.0000
# 3 12.9665 4.5610 44.9164 0.0000 3.0701 0.0000
# 4 0.0000 0.0000 0.0000 16.7478 0.0000 2.0652
# 5 4.8670 -5.1096 3.0701 0.0000 24.9283 0.0000
# 6 0.0000 0.0000 0.0000 2.0652 0.0000 82.1352
#
#
#
# Elastic Compliance Matrix: (Units=1/GPa)
#
#
# Indices 1 2 3 4 5 6 
#
# 1 0.010051 -0.000969 -0.002678 0.000000 -0.001831 0.000000
# 2 -0.000969 0.007925 -0.000654 0.000000 0.001894 0.000000
# 3 -0.002678 -0.000654 0.023272 0.000000 -0.002477 0.000000
# 4 0.000000 0.000000 0.000000 0.059895 0.000000 -0.001506
# 5 -0.001831 0.001894 -0.002477 0.000000 0.041166 0.000000
# 6 0.000000 0.000000 0.000000 -0.001506 0.000000 0.012213
#
#
# Mechanical properties :
#
#
# Convention : Reuss Voigt Hill
#
# Bulk Modulus (GPa) = 30.63227 37.76543 34.19885
# Shear Modulus (GPa) = 28.73441 41.36468 35.04955
#
# Velocity S-wave (km/s) = 3.46338 4.15541 3.82507
# Velocity P-wave (km/s) = 5.36475 6.22801 5.81243
#
# Compressibility (1/GPa) = 0.03264531
#
# Stress axis : x y z
#
# Youngs Moduli (GPa) = 99.49144 126.18285 42.96927
#
# Poissons Ratio (x) = 0.12230 0.11507
# Poissons Ratio (y) = 0.09643 0.02812
# Poissons Ratio (z) = 0.26644 0.08258
#
# Static dielectric constant tensor:
#      x y z
#    x 4.597520 0.000000 0.096130 
#    y 0.000000 4.307610 0.000000 
#    z 0.096130 0.000000 4.105360 
# 
# 
# High freq. dielectric constant tensor:
#      x y z
#    x 1.972130 0.000000 0.000780 
#    y 0.000000 1.934010 0.000000 
#    z 0.000780 0.000000 1.935900 
# 
# From -- ./inp_files/40316.got.cif
#   From: 2010.06.25/outbox.cif.g09.slc.cpg/sg12_21_cif.got.tgz:40316.got - 2010.06.28 00:19:55.
