data_PCOD8108297
_publ_section_title
;
Structure prediction by ZEFSAII (Michael W. Deem and Ramdas Pophale) SiO2 
 PCOD8108297
Probable space group: C 2/M
;
_chemical_formula_sum "Si O2"
_cell_formula_units_Z 48
_cell_length_a 12.380557
_cell_length_b 22.479367
_cell_length_c 9.230489
_cell_angle_alpha 90.000000
_cell_angle_beta 61.619671
_cell_angle_gamma 90.000000
_cell_volume 2260.157791
_symmetry_space_group_name_H-M "C 2/M"
_symmetry_group_IT_number 12
_symmetry_cell_setting 'monoclinic'
loop_
_space_group_symop_operation_xyz
x,y,z
-x,y,-z
-x,-y,-z
x,-y,z
1/2+x,1/2+y,z
1/2-x,1/2+y,-z
1/2-x,1/2-y,-z
1/2+x,1/2-y,z
loop_
_atom_site_type_symbol
_atom_site_label
_atom_site_fract_x
_atom_site_fract_y
_atom_site_fract_z
Si Si1 0.027743 0.432201 0.813311
Si Si2 0.136275 0.760125 0.892262
Si Si3 0.744806 0.645946 0.293020
Si Si4 0.207475 0.567889 0.224004
Si Si5 0.620138 0.625412 0.094418
Si Si6 0.347094 0.645369 0.339712
O O1 0.063152 0.500000 0.749977
O O2 0.139213 0.387765 0.712577
O O3 0.913608 0.410502 0.786781
O O4 0.000000 0.427729 0.000000
O O5 0.226376 0.704303 0.822341
O O6 0.157149 0.788923 0.722009
O O7 0.160738 0.809208 0.003219
O O8 0.000000 0.734085 0.000000
O O9 0.671911 0.608714 0.219830
O O10 0.654854 0.655133 0.486742
O O11 0.192360 0.500000 0.281236
O O12 0.231754 0.606082 0.354435
O O13 0.325460 0.575372 0.045499
O O14 0.474031 0.617295 0.198269
#
# Coordination Sequence:
#
# PCOD8108297 Si02
#       6
#     8   8   8   8   8   8
#     4  10  21  38  61  90 115 148 202 252 292 343
#     4   9  20  38  60  84 115 156 204 239 282 351
#     4  12  21  36  62  88 120 157 191 245 306 344
#     4  10  21  41  65  84 115 159 202 245 289 350
#     4  10  21  38  61  87 118 155 200 244 283 351
#     4  10  23  39  55  89 126 152 192 245 296 352
#
# _framework density 21.237455000000001
#
# number of rings (size 3 to 8) (size 9 to 14) (size 15 to 20)
#    0.000    1.833    1.667    3.500    0.000    2.667 
#    3.000    1.667    0.000    3.000    0.000    0.000 
#    0.000    0.000    0.000    0.000    0.000    0.000 
#
# Total GULP energy -297364.012493 kJ/mol
# GULP energy per Si atom -12390.167187 kJ/mol
# Density = 2.118912 g / cm^3
# Si number density = 21.237455 Si / 1000 Ang^3
#
#
#
# Elastic Constant Matrix: (Units=GPa)
#
#
# Indices 1 2 3 4 5 6 
#
# 1 87.2567 16.0043 11.8333 0.0000 13.2828 0.0000
# 2 16.0043 45.6257 8.5479 0.0000 -2.8433 0.0000
# 3 11.8333 8.5479 99.9990 0.0000 17.1590 0.0000
# 4 0.0000 0.0000 0.0000 1.5536 0.0000 -3.2035
# 5 13.2828 -2.8433 17.1590 0.0000 29.9011 0.0000
# 6 0.0000 0.0000 0.0000 -3.2035 0.0000 21.1211
#
#
#
# Elastic Compliance Matrix: (Units=1/GPa)
#
#
# Indices 1 2 3 4 5 6 
#
# 1 0.013372 -0.005080 -0.000051 0.000000 -0.006394 0.000000
# 2 -0.005080 0.024551 -0.002535 0.000000 0.006046 0.000000
# 3 -0.000051 -0.002535 0.011381 0.000000 -0.006749 0.000000
# 4 0.000000 0.000000 0.000000 0.936580 0.000000 0.142054
# 5 -0.006394 0.006046 -0.006749 0.000000 0.040732 0.000000
# 6 0.000000 0.000000 0.000000 0.142054 0.000000 0.068892
#
#
# Mechanical properties :
#
#
# Convention : Reuss Voigt Hill
#
# Bulk Modulus (GPa) = 29.43493 33.96138 31.69816
# Shear Modulus (GPa) = 4.45568 23.61489 14.03528
#
# Velocity S-wave (km/s) = 1.45003 3.33820 2.57354
# Velocity P-wave (km/s) = 4.08576 5.55735 4.87737
#
# Compressibility (1/GPa) = 0.03397324
#
# Stress axis : x y z
#
# Youngs Moduli (GPa) = 74.78103 40.73166 87.86599
#
# Poissons Ratio (x) = 0.20690 0.00449
# Poissons Ratio (y) = 0.37986 0.22273
# Poissons Ratio (z) = 0.00382 0.10325
#
# Static dielectric constant tensor:
#      x y z
#    x 3.894600 0.000000 0.093110 
#    y 0.000000 3.582100 0.000000 
#    z 0.093110 0.000000 3.708740 
# 
# 
# High freq. dielectric constant tensor:
#      x y z
#    x 1.836950 0.000000 0.011770 
#    y 0.000000 1.809750 0.000000 
#    z 0.011770 0.000000 1.834070 
# 
# From -- ./inp_files/51358.got.cif
#   From: 2010.06.25/outbox.cif.g09.slc.cpg/sg12_26_cif.got.tgz:51358.got - 2010.06.28 00:19:55.
