data_PCOD8108327
_publ_section_title
;
Structure prediction by ZEFSAII (Michael W. Deem and Ramdas Pophale) SiO2 
 PCOD8108327
Probable space group: C 2/M
;
_chemical_formula_sum "Si O2"
_cell_formula_units_Z 64
_cell_length_a 22.430217
_cell_length_b 8.665934
_cell_length_c 23.816782
_cell_angle_alpha 90.000000
_cell_angle_beta 46.040994
_cell_angle_gamma 90.000000
_cell_volume 3332.467148
_symmetry_space_group_name_H-M "C 2/M"
_symmetry_group_IT_number 12
_symmetry_cell_setting 'monoclinic'
loop_
_space_group_symop_operation_xyz
x,y,z
-x,y,-z
-x,-y,-z
x,-y,z
1/2+x,1/2+y,z
1/2-x,1/2+y,-z
1/2-x,1/2-y,-z
1/2+x,1/2-y,z
loop_
_atom_site_type_symbol
_atom_site_label
_atom_site_fract_x
_atom_site_fract_y
_atom_site_fract_z
Si Si1 0.094989 0.825510 0.797572
Si Si2 0.966796 0.680189 0.960899
Si Si3 0.065124 0.819602 0.413490
Si Si4 0.524626 0.673662 0.221473
Si Si5 0.009718 0.323255 0.640828
Si Si6 0.160280 0.182445 0.041380
Si Si7 0.196794 0.319235 0.486372
Si Si8 0.262091 0.681553 0.657642
O O1 0.189082 0.772401 0.735798
O O2 0.042919 0.710462 0.869916
O O3 0.061106 0.818089 0.756393
O O4 0.087171 0.000000 0.826171
O O5 0.947503 0.500000 0.978322
O O6 0.882039 0.755926 0.989606
O O7 0.000000 0.743461 0.000000
O O8 0.156315 0.755968 0.364970
O O9 0.000000 0.742072 0.500000
O O10 0.046338 0.781887 0.361812
O O11 0.064575 0.000000 0.424455
O O12 0.540041 0.500000 0.233509
O O13 0.515062 0.789225 0.279239
O O14 0.599966 0.726612 0.132288
O O15 0.990174 0.500000 0.641030
O O16 0.103295 0.282205 0.564522
O O17 0.168597 0.000000 0.028758
O O18 0.250000 0.250000 0.000000
O O19 0.212643 0.500000 0.466470
O O20 0.250000 0.250000 0.500000
O O21 0.227047 0.222888 0.413865
O O22 0.246309 0.500000 0.674277
#
# Coordination Sequence:
#
# PCOD8108327 Si02
#       8
#     8   8   8   8   8   8   8   8
#     4  10  21  38  61  88 118 153 190 237 293 343
#     4  10  21  39  64  93 125 162 201 244 297 359
#     4  10  21  39  59  77 105 151 193 231 286 345
#     4   9  20  38  59  83 114 151 187 229 284 344
#     4  11  23  36  55  82 110 143 187 236 283 332
#     4  10  21  39  64  93 124 161 201 247 301 357
#     4  11  23  36  53  80 111 144 184 234 284 337
#     4  11  22  37  58  82 109 146 192 236 285 344
#
# _framework density 19.204991
#
# number of rings (size 3 to 8) (size 9 to 14) (size 15 to 20)
#    0.000    1.750    1.250    3.750    0.000    8.750 
#    2.250    0.000    0.000    0.000    0.000    0.000 
#    0.000    0.000    0.000    0.000    0.000    0.000 
#
# Total GULP energy -396707.463190 kJ/mol
# GULP energy per Si atom -12397.108225 kJ/mol
# Density = 1.916128 g / cm^3
# Si number density = 19.204991 Si / 1000 Ang^3
#
#
#
# Elastic Constant Matrix: (Units=GPa)
#
#
# Indices 1 2 3 4 5 6 
#
# 1 135.6008 29.7886 41.7758 0.0002 -13.1224 0.0000
# 2 29.7886 40.7108 15.7389 0.0011 -9.3499 -0.0018
# 3 41.7758 15.7389 70.5603 0.0000 -10.5617 -0.0001
# 4 0.0002 0.0011 0.0000 31.9138 -0.0001 0.2985
# 5 -13.1224 -9.3499 -10.5617 -0.0001 36.7266 0.0001
# 6 0.0000 -0.0018 -0.0001 0.2985 0.0001 31.2293
#
#
#
# Elastic Compliance Matrix: (Units=1/GPa)
#
#
# Indices 1 2 3 4 5 6 
#
# 1 0.010067 -0.005371 -0.004628 0.000000 0.000899 0.000000
# 2 -0.005371 0.030792 -0.002928 -0.000001 0.005078 0.000002
# 3 -0.004628 -0.002928 0.017980 0.000000 0.002772 0.000000
# 4 0.000000 -0.000001 0.000000 0.031337 0.000000 -0.000300
# 5 0.000899 0.005078 0.002772 0.000000 0.029639 0.000000
# 6 0.000000 0.000002 0.000000 -0.000300 0.000000 0.032024
#
#
# Mechanical properties :
#
#
# Convention : Reuss Voigt Hill
#
# Bulk Modulus (GPa) = 30.31659 46.83095 38.57377
# Shear Modulus (GPa) = 26.49868 30.61183 28.55525
#
# Velocity S-wave (km/s) = 3.71857 3.99676 3.86017
# Velocity P-wave (km/s) = 5.85295 6.76288 6.32430
#
# Compressibility (1/GPa) = 0.03298524
#
# Stress axis : x y z
#
# Youngs Moduli (GPa) = 99.33309 32.47629 55.61643
#
# Poissons Ratio (x) = 0.17442 0.25738
# Poissons Ratio (y) = 0.53349 0.16287
# Poissons Ratio (z) = 0.45970 0.09510
#
# Static dielectric constant tensor:
#      x y z
#    x 3.690290 0.000000 -0.127050 
#    y 0.000000 3.485870 0.000000 
#    z -0.127050 0.000000 3.437100 
# 
# 
# High freq. dielectric constant tensor:
#      x y z
#    x 1.756070 0.000000 -0.004330 
#    y 0.000000 1.750790 0.000000 
#    z -0.004330 0.000000 1.740440 
# 
# From -- ./inp_files/345973.got.cif
#   From: 2010.06.25/outbox.cif.g09.slc.cpg/sg12_173_cif.got.tgz:345973.got - 2010.06.28 00:19:55.
