data_PCOD8108449
_publ_section_title
;
Structure prediction by ZEFSAII (Michael W. Deem and Ramdas Pophale) SiO2 
 PCOD8108449
Probable space group: C 2/M
;
_chemical_formula_sum "Si O2"
_cell_formula_units_Z 40
_cell_length_a 17.077089
_cell_length_b 25.574051
_cell_length_c 10.140387
_cell_angle_alpha 90.000000
_cell_angle_beta 149.881190
_cell_angle_gamma 90.000000
_cell_volume 2222.255552
_symmetry_space_group_name_H-M "C 2/M"
_symmetry_group_IT_number 12
_symmetry_cell_setting 'monoclinic'
loop_
_space_group_symop_operation_xyz
x,y,z
-x,y,-z
-x,-y,-z
x,-y,z
1/2+x,1/2+y,z
1/2-x,1/2+y,-z
1/2-x,1/2-y,-z
1/2+x,1/2-y,z
loop_
_atom_site_type_symbol
_atom_site_label
_atom_site_fract_x
_atom_site_fract_y
_atom_site_fract_z
Si Si1 0.320493 0.440061 0.219764
Si Si2 0.604361 0.840171 0.521486
Si Si3 0.608233 0.855807 0.038138
Si Si4 0.681422 0.251331 0.255428
Si Si5 0.318582 0.056577 0.264994
O O1 0.500000 0.425778 0.500000
O O2 0.285416 0.500000 0.207836
O O3 0.222004 0.403365 0.172264
O O4 0.275212 0.429196 0.003324
O O5 0.500000 0.835004 0.500000
O O6 0.729217 0.793738 0.702813
O O7 0.701401 0.895276 0.662725
O O8 0.495922 0.838206 0.236495
O O9 0.707124 0.805072 0.225474
O O10 0.500000 0.874992 0.000000
O O11 0.750000 0.250000 0.500000
O O12 0.500000 0.266158 0.000000
O O13 0.500000 0.051190 0.500000
O O14 0.260046 0.000000 0.236604
#
# Coordination Sequence:
#
# PCOD8108449 Si02
#       5
#     8   8   8   8   8
#     4  10  21  38  61  93 126 154 194 253 305 347
#     4  11  21  39  64  93 112 155 216 245 285 363
#     4  11  22  40  61  87 124 158 200 245 302 364
#     4  11  23  42  60  83 126 162 190 250 314 346
#     4   9  17  34  61  86 116 153 193 242 294 346
#
# _framework density 17.99973
#
# number of rings (size 3 to 8) (size 9 to 14) (size 15 to 20)
#    0.000    1.600    8.000    0.000    0.000    3.600 
#    0.000    0.000    0.000    0.600    0.000    0.000 
#    0.000    0.000    0.000    0.000    0.000    0.000 
#
# Total GULP energy -247930.917046 kJ/mol
# GULP energy per Si atom -12396.545852 kJ/mol
# Density = 1.795876 g / cm^3
# Si number density = 17.999730 Si / 1000 Ang^3
#
#
#
# Elastic Constant Matrix: (Units=GPa)
#
#
# Indices 1 2 3 4 5 6 
#
# 1 71.9988 54.7848 34.7915 0.0000 0.6007 0.0000
# 2 54.7848 160.7844 43.9098 0.0000 4.6325 0.0000
# 3 34.7915 43.9098 134.9683 0.0000 -5.6681 0.0000
# 4 0.0000 0.0000 0.0000 77.2491 0.0000 26.6278
# 5 0.6007 4.6325 -5.6681 0.0000 28.6961 0.0000
# 6 0.0000 0.0000 0.0000 26.6278 0.0000 48.1195
#
#
#
# Elastic Compliance Matrix: (Units=1/GPa)
#
#
# Indices 1 2 3 4 5 6 
#
# 1 0.019947 -0.005914 -0.003222 0.000000 -0.000099 0.000000
# 2 -0.005914 0.008649 -0.001354 0.000000 -0.001540 0.000000
# 3 -0.003222 -0.001354 0.008765 0.000000 0.002017 0.000000
# 4 0.000000 0.000000 0.000000 0.015996 0.000000 -0.008852
# 5 -0.000099 -0.001540 0.002017 0.000000 0.035497 0.000000
# 6 0.000000 0.000000 0.000000 -0.008852 0.000000 0.025680
#
#
# Mechanical properties :
#
#
# Convention : Reuss Voigt Hill
#
# Bulk Modulus (GPa) = 61.04677 70.52487 65.78582
# Shear Modulus (GPa) = 35.46765 46.43062 40.94913
#
# Velocity S-wave (km/s) = 4.44380 5.08441 4.77486
# Velocity P-wave (km/s) = 7.76652 8.58687 8.18698
#
# Compressibility (1/GPa) = 0.01638088
#
# Stress axis : x y z
#
# Youngs Moduli (GPa) = 50.13344 115.62488 114.09138
#
# Poissons Ratio (x) = 0.68378 0.36760
# Poissons Ratio (y) = 0.29648 0.15447
# Poissons Ratio (z) = 0.16153 0.15655
#
# Static dielectric constant tensor:
#      x y z
#    x -1.844210 0.000000 1.576870 
#    y 0.000000 3.966910 0.000000 
#    z 1.576870 0.000000 2.823570 
# 
# 
# High freq. dielectric constant tensor:
#      x y z
#    x 1.662060 0.000000 -0.006960 
#    y 0.000000 1.716690 0.000000 
#    z -0.006960 0.000000 1.713650 
# 
# From -- ./inp_files/41388.got.cif
#   From: 2010.06.25/outbox.cif.g09.slc.cpg/sg12_21_cif.got.tgz:41388.got - 2010.06.28 00:19:55.
