data_PCOD8108079
_publ_section_title
;
Structure prediction by ZEFSAII (Michael W. Deem and Ramdas Pophale) SiO2 
 PCOD8108079
Probable space group: C 2/M
;
_chemical_formula_sum "Si O2"
_cell_formula_units_Z 56
_cell_length_a 8.665268
_cell_length_b 18.728326
_cell_length_c 22.439071
_cell_angle_alpha 90.000000
_cell_angle_beta 125.397856
_cell_angle_gamma 90.000000
_cell_volume 2968.404517
_symmetry_space_group_name_H-M "C 2/M"
_symmetry_group_IT_number 12
_symmetry_cell_setting 'monoclinic'
loop_
_space_group_symop_operation_xyz
x,y,z
-x,y,-z
-x,-y,-z
x,-y,z
1/2+x,1/2+y,z
1/2-x,1/2+y,-z
1/2-x,1/2-y,-z
1/2+x,1/2-y,z
loop_
_atom_site_type_symbol
_atom_site_label
_atom_site_fract_x
_atom_site_fract_y
_atom_site_fract_z
Si Si1 0.313705 0.416985 0.422593
Si Si2 0.920014 0.919769 0.156804
Si Si3 0.755233 0.828239 0.291867
Si Si4 0.331102 0.915282 0.000000
Si Si5 0.954075 0.416984 0.422593
Si Si6 0.550400 0.919769 0.156805
Si Si7 0.620369 0.671760 0.291866
O O1 0.500000 0.394134 0.500000
O O2 0.321167 0.500000 0.407024
O O3 0.309831 0.372319 0.361898
O O4 0.132857 0.398245 0.421904
O O5 0.730000 0.919382 0.153333
O O6 0.076485 0.867051 0.219166
O O7 0.005130 0.000000 0.174904
O O8 0.867333 0.893923 0.076948
O O9 0.581015 0.867051 0.219166
O O10 0.693758 0.750000 0.295837
O O11 0.934905 0.824214 0.289936
O O12 0.363512 0.893923 0.076949
O O13 0.349542 0.000000 0.000000
O O14 0.500000 0.879278 0.000000
O O15 0.899907 0.500000 0.407026
O O16 0.000000 0.394131 0.500000
O O17 0.775864 0.372320 0.361897
O O18 0.519584 0.000000 0.174904
#
# Coordination Sequence:
#
# PCOD8108079 Si02
#       7
#     8   8   8   8   8   8   8
#     4  10  21  38  60  84 107 132 166 209 257 309
#     4   8  14  26  47  73  99 130 170 216 262 307
#     4  11  22  35  51  74 107 143 179 216 257 306
#     4   7  10  20  41  70  99 125 162 213 262 305
#     4  10  21  38  60  84 107 132 166 209 257 309
#     4   8  14  26  47  73  99 130 170 216 262 307
#     4  11  22  35  51  74 107 143 179 216 257 306
#
# _framework density 18.865352999999999
#
# number of rings (size 3 to 8) (size 9 to 14) (size 15 to 20)
#    0.000    2.714    0.000    4.286    0.000    3.429 
#    0.000    3.571    0.000    0.000    0.000    3.000 
#    0.000   16.000    0.000    0.000    0.000    0.000 
#
# Total GULP energy -346993.213400 kJ/mol
# GULP energy per Si atom -12392.614764 kJ/mol
# Density = 1.882242 g / cm^3
# Si number density = 18.865353 Si / 1000 Ang^3
#
#
#
# Elastic Constant Matrix: (Units=GPa)
#
#
# Indices 1 2 3 4 5 6 
#
# 1 48.0937 26.8897 35.6229 0.0000 0.5559 0.0000
# 2 26.8897 66.1099 72.0898 0.0000 3.6702 0.0000
# 3 35.6229 72.0898 184.4029 0.0000 10.5170 0.0000
# 4 0.0000 0.0000 0.0000 -0.3995 0.0000 -0.3985
# 5 0.5559 3.6702 10.5170 0.0000 10.4657 0.0000
# 6 0.0000 0.0000 0.0000 -0.3985 0.0000 4.4984
#
#
#
# Elastic Compliance Matrix: (Units=1/GPa)
#
#
# Indices 1 2 3 4 5 6 
#
# 1 0.027320 -0.009295 -0.001853 -0.000002 0.003671 0.000000
# 2 -0.009295 0.029542 -0.009750 0.000001 -0.000069 0.000000
# 3 -0.001853 -0.009750 0.009963 0.000000 -0.006494 0.000000
# 4 -0.000002 0.000001 0.000000 -2.300101 -0.000001 -0.203746
# 5 0.003671 -0.000069 -0.006494 -0.000001 0.101905 0.000000
# 6 0.000000 0.000000 0.000000 -0.203746 0.000000 0.204254
#
#
# Mechanical properties :
#
#
# Convention : Reuss Voigt Hill
#
# Bulk Modulus (GPa) = 39.95334 63.09015 51.52174
# Shear Modulus (GPa) = -2.66386 13.84654 5.59134
#
# Velocity S-wave (km/s) = -1.18958 2.71212 1.72344
# Velocity P-wave (km/s) = 4.39742 6.58198 5.59731
#
# Compressibility (1/GPa) = 0.02502919
#
# Stress axis : x y z
#
# Youngs Moduli (GPa) = 36.60324 33.84965 100.37361
#
# Poissons Ratio (x) = 0.31464 0.18601
# Poissons Ratio (y) = 0.34023 0.97861
# Poissons Ratio (z) = 0.06783 0.33002
#
# Static dielectric constant tensor:
#      x y z
#    x 3.120730 0.000000 0.082870 
#    y 0.000000 3.330780 0.000000 
#    z 0.082870 0.000000 4.141430 
# 
# 
# High freq. dielectric constant tensor:
#      x y z
#    x 1.696720 0.000000 0.005230 
#    y 0.000000 1.711460 0.000000 
#    z 0.005230 0.000000 1.761070 
# 
# From -- ./inp_files/300889.got.cif
#   From: 2010.06.25/outbox.cif.g09.slc.cpg/sg12_151_cif.got.tgz:300889.got - 2010.06.28 00:19:55.
