data_PCOD8108696
_publ_section_title
;
Structure prediction by ZEFSAII (Michael W. Deem and Ramdas Pophale) SiO2 
 PCOD8108696
Probable space group: C 2/M
;
_chemical_formula_sum "Si O2"
_cell_formula_units_Z 56
_cell_length_a 13.644814
_cell_length_b 26.831285
_cell_length_c 10.977541
_cell_angle_alpha 90.000000
_cell_angle_beta 136.477212
_cell_angle_gamma 90.000000
_cell_volume 2767.631792
_symmetry_space_group_name_H-M "C 2/M"
_symmetry_group_IT_number 12
_symmetry_cell_setting 'monoclinic'
loop_
_space_group_symop_operation_xyz
x,y,z
-x,y,-z
-x,-y,-z
x,-y,z
1/2+x,1/2+y,z
1/2-x,1/2+y,-z
1/2-x,1/2-y,-z
1/2+x,1/2-y,z
loop_
_atom_site_type_symbol
_atom_site_label
_atom_site_fract_x
_atom_site_fract_y
_atom_site_fract_z
Si Si1 0.638431 0.441981 0.313850
Si Si2 0.237751 0.141560 0.558603
Si Si3 0.010089 0.783019 0.650353
Si Si4 0.682707 0.554825 0.940792
Si Si5 0.352984 0.092599 0.310251
Si Si6 0.468477 0.826971 0.251818
Si Si7 0.763318 0.645300 0.864385
O O1 0.686555 0.500000 0.364816
O O2 0.672253 0.413087 0.470995
O O3 0.471072 0.437545 0.133696
O O4 0.724004 0.411255 0.288720
O O5 0.124782 0.184956 0.427118
O O6 0.373739 0.150172 0.594811
O O7 0.287470 0.144540 0.742653
O O8 0.000000 0.769880 0.500000
O O9 0.021951 0.732330 0.735891
O O10 0.151100 0.813634 0.806128
O O11 0.691221 0.500000 0.891128
O O12 0.702629 0.591614 0.846369
O O13 0.807703 0.559919 0.152956
O O14 0.500000 0.071500 0.500000
O O15 0.376732 0.149367 0.280997
O O16 0.407951 0.842245 0.065335
#
# Coordination Sequence:
#
# PCOD8108696 Si02
#       7
#     8   8   8   8   8   8   8
#     4  11  23  40  63  90 123 161 203 252 305 360
#     4  11  22  40  61  90 122 160 200 250 296 364
#     4  10  21  38  64  88 117 158 204 249 302 355
#     4  10  22  40  63  87 119 162 202 250 306 357
#     4  11  22  39  61  91 124 155 202 252 300 363
#     4  11  22  40  62  87 124 162 197 249 306 362
#     4  10  22  40  61  89 124 154 203 251 299 358
#
# _framework density 20.233906000000001
#
# number of rings (size 3 to 8) (size 9 to 14) (size 15 to 20)
#    0.000    1.429    2.857    2.571    0.000    2.857 
#    0.000    1.429    3.143    2.571    0.000    0.000 
#    0.000    0.000    0.000    0.000    0.000    0.000 
#
# Total GULP energy -347185.481118 kJ/mol
# GULP energy per Si atom -12399.481469 kJ/mol
# Density = 2.018785 g / cm^3
# Si number density = 20.233906 Si / 1000 Ang^3
#
#
#
# Elastic Constant Matrix: (Units=GPa)
#
#
# Indices 1 2 3 4 5 6 
#
# 1 71.1113 54.3850 22.8300 0.0000 9.5758 0.0000
# 2 54.3850 149.6984 45.8973 0.0000 0.8471 0.0000
# 3 22.8300 45.8973 76.7649 0.0000 8.8037 0.0000
# 4 0.0000 0.0000 0.0000 26.4645 0.0000 -1.4314
# 5 9.5758 0.8471 8.8037 0.0000 26.4425 0.0000
# 6 0.0000 0.0000 0.0000 -1.4314 0.0000 2.2714
#
#
#
# Elastic Compliance Matrix: (Units=1/GPa)
#
#
# Indices 1 2 3 4 5 6 
#
# 1 0.020860 -0.007202 -0.001100 0.000000 -0.006957 0.000000
# 2 -0.007202 0.010718 -0.004706 0.000000 0.003831 0.000000
# 3 -0.001100 -0.004706 0.016744 0.000000 -0.005025 0.000000
# 4 0.000000 0.000000 0.000000 0.039120 0.000000 0.024653
# 5 -0.006957 0.003831 -0.005025 0.000000 0.041888 0.000000
# 6 0.000000 0.000000 0.000000 0.024653 0.000000 0.455798
#
#
# Mechanical properties :
#
#
# Convention : Reuss Voigt Hill
#
# Bulk Modulus (GPa) = 44.82945 60.42215 52.62580
# Shear Modulus (GPa) = 8.08306 22.66649 15.37478
#
# Velocity S-wave (km/s) = 2.00087 3.35060 2.75953
# Velocity P-wave (km/s) = 5.24802 6.70040 6.01818
#
# Compressibility (1/GPa) = 0.02230676
#
# Stress axis : x y z
#
# Youngs Moduli (GPa) = 47.93769 93.30491 59.72400
#
# Poissons Ratio (x) = 0.67197 0.06570
# Poissons Ratio (y) = 0.34524 0.28103
# Poissons Ratio (z) = 0.05273 0.43905
#
# Static dielectric constant tensor:
#      x y z
#    x 3.506590 0.000000 0.155230 
#    y 0.000000 3.642060 0.000000 
#    z 0.155230 0.000000 3.786870 
# 
# 
# High freq. dielectric constant tensor:
#      x y z
#    x 1.780620 0.000000 0.009860 
#    y 0.000000 1.790550 0.000000 
#    z 0.009860 0.000000 1.801400 
# 
# From -- ./inp_files/149513.got.cif
#   From: 2010.06.25/outbox.cif.g09.slc.cpg/sg12_75_cif.got.tgz:149513.got - 2010.06.28 00:19:55.
