data_PCOD8108952
_publ_section_title
;
Structure prediction by ZEFSAII (Michael W. Deem and Ramdas Pophale) SiO2 
 PCOD8108952
Probable space group: C 2/M
;
_chemical_formula_sum "Si O2"
_cell_formula_units_Z 40
_cell_length_a 10.307580
_cell_length_b 15.349041
_cell_length_c 18.627904
_cell_angle_alpha 90.000000
_cell_angle_beta 135.467525
_cell_angle_gamma 90.000000
_cell_volume 2066.874467
_symmetry_space_group_name_H-M "C 2/M"
_symmetry_group_IT_number 12
_symmetry_cell_setting 'monoclinic'
loop_
_space_group_symop_operation_xyz
x,y,z
-x,y,-z
-x,-y,-z
x,-y,z
1/2+x,1/2+y,z
1/2-x,1/2+y,-z
1/2-x,1/2-y,-z
1/2+x,1/2-y,z
loop_
_atom_site_type_symbol
_atom_site_label
_atom_site_fract_x
_atom_site_fract_y
_atom_site_fract_z
Si Si1 0.058695 0.903255 0.247586
Si Si2 0.106881 0.598883 0.259536
Si Si3 0.829369 0.738458 0.380574
Si Si4 0.153641 0.653083 0.117578
Si Si5 0.275013 0.830941 0.212375
O O1 0.840648 0.896419 0.171192
O O2 0.166702 0.830754 0.338285
O O3 0.111904 0.888399 0.184449
O O4 0.121553 0.000000 0.296212
O O5 0.177526 0.500000 0.296289
O O6 0.253638 0.662921 0.355656
O O7 0.081757 0.623768 0.166845
O O8 0.907737 0.608137 0.218348
O O9 0.889958 0.717164 0.322374
O O10 0.000000 0.725697 0.500000
O O11 0.185430 0.756991 0.126749
O O12 0.000000 0.625323 0.000000
#
# Coordination Sequence:
#
# PCOD8108952 Si02
#       5
#     8   8   8   8   8
#     4  10  21  39  60  88 120 155 202 243 288 356
#     4  11  22  39  61  91 123 153 199 252 294 347
#     4   9  21  40  64  86 122 161 200 236 299 352
#     4  11  22  41  64  86 119 162 199 241 304 360
#     4   9  20  40  61  88 117 158 195 250 288 348
#
# _framework density 19.352893000000002
#
# number of rings (size 3 to 8) (size 9 to 14) (size 15 to 20)
#    1.200    0.800    2.000    1.200    0.000    6.400 
#    0.000    0.000    0.000    3.600    0.000    0.000 
#    0.000    0.000    0.000    0.000    0.000    0.000 
#
# Total GULP energy -247877.576203 kJ/mol
# GULP energy per Si atom -12393.878810 kJ/mol
# Density = 1.930884 g / cm^3
# Si number density = 19.352893 Si / 1000 Ang^3
#
#
#
# Elastic Constant Matrix: (Units=GPa)
#
#
# Indices 1 2 3 4 5 6 
#
# 1 108.1599 11.4779 32.9997 0.0000 1.7540 0.0000
# 2 11.4779 147.9779 39.3792 0.0000 8.4243 0.0000
# 3 32.9997 39.3792 100.4635 0.0000 11.8043 0.0000
# 4 0.0000 0.0000 0.0000 7.3583 0.0000 4.4594
# 5 1.7540 8.4243 11.8043 0.0000 16.7939 0.0000
# 6 0.0000 0.0000 0.0000 4.4594 0.0000 24.2746
#
#
#
# Elastic Compliance Matrix: (Units=1/GPa)
#
#
# Indices 1 2 3 4 5 6 
#
# 1 0.010307 0.000073 -0.003579 0.000000 0.001403 0.000000
# 2 0.000073 0.007599 -0.002784 0.000000 -0.001863 0.000000
# 3 -0.003579 -0.002784 0.013094 0.000000 -0.007434 0.000000
# 4 0.000000 0.000000 0.000000 0.152925 0.000000 -0.028093
# 5 0.001403 -0.001863 -0.007434 0.000000 0.065558 0.000000
# 6 0.000000 0.000000 0.000000 -0.028093 0.000000 0.046356
#
#
# Mechanical properties :
#
#
# Convention : Reuss Voigt Hill
#
# Bulk Modulus (GPa) = 54.28670 58.25722 56.27196
# Shear Modulus (GPa) = 15.89524 27.86834 21.88179
#
# Velocity S-wave (km/s) = 2.86901 3.79886 3.36620
# Velocity P-wave (km/s) = 6.25194 7.02921 6.65194
#
# Compressibility (1/GPa) = 0.01842072
#
# Stress axis : x y z
#
# Youngs Moduli (GPa) = 97.02105 131.59741 76.37037
#
# Poissons Ratio (x) = -0.00962 0.27333
# Poissons Ratio (y) = -0.00710 0.21259
# Poissons Ratio (z) = 0.34724 0.36633
#
# Static dielectric constant tensor:
#      x y z
#    x 3.544270 0.000000 -0.037650 
#    y 0.000000 3.580020 0.000000 
#    z -0.037650 0.000000 3.067600 
# 
# 
# High freq. dielectric constant tensor:
#      x y z
#    x 1.763040 0.000000 0.001600 
#    y 0.000000 1.761310 0.000000 
#    z 0.001600 0.000000 1.710080 
# 
# From -- ./inp_files/256779.got.cif
#   From: 2010.06.25/outbox.cif.g09.slc.cpg/sg12_129_cif.got.tgz:256779.got - 2010.06.28 00:19:55.
