data_PCOD8108698
_publ_section_title
;
Structure prediction by ZEFSAII (Michael W. Deem and Ramdas Pophale) SiO2 
 PCOD8108698
Probable space group: C 2/M
;
_chemical_formula_sum "Si O2"
_cell_formula_units_Z 48
_cell_length_a 17.581373
_cell_length_b 14.713752
_cell_length_c 17.914742
_cell_angle_alpha 90.000000
_cell_angle_beta 149.445295
_cell_angle_gamma 90.000000
_cell_volume 2355.910740
_symmetry_space_group_name_H-M "C 2/M"
_symmetry_group_IT_number 12
_symmetry_cell_setting 'monoclinic'
loop_
_space_group_symop_operation_xyz
x,y,z
-x,y,-z
-x,-y,-z
x,-y,z
1/2+x,1/2+y,z
1/2-x,1/2+y,-z
1/2-x,1/2-y,-z
1/2+x,1/2-y,z
loop_
_atom_site_type_symbol
_atom_site_label
_atom_site_fract_x
_atom_site_fract_y
_atom_site_fract_z
Si Si1 0.159538 0.260776 0.108684
Si Si2 0.804557 0.844915 0.514539
Si Si3 0.238458 0.105119 0.073035
Si Si4 0.647254 0.394312 0.827800
Si Si5 0.940490 0.401363 0.594738
Si Si6 0.647409 0.258863 0.588778
O O1 0.136666 0.171844 0.037257
O O2 0.254608 0.338862 0.148529
O O3 0.238882 0.228855 0.251622
O O4 0.000000 0.300045 0.000000
O O5 0.750000 0.750000 0.500000
O O6 0.691009 0.916546 0.454775
O O7 0.787492 0.837677 0.410298
O O8 0.974748 0.864932 0.680550
O O9 0.410113 0.130685 0.236266
O O10 0.199650 0.000000 0.058380
O O11 0.210646 0.126793 0.963198
O O12 0.661770 0.500000 0.819509
O O13 0.966688 0.500000 0.579566
O O14 0.897679 0.331343 0.494586
O O15 0.500000 0.302490 0.500000
#
# Coordination Sequence:
#
# PCOD8108698 Si02
#       6
#     8   8   8   8   8   8
#     4  12  26  40  63  91 126 170 209 258 323 372
#     4  10  21  38  64  89 119 158 205 253 304 369
#     4  10  23  42  64  93 127 166 211 259 313 377
#     4  11  24  44  65  91 128 168 215 260 306 371
#     4  10  21  38  64  91 120 160 203 254 311 371
#     4  11  21  40  59  89 122 157 207 255 310 376
#
# _framework density 20.374286999999999
#
# number of rings (size 3 to 8) (size 9 to 14) (size 15 to 20)
#    0.000    1.333    3.333    2.000    7.000    1.667 
#    0.000    2.500    0.000    0.000    0.000    0.000 
#    0.000    0.000    0.000    0.000    0.000    0.000 
#
# Total GULP energy -297507.313244 kJ/mol
# GULP energy per Si atom -12396.138052 kJ/mol
# Density = 2.032791 g / cm^3
# Si number density = 20.374287 Si / 1000 Ang^3
#
#
#
# Elastic Constant Matrix: (Units=GPa)
#
#
# Indices 1 2 3 4 5 6 
#
# 1 122.7984 39.8008 52.8955 -0.0002 1.5806 -0.0005
# 2 39.8008 89.5778 41.1280 0.0017 -8.7551 0.0002
# 3 52.8955 41.1280 106.7023 0.0030 -7.5686 0.0013
# 4 -0.0002 0.0017 0.0030 24.7814 0.0023 1.4007
# 5 1.5806 -8.7551 -7.5686 0.0023 46.2484 0.0005
# 6 -0.0005 0.0002 0.0013 1.4007 0.0005 11.4868
#
#
#
# Elastic Compliance Matrix: (Units=1/GPa)
#
#
# Indices 1 2 3 4 5 6 
#
# 1 0.011059 -0.003045 -0.004428 0.000001 -0.001679 0.000001
# 2 -0.003045 0.014541 -0.003938 -0.000001 0.002212 0.000000
# 3 -0.004428 -0.003938 0.013196 -0.000001 0.001565 -0.000002
# 4 0.000001 -0.000001 -0.000001 0.040633 -0.000002 -0.004955
# 5 -0.001679 0.002212 0.001565 -0.000002 0.022355 -0.000001
# 6 0.000001 0.000000 -0.000002 -0.004955 -0.000001 0.087661
#
#
# Mechanical properties :
#
#
# Convention : Reuss Voigt Hill
#
# Bulk Modulus (GPa) = 62.60252 65.19192 63.89722
# Shear Modulus (GPa) = 22.97888 28.85358 25.91623
#
# Velocity S-wave (km/s) = 3.36197 3.76729 3.57039
# Velocity P-wave (km/s) = 6.77225 7.14073 6.95893
#
# Compressibility (1/GPa) = 0.01597380
#
# Stress axis : x y z
#
# Youngs Moduli (GPa) = 90.42207 68.77186 75.78093
#
# Poissons Ratio (x) = 0.20941 0.33555
# Poissons Ratio (y) = 0.27533 0.29845
# Poissons Ratio (z) = 0.40037 0.27085
#
# Static dielectric constant tensor:
#      x y z
#    x 4.853580 -0.000270 0.593450 
#    y -0.000270 4.010480 -0.000250 
#    z 0.593450 -0.000250 4.352340 
# 
# 
# High freq. dielectric constant tensor:
#      x y z
#    x 1.805360 0.000000 -0.000190 
#    y 0.000000 1.792190 0.000000 
#    z -0.000190 0.000000 1.801070 
# 
# From -- ./inp_files/105062.got.cif
#   From: 2010.06.25/outbox.cif.g09.slc.cpg/sg12_53_cif.got.tgz:105062.got - 2010.06.28 00:19:55.
