data_PCOD8108941
_publ_section_title
;
Structure prediction by ZEFSAII (Michael W. Deem and Ramdas Pophale) SiO2 
 PCOD8108941
Probable space group: C 2/M
;
_chemical_formula_sum "Si O2"
_cell_formula_units_Z 56
_cell_length_a 19.907455
_cell_length_b 8.886701
_cell_length_c 19.334853
_cell_angle_alpha 90.000000
_cell_angle_beta 57.734214
_cell_angle_gamma 90.000000
_cell_volume 2892.359575
_symmetry_space_group_name_H-M "C 2/M"
_symmetry_group_IT_number 12
_symmetry_cell_setting 'monoclinic'
loop_
_space_group_symop_operation_xyz
x,y,z
-x,y,-z
-x,-y,-z
x,-y,z
1/2+x,1/2+y,z
1/2-x,1/2+y,-z
1/2-x,1/2-y,-z
1/2+x,1/2-y,z
loop_
_atom_site_type_symbol
_atom_site_label
_atom_site_fract_x
_atom_site_fract_y
_atom_site_fract_z
Si Si1 0.877381 0.822029 0.740571
Si Si2 0.085804 0.178925 0.432617
Si Si3 0.641716 0.174159 0.751107
Si Si4 0.959281 0.325272 0.818558
Si Si5 0.169887 0.827134 0.018648
Si Si6 0.286845 0.327978 0.157053
Si Si7 0.763325 0.822389 0.566525
O O1 0.891617 0.761267 0.655509
O O2 0.943378 0.749729 0.753360
O O3 0.790874 0.771929 0.812730
O O4 0.884591 0.000000 0.741001
O O5 0.152115 0.234960 0.450311
O O6 0.000000 0.246022 0.500000
O O7 0.083409 0.000000 0.433460
O O8 0.550690 0.203257 0.784434
O O9 0.661997 0.269986 0.807199
O O10 0.694384 0.228788 0.657265
O O11 0.660380 0.000000 0.756916
O O12 0.937755 0.500000 0.826378
O O13 0.906805 0.251826 0.907248
O O14 0.171860 0.000000 0.041889
O O15 0.250000 0.750000 0.000000
O O16 0.160725 0.813996 0.940984
O O17 0.261314 0.500000 0.184299
O O18 0.750000 0.750000 0.500000
O O19 0.762644 0.000000 0.557517
#
# Coordination Sequence:
#
# PCOD8108941 Si02
#       7
#     8   8   8   8   8   8   8
#     4  11  21  37  63  88 119 162 202 244 301 360
#     4   9  19  36  59  88 119 152 197 247 294 354
#     4  10  23  43  62  84 122 166 202 243 303 364
#     4  11  24  40  60  89 123 158 204 254 296 354
#     4  11  23  39  61  90 123 158 197 250 306 356
#     4  11  23  39  63  90 119 154 200 252 298 355
#     4  10  21  39  60  85 120 157 196 244 299 360
#
# _framework density 19.361353999999999
#
# number of rings (size 3 to 8) (size 9 to 14) (size 15 to 20)
#    0.000    1.571    2.857    1.714    2.000    4.000 
#    0.000    2.857    0.000    2.143    0.000    0.000 
#    0.000    0.000    0.000    0.000    0.000    0.000 
#
# Total GULP energy -347307.769173 kJ/mol
# GULP energy per Si atom -12403.848899 kJ/mol
# Density = 1.931729 g / cm^3
# Si number density = 19.361354 Si / 1000 Ang^3
#
#
#
# Elastic Constant Matrix: (Units=GPa)
#
#
# Indices 1 2 3 4 5 6 
#
# 1 125.6063 58.3538 76.3497 -0.0001 3.1963 0.0003
# 2 58.3538 89.0181 47.7817 0.0000 6.3339 0.0013
# 3 76.3497 47.7817 137.4483 0.0000 7.3742 -0.0001
# 4 -0.0001 0.0000 0.0000 30.2295 -0.0001 7.2384
# 5 3.1963 6.3339 7.3742 -0.0001 41.6637 0.0001
# 6 0.0003 0.0013 -0.0001 7.2384 0.0001 29.2500
#
#
#
# Elastic Compliance Matrix: (Units=1/GPa)
#
#
# Indices 1 2 3 4 5 6 
#
# 1 0.014480 -0.006409 -0.005864 0.000000 0.000901 0.000000
# 2 -0.006409 0.016713 -0.002161 0.000000 -0.001667 -0.000001
# 3 -0.005864 -0.002161 0.011350 0.000000 -0.001231 0.000000
# 4 0.000000 0.000000 0.000000 0.035164 0.000000 -0.008702
# 5 0.000901 -0.001667 -0.001231 0.000000 0.024404 0.000000
# 6 0.000000 -0.000001 0.000000 -0.008702 0.000000 0.036342
#
#
# Mechanical properties :
#
#
# Convention : Reuss Voigt Hill
#
# Bulk Modulus (GPa) = 73.11806 79.67146 76.39476
# Shear Modulus (GPa) = 29.09039 31.53445 30.31242
#
# Velocity S-wave (km/s) = 3.88041 4.04013 3.96108
# Velocity P-wave (km/s) = 7.61076 7.93742 7.77581
#
# Compressibility (1/GPa) = 0.01367651
#
# Stress axis : x y z
#
# Youngs Moduli (GPa) = 69.05986 59.83301 88.10657
#
# Poissons Ratio (x) = 0.38346 0.51665
# Poissons Ratio (y) = 0.44259 0.19037
# Poissons Ratio (z) = 0.40496 0.12928
#
# Static dielectric constant tensor:
#      x y z
#    x 3.549060 0.000000 -0.210960 
#    y 0.000000 3.483150 0.000000 
#    z -0.210960 0.000000 2.998870 
# 
# 
# High freq. dielectric constant tensor:
#      x y z
#    x 1.759560 0.000000 0.004880 
#    y 0.000000 1.745850 0.000000 
#    z 0.004880 0.000000 1.767090 
# 
# From -- ./inp_files/281029.got.cif
#   From: 2010.06.25/outbox.cif.g09.slc.cpg/sg12_141_cif.got.tgz:281029.got - 2010.06.28 00:19:55.
