data_PCOD8108030
_publ_section_title
;
Structure prediction by ZEFSAII (Michael W. Deem and Ramdas Pophale) SiO2 
 PCOD8108030
Probable space group: C 2/M
;
_chemical_formula_sum "Si O2"
_cell_formula_units_Z 40
_cell_length_a 24.107553
_cell_length_b 9.344911
_cell_length_c 9.430972
_cell_angle_alpha 90.000000
_cell_angle_beta 102.718984
_cell_angle_gamma 90.000000
_cell_volume 2072.501981
_symmetry_space_group_name_H-M "C 2/M"
_symmetry_group_IT_number 12
_symmetry_cell_setting 'monoclinic'
loop_
_space_group_symop_operation_xyz
x,y,z
-x,y,-z
-x,-y,-z
x,-y,z
1/2+x,1/2+y,z
1/2-x,1/2+y,-z
1/2-x,1/2-y,-z
1/2+x,1/2-y,z
loop_
_atom_site_type_symbol
_atom_site_label
_atom_site_fract_x
_atom_site_fract_y
_atom_site_fract_z
Si Si1 0.082672 0.330003 0.905707
Si Si2 0.497107 0.336186 0.661990
Si Si3 0.706544 0.838544 0.885403
Si Si4 0.604689 0.335393 0.195918
Si Si5 0.228142 0.837438 0.356777
O O1 0.075117 0.500000 0.914622
O O2 0.035629 0.269045 0.774657
O O3 0.142849 0.283461 0.872664
O O4 0.076372 0.260214 0.057221
O O5 0.500000 0.288071 0.500000
O O6 0.518400 0.500000 0.690620
O O7 0.432649 0.321021 0.682557
O O8 0.722142 0.824158 0.730085
O O9 0.712088 0.000000 0.942567
O O10 0.750000 0.750000 0.000000
O O11 0.606861 0.500000 0.144459
O O12 0.668138 0.277237 0.264005
O O13 0.250000 0.750000 0.500000
O O14 0.218390 0.000000 0.399954
#
# Coordination Sequence:
#
# PCOD8108030 Si02
#       5
#     8   8   8   8   8
#     4  11  23  38  60  89 117 150 189 235 289 342
#     4  10  23  41  61  85 113 151 196 238 283 338
#     4  10  21  38  59  86 117 149 189 232 282 341
#     4  10  21  40  62  84 113 153 197 236 279 337
#     4  10  22  38  58  86 118 150 188 236 285 338
#
# _framework density 19.300345
#
# number of rings (size 3 to 8) (size 9 to 14) (size 15 to 20)
#    0.000    1.800    2.000    1.200    2.800    6.000 
#    0.000    0.000    0.000    0.000    0.000    0.000 
#    0.000    0.000    0.000    0.000    0.000    0.000 
#
# Total GULP energy -248068.604633 kJ/mol
# GULP energy per Si atom -12403.430232 kJ/mol
# Density = 1.925642 g / cm^3
# Si number density = 19.300345 Si / 1000 Ang^3
#
#
#
# Elastic Constant Matrix: (Units=GPa)
#
#
# Indices 1 2 3 4 5 6 
#
# 1 88.9352 26.8322 38.0328 0.0000 -8.1888 0.0000
# 2 26.8322 70.7658 51.6227 0.0000 7.5285 0.0000
# 3 38.0328 51.6227 124.6208 0.0000 2.4435 0.0000
# 4 0.0000 0.0000 0.0000 37.3110 0.0000 6.3027
# 5 -8.1888 7.5285 2.4435 0.0000 35.7399 0.0000
# 6 0.0000 0.0000 0.0000 6.3027 0.0000 31.2884
#
#
#
# Elastic Compliance Matrix: (Units=1/GPa)
#
#
# Indices 1 2 3 4 5 6 
#
# 1 0.013939 -0.003676 -0.002813 0.000000 0.004160 0.000000
# 2 -0.003676 0.021720 -0.007779 0.000000 -0.004886 0.000000
# 3 -0.002813 -0.007779 0.012102 0.000000 0.000167 0.000000
# 4 0.000000 0.000000 0.000000 0.027746 0.000000 -0.005589
# 5 0.004160 -0.004886 0.000167 0.000000 0.029951 0.000000
# 6 0.000000 0.000000 0.000000 -0.005589 0.000000 0.033087
#
#
# Mechanical properties :
#
#
# Convention : Reuss Voigt Hill
#
# Bulk Modulus (GPa) = 52.01750 57.47747 54.74749
# Shear Modulus (GPa) = 28.82025 32.05680 30.43852
#
# Velocity S-wave (km/s) = 3.86845 4.07989 3.97558
# Velocity P-wave (km/s) = 6.85298 7.21382 7.03571
#
# Compressibility (1/GPa) = 0.01922430
#
# Stress axis : x y z
#
# Youngs Moduli (GPa) = 71.74010 46.04122 82.63022
#
# Poissons Ratio (x) = 0.16924 0.23244
# Poissons Ratio (y) = 0.26371 0.64282
# Poissons Ratio (z) = 0.20180 0.35818
#
# Static dielectric constant tensor:
#      x y z
#    x 4.686380 0.000000 -0.036450 
#    y 0.000000 3.209200 0.000000 
#    z -0.036450 0.000000 3.683350 
# 
# 
# High freq. dielectric constant tensor:
#      x y z
#    x 1.765080 0.000000 -0.010960 
#    y 0.000000 1.747420 0.000000 
#    z -0.010960 0.000000 1.749550 
# 
# From -- ./inp_files/92712.got.cif
#   From: 2010.06.25/outbox.cif.g09.slc.cpg/sg12_47_cif.got.tgz:92712.got - 2010.06.28 00:19:55.
