data_PCOD8108990
_publ_section_title
;
Structure prediction by ZEFSAII (Michael W. Deem and Ramdas Pophale) SiO2 
 PCOD8108990
Probable space group: C 2/M
;
_chemical_formula_sum "Si O2"
_cell_formula_units_Z 56
_cell_length_a 25.137339
_cell_length_b 8.973174
_cell_length_c 18.177623
_cell_angle_alpha 90.000000
_cell_angle_beta 137.226437
_cell_angle_gamma 90.000000
_cell_volume 2784.440407
_symmetry_space_group_name_H-M "C 2/M"
_symmetry_group_IT_number 12
_symmetry_cell_setting 'monoclinic'
loop_
_space_group_symop_operation_xyz
x,y,z
-x,y,-z
-x,-y,-z
x,-y,z
1/2+x,1/2+y,z
1/2-x,1/2+y,-z
1/2-x,1/2-y,-z
1/2+x,1/2-y,z
loop_
_atom_site_type_symbol
_atom_site_label
_atom_site_fract_x
_atom_site_fract_y
_atom_site_fract_z
Si Si1 0.649142 0.825160 0.077513
Si Si2 0.027333 0.824271 0.851947
Si Si3 0.391583 0.169924 0.801050
Si Si4 0.464968 0.329392 0.307781
Si Si5 0.173504 0.170714 0.731233
Si Si6 0.103241 0.323704 0.520695
Si Si7 0.731540 0.328175 0.556640
O O1 0.606651 0.785666 0.111409
O O2 0.738773 0.768739 0.167486
O O3 0.645873 0.000000 0.059147
O O4 0.604048 0.742750 0.967166
O O5 0.026363 0.769645 0.766573
O O6 0.948293 0.774279 0.812132
O O7 0.033392 0.000000 0.862696
O O8 0.302708 0.190801 0.685225
O O9 0.419701 0.000000 0.818487
O O10 0.494082 0.500000 0.343097
O O11 0.374311 0.317259 0.240983
O O12 0.515149 0.228725 0.414461
O O13 0.129702 0.270103 0.627145
O O14 0.176618 0.000000 0.705400
O O15 0.108495 0.500000 0.522357
O O16 0.156198 0.252800 0.511473
O O17 0.711501 0.500000 0.521951
O O18 0.750000 0.250000 0.500000
#
# Coordination Sequence:
#
# PCOD8108990 Si02
#       7
#     8   8   8   8   8   8   8
#     4  10  21  40  64  88 115 156 205 248 298 364
#     4  11  24  39  58  90 124 156 197 250 304 355
#     4  10  21  39  61  85 116 157 203 243 290 360
#     4  10  23  42  63  86 120 163 205 248 303 367
#     4  10  21  42  67  88 115 161 208 248 301 366
#     4  12  24  38  60  92 126 158 199 251 305 360
#     4  11  22  38  60  89 124 162 203 247 300 361
#
# _framework density 20.111761000000001
#
# number of rings (size 3 to 8) (size 9 to 14) (size 15 to 20)
#    0.000    1.429    1.429    3.857    0.000   10.286 
#    0.000    0.000    0.000    0.000    0.000    0.000 
#    0.000    0.000    0.000    0.000    0.000    0.000 
#
# Total GULP energy -347348.517885 kJ/mol
# GULP energy per Si atom -12405.304210 kJ/mol
# Density = 2.006599 g / cm^3
# Si number density = 20.111761 Si / 1000 Ang^3
#
#
#
# Elastic Constant Matrix: (Units=GPa)
#
#
# Indices 1 2 3 4 5 6 
#
# 1 104.4689 32.6789 22.0689 0.0000 10.8375 0.0000
# 2 32.6789 93.5866 37.8647 0.0000 -0.1579 0.0000
# 3 22.0689 37.8647 71.9952 0.0000 5.7736 0.0000
# 4 0.0000 0.0000 0.0000 33.9680 0.0000 -1.5664
# 5 10.8375 -0.1579 5.7736 0.0000 26.1911 0.0000
# 6 0.0000 0.0000 0.0000 -1.5664 0.0000 28.1751
#
#
#
# Elastic Compliance Matrix: (Units=1/GPa)
#
#
# Indices 1 2 3 4 5 6 
#
# 1 0.011392 -0.003451 -0.001321 0.000000 -0.004443 0.000000
# 2 -0.003451 0.014693 -0.006913 0.000000 0.003041 0.000000
# 3 -0.001321 -0.006913 0.018212 0.000000 -0.003510 0.000000
# 4 0.000000 0.000000 0.000000 0.029515 0.000000 0.001641
# 5 -0.004443 0.003041 -0.003510 0.000000 0.040812 0.000000
# 6 0.000000 0.000000 0.000000 0.001641 0.000000 0.035584
#
#
# Mechanical properties :
#
#
# Convention : Reuss Voigt Hill
#
# Bulk Modulus (GPa) = 47.78634 50.58620 49.18627
# Shear Modulus (GPa) = 27.69290 29.49605 28.59447
#
# Velocity S-wave (km/s) = 3.71475 3.83379 3.77474
# Velocity P-wave (km/s) = 6.49701 6.69361 6.59604
#
# Compressibility (1/GPa) = 0.02092648
#
# Stress axis : x y z
#
# Youngs Moduli (GPa) = 87.78357 68.06186 54.90876
#
# Poissons Ratio (x) = 0.23488 0.07251
# Poissons Ratio (y) = 0.30294 0.37960
# Poissons Ratio (z) = 0.11593 0.47053
#
# Static dielectric constant tensor:
#      x y z
#    x 3.763100 0.000000 0.040560 
#    y 0.000000 3.541870 0.000000 
#    z 0.040560 0.000000 3.785480 
# 
# 
# High freq. dielectric constant tensor:
#      x y z
#    x 1.799880 0.000000 0.003090 
#    y 0.000000 1.777820 0.000000 
#    z 0.003090 0.000000 1.788970 
# 
# From -- ./inp_files/288378.got.cif
#   From: 2010.06.25/outbox.cif.g09.slc.cpg/sg12_145_cif.got.tgz:288378.got - 2010.06.28 00:19:55.
