data_PCOD8108560
_publ_section_title
;
Structure prediction by ZEFSAII (Michael W. Deem and Ramdas Pophale) SiO2 
 PCOD8108560
Probable space group: C 2/M
;
_chemical_formula_sum "Si O2"
_cell_formula_units_Z 56
_cell_length_a 16.712885
_cell_length_b 17.207265
_cell_length_c 9.518863
_cell_angle_alpha 90.000000
_cell_angle_beta 99.386989
_cell_angle_gamma 90.000000
_cell_volume 2700.806811
_symmetry_space_group_name_H-M "C 2/M"
_symmetry_group_IT_number 12
_symmetry_cell_setting 'monoclinic'
loop_
_space_group_symop_operation_xyz
x,y,z
-x,y,-z
-x,-y,-z
x,-y,z
1/2+x,1/2+y,z
1/2-x,1/2+y,-z
1/2-x,1/2-y,-z
1/2+x,1/2-y,z
loop_
_atom_site_type_symbol
_atom_site_label
_atom_site_fract_x
_atom_site_fract_y
_atom_site_fract_z
Si Si1 0.335613 0.089263 0.260589
Si Si2 0.012292 0.643579 0.842427
Si Si3 0.954878 0.910682 0.132898
Si Si4 0.225066 0.907968 0.984077
Si Si5 0.677201 0.806903 0.472240
Si Si6 0.165482 0.411630 0.230288
Si Si7 0.022037 0.782617 0.346082
O O1 0.411020 0.089096 0.171414
O O2 0.349423 0.151361 0.389938
O O3 0.328326 0.000000 0.314845
O O4 0.254629 0.114473 0.150429
O O5 0.930985 0.597246 0.781092
O O6 0.030424 0.719852 0.754646
O O7 0.000000 0.668185 0.000000
O O8 0.864053 0.875498 0.082789
O O9 0.007524 0.864451 0.264011
O O10 0.951289 0.000000 0.182979
O O11 0.000000 0.903212 0.000000
O O12 0.292877 0.873833 0.896058
O O13 0.220893 0.000000 0.976057
O O14 0.750000 0.750000 0.500000
O O15 0.706552 0.874889 0.378324
O O16 0.611375 0.753397 0.374436
O O17 0.190526 0.500000 0.238300
O O18 0.000000 0.794590 0.500000
#
# Coordination Sequence:
#
# PCOD8108560 Si02
#       7
#     8   8   8   8   8   8   8
#     4  11  22  40  67  97 128 168 214 263 316 386
#     4  11  21  38  62  97 134 170 204 253 323 388
#     4  10  23  44  68  92 121 165 221 277 326 373
#     4   9  20  38  63  94 122 155 208 266 315 369
#     4  11  26  43  60  90 127 170 210 261 320 382
#     4  10  21  38  62  91 126 165 205 254 313 384
#     4  11  24  43  62  88 130 166 211 260 315 386
#
# _framework density 20.734544
#
# number of rings (size 3 to 8) (size 9 to 14) (size 15 to 20)
#    0.000    1.571    2.857    1.286    4.000    0.857 
#    0.000    4.286    0.000    0.000    0.000    0.000 
#    0.000    0.000    0.000    0.000    0.000    0.000 
#
# Total GULP energy -346909.579003 kJ/mol
# GULP energy per Si atom -12389.627822 kJ/mol
# Density = 2.068735 g / cm^3
# Si number density = 20.734544 Si / 1000 Ang^3
#
#
#
# Elastic Constant Matrix: (Units=GPa)
#
#
# Indices 1 2 3 4 5 6 
#
# 1 86.8403 38.0582 30.7337 0.0000 7.9911 0.0000
# 2 38.0582 88.9557 61.1065 0.0000 6.1863 0.0000
# 3 30.7337 61.1065 131.1794 0.0000 5.5182 0.0000
# 4 0.0000 0.0000 0.0000 18.1963 0.0000 -4.1560
# 5 7.9911 6.1863 5.5182 0.0000 28.5238 0.0000
# 6 0.0000 0.0000 0.0000 -4.1560 0.0000 12.9303
#
#
#
# Elastic Compliance Matrix: (Units=1/GPa)
#
#
# Indices 1 2 3 4 5 6 
#
# 1 0.014424 -0.005499 -0.000704 0.000000 -0.002712 0.000000
# 2 -0.005499 0.018755 -0.007402 0.000000 -0.001095 0.000000
# 3 -0.000704 -0.007402 0.011252 0.000000 -0.000374 0.000000
# 4 0.000000 0.000000 0.000000 0.059310 0.000000 0.019063
# 5 -0.002712 -0.001095 -0.000374 0.000000 0.036128 0.000000
# 6 0.000000 0.000000 0.000000 0.019063 0.000000 0.083465
#
#
# Mechanical properties :
#
#
# Convention : Reuss Voigt Hill
#
# Bulk Modulus (GPa) = 58.06801 62.97470 60.52136
# Shear Modulus (GPa) = 19.50955 23.73520 21.62237
#
# Velocity S-wave (km/s) = 3.07077 3.38704 3.23277
# Velocity P-wave (km/s) = 6.37488 6.76268 6.57164
#
# Compressibility (1/GPa) = 0.01722119
#
# Stress axis : x y z
#
# Youngs Moduli (GPa) = 69.32894 53.31859 88.87406
#
# Poissons Ratio (x) = 0.29320 0.06254
# Poissons Ratio (y) = 0.38124 0.65786
# Poissons Ratio (z) = 0.04879 0.39467
#
# Static dielectric constant tensor:
#      x y z
#    x 4.012340 0.000000 0.191940 
#    y 0.000000 3.660220 0.000000 
#    z 0.191940 0.000000 4.107550 
# 
# 
# High freq. dielectric constant tensor:
#      x y z
#    x 1.809910 0.000000 0.000010 
#    y 0.000000 1.798750 0.000000 
#    z 0.000010 0.000000 1.818870 
# 
# From -- ./inp_files/76012.got.cif
#   From: 2010.06.25/outbox.cif.g09.slc.cpg/sg12_39_cif.got.tgz:76012.got - 2010.06.28 00:19:55.
