data_PCOD8108732
_publ_section_title
;
Structure prediction by ZEFSAII (Michael W. Deem and Ramdas Pophale) SiO2 
 PCOD8108732
Probable space group: C 2/M
;
_chemical_formula_sum "Si O2"
_cell_formula_units_Z 48
_cell_length_a 10.018367
_cell_length_b 18.385094
_cell_length_c 20.169138
_cell_angle_alpha 90.000000
_cell_angle_beta 142.098184
_cell_angle_gamma 90.000000
_cell_volume 2282.116771
_symmetry_space_group_name_H-M "C 2/M"
_symmetry_group_IT_number 12
_symmetry_cell_setting 'monoclinic'
loop_
_space_group_symop_operation_xyz
x,y,z
-x,y,-z
-x,-y,-z
x,-y,z
1/2+x,1/2+y,z
1/2-x,1/2+y,-z
1/2-x,1/2-y,-z
1/2+x,1/2-y,z
loop_
_atom_site_type_symbol
_atom_site_label
_atom_site_fract_x
_atom_site_fract_y
_atom_site_fract_z
Si Si1 0.540123 0.820889 0.194593
Si Si2 0.303602 0.223315 0.876605
Si Si3 0.237319 0.416029 0.584149
Si Si4 0.066971 0.914943 0.601701
Si Si5 0.582337 0.581979 0.827657
Si Si6 0.657145 0.583015 0.005009
O O1 0.640755 0.766970 0.178934
O O2 0.412541 0.770354 0.196258
O O3 0.716646 0.868417 0.302171
O O4 0.380016 0.873382 0.091427
O O5 0.264454 0.137680 0.874391
O O6 0.500000 0.251056 0.000000
O O7 0.199179 0.500000 0.552849
O O8 0.379058 0.385074 0.577911
O O9 0.359445 0.403454 0.701333
O O10 0.000000 0.378023 0.500000
O O11 0.000000 0.902201 0.500000
O O12 0.116015 0.000000 0.635118
O O13 0.667770 0.500000 0.846350
O O14 0.535038 0.592241 0.887054
O O15 0.714529 0.500000 0.043441
O O16 0.500000 0.615029 0.000000
#
# Coordination Sequence:
#
# PCOD8108732 Si02
#       6
#     8   8   8   8   8   8
#     4  12  25  42  63  91 130 175 217 259 322 390
#     4  12  25  42  64  93 130 176 215 265 323 383
#     4   9  18  36  63  93 123 156 202 262 322 380
#     4  10  22  43  69  99 128 162 212 270 326 379
#     4  10  21  38  64  95 124 162 219 270 322 380
#     4  10  22  38  61  95 131 166 212 271 326 382
#
# _framework density 21.033104999999999
#
# number of rings (size 3 to 8) (size 9 to 14) (size 15 to 20)
#    0.000    1.500    3.333    1.500    2.333    2.333 
#    0.000    6.667    0.000    0.000    0.000    0.000 
#    0.000    0.000    0.000    0.000    0.000    0.000 
#
# Total GULP energy -297621.186089 kJ/mol
# GULP energy per Si atom -12400.882754 kJ/mol
# Density = 2.098523 g / cm^3
# Si number density = 21.033105 Si / 1000 Ang^3
#
#
#
# Elastic Constant Matrix: (Units=GPa)
#
#
# Indices 1 2 3 4 5 6 
#
# 1 157.2397 46.0663 78.3934 0.0000 4.2615 -0.0001
# 2 46.0663 76.8038 47.8103 0.0002 11.4905 0.0001
# 3 78.3934 47.8103 135.4225 0.0001 -0.4319 -0.0002
# 4 0.0000 0.0002 0.0001 13.3360 0.0002 13.8042
# 5 4.2615 11.4905 -0.4319 0.0002 36.0477 -0.0001
# 6 -0.0001 0.0001 -0.0002 13.8042 -0.0001 28.7764
#
#
#
# Elastic Compliance Matrix: (Units=1/GPa)
#
#
# Indices 1 2 3 4 5 6 
#
# 1 0.009417 -0.002839 -0.004450 0.000000 -0.000262 0.000000
# 2 -0.002839 0.018661 -0.004963 0.000000 -0.005672 0.000000
# 3 -0.004450 -0.004963 0.011719 0.000000 0.002248 0.000000
# 4 0.000000 0.000000 0.000000 0.148942 -0.000001 -0.071449
# 5 -0.000262 -0.005672 0.002248 -0.000001 0.029607 0.000001
# 6 0.000000 0.000000 0.000000 -0.071449 0.000001 0.069025
#
#
# Mechanical properties :
#
#
# Convention : Reuss Voigt Hill
#
# Bulk Modulus (GPa) = 65.38475 79.33399 72.35937
# Shear Modulus (GPa) = 15.77419 28.77841 22.27630
#
# Velocity S-wave (km/s) = 2.74153 3.70299 3.25792
# Velocity P-wave (km/s) = 6.41680 7.48888 6.97348
#
# Compressibility (1/GPa) = 0.01529409
#
# Stress axis : x y z
#
# Youngs Moduli (GPa) = 106.18975 53.58771 85.32797
#
# Poissons Ratio (x) = 0.15214 0.37970
# Poissons Ratio (y) = 0.30149 0.42346
# Poissons Ratio (z) = 0.47253 0.26594
#
# Static dielectric constant tensor:
#      x y z
#    x 3.928400 0.000000 0.030410 
#    y 0.000000 3.733430 0.000000 
#    z 0.030410 0.000000 3.712660 
# 
# 
# High freq. dielectric constant tensor:
#      x y z
#    x 1.832730 0.000000 -0.002430 
#    y 0.000000 1.815360 0.000000 
#    z -0.002430 0.000000 1.813870 
# 
# From -- ./inp_files/257909.got.cif
#   From: 2010.06.25/outbox.cif.g09.slc.cpg/sg12_129_cif.got.tgz:257909.got - 2010.06.28 00:19:55.
