data_PCOD8108857
_publ_section_title
;
Structure prediction by ZEFSAII (Michael W. Deem and Ramdas Pophale) SiO2 
 PCOD8108857
Probable space group: C 2/M
;
_chemical_formula_sum "Si O2"
_cell_formula_units_Z 64
_cell_length_a 19.840741
_cell_length_b 8.996320
_cell_length_c 32.471879
_cell_angle_alpha 90.000000
_cell_angle_beta 144.144029
_cell_angle_gamma 90.000000
_cell_volume 3395.019573
_symmetry_space_group_name_H-M "C 2/M"
_symmetry_group_IT_number 12
_symmetry_cell_setting 'monoclinic'
loop_
_space_group_symop_operation_xyz
x,y,z
-x,y,-z
-x,-y,-z
x,-y,z
1/2+x,1/2+y,z
1/2-x,1/2+y,-z
1/2-x,1/2-y,-z
1/2+x,1/2-y,z
loop_
_atom_site_type_symbol
_atom_site_label
_atom_site_fract_x
_atom_site_fract_y
_atom_site_fract_z
Si Si1 0.100286 0.670047 0.808882
Si Si2 0.464348 0.173996 0.662247
Si Si3 0.585145 0.172618 0.216246
Si Si4 0.771747 0.323012 0.431897
Si Si5 0.573901 0.332256 0.919977
Si Si6 0.734598 0.832462 0.055426
Si Si7 0.179534 0.171325 0.627362
Si Si8 0.536530 0.326690 0.422251
O O1 0.130141 0.500000 0.833051
O O2 0.213650 0.762965 0.877115
O O3 0.069824 0.696267 0.746140
O O4 0.990290 0.719124 0.781541
O O5 0.355025 0.258006 0.626614
O O6 0.504971 0.248619 0.640088
O O7 0.435485 0.000000 0.642279
O O8 0.543369 0.258446 0.154749
O O9 0.716424 0.216899 0.290889
O O10 0.572512 0.000000 0.200109
O O11 0.769984 0.500000 0.434979
O O12 0.824179 0.276153 0.414076
O O13 0.847747 0.254174 0.506028
O O14 0.545951 0.500000 0.918237
O O15 0.669429 0.319954 0.932090
O O16 0.619560 0.251578 0.983704
O O17 0.699069 0.000000 0.047248
O O18 0.060874 0.195715 0.592011
O O19 0.194356 0.000000 0.620294
O O20 0.561942 0.500000 0.426777
#
# Coordination Sequence:
#
# PCOD8108857 Si02
#       8
#     8   8   8   8   8   8   8   8
#     4   9  17  30  50  72  99 135 172 214 260 313
#     4  11  22  39  59  80 109 143 181 222 272 324
#     4   9  16  30  50  72  99 134 174 212 259 313
#     4  12  24  38  59  83 108 138 179 226 272 323
#     4   9  16  25  39  65 100 135 170 209 256 305
#     4   9  16  25  40  65  99 135 170 210 255 306
#     4  10  21  39  59  80 108 144 180 220 271 325
#     4  11  24  40  58  80 109 142 180 223 271 324
#
# _framework density 18.851143
#
# number of rings (size 3 to 8) (size 9 to 14) (size 15 to 20)
#    0.000    2.000    1.250    3.375    0.000    7.000 
#    0.000    0.000    0.000    0.000    0.000    0.875 
#    0.000    7.000    0.000    0.000    0.000    0.000 
#
# Total GULP energy -396867.031385 kJ/mol
# GULP energy per Si atom -12402.094731 kJ/mol
# Density = 1.880824 g / cm^3
# Si number density = 18.851143 Si / 1000 Ang^3
#
#
#
# Elastic Constant Matrix: (Units=GPa)
#
#
# Indices 1 2 3 4 5 6 
#
# 1 38.6963 27.4926 12.2083 0.0001 -13.2589 -0.0002
# 2 27.4926 129.0356 60.5605 0.0001 -17.6917 -0.0006
# 3 12.2083 60.5605 114.9489 0.0000 -21.7047 0.0000
# 4 0.0001 0.0001 0.0000 37.1350 0.0000 -6.3756
# 5 -13.2589 -17.6917 -21.7047 0.0000 17.9348 0.0000
# 6 -0.0002 -0.0006 0.0000 -6.3756 0.0000 21.8670
#
#
#
# Elastic Compliance Matrix: (Units=1/GPa)
#
#
# Indices 1 2 3 4 5 6 
#
# 1 0.038496 -0.006576 0.004569 0.000000 0.027502 0.000000
# 2 -0.006576 0.011728 -0.005462 0.000000 0.000097 0.000000
# 3 0.004569 -0.005462 0.013885 0.000000 0.014794 0.000000
# 4 0.000000 0.000000 0.000000 0.028348 0.000000 0.008265
# 5 0.027502 0.000097 0.014794 0.000000 0.094088 0.000000
# 6 0.000000 0.000000 0.000000 0.008265 0.000000 0.048141
#
#
# Mechanical properties :
#
#
# Convention : Reuss Voigt Hill
#
# Bulk Modulus (GPa) = 20.33713 53.68929 37.01321
# Shear Modulus (GPa) = 18.79607 27.54868 23.17237
#
# Velocity S-wave (km/s) = 3.16108 3.82695 3.50984
# Velocity P-wave (km/s) = 4.91273 6.93324 6.00853
#
# Compressibility (1/GPa) = 0.04917114
#
# Stress axis : x y z
#
# Youngs Moduli (GPa) = 25.97690 85.26895 72.01910
#
# Poissons Ratio (x) = 0.56069 -0.32903
# Poissons Ratio (y) = 0.17081 0.39336
# Poissons Ratio (z) = -0.11868 0.46573
#
# Static dielectric constant tensor:
#      x y z
#    x 2.998600 0.000000 -0.126310 
#    y 0.000000 3.537440 0.000000 
#    z -0.126310 0.000000 3.638980 
# 
# 
# High freq. dielectric constant tensor:
#      x y z
#    x 1.680000 0.000000 -0.011760 
#    y 0.000000 1.739040 0.000000 
#    z -0.011760 0.000000 1.748920 
# 
# From -- ./inp_files/378395.got.cif
#   From: 2010.06.25/outbox.cif.g09.slc.cpg/sg12_190_cif.got.tgz:378395.got - 2010.06.28 00:19:55.
