data_PCOD8108084
_publ_section_title
;
Structure prediction by ZEFSAII (Michael W. Deem and Ramdas Pophale) SiO2 
 PCOD8108084
Probable space group: C 2/M
;
_chemical_formula_sum "Si O2"
_cell_formula_units_Z 36
_cell_length_a 5.181001
_cell_length_b 35.420210
_cell_length_c 12.186524
_cell_angle_alpha 90.000000
_cell_angle_beta 50.632390
_cell_angle_gamma 90.000000
_cell_volume 1728.924336
_symmetry_space_group_name_H-M "C 2/M"
_symmetry_group_IT_number 12
_symmetry_cell_setting 'monoclinic'
loop_
_space_group_symop_operation_xyz
x,y,z
-x,y,-z
-x,-y,-z
x,-y,z
1/2+x,1/2+y,z
1/2-x,1/2+y,-z
1/2-x,1/2-y,-z
1/2+x,1/2-y,z
loop_
_atom_site_type_symbol
_atom_site_label
_atom_site_fract_x
_atom_site_fract_y
_atom_site_fract_z
Si Si1 0.750139 0.088379 0.667768
Si Si2 0.250858 0.958083 0.667317
Si Si3 0.123809 0.643611 0.084252
Si Si4 0.000000 0.225148 0.500000
Si Si5 0.548061 0.775960 0.807701
O O1 0.434728 0.063800 0.715083
O O2 0.613712 0.127047 0.756459
O O3 0.000000 0.098464 0.500000
O O4 0.928373 0.064831 0.715423
O O5 0.500000 0.962385 0.500000
O O6 0.145032 0.000000 0.736171
O O7 0.120227 0.689183 0.085446
O O8 0.500000 0.629356 0.000000
O O9 0.000000 0.628921 0.000000
O O10 0.250000 0.250000 0.500000
O O11 0.223538 0.203629 0.349143
O O12 0.268271 0.748413 0.832872
#
# Coordination Sequence:
#
# PCOD8108084 Si02
#       5
#     8   8   8   4   8
#     4  10  21  38  62  89 119 158 197 237 289 354
#     4   9  17  33  61  95 121 146 192 248 290 333
#     4  12  26  41  59  85 121 161 194 246 301 346
#     4   8  16  32  54  82 108 134 173 238 297 334
#     4  10  21  38  60  84 111 148 198 247 295 347
#
# _framework density 20.822192999999999
#
# number of rings (size 3 to 8) (size 9 to 14) (size 15 to 20)
#    0.000    2.000    0.000    3.333    1.556    5.333 
#    0.000    0.000    0.000   13.333    0.000    0.000 
#    0.000    0.000    0.000    0.000    0.000    0.000 
#
# Total GULP energy -223076.367606 kJ/mol
# GULP energy per Si atom -12393.131534 kJ/mol
# Density = 2.077480 g / cm^3
# Si number density = 20.822193 Si / 1000 Ang^3
#
#
#
# Elastic Constant Matrix: (Units=GPa)
#
#
# Indices 1 2 3 4 5 6 
#
# 1 179.2856 47.7162 34.4498 0.0000 -27.0847 0.0000
# 2 47.7162 108.9078 40.5152 0.0000 -9.3841 0.0000
# 3 34.4498 40.5152 76.3038 0.0000 -2.5494 0.0000
# 4 0.0000 0.0000 0.0000 24.7151 0.0000 0.8968
# 5 -27.0847 -9.3841 -2.5494 0.0000 12.5999 0.0000
# 6 0.0000 0.0000 0.0000 0.8968 0.0000 20.6710
#
#
#
# Elastic Compliance Matrix: (Units=1/GPa)
#
#
# Indices 1 2 3 4 5 6 
#
# 1 0.009259 -0.001439 -0.002806 0.000000 0.018263 0.000000
# 2 -0.001439 0.012383 -0.005759 0.000000 0.004964 0.000000
# 3 -0.002806 -0.005759 0.017202 0.000000 -0.006840 0.000000
# 4 0.000000 0.000000 0.000000 0.040525 0.000000 -0.001758
# 5 0.018263 0.004964 -0.006840 0.000000 0.120937 0.000000
# 6 0.000000 0.000000 0.000000 -0.001758 0.000000 0.048453
#
#
# Mechanical properties :
#
#
# Convention : Reuss Voigt Hill
#
# Bulk Modulus (GPa) = 53.09317 67.76216 60.42767
# Shear Modulus (GPa) = 18.17880 27.71828 22.94854
#
# Velocity S-wave (km/s) = 2.95795 3.65250 3.32342
# Velocity P-wave (km/s) = 6.10079 7.09941 6.61896
#
# Compressibility (1/GPa) = 0.01883481
#
# Stress axis : x y z
#
# Youngs Moduli (GPa) = 108.00406 80.75670 58.13331
#
# Poissons Ratio (x) = 0.11622 0.16312
# Poissons Ratio (y) = 0.15543 0.33481
# Poissons Ratio (z) = 0.30305 0.46511
#
# Static dielectric constant tensor:
#      x y z
#    x 1.233750 0.000000 -0.535040 
#    y 0.000000 3.519040 0.000000 
#    z -0.535040 0.000000 3.866440 
# 
# 
# High freq. dielectric constant tensor:
#      x y z
#    x 1.837520 0.000000 -0.003960 
#    y 0.000000 1.795230 0.000000 
#    z -0.003960 0.000000 1.804650 
# 
# From -- ./inp_files/192507.got.cif
#   From: 2010.06.25/outbox.cif.g09.slc.cpg/sg12_97_cif.got.tgz:192507.got - 2010.06.28 00:19:55.
