data_PCOD8108805
_publ_section_title
;
Structure prediction by ZEFSAII (Michael W. Deem and Ramdas Pophale) SiO2 
 PCOD8108805
Probable space group: C 2/M
;
_chemical_formula_sum "Si O2"
_cell_formula_units_Z 44
_cell_length_a 14.394871
_cell_length_b 9.875936
_cell_length_c 15.738552
_cell_angle_alpha 90.000000
_cell_angle_beta 64.535633
_cell_angle_gamma 90.000000
_cell_volume 2020.076381
_symmetry_space_group_name_H-M "C 2/M"
_symmetry_group_IT_number 12
_symmetry_cell_setting 'monoclinic'
loop_
_space_group_symop_operation_xyz
x,y,z
-x,y,-z
-x,-y,-z
x,-y,z
1/2+x,1/2+y,z
1/2-x,1/2+y,-z
1/2-x,1/2-y,-z
1/2+x,1/2-y,z
loop_
_atom_site_type_symbol
_atom_site_label
_atom_site_fract_x
_atom_site_fract_y
_atom_site_fract_z
Si Si1 0.091418 0.784723 0.693795
Si Si2 0.226705 0.500000 0.873767
Si Si3 0.100842 0.500000 0.080349
Si Si4 0.384310 0.000000 0.250531
Si Si5 0.186957 0.349411 0.339309
Si Si6 0.632582 0.249846 0.175801
Si Si7 0.338403 0.657301 0.505174
O O1 0.119282 0.625452 0.684227
O O2 0.188107 0.855111 0.702429
O O3 0.075403 0.838137 0.602991
O O4 0.984092 0.809552 0.784318
O O5 0.210300 0.500000 0.778527
O O6 0.289822 0.368649 0.875311
O O7 0.121914 0.500000 0.970715
O O8 0.152407 0.634428 0.098683
O O9 0.981134 0.500000 0.149486
O O10 0.147138 0.500000 0.379630
O O11 0.151874 0.317980 0.258792
O O12 0.131887 0.234932 0.419947
O O13 0.309613 0.500000 0.536431
O O14 0.250000 0.750000 0.500000
#
# Coordination Sequence:
#
# PCOD8108805 Si02
#       7
#     8   4   4   4   8   8   8
#     4  10  22  39  60  90 127 159 203 250 298 360
#     4  12  23  40  69  92 119 156 206 258 307 366
#     4  10  23  46  60  92 125 158 198 254 312 372
#     4  10  21  38  67  91 119 161 207 249 300 369
#     4  11  23  41  62  87 126 165 208 247 303 358
#     4  11  24  40  65  91 122 161 200 252 312 364
#     4  10  22  36  59  89 126 166 206 251 295 351
#
# _framework density 21.781355999999999
#
# number of rings (size 3 to 8) (size 9 to 14) (size 15 to 20)
#    0.000    1.455    2.727    3.000   10.182    0.727 
#    0.000    1.818    0.000    1.091    0.000    0.000 
#    0.000    0.000    0.000    0.000    0.000    0.000 
#
# Total GULP energy -272649.074007 kJ/mol
# GULP energy per Si atom -12393.139728 kJ/mol
# Density = 2.173178 g / cm^3
# Si number density = 21.781356 Si / 1000 Ang^3
#
#
#
# Elastic Constant Matrix: (Units=GPa)
#
#
# Indices 1 2 3 4 5 6 
#
# 1 52.2205 5.7150 3.9831 0.0000 4.8796 0.0000
# 2 5.7150 161.1194 28.9286 0.0000 0.7770 0.0000
# 3 3.9831 28.9286 57.2711 0.0000 9.4626 0.0000
# 4 0.0000 0.0000 0.0000 21.0319 0.0000 -15.9692
# 5 4.8796 0.7770 9.4626 0.0000 27.5541 0.0000
# 6 0.0000 0.0000 0.0000 -15.9692 0.0000 0.9447
#
#
#
# Elastic Compliance Matrix: (Units=1/GPa)
#
#
# Indices 1 2 3 4 5 6 
#
# 1 0.019559 -0.000584 -0.000526 0.000000 -0.003267 0.000000
# 2 -0.000584 0.006872 -0.003621 0.000000 0.001153 0.000000
# 3 -0.000526 -0.003621 0.020455 0.000000 -0.006829 0.000000
# 4 0.000000 0.000000 0.000000 -0.004018 0.000000 -0.067912
# 5 -0.003267 0.001153 -0.006829 0.000000 0.039184 0.000000
# 6 0.000000 0.000000 0.000000 -0.067912 0.000000 -0.089442
#
#
# Mechanical properties :
#
#
# Convention : Reuss Voigt Hill
#
# Bulk Modulus (GPa) = 26.72033 38.65161 32.68597
# Shear Modulus (GPa) = 343.75991 25.37177 184.56584
#
# Velocity S-wave (km/s) = 12.57639 3.41668 9.21519
# Velocity P-wave (km/s) = 14.93927 5.77483 11.32542
#
# Compressibility (1/GPa) = 0.03742469
#
# Stress axis : x y z
#
# Youngs Moduli (GPa) = 51.12791 145.52084 48.88820
#
# Poissons Ratio (x) = 0.08493 0.02570
# Poissons Ratio (y) = 0.02984 0.17703
# Poissons Ratio (z) = 0.02688 0.52694
#
# Static dielectric constant tensor:
#      x y z
#    x 3.787370 0.000000 0.014090 
#    y 0.000000 4.154670 0.000000 
#    z 0.014090 0.000000 4.119940 
# 
# 
# High freq. dielectric constant tensor:
#      x y z
#    x 1.840880 0.000000 0.001740 
#    y 0.000000 1.870690 0.000000 
#    z 0.001740 0.000000 1.847780 
# 
# From -- ./inp_files/267581.got.cif
#   From: 2010.06.25/outbox.cif.g09.slc.cpg/sg12_134_cif.got.tgz:267581.got - 2010.06.28 00:19:55.
