data_PCOD8108021
_publ_section_title
;
Structure prediction by ZEFSAII (Michael W. Deem and Ramdas Pophale) SiO2 
 PCOD8108021
Probable space group: C 2/M
;
_chemical_formula_sum "Si O2"
_cell_formula_units_Z 64
_cell_length_a 25.280382
_cell_length_b 19.066993
_cell_length_c 14.363989
_cell_angle_alpha 90.000000
_cell_angle_beta 150.624748
_cell_angle_gamma 90.000000
_cell_volume 3396.285377
_symmetry_space_group_name_H-M "C 2/M"
_symmetry_group_IT_number 12
_symmetry_cell_setting 'monoclinic'
loop_
_space_group_symop_operation_xyz
x,y,z
-x,y,-z
-x,-y,-z
x,-y,z
1/2+x,1/2+y,z
1/2-x,1/2+y,-z
1/2-x,1/2-y,-z
1/2+x,1/2-y,z
loop_
_atom_site_type_symbol
_atom_site_label
_atom_site_fract_x
_atom_site_fract_y
_atom_site_fract_z
Si Si1 0.296779 0.645632 0.020198
Si Si2 0.671658 0.200734 0.993928
Si Si3 0.877362 0.081092 0.803146
Si Si4 0.790688 0.418131 0.296753
Si Si5 0.730112 0.830375 0.452702
Si Si6 0.010532 0.081347 0.410346
Si Si7 0.572909 0.173146 0.366650
Si Si8 0.813578 0.814255 0.390811
O O1 0.342066 0.723423 0.073317
O O2 0.397551 0.593632 0.185120
O O3 0.225359 0.646127 0.004370
O O4 0.222416 0.618266 0.822908
O O5 0.554691 0.171994 0.840747
O O6 0.744928 0.208693 0.197013
O O7 0.816541 0.096607 0.806799
O O8 0.828820 0.125275 0.644905
O O9 0.868768 0.000000 0.762386
O O10 0.000000 0.105823 0.000000
O O11 0.812998 0.500000 0.317699
O O12 0.893814 0.384354 0.505534
O O13 0.750000 0.750000 0.500000
O O14 0.620009 0.850563 0.337766
O O15 0.729499 0.842332 0.340495
O O16 0.105862 0.122998 0.507658
O O17 0.000000 0.107926 0.500000
O O18 0.040936 0.000000 0.451844
O O19 0.618022 0.248445 0.467446
#
# Coordination Sequence:
#
# PCOD8108021 Si02
#       8
#     8   8   8   8   8   8   8   8
#     4  11  22  38  59  90 117 154 201 246 290 355
#     4  11  23  37  63  87 115 159 201 239 290 356
#     4   9  19  35  58  87 117 151 193 241 295 352
#     4  10  21  38  59  85 120 154 191 245 297 342
#     4   9  21  37  56  85 122 154 192 241 294 348
#     4  11  23  39  60  88 124 159 196 253 304 347
#     4  10  21  41  60  86 119 155 199 243 291 354
#     4  11  21  40  59  86 121 156 199 242 297 354
#
# _framework density 18.844117000000001
#
# number of rings (size 3 to 8) (size 9 to 14) (size 15 to 20)
#    0.000    1.750    3.750    0.375    1.750    1.500 
#    0.000    2.500    0.000    0.000    0.000    4.375 
#    0.000    0.000    0.000    0.000    0.000    0.000 
#
# Total GULP energy -396853.296971 kJ/mol
# GULP energy per Si atom -12401.665530 kJ/mol
# Density = 1.880123 g / cm^3
# Si number density = 18.844117 Si / 1000 Ang^3
#
#
#
# Elastic Constant Matrix: (Units=GPa)
#
#
# Indices 1 2 3 4 5 6 
#
# 1 122.9446 27.8519 38.4763 0.0000 -2.3484 0.0000
# 2 27.8519 66.0185 19.4791 0.0000 4.5854 0.0000
# 3 38.4763 19.4791 75.2111 0.0000 17.5722 0.0000
# 4 0.0000 0.0000 0.0000 33.8804 0.0000 -2.2597
# 5 -2.3484 4.5854 17.5722 0.0000 30.0342 0.0000
# 6 0.0000 0.0000 0.0000 -2.2597 0.0000 24.6394
#
#
#
# Elastic Compliance Matrix: (Units=1/GPa)
#
#
# Indices 1 2 3 4 5 6 
#
# 1 0.010747 -0.003155 -0.005780 0.000000 0.004704 0.000000
# 2 -0.003155 0.017327 -0.002546 0.000000 -0.001403 0.000000
# 3 -0.005780 -0.002546 0.019607 0.000000 -0.011535 0.000000
# 4 0.000000 0.000000 0.000000 0.029697 0.000000 0.002724
# 5 0.004704 -0.001403 -0.011535 0.000000 0.040626 0.000000
# 6 0.000000 0.000000 0.000000 0.002724 0.000000 0.040835
#
#
# Mechanical properties :
#
#
# Convention : Reuss Voigt Hill
#
# Bulk Modulus (GPa) = 40.45364 48.42096 44.43730
# Shear Modulus (GPa) = 26.31009 29.60191 27.95600
#
# Velocity S-wave (km/s) = 3.74062 3.96774 3.85585
# Velocity P-wave (km/s) = 6.33802 6.83680 6.59213
#
# Compressibility (1/GPa) = 0.02471966
#
# Stress axis : x y z
#
# Youngs Moduli (GPa) = 93.04718 57.71342 51.00228
#
# Poissons Ratio (x) = 0.18211 0.29478
# Poissons Ratio (y) = 0.29360 0.12983
# Poissons Ratio (z) = 0.53779 0.14692
#
# Static dielectric constant tensor:
#      x y z
#    x 3.821940 0.000000 0.007400 
#    y 0.000000 3.400530 0.000000 
#    z 0.007400 0.000000 3.253360 
# 
# 
# High freq. dielectric constant tensor:
#      x y z
#    x 1.744740 0.000000 -0.002260 
#    y 0.000000 1.728430 0.000000 
#    z -0.002260 0.000000 1.718920 
# 
# From -- ./inp_files/241498.got.cif
#   From: 2010.06.25/outbox.cif.g09.slc.cpg/sg12_121_cif.got.tgz:241498.got - 2010.06.28 00:19:55.
