data_PCOD8108493
_publ_section_title
;
Structure prediction by ZEFSAII (Michael W. Deem and Ramdas Pophale) SiO2 
 PCOD8108493
Probable space group: C 2/M
;
_chemical_formula_sum "Si O2"
_cell_formula_units_Z 48
_cell_length_a 25.722415
_cell_length_b 14.452896
_cell_length_c 9.463438
_cell_angle_alpha 90.000000
_cell_angle_beta 140.258708
_cell_angle_gamma 90.000000
_cell_volume 2249.237452
_symmetry_space_group_name_H-M "C 2/M"
_symmetry_group_IT_number 12
_symmetry_cell_setting 'monoclinic'
loop_
_space_group_symop_operation_xyz
x,y,z
-x,y,-z
-x,-y,-z
x,-y,z
1/2+x,1/2+y,z
1/2-x,1/2+y,-z
1/2-x,1/2-y,-z
1/2+x,1/2-y,z
loop_
_atom_site_type_symbol
_atom_site_label
_atom_site_fract_x
_atom_site_fract_y
_atom_site_fract_z
Si Si1 0.803502 0.167935 0.055939
Si Si2 0.650738 0.609632 0.279422
Si Si3 0.898031 0.896026 0.511026
Si Si4 0.797659 0.396036 0.406966
Si Si5 0.445617 0.282430 0.147470
Si Si6 0.976989 0.604204 0.790337
O O1 0.832206 0.107317 0.248446
O O2 0.879571 0.208963 0.130872
O O3 0.750000 0.250000 0.000000
O O4 0.748056 0.105667 0.838454
O O5 0.639651 0.500000 0.224538
O O6 0.645828 0.633293 0.434485
O O7 0.738527 0.645408 0.405072
O O8 0.580263 0.665914 0.051296
O O9 0.971853 0.829425 0.626406
O O10 0.931806 0.000000 0.595204
O O11 0.817670 0.500000 0.492941
O O12 0.886614 0.348957 0.586226
O O13 0.460307 0.172949 0.155712
O O14 0.982614 0.500000 0.735393
O O15 0.000000 0.598592 0.000000
#
# Coordination Sequence:
#
# PCOD8108493 Si02
#       6
#     8   8   8   8   8   8
#     4  11  24  39  56  81 117 158 196 236 287 347
#     4   9  19  36  61  92 121 151 188 236 294 349
#     4  11  22  37  61  92 122 152 192 240 290 348
#     4   9  19  38  60  82 113 151 191 236 287 341
#     4  11  22  38  60  86 120 155 192 241 294 347
#     4  10  21  38  62  89 115 150 199 248 290 338
#
# _framework density 21.340565999999999
#
# number of rings (size 3 to 8) (size 9 to 14) (size 15 to 20)
#    0.000    1.833    0.000    4.000    0.000    5.333 
#    0.000    7.500    0.000    4.000    0.000    0.000 
#    0.000    0.000    0.000    0.000    0.000    0.000 
#
# Total GULP energy -297597.297640 kJ/mol
# GULP energy per Si atom -12399.887402 kJ/mol
# Density = 2.129199 g / cm^3
# Si number density = 21.340566 Si / 1000 Ang^3
#
#
#
# Elastic Constant Matrix: (Units=GPa)
#
#
# Indices 1 2 3 4 5 6 
#
# 1 112.2614 37.6195 54.3560 0.0000 -9.3164 0.0000
# 2 37.6195 87.9774 18.5810 0.0000 1.7684 0.0000
# 3 54.3560 18.5810 123.7161 0.0000 -5.7501 0.0000
# 4 0.0000 0.0000 0.0000-1019.2561 0.0000 1059.0054
# 5 -9.3164 1.7684 -5.7501 0.0000 28.1087 0.0000
# 6 0.0000 0.0000 0.0000 1059.0054 0.0000-1041.2179
#
#
#
# Elastic Compliance Matrix: (Units=1/GPa)
#
#
# Indices 1 2 3 4 5 6 
#
# 1 0.013148 -0.004659 -0.004907 0.000000 0.003647 0.000000
# 2 -0.004659 0.013424 -0.000081 0.000000 -0.002405 0.000000
# 3 -0.004907 -0.000081 0.010274 0.000000 0.000480 0.000000
# 4 0.000000 0.000000 0.000000 0.017289 0.000000 0.017584
# 5 0.003647 -0.002405 0.000480 0.000000 0.037034 0.000000
# 6 0.000000 0.000000 0.000000 0.017584 0.000000 0.016924
#
#
# Mechanical properties :
#
#
# Convention : Reuss Voigt Hill
#
# Bulk Modulus (GPa) = 56.97704 60.56309 58.77006
# Shear Modulus (GPa) = 37.52679 -392.24650 -177.35986
#
# Velocity S-wave (km/s) = 4.19796 -13.57211 -9.12632
# Velocity P-wave (km/s) = 7.08901 14.73642 9.13532
#
# Compressibility (1/GPa) = 0.01755093
#
# Stress axis : x y z
#
# Youngs Moduli (GPa) = 76.05841 74.49241 97.33652
#
# Poissons Ratio (x) = 0.34705 0.47767
# Poissons Ratio (y) = 0.35435 0.00789
# Poissons Ratio (z) = 0.37325 0.00604
#
# Static dielectric constant tensor:
#      x y z
#    x 4.479750 0.000000 -0.891890 
#    y 0.000000 3.984170 0.000000 
#    z -0.891890 0.000000 5.790730 
# 
# 
# High freq. dielectric constant tensor:
#      x y z
#    x 1.833350 0.000000 0.005970 
#    y 0.000000 1.835120 0.000000 
#    z 0.005970 0.000000 1.841550 
# 
# From -- ./inp_files/73590.got.cif
#   From: 2010.06.25/outbox.cif.g09.slc.cpg/sg12_37_cif.got.tgz:73590.got - 2010.06.28 00:19:55.
