data_PCOD8108054
_publ_section_title
;
Structure prediction by ZEFSAII (Michael W. Deem and Ramdas Pophale) SiO2 
 PCOD8108054
Probable space group: C 2/M
;
_chemical_formula_sum "Si O2"
_cell_formula_units_Z 64
_cell_length_a 25.579811
_cell_length_b 8.860041
_cell_length_c 14.102167
_cell_angle_alpha 90.000000
_cell_angle_beta 86.609553
_cell_angle_gamma 90.000000
_cell_volume 3190.495274
_symmetry_space_group_name_H-M "C 2/M"
_symmetry_group_IT_number 12
_symmetry_cell_setting 'monoclinic'
loop_
_space_group_symop_operation_xyz
x,y,z
-x,y,-z
-x,-y,-z
x,-y,z
1/2+x,1/2+y,z
1/2-x,1/2+y,-z
1/2-x,1/2-y,-z
1/2+x,1/2-y,z
loop_
_atom_site_type_symbol
_atom_site_label
_atom_site_fract_x
_atom_site_fract_y
_atom_site_fract_z
Si Si1 0.023387 0.177034 0.401942
Si Si2 0.129626 0.668602 0.399496
Si Si3 0.504999 0.324063 0.799076
Si Si4 0.101121 0.322531 0.889920
Si Si5 0.604771 0.325127 0.090623
Si Si6 0.296729 0.173457 0.439411
Si Si7 0.810194 0.672838 0.793215
Si Si8 0.694146 0.677348 0.763304
O O1 0.084140 0.213511 0.385188
O O2 0.000000 0.253942 0.500000
O O3 0.992428 0.229667 0.311044
O O4 0.017857 0.000000 0.409963
O O5 0.106842 0.500000 0.389429
O O6 0.151486 0.690514 0.502513
O O7 0.175538 0.697567 0.318586
O O8 0.519499 0.500000 0.809353
O O9 0.545460 0.224746 0.853099
O O10 0.446498 0.292518 0.841773
O O11 0.108472 0.500000 0.877967
O O12 0.148069 0.239878 0.832362
O O13 0.101947 0.278335 0.999115
O O14 0.608379 0.500000 0.060509
O O15 0.656320 0.282646 0.144272
O O16 0.250000 0.250000 0.500000
O O17 0.309313 0.250894 0.339413
O O18 0.281924 0.000000 0.423604
O O19 0.820419 0.500000 0.823110
O O20 0.749065 0.715512 0.809070
O O21 0.687304 0.500000 0.751119
#
# Coordination Sequence:
#
# PCOD8108054 Si02
#       8
#     8   8   8   8   8   8   8   8
#     4  10  22  39  60  92 127 164 206 247 304 372
#     4  10  21  38  59  88 125 162 206 254 306 364
#     4  10  22  42  65  93 128 165 208 256 309 375
#     4  12  27  44  64  93 126 164 210 261 321 381
#     4  11  23  42  69  96 122 160 210 262 318 378
#     4  11  22  38  60  91 126 166 211 253 302 364
#     4  10  21  40  65  93 126 164 207 259 315 371
#     4  11  24  44  65  91 129 171 211 261 318 374
#
# _framework density 20.05958
#
# number of rings (size 3 to 8) (size 9 to 14) (size 15 to 20)
#    0.000    1.375    2.500    2.625    1.750    5.750 
#    0.000    0.000    0.000    0.000    0.000    0.000 
#    0.000    0.000    0.000    0.000    0.000    0.000 
#
# Total GULP energy -396908.888104 kJ/mol
# GULP energy per Si atom -12403.402753 kJ/mol
# Density = 2.001392 g / cm^3
# Si number density = 20.059580 Si / 1000 Ang^3
#
#
#
# Elastic Constant Matrix: (Units=GPa)
#
#
# Indices 1 2 3 4 5 6 
#
# 1 84.6936 36.1750 31.8417 0.0000 13.7368 0.0000
# 2 36.1750 71.1141 39.2554 0.0000 10.4644 0.0000
# 3 31.8417 39.2554 117.0537 0.0000 12.3469 0.0000
# 4 0.0000 0.0000 0.0000 32.8370 0.0000 -0.6658
# 5 13.7368 10.4644 12.3469 0.0000 29.8153 0.0000
# 6 0.0000 0.0000 0.0000 -0.6658 0.0000 32.8315
#
#
#
# Elastic Compliance Matrix: (Units=1/GPa)
#
#
# Indices 1 2 3 4 5 6 
#
# 1 0.015939 -0.006538 -0.001684 0.000000 -0.004351 0.000000
# 2 -0.006538 0.020366 -0.004826 0.000000 -0.002137 0.000000
# 3 -0.001684 -0.004826 0.010832 0.000000 -0.002016 0.000000
# 4 0.000000 0.000000 0.000000 0.030466 0.000000 0.000618
# 5 -0.004351 -0.002137 -0.002016 0.000000 0.037130 0.000000
# 6 0.000000 0.000000 0.000000 0.000618 0.000000 0.030471
#
#
# Mechanical properties :
#
#
# Convention : Reuss Voigt Hill
#
# Bulk Modulus (GPa) = 47.52655 54.15620 50.84137
# Shear Modulus (GPa) = 28.04040 30.13605 29.08822
#
# Velocity S-wave (km/s) = 3.74285 3.88019 3.81214
# Velocity P-wave (km/s) = 6.51327 6.86519 6.69154
#
# Compressibility (1/GPa) = 0.02104087
#
# Stress axis : x y z
#
# Youngs Moduli (GPa) = 62.74015 49.10089 92.31562
#
# Poissons Ratio (x) = 0.32102 0.15548
# Poissons Ratio (y) = 0.41019 0.44553
# Poissons Ratio (z) = 0.10567 0.23697
#
# Static dielectric constant tensor:
#      x y z
#    x 3.605360 0.000000 -0.016100 
#    y 0.000000 3.633700 0.000000 
#    z -0.016100 0.000000 3.947430 
# 
# 
# High freq. dielectric constant tensor:
#      x y z
#    x 1.786520 0.000000 0.003720 
#    y 0.000000 1.782360 0.000000 
#    z 0.003720 0.000000 1.795290 
# 
# From -- ./inp_files/238737.got.cif
#   From: 2010.06.25/outbox.cif.g09.slc.cpg/sg12_120_cif.got.tgz:238737.got - 2010.06.28 00:19:55.
