data_PCOD8108552
_publ_section_title
;
Structure prediction by ZEFSAII (Michael W. Deem and Ramdas Pophale) SiO2 
 PCOD8108552
Probable space group: C 2/M
;
_chemical_formula_sum "Si O2"
_cell_formula_units_Z 64
_cell_length_a 31.364599
_cell_length_b 18.938664
_cell_length_c 15.509278
_cell_angle_alpha 90.000000
_cell_angle_beta 160.046236
_cell_angle_gamma 90.000000
_cell_volume 3143.896531
_symmetry_space_group_name_H-M "C 2/M"
_symmetry_group_IT_number 12
_symmetry_cell_setting 'monoclinic'
loop_
_space_group_symop_operation_xyz
x,y,z
-x,y,-z
-x,-y,-z
x,-y,z
1/2+x,1/2+y,z
1/2-x,1/2+y,-z
1/2-x,1/2-y,-z
1/2+x,1/2-y,z
loop_
_atom_site_type_symbol
_atom_site_label
_atom_site_fract_x
_atom_site_fract_y
_atom_site_fract_z
Si Si1 0.280359 0.213337 0.969786
Si Si2 0.443702 0.893837 0.636314
Si Si3 0.191933 0.083835 0.438147
Si Si4 0.447845 0.255416 0.584164
Si Si5 0.913365 0.423329 0.257029
Si Si6 0.512092 0.684449 0.881303
Si Si7 0.798487 0.925349 0.741068
Si Si8 0.429306 0.158420 0.951683
O O1 0.153586 0.212298 0.673168
O O2 0.250000 0.250000 0.000000
O O3 0.406388 0.249004 0.169549
O O4 0.302235 0.131173 0.031198
O O5 0.394985 0.821410 0.502783
O O6 0.514927 0.935268 0.696849
O O7 0.327540 0.939295 0.446107
O O8 0.527659 0.878596 0.879369
O O9 0.234151 0.090492 0.420016
O O10 0.288090 0.130603 0.676550
O O11 0.062688 0.127481 0.202177
O O12 0.182742 0.000000 0.448180
O O13 0.439560 0.301093 0.655202
O O14 0.858743 0.500000 0.180066
O O15 0.000000 0.394654 0.500000
O O16 0.636090 0.641732 0.091872
O O17 0.552851 0.756442 0.007617
O O18 0.874476 0.000000 0.891652
O O19 0.500000 0.132163 0.000000
#
# Coordination Sequence:
#
# PCOD8108552 Si02
#       8
#     8   8   8   8   8   8   8   8
#     4  11  21  41  68  95 124 163 203 259 322 380
#     4  10  21  38  62  91 123 159 205 265 315 368
#     4  11  25  41  60  87 126 172 218 265 319 385
#     4  10  23  38  63  96 125 158 213 261 310 385
#     4  10  22  40  63  95 128 162 206 255 316 384
#     4  11  25  38  61  87 128 167 211 264 318 377
#     4  11  22  39  60  85 123 169 213 256 315 381
#     4  11  23  39  63  91 119 164 219 271 315 371
#
# _framework density 20.356902999999999
#
# number of rings (size 3 to 8) (size 9 to 14) (size 15 to 20)
#    0.000    1.375    1.250    4.500    8.750    3.250 
#    0.000    0.625    0.000    2.250    0.000    0.000 
#    0.000    0.000    0.000    0.000    0.000    0.000 
#
# Total GULP energy -396448.962253 kJ/mol
# GULP energy per Si atom -12389.030070 kJ/mol
# Density = 2.031057 g / cm^3
# Si number density = 20.356903 Si / 1000 Ang^3
#
#
#
# Elastic Constant Matrix: (Units=GPa)
#
#
# Indices 1 2 3 4 5 6 
#
# 1 91.9846 33.2521 9.6052 0.0000 2.1001 0.0000
# 2 33.2521 122.1715 53.8622 0.0000 -8.3082 0.0000
# 3 9.6052 53.8622 82.6742 0.0000 -0.9280 0.0000
# 4 0.0000 0.0000 0.0000 7.3116 0.0000 20.9899
# 5 2.1001 -8.3082 -0.9280 0.0000 33.1993 0.0000
# 6 0.0000 0.0000 0.0000 20.9899 0.0000 -15.0611
#
#
#
# Elastic Compliance Matrix: (Units=1/GPa)
#
#
# Indices 1 2 3 4 5 6 
#
# 1 0.012217 -0.003940 0.001128 0.000000 -0.001727 0.000000
# 2 -0.003940 0.012995 -0.007972 0.000000 0.003278 0.000000
# 3 0.001128 -0.007972 0.017140 0.000000 -0.001587 0.000000
# 4 0.000000 0.000000 0.000000 0.027349 0.000000 0.038115
# 5 -0.001727 0.003278 -0.001587 0.000000 0.031006 0.000000
# 6 0.000000 0.000000 0.000000 0.038115 0.000000 -0.013277
#
#
# Mechanical properties :
#
#
# Convention : Reuss Voigt Hill
#
# Bulk Modulus (GPa) = 48.11056 54.47437 51.29247
# Shear Modulus (GPa) = 43.13045 18.43068 30.78056
#
# Velocity S-wave (km/s) = 4.60794 3.01221 3.89272
# Velocity P-wave (km/s) = 7.21080 6.23824 6.74208
#
# Compressibility (1/GPa) = 0.02078546
#
# Stress axis : x y z
#
# Youngs Moduli (GPa) = 81.85080 76.95204 58.34177
#
# Poissons Ratio (x) = 0.30320 -0.06582
# Poissons Ratio (y) = 0.32250 0.46509
# Poissons Ratio (z) = -0.09234 0.61344
#
# Static dielectric constant tensor:
#      x y z
#    x 3.787830 0.000000 0.027980 
#    y 0.000000 3.799350 0.000000 
#    z 0.027980 0.000000 3.502630 
# 
# 
# High freq. dielectric constant tensor:
#      x y z
#    x 1.799750 0.000000 -0.005220 
#    y 0.000000 1.807410 0.000000 
#    z -0.005220 0.000000 1.785780 
# 
# From -- ./inp_files/251951.got.cif
#   From: 2010.06.25/outbox.cif.g09.slc.cpg/sg12_126_cif.got.tgz:251951.got - 2010.06.28 00:19:55.
