data_PCOD8108720
_publ_section_title
;
Structure prediction by ZEFSAII (Michael W. Deem and Ramdas Pophale) SiO2 
 PCOD8108720
Probable space group: C 2/M
;
_chemical_formula_sum "Si O2"
_cell_formula_units_Z 64
_cell_length_a 12.030586
_cell_length_b 13.693275
_cell_length_c 28.844178
_cell_angle_alpha 90.000000
_cell_angle_beta 37.092346
_cell_angle_gamma 90.000000
_cell_volume 2865.778637
_symmetry_space_group_name_H-M "C 2/M"
_symmetry_group_IT_number 12
_symmetry_cell_setting 'monoclinic'
loop_
_space_group_symop_operation_xyz
x,y,z
-x,y,-z
-x,-y,-z
x,-y,z
1/2+x,1/2+y,z
1/2-x,1/2+y,-z
1/2-x,1/2-y,-z
1/2+x,1/2-y,z
loop_
_atom_site_type_symbol
_atom_site_label
_atom_site_fract_x
_atom_site_fract_y
_atom_site_fract_z
Si Si1 0.840354 0.812076 0.670523
Si Si2 0.578567 0.808126 0.838145
Si Si3 0.296350 0.690375 0.583759
Si Si4 0.176478 0.112020 0.971488
Si Si5 0.012874 0.609911 0.608402
Si Si6 0.729854 0.389634 0.564305
Si Si7 0.535384 0.606278 0.120485
Si Si8 0.858138 0.390412 0.082847
O O1 0.710112 0.852684 0.754955
O O2 0.751409 0.840219 0.651205
O O3 0.860528 0.693950 0.665657
O O4 0.032534 0.868959 0.607531
O O5 0.363962 0.829321 0.897270
O O6 0.613532 0.691427 0.825543
O O7 0.646371 0.840812 0.865799
O O8 0.500000 0.663516 0.500000
O O9 0.164021 0.624266 0.597493
O O10 0.262768 0.807832 0.592271
O O11 0.212049 0.000000 0.946195
O O12 0.150403 0.124933 0.035118
O O13 0.000000 0.150453 0.000000
O O14 0.928722 0.500000 0.640354
O O15 0.110996 0.624421 0.526420
O O16 0.736944 0.500000 0.582790
O O17 0.438095 0.500000 0.149726
O O18 0.659984 0.610229 0.124959
O O19 0.930483 0.500000 0.067969
O O20 0.000000 0.337793 0.000000
#
# Coordination Sequence:
#
# PCOD8108720 Si02
#       8
#     8   8   8   8   8   8   8   8
#     4  11  24  41  58  94 134 162 206 270 324 378
#     4  12  25  38  68  96 130 168 213 265 344 389
#     4  11  19  38  64  89 127 170 217 260 303 381
#     4  10  22  42  66  95 129 163 211 269 321 389
#     4  10  21  39  64  91 124 171 219 263 312 371
#     4  10  21  38  64  93 122 166 220 267 313 370
#     4  10  23  41  63  92 123 165 217 261 311 387
#     4  10  21  41  69  96 122 158 216 272 314 383
#
# _framework density 22.332498999999999
#
# number of rings (size 3 to 8) (size 9 to 14) (size 15 to 20)
#    0.000    1.500    3.750    1.500    1.750    5.000 
#    0.000    1.250    0.000    0.000    0.000    0.000 
#    0.000    0.000    0.000    0.000    0.000    0.000 
#
# Total GULP energy -396667.977537 kJ/mol
# GULP energy per Si atom -12395.874298 kJ/mol
# Density = 2.228167 g / cm^3
# Si number density = 22.332499 Si / 1000 Ang^3
#
#
#
# Elastic Constant Matrix: (Units=GPa)
#
#
# Indices 1 2 3 4 5 6 
#
# 1 99.6299 6.7502 25.2163 -0.0003 22.1245 0.0003
# 2 6.7502 75.6050 18.0367 0.0001 5.1428 0.0002
# 3 25.2163 18.0367 72.6613 0.0016 24.7560 0.0014
# 4 -0.0003 0.0001 0.0016 9.6532 0.0015 0.3443
# 5 22.1245 5.1428 24.7560 0.0015 32.1367 -0.0007
# 6 0.0003 0.0002 0.0014 0.3443 -0.0007 21.4333
#
#
#
# Elastic Compliance Matrix: (Units=1/GPa)
#
#
# Indices 1 2 3 4 5 6 
#
# 1 0.012028 -0.000180 -0.001787 0.000002 -0.006875 0.000000
# 2 -0.000180 0.014070 -0.003668 0.000000 0.000698 0.000000
# 3 -0.001787 -0.003668 0.019896 -0.000001 -0.013509 -0.000002
# 4 0.000002 0.000000 -0.000001 0.103652 -0.000005 -0.001665
# 5 -0.006875 0.000698 -0.013509 -0.000005 0.046145 0.000003
# 6 0.000000 0.000000 -0.000002 -0.001665 0.000003 0.046683
#
#
# Mechanical properties :
#
#
# Convention : Reuss Voigt Hill
#
# Bulk Modulus (GPa) = 28.79812 38.65586 33.72699
# Shear Modulus (GPa) = 18.84519 25.83750 22.34134
#
# Velocity S-wave (km/s) = 2.90805 3.40508 3.16634
# Velocity P-wave (km/s) = 4.91923 5.72767 5.33878
#
# Compressibility (1/GPa) = 0.03472449
#
# Stress axis : x y z
#
# Youngs Moduli (GPa) = 83.13597 71.07172 50.26183
#
# Poissons Ratio (x) = 0.01278 0.08983
# Poissons Ratio (y) = 0.01496 0.18436
# Poissons Ratio (z) = 0.14858 0.26069
#
# Static dielectric constant tensor:
#      x y z
#    x 4.000660 0.000000 0.137590 
#    y 0.000000 4.258830 0.000000 
#    z 0.137590 0.000000 3.665890 
# 
# 
# High freq. dielectric constant tensor:
#      x y z
#    x 1.884290 0.000000 0.013120 
#    y 0.000000 1.887700 0.000000 
#    z 0.013120 0.000000 1.847880 
# 
# From -- ./inp_files/358423.got.cif
#   From: 2010.06.25/outbox.cif.g09.slc.cpg/sg12_180_cif.got.tgz:358423.got - 2010.06.28 00:19:55.
