data_PCOD8108461
_publ_section_title
;
Structure prediction by ZEFSAII (Michael W. Deem and Ramdas Pophale) SiO2 
 PCOD8108461
Probable space group: C 2/M
;
_chemical_formula_sum "Si O2"
_cell_formula_units_Z 56
_cell_length_a 17.386618
_cell_length_b 15.266602
_cell_length_c 12.318787
_cell_angle_alpha 90.000000
_cell_angle_beta 129.949454
_cell_angle_gamma 90.000000
_cell_volume 2506.689875
_symmetry_space_group_name_H-M "C 2/M"
_symmetry_group_IT_number 12
_symmetry_cell_setting 'monoclinic'
loop_
_space_group_symop_operation_xyz
x,y,z
-x,y,-z
-x,-y,-z
x,-y,z
1/2+x,1/2+y,z
1/2-x,1/2+y,-z
1/2-x,1/2-y,-z
1/2+x,1/2-y,z
loop_
_atom_site_type_symbol
_atom_site_label
_atom_site_fract_x
_atom_site_fract_y
_atom_site_fract_z
Si Si1 0.918917 0.395498 0.620792
Si Si2 0.757457 0.324132 0.886560
Si Si3 0.596728 0.101793 0.146822
Si Si4 0.231589 0.100233 0.313166
Si Si5 0.176299 0.858030 0.028649
Si Si6 0.030024 0.100245 0.237509
Si Si7 0.960064 0.239490 0.345477
O O1 0.941662 0.500000 0.628573
O O2 0.891133 0.367367 0.718278
O O3 0.828659 0.360488 0.461734
O O4 0.015570 0.338309 0.673951
O O5 0.801496 0.378917 0.826720
O O6 0.836534 0.247670 0.989939
O O7 0.658857 0.272468 0.759115
O O8 0.735655 0.386322 0.971504
O O9 0.578097 0.000000 0.132126
O O10 0.500000 0.145984 0.000000
O O11 0.238670 0.112693 0.190288
O O12 0.126830 0.139618 0.262299
O O13 0.231927 0.000000 0.345221
O O14 0.065572 0.899630 0.930484
O O15 0.010847 0.163365 0.320618
O O16 0.047469 0.000000 0.292845
O O17 0.000000 0.223557 0.500000
#
# Coordination Sequence:
#
# PCOD8108461 Si02
#       7
#     8   8   8   8   8   8   8
#     4  10  24  45  69 101 135 174 226 275 331 400
#     4  10  24  40  64  98 131 169 228 271 331 399
#     4  10  24  44  69  97 131 177 225 278 334 392
#     4  10  21  39  65  95 130 174 218 271 334 393
#     4  10  21  38  61  94 132 174 216 274 332 394
#     4  10  23  40  62  97 135 176 227 272 325 401
#     4  11  25  43  66  99 135 179 225 270 343 395
#
# _framework density 22.340219000000001
#
# number of rings (size 3 to 8) (size 9 to 14) (size 15 to 20)
#    0.000    1.857    0.000    1.714   10.000    5.143 
#    0.000    1.429    0.000    0.000    0.000    0.000 
#    0.000    0.000    0.000    0.000    0.000    0.000 
#
# Total GULP energy -347100.348424 kJ/mol
# GULP energy per Si atom -12396.441015 kJ/mol
# Density = 2.228937 g / cm^3
# Si number density = 22.340219 Si / 1000 Ang^3
#
#
#
# Elastic Constant Matrix: (Units=GPa)
#
#
# Indices 1 2 3 4 5 6 
#
# 1 114.5813 20.9745 71.9568 0.0000 4.1962 0.0000
# 2 20.9745 52.2098 32.2781 0.0000 3.4899 0.0000
# 3 71.9568 32.2781 164.3635 0.0000 -18.3946 0.0000
# 4 0.0000 0.0000 0.0000 29.5354 0.0000 0.2077
# 5 4.1962 3.4899 -18.3946 0.0000 29.4043 0.0000
# 6 0.0000 0.0000 0.0000 0.2077 0.0000 37.6532
#
#
#
# Elastic Compliance Matrix: (Units=1/GPa)
#
#
# Indices 1 2 3 4 5 6 
#
# 1 0.012939 -0.001076 -0.006070 0.000000 -0.005516 0.000000
# 2 -0.001076 0.022803 -0.004616 0.000000 -0.005440 0.000000
# 3 -0.006070 -0.004616 0.010545 0.000000 0.008011 0.000000
# 4 0.000000 0.000000 0.000000 0.033859 0.000000 -0.000187
# 5 -0.005516 -0.005440 0.008011 0.000000 0.040453 0.000000
# 6 0.000000 0.000000 0.000000 -0.000187 0.000000 0.026559
#
#
# Mechanical properties :
#
#
# Convention : Reuss Voigt Hill
#
# Bulk Modulus (GPa) = 43.93379 64.61923 54.27651
# Shear Modulus (GPa) = 28.04740 33.04824 30.54782
#
# Velocity S-wave (km/s) = 3.54710 3.85036 3.70184
# Velocity P-wave (km/s) = 6.04023 6.98247 6.52837
#
# Compressibility (1/GPa) = 0.02276152
#
# Stress axis : x y z
#
# Youngs Moduli (GPa) = 77.28777 43.85349 94.83518
#
# Poissons Ratio (x) = 0.04720 0.57569
# Poissons Ratio (y) = 0.08318 0.43774
# Poissons Ratio (z) = 0.46917 0.20242
#
# Static dielectric constant tensor:
#      x y z
#    x 4.117860 0.000000 0.039500 
#    y 0.000000 3.830350 0.000000 
#    z 0.039500 0.000000 4.259340 
# 
# 
# High freq. dielectric constant tensor:
#      x y z
#    x 1.883030 0.000000 -0.004160 
#    y 0.000000 1.866980 0.000000 
#    z -0.004160 0.000000 1.887990 
# 
# From -- ./inp_files/156748.got.cif
#   From: 2010.06.25/outbox.cif.g09.slc.cpg/sg12_79_cif.got.tgz:156748.got - 2010.06.28 00:19:55.
