data_PCOD8108934
_publ_section_title
;
Structure prediction by ZEFSAII (Michael W. Deem and Ramdas Pophale) SiO2 
 PCOD8108934
Probable space group: C 2/M
;
_chemical_formula_sum "Si O2"
_cell_formula_units_Z 56
_cell_length_a 26.789911
_cell_length_b 8.900455
_cell_length_c 11.843328
_cell_angle_alpha 90.000000
_cell_angle_beta 103.705188
_cell_angle_gamma 90.000000
_cell_volume 2743.547043
_symmetry_space_group_name_H-M "C 2/M"
_symmetry_group_IT_number 12
_symmetry_cell_setting 'monoclinic'
loop_
_space_group_symop_operation_xyz
x,y,z
-x,y,-z
-x,-y,-z
x,-y,z
1/2+x,1/2+y,z
1/2-x,1/2+y,-z
1/2-x,1/2-y,-z
1/2+x,1/2-y,z
loop_
_atom_site_type_symbol
_atom_site_label
_atom_site_fract_x
_atom_site_fract_y
_atom_site_fract_z
Si Si1 0.900289 0.827161 0.705404
Si Si2 0.115233 0.674134 0.073776
Si Si3 0.489480 0.821628 0.621457
Si Si4 0.265055 0.824882 0.891531
Si Si5 0.679520 0.821175 0.709031
Si Si6 0.413544 0.821563 0.186386
Si Si7 0.695520 0.674434 0.491603
O O1 0.909043 0.763058 0.835087
O O2 0.935923 0.743410 0.634733
O O3 0.841063 0.804252 0.636610
O O4 0.916075 0.000000 0.714261
O O5 0.102256 0.500000 0.084738
O O6 0.175572 0.702312 0.100232
O O7 0.089320 0.735423 0.944363
O O8 0.500000 0.765347 0.500000
O O9 0.534923 0.761096 0.727021
O O10 0.486299 0.000000 0.623272
O O11 0.234386 0.744521 0.775025
O O12 0.251403 0.000000 0.889312
O O13 0.250000 0.750000 0.000000
O O14 0.635943 0.762977 0.771532
O O15 0.666709 0.755782 0.579493
O O16 0.682567 0.000000 0.705267
O O17 0.411793 0.000000 0.187248
O O18 0.704192 0.500000 0.524318
O O19 0.750000 0.750000 0.500000
#
# Coordination Sequence:
#
# PCOD8108934 Si02
#       7
#     8   8   8   8   8   8   8
#     4  11  25  42  60  87 124 158 193 247 309 359
#     4  10  21  39  60  84 119 162 205 245 292 356
#     4  10  21  40  67  92 114 151 203 248 295 361
#     4  11  21  35  57  87 124 165 205 246 298 356
#     4  11  21  37  61  89 122 156 198 253 304 356
#     4   9  19  37  60  88 118 152 199 249 296 351
#     4  11  24  41  60  86 119 158 200 245 301 362
#
# _framework density 20.411532999999999
#
# number of rings (size 3 to 8) (size 9 to 14) (size 15 to 20)
#    0.000    1.571    1.429    3.429    0.000    7.714 
#    0.000    5.000    0.000    0.000    0.000    0.000 
#    0.000    0.000    0.000    0.000    0.000    0.000 
#
# Total GULP energy -347308.690875 kJ/mol
# GULP energy per Si atom -12403.881817 kJ/mol
# Density = 2.036508 g / cm^3
# Si number density = 20.411533 Si / 1000 Ang^3
#
#
#
# Elastic Constant Matrix: (Units=GPa)
#
#
# Indices 1 2 3 4 5 6 
#
# 1 98.4674 41.1393 54.9303 0.0000 -5.9253 0.0000
# 2 41.1393 74.2190 43.9586 0.0000 -2.7755 0.0000
# 3 54.9303 43.9586 147.3489 0.0000 -9.0943 0.0000
# 4 0.0000 0.0000 0.0000 31.4350 0.0000 -3.0478
# 5 -5.9253 -2.7755 -9.0943 0.0000 41.4563 0.0000
# 6 0.0000 0.0000 0.0000 -3.0478 0.0000 29.1965
#
#
#
# Elastic Compliance Matrix: (Units=1/GPa)
#
#
# Indices 1 2 3 4 5 6 
#
# 1 0.014747 -0.005973 -0.003660 0.000000 0.000905 0.000000
# 2 -0.005973 0.018784 -0.003398 0.000000 -0.000342 0.000000
# 3 -0.003660 -0.003398 0.009244 0.000000 0.001277 0.000000
# 4 0.000000 0.000000 0.000000 0.032137 0.000000 0.003355
# 5 0.000905 -0.000342 0.001277 0.000000 0.024508 0.000000
# 6 0.000000 0.000000 0.000000 0.003355 0.000000 0.034601
#
#
# Mechanical properties :
#
#
# Convention : Reuss Voigt Hill
#
# Bulk Modulus (GPa) = 59.83355 66.67686 63.25521
# Shear Modulus (GPa) = 30.18324 32.41801 31.30062
#
# Velocity S-wave (km/s) = 3.84960 3.98957 3.92021
# Velocity P-wave (km/s) = 7.00974 7.34571 7.17969
#
# Compressibility (1/GPa) = 0.01671303
#
# Stress axis : x y z
#
# Youngs Moduli (GPa) = 67.80945 53.23570 108.18214
#
# Poissons Ratio (x) = 0.31797 0.39594
# Poissons Ratio (y) = 0.40501 0.36765
# Poissons Ratio (z) = 0.24818 0.18092
#
# Static dielectric constant tensor:
#      x y z
#    x 3.564680 0.000000 0.038290 
#    y 0.000000 3.567120 0.000000 
#    z 0.038290 0.000000 3.975740 
# 
# 
# High freq. dielectric constant tensor:
#      x y z
#    x 1.797450 0.000000 -0.001340 
#    y 0.000000 1.783130 0.000000 
#    z -0.001340 0.000000 1.815450 
# 
# From -- ./inp_files/180781.got.cif
#   From: 2010.06.25/outbox.cif.g09.slc.cpg/sg12_91_cif.got.tgz:180781.got - 2010.06.28 00:19:55.
