data_PCOD8108073
_publ_section_title
;
Structure prediction by ZEFSAII (Michael W. Deem and Ramdas Pophale) SiO2 
 PCOD8108073
Probable space group: C 2/M
;
_chemical_formula_sum "Si O2"
_cell_formula_units_Z 40
_cell_length_a 5.154740
_cell_length_b 25.279616
_cell_length_c 13.670786
_cell_angle_alpha 90.000000
_cell_angle_beta 101.103176
_cell_angle_gamma 90.000000
_cell_volume 1748.093069
_symmetry_space_group_name_H-M "C 2/M"
_symmetry_group_IT_number 12
_symmetry_cell_setting 'monoclinic'
loop_
_space_group_symop_operation_xyz
x,y,z
-x,y,-z
-x,-y,-z
x,-y,z
1/2+x,1/2+y,z
1/2-x,1/2+y,-z
1/2-x,1/2-y,-z
1/2+x,1/2-y,z
loop_
_atom_site_type_symbol
_atom_site_label
_atom_site_fract_x
_atom_site_fract_y
_atom_site_fract_z
Si Si1 0.388338 0.937595 0.775972
Si Si2 0.944323 0.063153 0.887687
Si Si3 0.490411 0.784018 0.103382
Si Si4 0.217057 0.388041 0.435595
Si Si5 0.694281 0.784638 0.317686
O O1 0.666531 0.912995 0.831029
O O2 0.329214 0.925431 0.659749
O O3 0.162859 0.913891 0.829818
O O4 0.399922 0.000000 0.790177
O O5 0.942695 0.000000 0.887367
O O6 0.000000 0.085079 0.000000
O O7 0.190070 0.766074 0.102643
O O8 0.602856 0.813625 0.208894
O O9 0.500000 0.816402 0.000000
O O10 0.500000 0.401716 0.500000
O O11 0.197138 0.326794 0.404330
O O12 0.000000 0.401839 0.500000
O O13 0.489225 0.738200 0.328873
#
# Coordination Sequence:
#
# PCOD8108073 Si02
#       5
#     8   8   8   8   8
#     4  10  21  38  60  87 121 157 194 238 290 350
#     4   9  17  33  60  91 122 155 188 230 289 354
#     4   8  14  27  49  75 102 133 167 209 267 333
#     4  12  26  41  59  83 114 154 204 255 294 337
#     4  10  21  38  60  83 110 145 187 238 295 350
#
# _framework density 22.882075
#
# number of rings (size 3 to 8) (size 9 to 14) (size 15 to 20)
#    0.000    2.200    0.000    3.000    0.000    5.600 
#    0.000    2.000    0.000    9.600    0.000    0.000 
#    0.000    0.000    0.000    0.000    0.000    0.000 
#
# Total GULP energy -247948.723989 kJ/mol
# GULP energy per Si atom -12397.436199 kJ/mol
# Density = 2.282999 g / cm^3
# Si number density = 22.882075 Si / 1000 Ang^3
#
#
#
# Elastic Constant Matrix: (Units=GPa)
#
#
# Indices 1 2 3 4 5 6 
#
# 1 204.2733 16.3829 94.6605 0.0000 -2.2059 0.0000
# 2 16.3829 5.0095 4.1036 0.0000 -0.0882 0.0000
# 3 94.6605 4.1036 183.5480 0.0000 -2.7914 0.0000
# 4 0.0000 0.0000 0.0000 16.3377 0.0000 1.4662
# 5 -2.2059 -0.0882 -2.7914 0.0000 51.0488 0.0000
# 6 0.0000 0.0000 0.0000 1.4662 0.0000 16.0395
#
#
#
# Elastic Compliance Matrix: (Units=1/GPa)
#
#
# Indices 1 2 3 4 5 6 
#
# 1 0.008768 -0.025434 -0.003951 0.000000 0.000119 0.000000
# 2 -0.025434 0.277130 0.006918 0.000000 -0.000242 0.000000
# 3 -0.003951 0.006918 0.007335 0.000000 0.000242 0.000000
# 4 0.000000 0.000000 0.000000 0.061715 0.000000 -0.005642
# 5 0.000119 -0.000242 0.000242 0.000000 0.019607 0.000000
# 6 0.000000 0.000000 0.000000 -0.005642 0.000000 0.062862
#
#
# Mechanical properties :
#
#
# Convention : Reuss Voigt Hill
#
# Bulk Modulus (GPa) = 4.02744 69.23608 36.63176
# Shear Modulus (GPa) = 8.84771 35.19743 22.02257
#
# Velocity S-wave (km/s) = 1.96851 3.92626 3.10568
# Velocity P-wave (km/s) = 2.63261 7.13284 5.37625
#
# Compressibility (1/GPa) = 0.24829686
#
# Stress axis : x y z
#
# Youngs Moduli (GPa) = 114.05729 3.60841 136.33404
#
# Poissons Ratio (x) = 0.09178 0.53868
# Poissons Ratio (y) = 2.90097 -0.94310
# Poissons Ratio (z) = 0.45066 -0.02496
#
# Static dielectric constant tensor:
#      x y z
#    x 4.355430 0.000000 0.017800 
#    y 0.000000 3.403350 0.000000 
#    z 0.017800 0.000000 4.481820 
# 
# 
# High freq. dielectric constant tensor:
#      x y z
#    x 1.924780 0.000000 0.000540 
#    y 0.000000 1.856570 0.000000 
#    z 0.000540 0.000000 1.925120 
# 
# From -- ./inp_files/115538.got.cif
#   From: 2010.06.25/outbox.cif.g09.slc.cpg/sg12_58_cif.got.tgz:115538.got - 2010.06.28 00:19:55.
