data_PCOD8108935
_publ_section_title
;
Structure prediction by ZEFSAII (Michael W. Deem and Ramdas Pophale) SiO2 
 PCOD8108935
Probable space group: C 2/M
;
_chemical_formula_sum "Si O2"
_cell_formula_units_Z 40
_cell_length_a 15.911128
_cell_length_b 10.539292
_cell_length_c 11.697259
_cell_angle_alpha 90.000000
_cell_angle_beta 67.848477
_cell_angle_gamma 90.000000
_cell_volume 1816.755867
_symmetry_space_group_name_H-M "C 2/M"
_symmetry_group_IT_number 12
_symmetry_cell_setting 'monoclinic'
loop_
_space_group_symop_operation_xyz
x,y,z
-x,y,-z
-x,-y,-z
x,-y,z
1/2+x,1/2+y,z
1/2-x,1/2+y,-z
1/2-x,1/2-y,-z
1/2+x,1/2-y,z
loop_
_atom_site_type_symbol
_atom_site_label
_atom_site_fract_x
_atom_site_fract_y
_atom_site_fract_z
Si Si1 0.018543 0.226538 0.739427
Si Si2 0.000000 0.296931 0.500000
Si Si3 0.677508 0.262212 0.138787
Si Si4 0.402845 0.000000 0.267008
Si Si5 0.730192 0.000000 0.124220
Si Si6 0.739124 0.000000 0.846491
Si Si7 0.650564 0.000000 0.459596
Si Si8 0.647737 0.500000 0.747234
O O1 0.038663 0.372498 0.758331
O O2 0.001921 0.209081 0.612051
O O3 0.923015 0.199458 0.853018
O O4 0.094194 0.127588 0.741888
O O5 0.907565 0.378269 0.548992
O O6 0.708452 0.370449 0.213398
O O7 0.676145 0.123590 0.199589
O O8 0.750000 0.250000 0.000000
O O9 0.355619 0.000000 0.168445
O O10 0.335142 0.000000 0.409920
O O11 0.832395 0.000000 0.126035
O O12 0.731586 0.000000 0.987312
O O13 0.751978 0.000000 0.359021
#
# Coordination Sequence:
#
# PCOD8108935 Si02
#       8
#     8   4   8   4   4   4   4   4
#     4  11  23  39  61  92 122 155 200 251 300 355
#     4   9  20  39  64  86 118 164 204 236 292 376
#     4  10  21  40  61  83 116 162 203 239 296 359
#     4  10  22  40  62  89 117 153 206 250 286 354
#     4  10  21  40  61  81 115 167 202 234 298 362
#     4  10  21  39  60  85 115 155 199 245 295 346
#     4   9  20  39  63  90 120 160 198 243 304 363
#     4  12  24  37  60  95 128 151 193 259 311 349
#
# _framework density 22.017267
#
# number of rings (size 3 to 8) (size 9 to 14) (size 15 to 20)
#    0.000    1.800    0.000    4.200    0.000    5.200 
#    0.000   24.000    0.000    0.000    0.000    0.000 
#    0.000    0.000    0.000    0.000    0.000    0.000 
#
# Total GULP energy -247761.131019 kJ/mol
# GULP energy per Si atom -12388.056551 kJ/mol
# Density = 2.196716 g / cm^3
# Si number density = 22.017267 Si / 1000 Ang^3
#
#
#
# Elastic Constant Matrix: (Units=GPa)
#
#
# Indices 1 2 3 4 5 6 
#
# 1 170.7849 47.3885 70.6137 0.0000 -3.4846 0.0000
# 2 47.3885 134.6829 13.7144 0.0000 -1.1460 0.0000
# 3 70.6137 13.7144 93.7732 0.0000 3.9518 0.0000
# 4 0.0000 0.0000 0.0000 6.2441 0.0000 4.5687
# 5 -3.4846 -1.1460 3.9518 0.0000 56.6142 0.0000
# 6 0.0000 0.0000 0.0000 4.5687 0.0000 41.7267
#
#
#
# Elastic Compliance Matrix: (Units=1/GPa)
#
#
# Indices 1 2 3 4 5 6 
#
# 1 0.009379 -0.002607 -0.006723 0.000000 0.000994 0.000000
# 2 -0.002607 0.008265 0.000756 0.000000 -0.000046 0.000000
# 3 -0.006723 0.000756 0.015679 0.000000 -0.001493 0.000000
# 4 0.000000 0.000000 0.000000 0.174098 0.000000 -0.019062
# 5 0.000994 -0.000046 -0.001493 0.000000 0.017828 0.000000
# 6 0.000000 0.000000 0.000000 -0.019062 0.000000 0.026053
#
#
# Mechanical properties :
#
#
# Convention : Reuss Voigt Hill
#
# Bulk Modulus (GPa) = 61.82357 73.63046 67.72702
# Shear Modulus (GPa) = 18.25888 38.75198 28.50543
#
# Velocity S-wave (km/s) = 2.88288 4.19987 3.60208
# Velocity P-wave (km/s) = 6.26274 7.55204 6.93741
#
# Compressibility (1/GPa) = 0.01617506
#
# Stress axis : x y z
#
# Youngs Moduli (GPa) = 106.62498 120.99684 63.77986
#
# Poissons Ratio (x) = 0.31542 0.42879
# Poissons Ratio (y) = 0.27796 -0.04823
# Poissons Ratio (z) = 0.71684 -0.09151
#
# Static dielectric constant tensor:
#      x y z
#    x 4.092460 0.000000 0.136730 
#    y 0.000000 8.670480 0.000000 
#    z 0.136730 0.000000 3.904780 
# 
# 
# High freq. dielectric constant tensor:
#      x y z
#    x 1.868660 0.000000 0.002200 
#    y 0.000000 1.883670 0.000000 
#    z 0.002200 0.000000 1.848190 
# 
# From -- ./inp_files/140914.got.cif
#   From: 2010.06.25/outbox.cif.g09.slc.cpg/sg12_71_cif.got.tgz:140914.got - 2010.06.28 00:19:55.
