data_PCOD8108647
_publ_section_title
;
Structure prediction by ZEFSAII (Michael W. Deem and Ramdas Pophale) SiO2 
 PCOD8108647
Probable space group: C 2/M
;
_chemical_formula_sum "Si O2"
_cell_formula_units_Z 40
_cell_length_a 24.462669
_cell_length_b 8.623013
_cell_length_c 9.568459
_cell_angle_alpha 90.000000
_cell_angle_beta 77.323830
_cell_angle_gamma 90.000000
_cell_volume 1969.192620
_symmetry_space_group_name_H-M "C 2/M"
_symmetry_group_IT_number 12
_symmetry_cell_setting 'monoclinic'
loop_
_space_group_symop_operation_xyz
x,y,z
-x,y,-z
-x,-y,-z
x,-y,z
1/2+x,1/2+y,z
1/2-x,1/2+y,-z
1/2-x,1/2-y,-z
1/2+x,1/2-y,z
loop_
_atom_site_type_symbol
_atom_site_label
_atom_site_fract_x
_atom_site_fract_y
_atom_site_fract_z
Si Si1 0.743487 0.682166 0.850162
Si Si2 0.661098 0.319268 0.390562
Si Si3 0.855507 0.184070 0.286081
Si Si4 0.019634 0.823888 0.831808
Si Si5 0.951894 0.678122 0.636865
O O1 0.738631 0.500000 0.869106
O O2 0.796141 0.721248 0.724790
O O3 0.687618 0.749489 0.805971
O O4 0.750000 0.750000 0.000000
O O5 0.675682 0.500000 0.369170
O O6 0.664255 0.260775 0.549201
O O7 0.599374 0.290857 0.366063
O O8 0.917771 0.246822 0.218319
O O9 0.856028 0.000000 0.280063
O O10 0.976034 0.716390 0.775130
O O11 0.018232 0.000000 0.774011
O O12 0.000000 0.819791 0.000000
O O13 0.932185 0.500000 0.641497
O O14 0.000000 0.715748 0.500000
#
# Coordination Sequence:
#
# PCOD8108647 Si02
#       5
#     8   8   8   8   8
#     4  11  24  42  62  91 126 160 202 253 307 365
#     4  11  22  40  66  90 117 161 209 254 303 361
#     4   9  20  39  62  89 121 158 205 252 301 361
#     4  10  21  38  63  92 122 162 204 249 301 363
#     4  11  23  39  60  92 128 160 197 250 307 364
#
# _framework density 20.312892999999999
#
# number of rings (size 3 to 8) (size 9 to 14) (size 15 to 20)
#    0.000    1.600    2.000    2.400    2.800    1.200 
#    0.000    5.000    0.000    0.000    0.000    0.000 
#    0.000    0.000    0.000    0.000    0.000    0.000 
#
# Total GULP energy -248066.990498 kJ/mol
# GULP energy per Si atom -12403.349525 kJ/mol
# Density = 2.026666 g / cm^3
# Si number density = 20.312893 Si / 1000 Ang^3
#
#
#
# Elastic Constant Matrix: (Units=GPa)
#
#
# Indices 1 2 3 4 5 6 
#
# 1 121.7840 20.0072 62.6029 0.0000 23.1294 0.0000
# 2 20.0072 39.9759 25.7027 0.0000 3.0437 0.0000
# 3 62.6029 25.7027 136.4950 0.0000 13.2534 0.0000
# 4 0.0000 0.0000 0.0000 19.8892 0.0000 8.6831
# 5 23.1294 3.0437 13.2534 0.0000 37.5276 0.0000
# 6 0.0000 0.0000 0.0000 8.6831 0.0000 15.9365
#
#
#
# Elastic Compliance Matrix: (Units=1/GPa)
#
#
# Indices 1 2 3 4 5 6 
#
# 1 0.012013 -0.002722 -0.004452 0.000000 -0.005611 0.000000
# 2 -0.002722 0.029085 -0.004310 0.000000 0.000841 0.000000
# 3 -0.004452 -0.004310 0.010230 0.000000 -0.000519 0.000000
# 4 0.000000 0.000000 0.000000 0.065971 0.000000 -0.035944
# 5 -0.005611 0.000841 -0.000519 0.000000 0.030220 0.000000
# 6 0.000000 0.000000 0.000000 -0.035944 0.000000 0.082333
#
#
# Mechanical properties :
#
#
# Convention : Reuss Voigt Hill
#
# Bulk Modulus (GPa) = 35.26250 57.20894 46.23572
# Shear Modulus (GPa) = 19.06404 27.33348 23.19876
#
# Velocity S-wave (km/s) = 3.06685 3.67225 3.38312
# Velocity P-wave (km/s) = 5.47157 6.79747 6.17024
#
# Compressibility (1/GPa) = 0.02835874
#
# Stress axis : x y z
#
# Youngs Moduli (GPa) = 83.24514 34.38251 97.74963
#
# Poissons Ratio (x) = 0.09360 0.43520
# Poissons Ratio (y) = 0.22663 0.42128
# Poissons Ratio (z) = 0.37062 0.14818
#
# Static dielectric constant tensor:
#      x y z
#    x 3.639820 0.000000 -0.181590 
#    y 0.000000 3.517360 0.000000 
#    z -0.181590 0.000000 3.452100 
# 
# 
# High freq. dielectric constant tensor:
#      x y z
#    x 1.807040 0.000000 0.003180 
#    y 0.000000 1.774490 0.000000 
#    z 0.003180 0.000000 1.803600 
# 
# From -- ./inp_files/92782.got.cif
#   From: 2010.06.25/outbox.cif.g09.slc.cpg/sg12_47_cif.got.tgz:92782.got - 2010.06.28 00:19:55.
