data_PCOD8108292
_publ_section_title
;
Structure prediction by ZEFSAII (Michael W. Deem and Ramdas Pophale) SiO2 
 PCOD8108292
Probable space group: C 2/M
;
_chemical_formula_sum "Si O2"
_cell_formula_units_Z 48
_cell_length_a 15.218849
_cell_length_b 8.848053
_cell_length_c 17.200228
_cell_angle_alpha 90.000000
_cell_angle_beta 90.302638
_cell_angle_gamma 90.000000
_cell_volume 2316.101932
_symmetry_space_group_name_H-M "C 2/M"
_symmetry_group_IT_number 12
_symmetry_cell_setting 'monoclinic'
loop_
_space_group_symop_operation_xyz
x,y,z
-x,y,-z
-x,-y,-z
x,-y,z
1/2+x,1/2+y,z
1/2-x,1/2+y,-z
1/2-x,1/2-y,-z
1/2+x,1/2-y,z
loop_
_atom_site_type_symbol
_atom_site_label
_atom_site_fract_x
_atom_site_fract_y
_atom_site_fract_z
Si Si1 0.086457 0.821513 0.316403
Si Si2 0.767524 0.320789 0.582959
Si Si3 0.398548 0.165182 0.144912
Si Si4 0.599496 0.166495 0.161370
Si Si5 0.616445 0.676476 0.701847
Si Si6 0.155999 0.178474 0.006352
O O1 0.140138 0.746163 0.386711
O O2 0.130681 0.756751 0.237602
O O3 0.983047 0.779139 0.324137
O O4 0.100080 0.000000 0.318067
O O5 0.776052 0.500000 0.576970
O O6 0.750000 0.250000 0.500000
O O7 0.684989 0.273176 0.636319
O O8 0.497282 0.140481 0.170657
O O9 0.351514 0.244880 0.217736
O O10 0.354742 0.000000 0.128625
O O11 0.399042 0.267154 0.067995
O O12 0.614531 0.265304 0.085608
O O13 0.645630 0.000000 0.156493
O O14 0.620917 0.500000 0.718609
O O15 0.159383 0.000000 0.006748
O O16 0.250000 0.250000 0.000000
#
# Coordination Sequence:
#
# PCOD8108292 Si02
#       6
#     8   8   8   8   8   8
#     4  10  21  40  65  92 122 161 206 250 302 365
#     4  11  24  42  64  92 125 160 200 250 308 370
#     4  10  21  38  61  87 117 154 199 248 299 356
#     4  10  21  39  61  86 118 156 198 247 299 356
#     4   9  21  41  64  89 122 164 205 247 302 368
#     4  12  25  38  55  82 118 159 203 250 299 353
#
# _framework density 20.724475999999999
#
# number of rings (size 3 to 8) (size 9 to 14) (size 15 to 20)
#    0.000    1.667    0.000    4.000    2.333    6.667 
#    0.000    3.333    0.000    0.000    0.000    0.000 
#    0.000    0.000    0.000    0.000    0.000    0.000 
#
# Total GULP energy -297572.610455 kJ/mol
# GULP energy per Si atom -12398.858769 kJ/mol
# Density = 2.067731 g / cm^3
# Si number density = 20.724476 Si / 1000 Ang^3
#
#
#
# Elastic Constant Matrix: (Units=GPa)
#
#
# Indices 1 2 3 4 5 6 
#
# 1 47.1174 18.8490 9.2150 0.0000 -0.8669 0.0000
# 2 18.8490 128.1877 37.7562 0.0000 -1.7344 0.0000
# 3 9.2150 37.7562 111.2840 0.0000 1.2493 0.0000
# 4 0.0000 0.0000 0.0000 42.5799 0.0000 2.4013
# 5 -0.8669 -1.7344 1.2493 0.0000 33.7047 0.0000
# 6 0.0000 0.0000 0.0000 2.4013 0.0000 30.2414
#
#
#
# Elastic Compliance Matrix: (Units=1/GPa)
#
#
# Indices 1 2 3 4 5 6 
#
# 1 0.022625 -0.003075 -0.000835 0.000000 0.000455 0.000000
# 2 -0.003075 0.009095 -0.002837 0.000000 0.000494 0.000000
# 3 -0.000835 -0.002837 0.010024 0.000000 -0.000539 0.000000
# 4 0.000000 0.000000 0.000000 0.023591 0.000000 -0.001873
# 5 0.000455 0.000494 -0.000539 0.000000 0.029727 0.000000
# 6 0.000000 0.000000 0.000000 -0.001873 0.000000 0.033216
#
#
# Mechanical properties :
#
#
# Convention : Reuss Voigt Hill
#
# Bulk Modulus (GPa) = 35.39746 46.46994 40.93370
# Shear Modulus (GPa) = 33.07128 36.02314 34.54721
#
# Velocity S-wave (km/s) = 3.99903 4.17369 4.08729
# Velocity P-wave (km/s) = 6.20001 6.76000 6.48605
#
# Compressibility (1/GPa) = 0.02825062
#
# Stress axis : x y z
#
# Youngs Moduli (GPa) = 44.19824 109.94566 99.76340
#
# Poissons Ratio (x) = 0.33804 0.08335
# Poissons Ratio (y) = 0.13589 0.28301
# Poissons Ratio (z) = 0.03693 0.31190
#
# Static dielectric constant tensor:
#      x y z
#    x 3.774900 0.000000 0.094760 
#    y 0.000000 3.961180 0.000000 
#    z 0.094760 0.000000 3.569660 
# 
# 
# High freq. dielectric constant tensor:
#      x y z
#    x 1.807730 0.000000 0.002990 
#    y 0.000000 1.826000 0.000000 
#    z 0.002990 0.000000 1.813170 
# 
# From -- ./inp_files/267704.got.cif
#   From: 2010.06.25/outbox.cif.g09.slc.cpg/sg12_134_cif.got.tgz:267704.got - 2010.06.28 00:19:55.
