data_PCOD8108064
_publ_section_title
;
Structure prediction by ZEFSAII (Michael W. Deem and Ramdas Pophale) SiO2 
 PCOD8108064
Probable space group: C 2/M
;
_chemical_formula_sum "Si O2"
_cell_formula_units_Z 64
_cell_length_a 16.275274
_cell_length_b 17.654174
_cell_length_c 15.608560
_cell_angle_alpha 90.000000
_cell_angle_beta 133.056862
_cell_angle_gamma 90.000000
_cell_volume 3276.903810
_symmetry_space_group_name_H-M "C 2/M"
_symmetry_group_IT_number 12
_symmetry_cell_setting 'monoclinic'
loop_
_space_group_symop_operation_xyz
x,y,z
-x,y,-z
-x,-y,-z
x,-y,z
1/2+x,1/2+y,z
1/2-x,1/2+y,-z
1/2-x,1/2-y,-z
1/2+x,1/2-y,z
loop_
_atom_site_type_symbol
_atom_site_label
_atom_site_fract_x
_atom_site_fract_y
_atom_site_fract_z
Si Si1 0.547330 0.682639 0.121242
Si Si2 0.633042 0.209087 0.930201
Si Si3 0.128152 0.416771 0.617996
Si Si4 0.753435 0.302149 0.739880
Si Si5 0.156577 0.793886 0.484232
Si Si6 0.371774 0.084696 0.935153
Si Si7 0.159542 0.088380 0.341507
Si Si8 0.074750 0.715685 0.700618
O O1 0.445491 0.736183 0.073041
O O2 0.658652 0.733394 0.192260
O O3 0.571418 0.616576 0.206693
O O4 0.500000 0.644857 0.000000
O O5 0.570943 0.192461 0.796707
O O6 0.750000 0.250000 0.000000
O O7 0.649801 0.131225 0.993264
O O8 0.165299 0.500000 0.679307
O O9 0.212168 0.394926 0.599401
O O10 0.134167 0.354327 0.695182
O O11 0.000000 0.420735 0.500000
O O12 0.702593 0.315452 0.609883
O O13 0.807638 0.380614 0.807919
O O14 0.654467 0.286858 0.737810
O O15 0.250000 0.750000 0.500000
O O16 0.131190 0.869153 0.410487
O O17 0.049478 0.738507 0.419529
O O18 0.327111 0.000000 0.919746
O O19 0.500000 0.084591 0.000000
O O20 0.139850 0.000000 0.344124
#
# Coordination Sequence:
#
# PCOD8108064 Si02
#       8
#     8   8   8   8   8   8   8   8
#     4  12  21  41  66  89 122 166 216 257 308 377
#     4  12  22  39  66  94 120 166 207 259 310 372
#     4  10  21  38  59  89 130 162 196 257 317 365
#     4  12  21  40  65  92 123 168 212 255 313 377
#     4  12  23  38  64  94 126 169 214 257 307 383
#     4  11  24  43  65  95 129 164 212 270 324 373
#     4  11  24  42  63  95 131 165 208 263 318 374
#     4  12  22  37  65  96 123 159 218 258 306 378
#
# _framework density 19.530631
#
# number of rings (size 3 to 8) (size 9 to 14) (size 15 to 20)
#    0.000    0.500    7.500    1.875    0.000    1.250 
#    0.000    2.500    0.000    1.500    0.000    0.000 
#    0.000    0.000    0.000    0.000    0.000    0.000 
#
# Total GULP energy -396748.925075 kJ/mol
# GULP energy per Si atom -12398.403909 kJ/mol
# Density = 1.948618 g / cm^3
# Si number density = 19.530631 Si / 1000 Ang^3
#
#
#
# Elastic Constant Matrix: (Units=GPa)
#
#
# Indices 1 2 3 4 5 6 
#
# 1 66.3910 29.6914 29.7767 0.0000 -3.2921 0.0000
# 2 29.6914 117.4242 48.5126 0.0000 -9.6470 0.0000
# 3 29.7767 48.5126 145.6918 0.0000 -23.4962 0.0000
# 4 0.0000 0.0000 0.0000 25.3398 0.0000 -3.3025
# 5 -3.2921 -9.6470 -23.4962 0.0000 42.3211 0.0000
# 6 0.0000 0.0000 0.0000 -3.3025 0.0000 36.9311
#
#
#
# Elastic Compliance Matrix: (Units=1/GPa)
#
#
# Indices 1 2 3 4 5 6 
#
# 1 0.017745 -0.003481 -0.002606 0.000000 -0.000860 0.000000
# 2 -0.003481 0.010566 -0.002704 0.000000 0.000636 0.000000
# 3 -0.002606 -0.002704 0.008968 0.000000 0.004160 0.000000
# 4 0.000000 0.000000 0.000000 0.039929 0.000000 0.003571
# 5 -0.000860 0.000636 0.004160 0.000000 0.026016 0.000000
# 6 0.000000 0.000000 0.000000 0.003571 0.000000 0.027397
#
#
# Mechanical properties :
#
#
# Convention : Reuss Voigt Hill
#
# Bulk Modulus (GPa) = 50.77185 60.60759 55.68972
# Shear Modulus (GPa) = 32.30614 35.68681 33.99648
#
# Velocity S-wave (km/s) = 4.07151 4.27924 4.17667
# Velocity P-wave (km/s) = 6.93941 7.45086 7.19968
#
# Compressibility (1/GPa) = 0.01969595
#
# Stress axis : x y z
#
# Youngs Moduli (GPa) = 56.35276 94.64535 111.51014
#
# Poissons Ratio (x) = 0.32945 0.29065
# Poissons Ratio (y) = 0.19616 0.30154
# Poissons Ratio (z) = 0.14688 0.25594
#
# Static dielectric constant tensor:
#      x y z
#    x 3.641640 0.000000 0.038980 
#    y 0.000000 3.639070 0.000000 
#    z 0.038980 0.000000 3.716990 
# 
# 
# High freq. dielectric constant tensor:
#      x y z
#    x 1.769140 0.000000 0.004540 
#    y 0.000000 1.749990 0.000000 
#    z 0.004540 0.000000 1.768970 
# 
# From -- ./inp_files/216835.got.cif
#   From: 2010.06.25/outbox.cif.g09.slc.cpg/sg12_109_cif.got.tgz:216835.got - 2010.06.28 00:19:55.
