data_PCOD8108002
_publ_section_title
;
Structure prediction by ZEFSAII (Michael W. Deem and Ramdas Pophale) SiO2 
 PCOD8108002
Probable space group: C 2/M
;
_chemical_formula_sum "Si O2"
_cell_formula_units_Z 56
_cell_length_a 8.820246
_cell_length_b 18.626336
_cell_length_c 26.226948
_cell_angle_alpha 90.000000
_cell_angle_beta 142.092482
_cell_angle_gamma 90.000000
_cell_volume 2647.275432
_symmetry_space_group_name_H-M "C 2/M"
_symmetry_group_IT_number 12
_symmetry_cell_setting 'monoclinic'
loop_
_space_group_symop_operation_xyz
x,y,z
-x,y,-z
-x,-y,-z
x,-y,z
1/2+x,1/2+y,z
1/2-x,1/2+y,-z
1/2-x,1/2-y,-z
1/2+x,1/2-y,z
loop_
_atom_site_type_symbol
_atom_site_label
_atom_site_fract_x
_atom_site_fract_y
_atom_site_fract_z
Si Si1 0.130178 0.920678 0.088260
Si Si2 0.240867 0.916704 0.530384
Si Si3 0.357719 0.804635 0.362021
Si Si4 0.914751 0.790917 0.085181
Si Si5 0.817711 0.584887 0.785307
Si Si6 0.081241 0.159077 0.389206
Si Si7 0.665122 0.690529 0.823209
O O1 0.973556 0.871140 0.083632
O O2 0.405048 0.890455 0.153604
O O3 0.138006 0.000000 0.114899
O O4 0.000000 0.923014 0.000000
O O5 0.468173 0.869220 0.612099
O O6 0.195352 0.896572 0.459459
O O7 0.000000 0.900569 0.500000
O O8 0.316902 0.000000 0.554164
O O9 0.282754 0.820361 0.400292
O O10 0.504662 0.730189 0.399532
O O11 0.123563 0.797408 0.262922
O O12 0.170175 0.748893 0.163024
O O13 0.770632 0.800018 0.100152
O O14 0.750000 0.750000 0.000000
O O15 0.784729 0.500000 0.776252
O O16 0.651280 0.621015 0.698240
O O17 0.742887 0.612677 0.821850
#
# Coordination Sequence:
#
# PCOD8108002 Si02
#       7
#     8   8   8   8   8   8   8
#     4  10  21  38  59  84 119 161 204 251 308 374
#     4  11  25  43  63  90 125 165 212 266 324 385
#     4  11  23  39  63  90 123 162 208 261 315 377
#     4  12  23  39  63  93 126 164 208 256 309 369
#     4  10  22  40  63  91 125 165 208 260 319 377
#     4  11  22  40  64  91 124 164 209 261 318 380
#     4  11  23  38  61  91 125 162 206 258 307 374
#
# _framework density 21.153825000000001
#
# number of rings (size 3 to 8) (size 9 to 14) (size 15 to 20)
#    0.000    1.143    0.000    7.714    0.000    5.143 
#    0.000    1.429    0.000    4.286    0.000    0.000 
#    0.000    0.000    0.000    0.000    0.000    0.000 
#
# Total GULP energy -347298.068159 kJ/mol
# GULP energy per Si atom -12403.502434 kJ/mol
# Density = 2.110568 g / cm^3
# Si number density = 21.153825 Si / 1000 Ang^3
#
#
#
# Elastic Constant Matrix: (Units=GPa)
#
#
# Indices 1 2 3 4 5 6 
#
# 1 94.0015 38.1742 22.5392 0.0004 -7.2241 0.0012
# 2 38.1742 107.7891 31.9990 0.0006 7.0796 0.0010
# 3 22.5392 31.9990 91.3662 0.0015 2.1628 0.0002
# 4 0.0004 0.0006 0.0015 42.3225 0.0007 1.5481
# 5 -7.2241 7.0796 2.1628 0.0007 37.8701 0.0005
# 6 0.0012 0.0010 0.0002 1.5481 0.0005 44.8151
#
#
#
# Elastic Compliance Matrix: (Units=1/GPa)
#
#
# Indices 1 2 3 4 5 6 
#
# 1 0.013087 -0.004326 -0.001794 0.000000 0.003408 0.000000
# 2 -0.004326 0.011898 -0.003032 0.000000 -0.002876 0.000000
# 3 -0.001794 -0.003032 0.012461 0.000000 -0.000487 0.000000
# 4 0.000000 0.000000 0.000000 0.023658 0.000000 -0.000817
# 5 0.003408 -0.002876 -0.000487 0.000000 0.027622 0.000000
# 6 0.000000 0.000000 0.000000 -0.000817 0.000000 0.022342
#
#
# Mechanical properties :
#
#
# Convention : Reuss Voigt Hill
#
# Bulk Modulus (GPa) = 52.23987 53.17572 52.70780
# Shear Modulus (GPa) = 36.83163 38.36450 37.59807
#
# Velocity S-wave (km/s) = 4.17722 4.26325 4.22045
# Velocity P-wave (km/s) = 6.92924 7.03036 6.97998
#
# Compressibility (1/GPa) = 0.01914247
#
# Stress axis : x y z
#
# Youngs Moduli (GPa) = 76.41175 84.04436 80.25102
#
# Poissons Ratio (x) = 0.36358 0.14397
# Poissons Ratio (y) = 0.33056 0.24331
# Poissons Ratio (z) = 0.13708 0.25481
#
# Static dielectric constant tensor:
#      x y z
#    x 3.798860 0.000000 0.196570 
#    y 0.000000 4.040070 0.000000 
#    z 0.196570 0.000000 3.831390 
# 
# 
# High freq. dielectric constant tensor:
#      x y z
#    x 1.833100 0.000000 0.011410 
#    y 0.000000 1.838100 0.000000 
#    z 0.011410 0.000000 1.835450 
# 
# From -- ./inp_files/356742.got.cif
#   From: 2010.06.25/outbox.cif.g09.slc.cpg/sg12_179_cif.got.tgz:356742.got - 2010.06.28 00:19:55.
