data_PCOD8108245
_publ_section_title
;
Structure prediction by ZEFSAII (Michael W. Deem and Ramdas Pophale) SiO2 
 PCOD8108245
Probable space group: C 2/M
;
_chemical_formula_sum "Si O2"
_cell_formula_units_Z 40
_cell_length_a 12.772254
_cell_length_b 14.123219
_cell_length_c 12.753465
_cell_angle_alpha 90.000000
_cell_angle_beta 119.335125
_cell_angle_gamma 90.000000
_cell_volume 2005.538037
_symmetry_space_group_name_H-M "C 2/M"
_symmetry_group_IT_number 12
_symmetry_cell_setting 'monoclinic'
loop_
_space_group_symop_operation_xyz
x,y,z
-x,y,-z
-x,-y,-z
x,-y,z
1/2+x,1/2+y,z
1/2-x,1/2+y,-z
1/2-x,1/2-y,-z
1/2+x,1/2-y,z
loop_
_atom_site_type_symbol
_atom_site_label
_atom_site_fract_x
_atom_site_fract_y
_atom_site_fract_z
Si Si1 0.460495 0.260721 0.868200
Si Si2 0.226186 0.608357 0.256483
Si Si3 0.739971 0.605488 0.290024
Si Si4 0.161463 0.664627 0.450332
Si Si5 0.906458 0.739561 0.265687
O O1 0.385813 0.163660 0.851937
O O2 0.382535 0.334815 0.761358
O O3 0.576528 0.247314 0.851364
O O4 0.500000 0.301677 0.000000
O O5 0.235764 0.500000 0.219797
O O6 0.197269 0.603828 0.366134
O O7 0.350041 0.664687 0.289959
O O8 0.706926 0.500000 0.240133
O O9 0.817586 0.602884 0.435155
O O10 0.814992 0.652942 0.233690
O O11 0.250000 0.750000 0.500000
O O12 0.028478 0.708441 0.383230
#
# Coordination Sequence:
#
# PCOD8108245 Si02
#       5
#     8   8   8   8   8
#     4  10  23  43  62  80 116 157 194 244 294 336
#     4  10  22  38  60  91 119 151 195 236 285 347
#     4  11  23  37  60  90 118 152 195 236 286 346
#     4  11  19  38  59  86 124 155 182 231 290 349
#     4  10  21  38  61  83 119 151 195 235 291 342
#
# _framework density 19.944770999999999
#
# number of rings (size 3 to 8) (size 9 to 14) (size 15 to 20)
#    0.000    1.600    6.000    1.200    0.000    9.600 
#    0.000    3.000    0.000    0.000    0.000    0.000 
#    0.000    0.000    0.000    0.000    0.000    0.000 
#
# Total GULP energy -247872.634303 kJ/mol
# GULP energy per Si atom -12393.631715 kJ/mol
# Density = 1.989938 g / cm^3
# Si number density = 19.944771 Si / 1000 Ang^3
#
#
#
# Elastic Constant Matrix: (Units=GPa)
#
#
# Indices 1 2 3 4 5 6 
#
# 1 101.4858 31.9753 34.1653 0.0000 -18.0552 0.0000
# 2 31.9753 134.8807 13.3405 0.0000 -0.5596 0.0000
# 3 34.1653 13.3405 92.1294 0.0000 -17.6707 0.0000
# 4 0.0000 0.0000 0.0000 14.5200 0.0000 -3.3160
# 5 -18.0552 -0.5596 -17.6707 0.0000 27.6616 0.0000
# 6 0.0000 0.0000 0.0000 -3.3160 0.0000 11.6413
#
#
#
# Elastic Compliance Matrix: (Units=1/GPa)
#
#
# Indices 1 2 3 4 5 6 
#
# 1 0.012908 -0.002720 -0.003177 0.000000 0.006341 0.000000
# 2 -0.002720 0.008104 -0.000540 0.000000 -0.001956 0.000000
# 3 -0.003177 -0.000540 0.013346 0.000000 0.006441 0.000000
# 4 0.000000 0.000000 0.000000 0.073662 0.000000 0.020983
# 5 0.006341 -0.001956 0.006441 0.000000 0.044365 0.000000
# 6 0.000000 0.000000 0.000000 0.020983 0.000000 0.091878
#
#
# Mechanical properties :
#
#
# Convention : Reuss Voigt Hill
#
# Bulk Modulus (GPa) = 46.54401 54.16200 50.35301
# Shear Modulus (GPa) = 18.91803 27.36557 23.14180
#
# Velocity S-wave (km/s) = 3.08315 3.70816 3.41000
# Velocity P-wave (km/s) = 6.00512 6.74899 6.38789
#
# Compressibility (1/GPa) = 0.02148504
#
# Stress axis : x y z
#
# Youngs Moduli (GPa) = 77.47125 123.39637 74.92845
#
# Poissons Ratio (x) = 0.33558 0.23803
# Poissons Ratio (y) = 0.21068 0.04047
# Poissons Ratio (z) = 0.24611 0.06665
#
# Static dielectric constant tensor:
#      x y z
#    x 3.766260 0.000000 0.436150 
#    y 0.000000 14.031400 0.000000 
#    z 0.436150 0.000000 4.356110 
# 
# 
# High freq. dielectric constant tensor:
#      x y z
#    x 1.788450 0.000000 -0.006410 
#    y 0.000000 1.766020 0.000000 
#    z -0.006410 0.000000 1.761460 
# 
# From -- ./inp_files/129577.got.cif
#   From: 2010.06.25/outbox.cif.g09.slc.cpg/sg12_65_cif.got.tgz:129577.got - 2010.06.28 00:19:55.
