data_PCOD8108974
_publ_section_title
;
Structure prediction by ZEFSAII (Michael W. Deem and Ramdas Pophale) SiO2 
 PCOD8108974
Probable space group: C 2/M
;
_chemical_formula_sum "Si O2"
_cell_formula_units_Z 40
_cell_length_a 14.488765
_cell_length_b 29.781989
_cell_length_c 8.601624
_cell_angle_alpha 90.000000
_cell_angle_beta 29.147869
_cell_angle_gamma 90.000000
_cell_volume 1807.809411
_symmetry_space_group_name_H-M "C 2/M"
_symmetry_group_IT_number 12
_symmetry_cell_setting 'monoclinic'
loop_
_space_group_symop_operation_xyz
x,y,z
-x,y,-z
-x,-y,-z
x,-y,z
1/2+x,1/2+y,z
1/2-x,1/2+y,-z
1/2-x,1/2-y,-z
1/2+x,1/2-y,z
loop_
_atom_site_type_symbol
_atom_site_label
_atom_site_fract_x
_atom_site_fract_y
_atom_site_fract_z
Si Si1 0.297129 0.500000 0.729040
Si Si2 0.691883 0.728663 0.311902
Si Si3 0.363149 0.840516 0.834382
Si Si4 0.446738 0.314299 0.915144
Si Si5 0.209074 0.000000 0.624993
Si Si6 0.992472 0.573734 0.827462
O O1 0.500000 0.500000 0.500000
O O2 0.309803 0.500000 0.528609
O O3 0.190268 0.544216 0.942395
O O4 0.500000 0.737636 0.500000
O O5 0.638014 0.704414 0.553112
O O6 0.835594 0.697375 0.004193
O O7 0.804250 0.774380 0.173706
O O8 0.500000 0.821542 0.500000
O O9 0.465394 0.882815 0.761648
O O10 0.158740 0.848918 0.048688
O O11 0.500000 0.338786 0.000000
O O12 0.323477 0.954457 0.501314
O O13 0.000000 0.000000 0.000000
O O14 0.000000 0.585834 0.000000
#
# Coordination Sequence:
#
# PCOD8108974 Si02
#       6
#     4   8   8   8   4   8
#     4   9  19  37  64  90 120 158 195 238 297 372
#     4  10  21  39  61  83 115 160 209 259 304 359
#     4  11  23  39  57  85 124 160 198 251 307 361
#     4  11  22  38  61  88 117 159 210 255 304 364
#     4   9  19  41  68  94 117 152 205 252 302 374
#     4   9  21  41  63  88 122 162 200 247 307 366
#
# _framework density 22.126225999999999
#
# number of rings (size 3 to 8) (size 9 to 14) (size 15 to 20)
#    0.000    2.000    0.000    6.000    0.000    6.400 
#    0.000   11.000    0.000    0.000    0.000    2.100 
#    0.000    0.000    0.000    0.000    0.000    0.000 
#
# Total GULP energy -247855.260045 kJ/mol
# GULP energy per Si atom -12392.763002 kJ/mol
# Density = 2.207587 g / cm^3
# Si number density = 22.126226 Si / 1000 Ang^3
#
#
#
# Elastic Constant Matrix: (Units=GPa)
#
#
# Indices 1 2 3 4 5 6 
#
# 1 101.6735 43.6001 21.7524 0.0000 -6.1093 0.0000
# 2 43.6001 90.3936 35.2927 0.0000 -10.5878 0.0000
# 3 21.7524 35.2927 141.7130 0.0000 -1.8148 0.0000
# 4 0.0000 0.0000 0.0000 15.6669 0.0000 -1.5549
# 5 -6.1093 -10.5878 -1.8148 0.0000 36.2290 0.0000
# 6 0.0000 0.0000 0.0000 -1.5549 0.0000 30.3758
#
#
#
# Elastic Compliance Matrix: (Units=1/GPa)
#
#
# Indices 1 2 3 4 5 6 
#
# 1 0.012432 -0.005769 -0.000467 0.000000 0.000387 0.000000
# 2 -0.005769 0.015373 -0.002900 0.000000 0.003375 0.000000
# 3 -0.000467 -0.002900 0.007843 0.000000 -0.000533 0.000000
# 4 0.000000 0.000000 0.000000 0.064155 0.000000 0.003284
# 5 0.000387 0.003375 -0.000533 0.000000 0.028627 0.000000
# 6 0.000000 0.000000 0.000000 0.003284 0.000000 0.033089
#
#
# Mechanical properties :
#
#
# Convention : Reuss Voigt Hill
#
# Bulk Modulus (GPa) = 57.54473 59.45229 58.49851
# Shear Modulus (GPa) = 26.94211 31.99666 29.46938
#
# Velocity S-wave (km/s) = 3.49328 3.80688 3.65345
# Velocity P-wave (km/s) = 6.50650 6.80081 6.65529
#
# Compressibility (1/GPa) = 0.01737779
#
# Stress axis : x y z
#
# Youngs Moduli (GPa) = 80.43486 65.04994 127.49451
#
# Poissons Ratio (x) = 0.37528 0.05949
# Poissons Ratio (y) = 0.46404 0.36970
# Poissons Ratio (z) = 0.03753 0.18863
#
# Static dielectric constant tensor:
#      x y z
#    x 4.109470 0.000000 0.058990 
#    y 0.000000 3.737110 0.000000 
#    z 0.058990 0.000000 4.199100 
# 
# 
# High freq. dielectric constant tensor:
#      x y z
#    x 1.873160 0.000000 0.000530 
#    y 0.000000 1.844240 0.000000 
#    z 0.000530 0.000000 1.883820 
# 
# From -- ./inp_files/68505.got.cif
#   From: 2010.06.25/outbox.cif.g09.slc.cpg/sg12_35_cif.got.tgz:68505.got - 2010.06.28 00:19:55.
