data_PCOD8108707
_publ_section_title
;
Structure prediction by ZEFSAII (Michael W. Deem and Ramdas Pophale) SiO2 
 PCOD8108707
Probable space group: C 2/M
;
_chemical_formula_sum "Si O2"
_cell_formula_units_Z 64
_cell_length_a 19.642244
_cell_length_b 8.900385
_cell_length_c 30.633293
_cell_angle_alpha 90.000000
_cell_angle_beta 142.399024
_cell_angle_gamma 90.000000
_cell_volume 3267.656218
_symmetry_space_group_name_H-M "C 2/M"
_symmetry_group_IT_number 12
_symmetry_cell_setting 'monoclinic'
loop_
_space_group_symop_operation_xyz
x,y,z
-x,y,-z
-x,-y,-z
x,-y,z
1/2+x,1/2+y,z
1/2-x,1/2+y,-z
1/2-x,1/2-y,-z
1/2+x,1/2-y,z
loop_
_atom_site_type_symbol
_atom_site_label
_atom_site_fract_x
_atom_site_fract_y
_atom_site_fract_z
Si Si1 0.530964 0.328272 0.465545
Si Si2 0.622530 0.177175 0.683007
Si Si3 0.013001 0.830891 0.797141
Si Si4 0.749550 0.822915 0.546601
Si Si5 0.877965 0.178177 0.812551
Si Si6 0.257675 0.167663 0.958909
Si Si7 0.465202 0.322361 0.030094
Si Si8 0.030034 0.675301 0.312248
O O1 0.500000 0.317968 0.500000
O O2 0.552479 0.500000 0.462057
O O3 0.433339 0.261459 0.385944
O O4 0.642155 0.231489 0.518031
O O5 0.750228 0.234231 0.751568
O O6 0.559009 0.218751 0.695583
O O7 0.616924 0.000000 0.671074
O O8 0.137713 0.835764 0.876843
O O9 0.931544 0.767695 0.793904
O O10 0.016392 0.716157 0.758676
O O11 0.975494 0.000000 0.764245
O O12 0.750000 0.750000 0.500000
O O13 0.859327 0.773561 0.627565
O O14 0.744840 0.000000 0.539303
O O15 0.949833 0.242364 0.889876
O O16 0.882504 0.000000 0.816816
O O17 0.302905 0.000000 0.989385
O O18 0.250000 0.250000 0.000000
O O19 0.342203 0.256956 0.971570
O O20 0.458654 0.500000 0.031037
O O21 0.500000 0.269577 0.000000
O O22 0.059636 0.500000 0.329995
#
# Coordination Sequence:
#
# PCOD8108707 Si02
#       8
#     8   8   8   8   8   8   8   8
#     4  11  25  43  64  93 127 161 203 256 307 362
#     4  10  22  40  63  88 120 164 206 250 302 365
#     4  10  22  40  61  87 122 164 205 255 311 368
#     4  12  24  42  68  93 123 164 208 255 308 364
#     4   9  19  39  60  86 121 159 206 252 301 365
#     4  11  22  39  63  89 123 161 208 261 312 367
#     4  10  21  38  64  91 121 163 207 253 309 368
#     4  11  24  40  62  94 126 159 206 258 305 364
#
# _framework density 19.585903999999999
#
# number of rings (size 3 to 8) (size 9 to 14) (size 15 to 20)
#    0.000    1.500    2.500    2.250    3.500    2.750 
#    0.000    0.625    0.000    0.000    0.000    0.000 
#    0.000    0.000    0.000    0.000    0.000    0.000 
#
# Total GULP energy -396853.745234 kJ/mol
# GULP energy per Si atom -12401.679539 kJ/mol
# Density = 1.954133 g / cm^3
# Si number density = 19.585904 Si / 1000 Ang^3
#
#
#
# Elastic Constant Matrix: (Units=GPa)
#
#
# Indices 1 2 3 4 5 6 
#
# 1 136.5636 48.0694 60.3829 0.0000 2.0827 -0.0001
# 2 48.0694 62.7204 31.5502 0.0002 -6.5293 -0.0004
# 3 60.3829 31.5502 99.2300 0.0000 2.3125 -0.0001
# 4 0.0000 0.0002 0.0000 32.2225 0.0000 1.2006
# 5 2.0827 -6.5293 2.3125 0.0000 40.9422 0.0000
# 6 -0.0001 -0.0004 -0.0001 1.2006 0.0000 24.2701
#
#
#
# Elastic Compliance Matrix: (Units=1/GPa)
#
#
# Indices 1 2 3 4 5 6 
#
# 1 0.011982 -0.006758 -0.005110 0.000000 -0.001399 0.000000
# 2 -0.006758 0.023268 -0.003384 0.000000 0.004246 0.000000
# 3 -0.005110 -0.003384 0.014288 0.000000 -0.001087 0.000000
# 4 0.000000 0.000000 0.000000 0.031092 0.000000 -0.001538
# 5 -0.001399 0.004246 -0.001087 0.000000 0.025234 0.000000
# 6 0.000000 0.000000 0.000000 -0.001538 0.000000 0.041279
#
#
# Mechanical properties :
#
#
# Convention : Reuss Voigt Hill
#
# Bulk Modulus (GPa) = 52.53998 64.27990 58.40994
# Shear Modulus (GPa) = 27.17488 30.05438 28.61463
#
# Velocity S-wave (km/s) = 3.72892 3.92151 3.82642
# Velocity P-wave (km/s) = 6.73969 7.30719 7.02917
#
# Compressibility (1/GPa) = 0.01903312
#
# Stress axis : x y z
#
# Youngs Moduli (GPa) = 83.45677 42.97759 69.98657
#
# Poissons Ratio (x) = 0.29046 0.35763
# Poissons Ratio (y) = 0.56404 0.23686
# Poissons Ratio (z) = 0.42646 0.14545
#
# Static dielectric constant tensor:
#      x y z
#    x 3.000690 0.000020 0.094760 
#    y 0.000020 3.509710 0.000000 
#    z 0.094760 0.000000 3.631250 
# 
# 
# High freq. dielectric constant tensor:
#      x y z
#    x 1.777140 0.000000 0.002400 
#    y 0.000000 1.753750 0.000000 
#    z 0.002400 0.000000 1.772360 
# 
# From -- ./inp_files/378469.got.cif
#   From: 2010.06.25/outbox.cif.g09.slc.cpg/sg12_190_cif.got.tgz:378469.got - 2010.06.28 00:19:55.
