data_PCOD8108027
_publ_section_title
;
Structure prediction by ZEFSAII (Michael W. Deem and Ramdas Pophale) SiO2 
 PCOD8108027
Probable space group: C 2/M
;
_chemical_formula_sum "Si O2"
_cell_formula_units_Z 52
_cell_length_a 17.791951
_cell_length_b 25.553441
_cell_length_c 11.488579
_cell_angle_alpha 90.000000
_cell_angle_beta 147.994215
_cell_angle_gamma 90.000000
_cell_volume 2768.338245
_symmetry_space_group_name_H-M "C 2/M"
_symmetry_group_IT_number 12
_symmetry_cell_setting 'monoclinic'
loop_
_space_group_symop_operation_xyz
x,y,z
-x,y,-z
-x,-y,-z
x,-y,z
1/2+x,1/2+y,z
1/2-x,1/2+y,-z
1/2-x,1/2-y,-z
1/2+x,1/2-y,z
loop_
_atom_site_type_symbol
_atom_site_label
_atom_site_fract_x
_atom_site_fract_y
_atom_site_fract_z
Si Si1 0.000000 0.220098 0.500000
Si Si2 0.445379 0.557510 0.557942
Si Si3 0.288789 0.267944 0.873777
Si Si4 0.759863 0.804383 0.575644
Si Si5 0.997591 0.160696 0.266366
Si Si6 0.029221 0.336178 0.901231
Si Si7 0.870722 0.442527 0.918937
O O1 0.129526 0.257299 0.707110
O O2 0.054512 0.185460 0.462664
O O3 0.500000 0.565098 0.500000
O O4 0.485124 0.500000 0.657097
O O5 0.526007 0.599010 0.745418
O O6 0.276218 0.566541 0.342478
O O7 0.293271 0.293936 0.753212
O O8 0.350729 0.311435 0.041852
O O9 0.376529 0.214361 0.001827
O O10 0.750000 0.750000 0.500000
O O11 0.890363 0.835004 0.690619
O O12 0.613327 0.835119 0.363048
O O13 0.106368 0.391457 0.968141
O O14 0.000000 0.336244 0.000000
O O15 0.863151 0.500000 0.973950
O O16 0.000000 0.444651 0.000000
#
# Coordination Sequence:
#
# PCOD8108027 Si02
#       7
#     4   8   8   8   8   8   8
#     4  12  22  36  51  84 117 150 190 234 282 342
#     4  10  21  38  59  86 115 147 190 239 290 343
#     4  12  23  36  53  81 116 156 189 229 286 345
#     4  12  21  36  54  81 113 151 196 231 279 348
#     4  12  22  36  59  82 115 150 189 238 289 340
#     4  11  18  31  54  77 107 144 184 230 279 331
#     4   9  18  31  51  79 109 140 181 233 285 326
#
# _framework density 18.783833000000001
#
# number of rings (size 3 to 8) (size 9 to 14) (size 15 to 20)
#    0.000    0.923    5.385    3.692    0.000    0.000 
#    0.000    0.000    0.000    2.769    0.000    0.538 
#    0.000    0.000    0.000    0.000    0.000    0.000 
#
# Total GULP energy -322294.902351 kJ/mol
# GULP energy per Si atom -12395.957783 kJ/mol
# Density = 1.874108 g / cm^3
# Si number density = 18.783833 Si / 1000 Ang^3
#
#
#
# Elastic Constant Matrix: (Units=GPa)
#
#
# Indices 1 2 3 4 5 6 
#
# 1 61.8091 26.7889 20.6974 0.0000 6.1558 0.0000
# 2 26.7889 175.4594 57.6710 0.0000 -1.8787 0.0000
# 3 20.6974 57.6710 90.4473 0.0000 10.7818 0.0000
# 4 0.0000 0.0000 0.0000 30.4759 0.0000 -3.8582
# 5 6.1558 -1.8787 10.7818 0.0000 31.7484 0.0000
# 6 0.0000 0.0000 0.0000 -3.8582 0.0000 22.0366
#
#
#
# Elastic Compliance Matrix: (Units=1/GPa)
#
#
# Indices 1 2 3 4 5 6 
#
# 1 0.018165 -0.001955 -0.002581 0.000000 -0.002761 0.000000
# 2 -0.001955 0.007554 -0.004656 0.000000 0.002407 0.000000
# 3 -0.002581 -0.004656 0.015204 0.000000 -0.004938 0.000000
# 4 0.000000 0.000000 0.000000 0.033557 0.000000 0.005875
# 5 -0.002761 0.002407 -0.004938 0.000000 0.033853 0.000000
# 6 0.000000 0.000000 0.000000 0.005875 0.000000 0.046408
#
#
# Mechanical properties :
#
#
# Convention : Reuss Voigt Hill
#
# Bulk Modulus (GPa) = 44.36686 59.78116 52.07401
# Shear Modulus (GPa) = 27.67962 31.68941 29.68451
#
# Velocity S-wave (km/s) = 3.84290 4.11184 3.97964
# Velocity P-wave (km/s) = 6.58494 7.37820 6.99283
#
# Compressibility (1/GPa) = 0.02253934
#
# Stress axis : x y z
#
# Youngs Moduli (GPa) = 55.04978 132.38092 65.77001
#
# Poissons Ratio (x) = 0.25874 0.16978
# Poissons Ratio (y) = 0.10760 0.30624
# Poissons Ratio (z) = 0.14211 0.61640
#
# Static dielectric constant tensor:
#      x y z
#    x 2.885950 0.000000 0.220110 
#    y 0.000000 4.060310 0.000000 
#    z 0.220110 0.000000 3.442880 
# 
# 
# High freq. dielectric constant tensor:
#      x y z
#    x 1.712200 0.000000 0.027720 
#    y 0.000000 1.732630 0.000000 
#    z 0.027720 0.000000 1.721360 
# 
# From -- ./inp_files/160833.got.cif
#   From: 2010.06.25/outbox.cif.g09.slc.cpg/sg12_81_cif.got.tgz:160833.got - 2010.06.28 00:19:55.
