data_PCOD8108545
_publ_section_title
;
Structure prediction by ZEFSAII (Michael W. Deem and Ramdas Pophale) SiO2 
 PCOD8108545
Probable space group: C 2/M
;
_chemical_formula_sum "Si O2"
_cell_formula_units_Z 64
_cell_length_a 19.844137
_cell_length_b 9.086713
_cell_length_c 30.614318
_cell_angle_alpha 90.000000
_cell_angle_beta 143.899292
_cell_angle_gamma 90.000000
_cell_volume 3252.602784
_symmetry_space_group_name_H-M "C 2/M"
_symmetry_group_IT_number 12
_symmetry_cell_setting 'monoclinic'
loop_
_space_group_symop_operation_xyz
x,y,z
-x,y,-z
-x,-y,-z
x,-y,z
1/2+x,1/2+y,z
1/2-x,1/2+y,-z
1/2-x,1/2-y,-z
1/2+x,1/2-y,z
loop_
_atom_site_type_symbol
_atom_site_label
_atom_site_fract_x
_atom_site_fract_y
_atom_site_fract_z
Si Si1 0.420541 0.669822 0.095048
Si Si2 0.669543 0.669880 0.195562
Si Si3 0.260441 0.170797 0.073761
Si Si4 0.165782 0.670981 0.638724
Si Si5 0.269384 0.828669 0.610930
Si Si6 0.771629 0.172260 0.169220
Si Si7 0.451822 0.329627 0.559735
Si Si8 0.028632 0.827999 0.330359
O O1 0.411225 0.500000 0.104201
O O2 0.550487 0.717581 0.155075
O O3 0.374540 0.765457 0.111189
O O4 0.348638 0.701215 0.013790
O O5 0.664758 0.500000 0.178542
O O6 0.770883 0.699011 0.282544
O O7 0.688655 0.769135 0.163374
O O8 0.234715 0.251203 0.105331
O O9 0.280269 0.000000 0.093162
O O10 0.156905 0.500000 0.622437
O O11 0.236290 0.750391 0.638193
O O12 0.039031 0.737208 0.575809
O O13 0.174506 0.800009 0.524296
O O14 0.388267 0.763377 0.656922
O O15 0.285044 0.000000 0.628741
O O16 0.901595 0.211536 0.248862
O O17 0.752509 0.000000 0.154379
O O18 0.487590 0.500000 0.574792
O O19 0.455023 0.275711 0.611280
O O20 0.056470 0.000000 0.339966
#
# Coordination Sequence:
#
# PCOD8108545 Si02
#       8
#     8   8   8   8   8   8   8   8
#     4   9  20  40  63  88 121 158 194 237 289 339
#     4  10  22  40  61  85 115 154 197 240 288 342
#     4  10  21  38  62  91 122 155 194 239 284 341
#     4  11  23  38  59  87 118 153 195 242 290 347
#     4  11  24  38  59  87 116 151 194 244 293 348
#     4  11  23  39  61  86 118 157 193 239 292 345
#     4  10  21  41  62  83 115 154 194 240 295 347
#     4  10  22  40  60  83 115 153 194 240 292 347
#
# _framework density 19.676549999999999
#
# number of rings (size 3 to 8) (size 9 to 14) (size 15 to 20)
#    0.000    1.750    1.250    2.250    1.750    6.000 
#    0.000    2.500    0.000    0.000    0.000    0.000 
#    0.000    0.000    0.000    0.000    0.000    0.000 
#
# Total GULP energy -397028.473734 kJ/mol
# GULP energy per Si atom -12407.139804 kJ/mol
# Density = 1.963177 g / cm^3
# Si number density = 19.676550 Si / 1000 Ang^3
#
#
#
# Elastic Constant Matrix: (Units=GPa)
#
#
# Indices 1 2 3 4 5 6 
#
# 1 78.9201 36.3695 -3.4738 0.0000 -1.5001 0.0001
# 2 36.3695 75.4652 15.1988 0.0000 -1.6110 0.0003
# 3 -3.4738 15.1988 27.3994 0.0000 3.4038 0.0000
# 4 0.0000 0.0000 0.0000 29.3718 0.0000 -0.3910
# 5 -1.5001 -1.6110 3.4038 0.0000 35.4589 0.0000
# 6 0.0001 0.0003 0.0000 -0.3910 0.0000 44.0489
#
#
#
# Elastic Compliance Matrix: (Units=1/GPa)
#
#
# Indices 1 2 3 4 5 6 
#
# 1 0.017675 -0.010122 0.007915 0.000000 -0.000472 0.000000
# 2 -0.010122 0.020793 -0.013037 0.000000 0.001768 0.000000
# 3 0.007915 -0.013037 0.045305 0.000000 -0.004606 0.000000
# 4 0.000000 0.000000 0.000000 0.034050 0.000000 0.000302
# 5 -0.000472 0.001768 -0.004606 0.000000 0.028704 0.000000
# 6 0.000000 0.000000 0.000000 0.000302 0.000000 0.022705
#
#
# Mechanical properties :
#
#
# Convention : Reuss Voigt Hill
#
# Bulk Modulus (GPa) = 18.76769 30.88596 24.82682
# Shear Modulus (GPa) = 22.99028 30.68861 26.83945
#
# Velocity S-wave (km/s) = 3.42191 3.95353 3.69729
# Velocity P-wave (km/s) = 5.01711 6.04743 5.55621
#
# Compressibility (1/GPa) = 0.05328306
#
# Stress axis : x y z
#
# Youngs Moduli (GPa) = 56.57621 48.09314 22.07273
#
# Poissons Ratio (x) = 0.48682 -0.17470
# Poissons Ratio (y) = 0.57269 0.28777
# Poissons Ratio (z) = -0.44778 0.62700
#
# Static dielectric constant tensor:
#      x y z
#    x 3.586630 0.000000 -0.022070 
#    y 0.000000 3.603870 0.000000 
#    z -0.022070 0.000000 3.608930 
# 
# 
# High freq. dielectric constant tensor:
#      x y z
#    x 1.776020 0.000000 -0.001810 
#    y 0.000000 1.770090 0.000000 
#    z -0.001810 0.000000 1.770330 
# 
# From -- ./inp_files/378278.got.cif
#   From: 2010.06.25/outbox.cif.g09.slc.cpg/sg12_190_cif.got.tgz:378278.got - 2010.06.28 00:19:55.
