data_PCOD8108166
_publ_section_title
;
Structure prediction by ZEFSAII (Michael W. Deem and Ramdas Pophale) SiO2 
 PCOD8108166
Probable space group: C 2/M
;
_chemical_formula_sum "Si O2"
_cell_formula_units_Z 36
_cell_length_a 26.049789
_cell_length_b 13.488603
_cell_length_c 8.341148
_cell_angle_alpha 90.000000
_cell_angle_beta 34.450498
_cell_angle_gamma 90.000000
_cell_volume 1657.977316
_symmetry_space_group_name_H-M "C 2/M"
_symmetry_group_IT_number 12
_symmetry_cell_setting 'monoclinic'
loop_
_space_group_symop_operation_xyz
x,y,z
-x,y,-z
-x,-y,-z
x,-y,z
1/2+x,1/2+y,z
1/2-x,1/2+y,-z
1/2-x,1/2-y,-z
1/2+x,1/2-y,z
loop_
_atom_site_type_symbol
_atom_site_label
_atom_site_fract_x
_atom_site_fract_y
_atom_site_fract_z
Si Si1 0.098017 0.500000 0.370970
Si Si2 0.525318 0.500000 0.700908
Si Si3 0.280628 0.839577 0.811649
Si Si4 0.155495 0.701052 0.688727
Si Si5 0.415448 0.000000 0.970757
Si Si6 0.000000 0.834175 0.000000
Si Si7 0.359486 0.500000 0.913241
O O1 0.160405 0.404433 0.221764
O O2 0.070403 0.500000 0.257124
O O3 0.025278 0.500000 0.710675
O O4 0.551395 0.404098 0.739241
O O5 0.419101 0.500000 0.921679
O O6 0.583243 0.500000 0.394088
O O7 0.344362 0.807004 0.502786
O O8 0.250000 0.750000 0.000000
O O9 0.199136 0.899838 0.937325
O O10 0.250000 0.750000 0.500000
O O11 0.069080 0.772119 0.934611
O O12 0.136478 0.596406 0.827198
#
# Coordination Sequence:
#
# PCOD8108166 Si02
#       7
#     4   4   8   8   4   4   4
#     4  10  23  41  64  89 123 170 209 263 325 380
#     4  10  22  40  61  85 124 159 204 257 305 372
#     4  11  22  39  62  91 125 162 211 262 318 381
#     4  12  25  41  66  95 126 166 211 263 322 386
#     4  11  24  43  63  91 128 164 214 266 321 389
#     4  11  24  41  62  92 122 161 206 255 316 376
#     4  10  21  38  60  87 117 163 203 251 313 366
#
# _framework density 21.713204000000001
#
# number of rings (size 3 to 8) (size 9 to 14) (size 15 to 20)
#    0.000    1.111    0.000    6.667    0.000    4.889 
#    0.000    4.444    0.000    0.000    0.000    0.000 
#    0.000    0.000    0.000    0.000    0.000    0.000 
#
# Total GULP energy -223063.872761 kJ/mol
# GULP energy per Si atom -12392.437376 kJ/mol
# Density = 2.166378 g / cm^3
# Si number density = 21.713204 Si / 1000 Ang^3
#
#
#
# Elastic Constant Matrix: (Units=GPa)
#
#
# Indices 1 2 3 4 5 6 
#
# 1 66.2034 37.6704 18.9523 0.0000 -4.5900 0.0000
# 2 37.6704 161.8045 57.6105 0.0000 -5.3754 0.0000
# 3 18.9523 57.6105 100.7787 0.0000 6.6612 0.0000
# 4 0.0000 0.0000 0.0000 28.1616 0.0000 20.0101
# 5 -4.5900 -5.3754 6.6612 0.0000 49.4682 0.0000
# 6 0.0000 0.0000 0.0000 20.0101 0.0000 -62.2257
#
#
#
# Elastic Compliance Matrix: (Units=1/GPa)
#
#
# Indices 1 2 3 4 5 6 
#
# 1 0.017627 -0.003569 -0.001370 0.000000 0.001432 0.000000
# 2 -0.003569 0.008587 -0.004316 0.000000 0.001183 0.000000
# 3 -0.001370 -0.004316 0.012801 0.000000 -0.002320 0.000000
# 4 0.000000 0.000000 0.000000 0.028905 0.000000 0.009295
# 5 0.001432 0.001183 -0.002320 0.000000 0.020789 0.000000
# 6 0.000000 0.000000 0.000000 0.009295 0.000000 -0.013081
#
#
# Mechanical properties :
#
#
# Convention : Reuss Voigt Hill
#
# Bulk Modulus (GPa) = 48.76465 61.91700 55.34083
# Shear Modulus (GPa) = 49.51927 17.38436 33.45181
#
# Velocity S-wave (km/s) = 4.78075 2.83262 3.92933
# Velocity P-wave (km/s) = 7.27883 6.26706 6.79181
#
# Compressibility (1/GPa) = 0.02050666
#
# Stress axis : x y z
#
# Youngs Moduli (GPa) = 56.73152 116.45352 78.11982
#
# Poissons Ratio (x) = 0.41557 0.10699
# Poissons Ratio (y) = 0.20245 0.33716
# Poissons Ratio (z) = 0.07770 0.50261
#
# Static dielectric constant tensor:
#      x y z
#    x 4.011110 0.000000 -0.136050 
#    y 0.000000 3.953850 0.000000 
#    z -0.136050 0.000000 3.992030 
# 
# 
# High freq. dielectric constant tensor:
#      x y z
#    x 1.859150 0.000000 0.000580 
#    y 0.000000 1.864590 0.000000 
#    z 0.000580 0.000000 1.862810 
# 
# From -- ./inp_files/111467.got.cif
#   From: 2010.06.25/outbox.cif.g09.slc.cpg/sg12_56_cif.got.tgz:111467.got - 2010.06.28 00:19:55.
