data_PCOD8108878
_publ_section_title
;
Structure prediction by ZEFSAII (Michael W. Deem and Ramdas Pophale) SiO2 
 PCOD8108878
Probable space group: C 2/M
;
_chemical_formula_sum "Si O2"
_cell_formula_units_Z 48
_cell_length_a 20.557186
_cell_length_b 8.604594
_cell_length_c 20.985552
_cell_angle_alpha 90.000000
_cell_angle_beta 41.524729
_cell_angle_gamma 90.000000
_cell_volume 2460.882007
_symmetry_space_group_name_H-M "C 2/M"
_symmetry_group_IT_number 12
_symmetry_cell_setting 'monoclinic'
loop_
_space_group_symop_operation_xyz
x,y,z
-x,y,-z
-x,-y,-z
x,-y,z
1/2+x,1/2+y,z
1/2-x,1/2+y,-z
1/2-x,1/2-y,-z
1/2+x,1/2-y,z
loop_
_atom_site_type_symbol
_atom_site_label
_atom_site_fract_x
_atom_site_fract_y
_atom_site_fract_z
Si Si1 0.497482 0.680849 0.596371
Si Si2 0.164478 0.319450 0.794028
Si Si3 0.424842 0.819345 0.771954
Si Si4 0.953475 0.318529 0.895738
Si Si5 0.353003 0.818850 0.602892
Si Si6 0.704663 0.680476 0.899360
O O1 0.479016 0.500000 0.598847
O O2 0.494070 0.722723 0.673319
O O3 0.411137 0.775014 0.624503
O O4 0.602800 0.727623 0.490088
O O5 0.184872 0.500000 0.767778
O O6 0.239683 0.224037 0.694975
O O7 0.175821 0.281991 0.859805
O O8 0.055978 0.272160 0.852334
O O9 0.457763 0.773939 0.818519
O O10 0.312047 0.771845 0.844622
O O11 0.441595 0.000000 0.746068
O O12 0.929011 0.500000 0.923204
O O13 0.869366 0.216254 0.989336
O O14 0.364252 0.000000 0.581580
O O15 0.699475 0.500000 0.884383
#
# Coordination Sequence:
#
# PCOD8108878 Si02
#       6
#     8   8   8   8   8   8
#     4  11  21  35  59  89 116 147 188 235 283 339
#     4  11  22  38  59  85 116 152 195 239 285 338
#     4  10  21  39  59  84 117 154 193 235 288 338
#     4  10  23  40  58  81 117 158 194 237 285 339
#     4  11  21  36  59  86 116 149 187 236 287 338
#     4  11  22  36  59  86 114 151 197 243 285 338
#
# _framework density 19.505202000000001
#
# number of rings (size 3 to 8) (size 9 to 14) (size 15 to 20)
#    0.000    1.333    1.667    6.000    0.000    4.667 
#    0.000    0.833    0.000    0.000    0.000    0.000 
#    0.000    0.000    0.000    0.000    0.000    0.000 
#
# Total GULP energy -297760.483124 kJ/mol
# GULP energy per Si atom -12406.686797 kJ/mol
# Density = 1.946081 g / cm^3
# Si number density = 19.505202 Si / 1000 Ang^3
#
#
#
# Elastic Constant Matrix: (Units=GPa)
#
#
# Indices 1 2 3 4 5 6 
#
# 1 69.9170 17.0174 10.9270 0.0000 10.7016 0.0000
# 2 17.0174 65.1204 22.6334 0.0005 1.4460 -0.0006
# 3 10.9270 22.6334 97.9456 0.0000 12.5938 0.0000
# 4 0.0000 0.0005 0.0000 39.3445 -0.0001 2.2859
# 5 10.7016 1.4460 12.5938 -0.0001 14.6845 0.0002
# 6 0.0000 -0.0006 0.0000 2.2859 0.0002 21.8597
#
#
#
# Elastic Compliance Matrix: (Units=1/GPa)
#
#
# Indices 1 2 3 4 5 6 
#
# 1 0.017229 -0.004481 0.000754 0.000000 -0.012761 0.000000
# 2 -0.004481 0.017909 -0.004306 0.000000 0.005195 0.000000
# 3 0.000754 -0.004306 0.012517 0.000000 -0.010861 0.000000
# 4 0.000000 0.000000 0.000000 0.025572 0.000000 -0.002674
# 5 -0.012761 0.005195 -0.010861 0.000000 0.086202 -0.000001
# 6 0.000000 0.000000 0.000000 -0.002674 -0.000001 0.046026
#
#
# Mechanical properties :
#
#
# Convention : Reuss Voigt Hill
#
# Bulk Modulus (GPa) = 31.65757 37.12651 34.39204
# Shear Modulus (GPa) = 21.54709 27.33808 24.44259
#
# Velocity S-wave (km/s) = 3.32728 3.74783 3.54380
# Velocity P-wave (km/s) = 5.57016 6.14848 5.86645
#
# Compressibility (1/GPa) = 0.03158802
#
# Stress axis : x y z
#
# Youngs Moduli (GPa) = 58.04266 55.83923 79.89007
#
# Poissons Ratio (x) = 0.25022 -0.06026
# Poissons Ratio (y) = 0.26009 0.34404
# Poissons Ratio (z) = -0.04378 0.24047
#
# Static dielectric constant tensor:
#      x y z
#    x 3.443480 0.000000 0.005530 
#    y 0.000000 3.543290 0.000000 
#    z 0.005530 0.000000 3.675470 
# 
# 
# High freq. dielectric constant tensor:
#      x y z
#    x 1.740390 0.000000 0.004120 
#    y 0.000000 1.765000 0.000000 
#    z 0.004120 0.000000 1.775140 
# 
# From -- ./inp_files/249383.got.cif
#   From: 2010.06.25/outbox.cif.g09.slc.cpg/sg12_125_cif.got.tgz:249383.got - 2010.06.28 00:19:55.
