data_PCOD8108474
_publ_section_title
;
Structure prediction by ZEFSAII (Michael W. Deem and Ramdas Pophale) SiO2 
 PCOD8108474
Probable space group: C 2/M
;
_chemical_formula_sum "Si O2"
_cell_formula_units_Z 56
_cell_length_a 18.348451
_cell_length_b 9.099207
_cell_length_c 18.249833
_cell_angle_alpha 90.000000
_cell_angle_beta 112.661844
_cell_angle_gamma 90.000000
_cell_volume 2811.687315
_symmetry_space_group_name_H-M "C 2/M"
_symmetry_group_IT_number 12
_symmetry_cell_setting 'monoclinic'
loop_
_space_group_symop_operation_xyz
x,y,z
-x,y,-z
-x,-y,-z
x,-y,z
1/2+x,1/2+y,z
1/2-x,1/2+y,-z
1/2-x,1/2-y,-z
1/2+x,1/2-y,z
loop_
_atom_site_type_symbol
_atom_site_label
_atom_site_fract_x
_atom_site_fract_y
_atom_site_fract_z
Si Si1 0.818780 0.327124 0.980753
Si Si2 0.218871 0.669132 0.695818
Si Si3 0.863451 0.172551 0.851347
Si Si4 0.066263 0.328347 0.723361
Si Si5 0.474898 0.336726 0.566754
Si Si6 0.798283 0.837818 0.460617
Si Si7 0.523677 0.171347 0.868579
O O1 0.800121 0.500000 0.968105
O O2 0.822121 0.255718 0.902253
O O3 0.750000 0.250000 0.000000
O O4 0.903658 0.298994 0.049715
O O5 0.208903 0.500000 0.669383
O O6 0.306823 0.699495 0.759506
O O7 0.155358 0.712002 0.733955
O O8 0.199942 0.764028 0.617727
O O9 0.949515 0.235577 0.867521
O O10 0.870021 0.000000 0.872310
O O11 0.051727 0.500000 0.714098
O O12 0.050691 0.271546 0.799345
O O13 0.002212 0.256425 0.645992
O O14 0.500000 0.260016 0.500000
O O15 0.513531 0.500000 0.586277
O O16 0.381914 0.347564 0.531912
O O17 0.750000 0.750000 0.500000
O O18 0.762250 0.000000 0.436118
O O19 0.499958 0.000000 0.858983
#
# Coordination Sequence:
#
# PCOD8108474 Si02
#       7
#     8   8   8   8   8   8   8
#     4  11  23  42  68  94 126 163 202 249 301 361
#     4  10  22  41  61  86 121 160 202 251 303 356
#     4  11  24  41  63  92 127 162 203 253 302 358
#     4  10  21  38  62  87 116 156 202 247 296 359
#     4  10  21  39  59  84 118 153 195 251 304 350
#     4  11  24  40  60  85 119 158 200 252 306 364
#     4  10  23  42  62  91 127 161 199 248 303 359
#
# _framework density 19.916865000000001
#
# number of rings (size 3 to 8) (size 9 to 14) (size 15 to 20)
#    0.000    1.571    1.429    2.571    2.000    8.286 
#    0.000    1.429    0.000    0.000    0.000    0.000 
#    0.000    0.000    0.000    0.000    0.000    0.000 
#
# Total GULP energy -347247.886829 kJ/mol
# GULP energy per Si atom -12401.710244 kJ/mol
# Density = 1.987153 g / cm^3
# Si number density = 19.916865 Si / 1000 Ang^3
#
#
#
# Elastic Constant Matrix: (Units=GPa)
#
#
# Indices 1 2 3 4 5 6 
#
# 1 111.1893 60.7997 23.8237 0.0000 -2.8144 0.0000
# 2 60.7997 95.4250 43.2987 0.0000 -4.3715 0.0000
# 3 23.8237 43.2987 80.7542 0.0000 -1.0736 0.0000
# 4 0.0000 0.0000 0.0000 31.7464 0.0000 -3.0125
# 5 -2.8144 -4.3715 -1.0736 0.0000 35.9407 0.0000
# 6 0.0000 0.0000 0.0000 -3.0125 0.0000 37.4078
#
#
#
# Elastic Compliance Matrix: (Units=1/GPa)
#
#
# Indices 1 2 3 4 5 6 
#
# 1 0.013847 -0.009210 0.000853 0.000000 -0.000010 0.000000
# 2 -0.009210 0.020052 -0.008015 0.000000 0.001478 0.000000
# 3 0.000853 -0.008015 0.016423 0.000000 -0.000417 0.000000
# 4 0.000000 0.000000 0.000000 0.031742 0.000000 0.002556
# 5 -0.000010 0.001478 -0.000417 0.000000 0.027990 0.000000
# 6 0.000000 0.000000 0.000000 0.002556 0.000000 0.026938
#
#
# Mechanical properties :
#
#
# Convention : Reuss Voigt Hill
#
# Bulk Modulus (GPa) = 56.88664 60.35695 58.62180
# Shear Modulus (GPa) = 28.47460 31.64876 30.06168
#
# Velocity S-wave (km/s) = 3.78520 3.99061 3.88926
# Velocity P-wave (km/s) = 6.90853 7.18356 7.04738
#
# Compressibility (1/GPa) = 0.01757882
#
# Stress axis : x y z
#
# Youngs Moduli (GPa) = 72.21919 49.87075 60.88904
#
# Poissons Ratio (x) = 0.45931 -0.05194
# Poissons Ratio (y) = 0.66513 0.48800
# Poissons Ratio (z) = -0.06161 0.39970
#
# Static dielectric constant tensor:
#      x y z
#    x 3.500760 0.000000 0.177250 
#    y 0.000000 3.735590 0.000000 
#    z 0.177250 0.000000 3.347610 
# 
# 
# High freq. dielectric constant tensor:
#      x y z
#    x 1.788620 0.000000 -0.002030 
#    y 0.000000 1.778890 0.000000 
#    z -0.002030 0.000000 1.785490 
# 
# From -- ./inp_files/274994.got.cif
#   From: 2010.06.25/outbox.cif.g09.slc.cpg/sg12_138_cif.got.tgz:274994.got - 2010.06.28 00:19:55.
