data_PCOD8108390
_publ_section_title
;
Structure prediction by ZEFSAII (Michael W. Deem and Ramdas Pophale) SiO2 
 PCOD8108390
Probable space group: C 2/M
;
_chemical_formula_sum "Si O2"
_cell_formula_units_Z 56
_cell_length_a 18.449736
_cell_length_b 8.984152
_cell_length_c 18.112952
_cell_angle_alpha 90.000000
_cell_angle_beta 111.255442
_cell_angle_gamma 90.000000
_cell_volume 2798.079304
_symmetry_space_group_name_H-M "C 2/M"
_symmetry_group_IT_number 12
_symmetry_cell_setting 'monoclinic'
loop_
_space_group_symop_operation_xyz
x,y,z
-x,y,-z
-x,-y,-z
x,-y,z
1/2+x,1/2+y,z
1/2-x,1/2+y,-z
1/2-x,1/2-y,-z
1/2+x,1/2-y,z
loop_
_atom_site_type_symbol
_atom_site_label
_atom_site_fract_x
_atom_site_fract_y
_atom_site_fract_z
Si Si1 0.074207 0.826725 0.482476
Si Si2 0.612731 0.173170 0.346147
Si Si3 0.681902 0.827975 0.778954
Si Si4 0.283245 0.673750 0.359680
Si Si5 0.472214 0.169850 0.191582
Si Si6 0.282136 0.824655 0.938718
Si Si7 0.570170 0.335085 0.971093
O O1 0.078713 0.753884 0.404485
O O2 0.154412 0.793416 0.553921
O O3 0.000000 0.761533 0.500000
O O4 0.060990 0.000000 0.464789
O O5 0.699138 0.228625 0.357254
O O6 0.556181 0.208276 0.256574
O O7 0.613952 0.000000 0.365393
O O8 0.691241 0.771252 0.699895
O O9 0.592828 0.804636 0.769880
O O10 0.737881 0.732185 0.850981
O O11 0.706613 0.000000 0.793306
O O12 0.281333 0.500000 0.336832
O O13 0.456900 0.278069 0.118241
O O14 0.469460 0.000000 0.161973
O O15 0.274034 0.000000 0.941048
O O16 0.250000 0.750000 0.000000
O O17 0.371675 0.778158 0.967271
O O18 0.607209 0.500000 0.973235
O O19 0.500000 0.347904 0.000000
#
# Coordination Sequence:
#
# PCOD8108390 Si02
#       7
#     8   8   8   8   8   8   8
#     4  10  21  38  61  89 121 159 200 244 301 362
#     4  10  22  39  60  88 120 156 202 249 301 362
#     4  11  23  39  61  89 120 157 204 253 303 365
#     4  10  22  39  59  88 123 158 199 250 304 365
#     4  10  22  40  60  85 118 160 204 251 307 365
#     4  12  24  41  65  91 122 163 207 256 311 365
#     4  11  25  42  62  91 124 160 207 257 309 369
#
# _framework density 20.013729000000001
#
# number of rings (size 3 to 8) (size 9 to 14) (size 15 to 20)
#    0.000    1.429    1.429    3.429    2.000    3.714 
#    0.000    0.000    0.000    0.000    0.000    0.000 
#    0.000    0.000    0.000    0.000    0.000    0.000 
#
# Total GULP energy -347308.808119 kJ/mol
# GULP energy per Si atom -12403.886004 kJ/mol
# Density = 1.996818 g / cm^3
# Si number density = 20.013729 Si / 1000 Ang^3
#
#
#
# Elastic Constant Matrix: (Units=GPa)
#
#
# Indices 1 2 3 4 5 6 
#
# 1 109.7464 33.3689 22.4282 0.0000 8.9353 0.0000
# 2 33.3689 102.3823 37.2629 0.0000 -2.6242 0.0000
# 3 22.4282 37.2629 57.7259 0.0000 3.4772 0.0000
# 4 0.0000 0.0000 0.0000 40.2295 0.0000 -5.4001
# 5 8.9353 -2.6242 3.4772 0.0000 39.3769 0.0000
# 6 0.0000 0.0000 0.0000 -5.4001 0.0000 27.1876
#
#
#
# Elastic Compliance Matrix: (Units=1/GPa)
#
#
# Indices 1 2 3 4 5 6 
#
# 1 0.010582 -0.002700 -0.002225 0.000000 -0.002385 0.000000
# 2 -0.002700 0.013555 -0.007834 0.000000 0.002208 0.000000
# 3 -0.002225 -0.007834 0.023370 0.000000 -0.002081 0.000000
# 4 0.000000 0.000000 0.000000 0.025538 0.000000 0.005073
# 5 -0.002385 0.002208 -0.002081 0.000000 0.026268 0.000000
# 6 0.000000 0.000000 0.000000 0.005073 0.000000 0.037789
#
#
# Mechanical properties :
#
#
# Convention : Reuss Voigt Hill
#
# Bulk Modulus (GPa) = 45.47702 50.66386 48.07044
# Shear Modulus (GPa) = 29.42058 33.14512 31.28285
#
# Velocity S-wave (km/s) = 3.83824 4.07396 3.95786
# Velocity P-wave (km/s) = 6.51268 6.89195 6.70500
#
# Compressibility (1/GPa) = 0.02198913
#
# Stress axis : x y z
#
# Youngs Moduli (GPa) = 94.50245 73.77226 42.79021
#
# Poissons Ratio (x) = 0.19921 0.09519
# Poissons Ratio (y) = 0.25519 0.33522
# Poissons Ratio (z) = 0.21023 0.57793
#
# Static dielectric constant tensor:
#      x y z
#    x 3.631840 0.000000 0.022810 
#    y 0.000000 3.706310 0.000000 
#    z 0.022810 0.000000 3.468690 
# 
# 
# High freq. dielectric constant tensor:
#      x y z
#    x 1.795640 0.000000 0.005520 
#    y 0.000000 1.782450 0.000000 
#    z 0.005520 0.000000 1.787480 
# 
# From -- ./inp_files/275621.got.cif
#   From: 2010.06.25/outbox.cif.g09.slc.cpg/sg12_138_cif.got.tgz:275621.got - 2010.06.28 00:19:55.
