data_PCOD8108951
_publ_section_title
;
Structure prediction by ZEFSAII (Michael W. Deem and Ramdas Pophale) SiO2 
 PCOD8108951
Probable space group: C 2/M
;
_chemical_formula_sum "Si O2"
_cell_formula_units_Z 48
_cell_length_a 20.340528
_cell_length_b 7.753667
_cell_length_c 22.015559
_cell_angle_alpha 90.000000
_cell_angle_beta 44.500259
_cell_angle_gamma 90.000000
_cell_volume 2433.676691
_symmetry_space_group_name_H-M "C 2/M"
_symmetry_group_IT_number 12
_symmetry_cell_setting 'monoclinic'
loop_
_space_group_symop_operation_xyz
x,y,z
-x,y,-z
-x,-y,-z
x,-y,z
1/2+x,1/2+y,z
1/2-x,1/2+y,-z
1/2-x,1/2-y,-z
1/2+x,1/2-y,z
loop_
_atom_site_type_symbol
_atom_site_label
_atom_site_fract_x
_atom_site_fract_y
_atom_site_fract_z
Si Si1 0.255526 0.800522 0.654185
Si Si2 0.458290 0.694955 0.208584
Si Si3 0.160164 0.806863 0.521678
Si Si4 0.845489 0.500000 0.107722
Si Si5 0.984048 0.306571 0.702722
Si Si6 0.512865 0.000000 0.091359
Si Si7 0.708935 0.798419 0.231572
O O1 0.148413 0.736171 0.720448
O O2 0.319450 0.702163 0.563450
O O3 0.296716 0.760429 0.693100
O O4 0.259754 0.000000 0.634431
O O5 0.464270 0.500000 0.177700
O O6 0.497747 0.688225 0.250881
O O7 0.517638 0.826183 0.128342
O O8 0.250000 0.750000 0.500000
O O9 0.070171 0.694303 0.598673
O O10 0.134580 0.000000 0.556976
O O11 0.785948 0.675775 0.150427
O O12 0.919610 0.500000 0.112933
O O13 0.894462 0.500000 0.010285
O O14 0.970981 0.500000 0.735401
O O15 0.890843 0.244555 0.730014
O O16 0.734708 0.000000 0.202803
#
# Coordination Sequence:
#
# PCOD8108951 Si02
#       7
#     8   8   8   4   8   4   8
#     4  10  21  39  60  87 124 166 211 256 310 364
#     4  11  22  39  65  93 126 167 211 258 314 380
#     4  12  24  35  56  92 126 166 215 265 307 360
#     4  11  24  42  72  94 131 155 212 265 320 390
#     4  11  23  41  64  90 128 171 215 258 315 373
#     4  11  24  42  68 105 118 163 207 269 321 377
#     4  10  24  43  66  92 127 174 205 259 323 378
#
# _framework density 19.723244999999999
#
# number of rings (size 3 to 8) (size 9 to 14) (size 15 to 20)
#    0.000    1.167    4.167    2.000    4.667    1.333 
#    0.000    5.833    0.000    0.000    0.000    0.000 
#    0.000    0.000    0.000    0.000    0.000    0.000 
#
# Total GULP energy -297692.164408 kJ/mol
# GULP energy per Si atom -12403.840184 kJ/mol
# Density = 1.967835 g / cm^3
# Si number density = 19.723245 Si / 1000 Ang^3
#
#
#
# Elastic Constant Matrix: (Units=GPa)
#
#
# Indices 1 2 3 4 5 6 
#
# 1 131.1381 29.1763 56.0106 -0.0028 -1.1651 0.0034
# 2 29.1763 92.7422 51.6591 -0.0042 2.3879 0.0070
# 3 56.0106 51.6591 136.4681 -0.0013 5.5620 0.0010
# 4 -0.0028 -0.0042 -0.0013 31.7237 0.0020 0.1616
# 5 -1.1651 2.3879 5.5620 0.0020 28.6870 -0.0014
# 6 0.0034 0.0070 0.0010 0.1616 -0.0014 26.5628
#
#
#
# Elastic Compliance Matrix: (Units=1/GPa)
#
#
# Indices 1 2 3 4 5 6 
#
# 1 0.009358 -0.001024 -0.003500 0.000000 0.001144 -0.000001
# 2 -0.001024 0.013776 -0.004784 0.000002 -0.000261 -0.000003
# 3 -0.003500 -0.004784 0.010649 0.000000 -0.001809 0.000001
# 4 0.000000 0.000002 0.000000 0.031523 -0.000002 -0.000192
# 5 0.001144 -0.000261 -0.001809 -0.000002 0.035278 0.000002
# 6 -0.000001 -0.000003 0.000001 -0.000192 0.000002 0.037648
#
#
# Mechanical properties :
#
#
# Convention : Reuss Voigt Hill
#
# Bulk Modulus (GPa) = 65.93014 70.44891 68.18953
# Shear Modulus (GPa) = 30.88249 32.29486 31.58868
#
# Velocity S-wave (km/s) = 3.96130 4.05087 4.00634
# Velocity P-wave (km/s) = 7.37718 7.59445 7.48660
#
# Compressibility (1/GPa) = 0.01516757
#
# Stress axis : x y z
#
# Youngs Moduli (GPa) = 106.85566 72.58900 93.90680
#
# Poissons Ratio (x) = 0.07433 0.32867
# Poissons Ratio (y) = 0.10942 0.44925
# Poissons Ratio (z) = 0.37399 0.34726
#
# Static dielectric constant tensor:
#      x y z
#    x 3.591970 0.000000 0.052090 
#    y 0.000000 3.787100 -0.000010 
#    z 0.052090 -0.000010 3.453580 
# 
# 
# High freq. dielectric constant tensor:
#      x y z
#    x 1.769310 0.000000 0.007240 
#    y 0.000000 1.781190 0.000000 
#    z 0.007240 0.000000 1.753080 
# 
# From -- ./inp_files/319607.got.cif
#   From: 2010.06.25/outbox.cif.g09.slc.cpg/sg12_160_cif.got.tgz:319607.got - 2010.06.28 00:19:55.
