data_PCOD8108524
_publ_section_title
;
Structure prediction by ZEFSAII (Michael W. Deem and Ramdas Pophale) SiO2 
 PCOD8108524
Probable space group: C 2/M
;
_chemical_formula_sum "Si O2"
_cell_formula_units_Z 64
_cell_length_a 23.526548
_cell_length_b 9.133562
_cell_length_c 14.768273
_cell_angle_alpha 90.000000
_cell_angle_beta 86.754195
_cell_angle_gamma 90.000000
_cell_volume 3168.333252
_symmetry_space_group_name_H-M "C 2/M"
_symmetry_group_IT_number 12
_symmetry_cell_setting 'monoclinic'
loop_
_space_group_symop_operation_xyz
x,y,z
-x,y,-z
-x,-y,-z
x,-y,z
1/2+x,1/2+y,z
1/2-x,1/2+y,-z
1/2-x,1/2-y,-z
1/2+x,1/2-y,z
loop_
_atom_site_type_symbol
_atom_site_label
_atom_site_fract_x
_atom_site_fract_y
_atom_site_fract_z
Si Si1 0.146847 0.331239 0.331825
Si Si2 0.378789 0.830568 0.324067
Si Si3 0.754729 0.670478 0.270592
Si Si4 0.040173 0.168187 0.813075
Si Si5 0.935758 0.326243 0.503469
Si Si6 0.428133 0.832773 0.831915
Si Si7 0.597032 0.663133 0.989444
Si Si8 0.776876 0.168755 0.082465
O O1 0.161868 0.500000 0.351951
O O2 0.203436 0.234126 0.335685
O O3 0.099747 0.271165 0.406505
O O4 0.123427 0.313223 0.232599
O O5 0.311258 0.804653 0.325012
O O6 0.407077 0.742778 0.240484
O O7 0.402913 0.771111 0.417043
O O8 0.394370 0.000000 0.309890
O O9 0.744641 0.500000 0.250748
O O10 0.756441 0.755008 0.175748
O O11 0.046941 0.187100 0.920856
O O12 0.981335 0.242079 0.789386
O O13 0.038653 0.000000 0.784358
O O14 0.939395 0.500000 0.505020
O O15 0.000000 0.260793 0.500000
O O16 0.447658 0.000000 0.837869
O O17 0.406616 0.780632 0.931253
O O18 0.592300 0.500000 0.032455
O O19 0.655389 0.680858 0.929555
O O20 0.756540 0.000000 0.085581
O O21 0.750000 0.250000 0.000000
#
# Coordination Sequence:
#
# PCOD8108524 Si02
#       8
#     8   8   8   8   8   8   8   8
#     4  10  22  40  62  87 118 157 200 244 297 360
#     4  10  21  38  62  90 119 155 202 252 298 353
#     4  11  23  38  58  87 123 158 198 249 301 351
#     4  11  22  38  59  84 117 157 196 240 300 363
#     4   9  18  37  65  92 118 152 197 247 301 359
#     4  11  23  37  57  86 116 152 198 248 296 349
#     4  10  22  38  55  80 115 154 195 239 294 356
#     4  11  22  38  59  84 117 158 205 250 296 353
#
# _framework density 20.199894
#
# number of rings (size 3 to 8) (size 9 to 14) (size 15 to 20)
#    0.000    1.625    1.250    3.375    0.000    9.500 
#    0.000    0.625    0.000    1.500    0.000    0.000 
#    0.000    0.000    0.000    0.000    0.000    0.000 
#
# Total GULP energy -396944.580284 kJ/mol
# GULP energy per Si atom -12404.518134 kJ/mol
# Density = 2.015392 g / cm^3
# Si number density = 20.199894 Si / 1000 Ang^3
#
#
#
# Elastic Constant Matrix: (Units=GPa)
#
#
# Indices 1 2 3 4 5 6 
#
# 1 122.0847 59.9002 49.1813 0.0000 -6.6775 0.0000
# 2 59.9002 104.0336 46.8199 0.0000 -0.3586 0.0000
# 3 49.1813 46.8199 105.0266 0.0000 -0.8384 0.0000
# 4 0.0000 0.0000 0.0000 19.0183 0.0000 -3.3552
# 5 -6.6775 -0.3586 -0.8384 0.0000 35.2563 0.0000
# 6 0.0000 0.0000 0.0000 -3.3552 0.0000 35.2017
#
#
#
# Elastic Compliance Matrix: (Units=1/GPa)
#
#
# Indices 1 2 3 4 5 6 
#
# 1 0.012409 -0.005667 -0.003267 0.000000 0.002215 0.000000
# 2 -0.005667 0.014613 -0.003869 0.000000 -0.001017 0.000000
# 3 -0.003267 -0.003869 0.012773 0.000000 -0.000354 0.000000
# 4 0.000000 0.000000 0.000000 0.053480 0.000000 0.005097
# 5 0.002215 -0.001017 -0.000354 0.000000 0.028764 0.000000
# 6 0.000000 0.000000 0.000000 0.005097 0.000000 0.028894
#
#
# Mechanical properties :
#
#
# Convention : Reuss Voigt Hill
#
# Bulk Modulus (GPa) = 70.47343 71.43861 70.95602
# Shear Modulus (GPa) = 27.58367 29.57815 28.58091
#
# Velocity S-wave (km/s) = 3.69932 3.83073 3.76560
# Velocity P-wave (km/s) = 7.29455 7.41678 7.35592
#
# Compressibility (1/GPa) = 0.01418975
#
# Stress axis : x y z
#
# Youngs Moduli (GPa) = 80.58982 68.43388 78.29052
#
# Poissons Ratio (x) = 0.38780 0.25575
# Poissons Ratio (y) = 0.45668 0.30288
# Poissons Ratio (z) = 0.26327 0.26475
#
# Static dielectric constant tensor:
#      x y z
#    x 3.837950 0.000000 0.025330 
#    y 0.000000 3.610810 0.000000 
#    z 0.025330 0.000000 3.595750 
# 
# 
# High freq. dielectric constant tensor:
#      x y z
#    x 1.803340 0.000000 -0.000150 
#    y 0.000000 1.777530 0.000000 
#    z -0.000150 0.000000 1.785460 
# 
# From -- ./inp_files/238782.got.cif
#   From: 2010.06.25/outbox.cif.g09.slc.cpg/sg12_120_cif.got.tgz:238782.got - 2010.06.28 00:19:55.
