data_PCOD8108477
_publ_section_title
;
Structure prediction by ZEFSAII (Michael W. Deem and Ramdas Pophale) SiO2 
 PCOD8108477
Probable space group: C 2/M
;
_chemical_formula_sum "Si O2"
_cell_formula_units_Z 28
_cell_length_a 5.206750
_cell_length_b 27.710549
_cell_length_c 10.125886
_cell_angle_alpha 90.000000
_cell_angle_beta 88.843313
_cell_angle_gamma 90.000000
_cell_volume 1460.684376
_symmetry_space_group_name_H-M "C 2/M"
_symmetry_group_IT_number 12
_symmetry_cell_setting 'monoclinic'
loop_
_space_group_symop_operation_xyz
x,y,z
-x,y,-z
-x,-y,-z
x,-y,z
1/2+x,1/2+y,z
1/2-x,1/2+y,-z
1/2-x,1/2-y,-z
1/2+x,1/2-y,z
loop_
_atom_site_type_symbol
_atom_site_label
_atom_site_fract_x
_atom_site_fract_y
_atom_site_fract_z
Si Si1 0.000000 0.282440 0.000000
Si Si2 0.676455 0.554827 0.874914
Si Si3 0.478342 0.610236 0.651603
Si Si4 0.537322 0.860009 0.222465
O O1 0.006184 0.314498 0.869304
O O2 0.750000 0.250000 0.000000
O O3 0.776140 0.500000 0.883848
O O4 0.508299 0.562365 0.742660
O O5 0.920977 0.591127 0.866538
O O6 0.500000 0.569415 0.000000
O O7 0.500000 0.594496 0.500000
O O8 0.707807 0.647509 0.689459
O O9 0.206106 0.635233 0.679655
#
# Coordination Sequence:
#
# PCOD8108477 Si02
#       4
#     4   8   8   8
#     4  12  24  40  69  94 119 154 204 260 310 364
#     4   9  20  36  60  91 126 163 203 250 298 354
#     4  10  21  38  62  87 127 171 198 242 298 363
#     4  10  22  39  61  90 124 154 206 251 300 361
#
# _framework density 19.169094999999999
#
# number of rings (size 3 to 8) (size 9 to 14) (size 15 to 20)
#    1.714    0.286    0.000    4.286    2.000    1.714 
#    0.000    5.000    0.000   17.143    0.000    0.000 
#    0.000    0.000    0.000    0.000    0.000    0.000 
#
# Total GULP energy -173480.278639 kJ/mol
# GULP energy per Si atom -12391.448474 kJ/mol
# Density = 1.912547 g / cm^3
# Si number density = 19.169095 Si / 1000 Ang^3
#
#
#
# Elastic Constant Matrix: (Units=GPa)
#
#
# Indices 1 2 3 4 5 6 
#
# 1 153.3720 46.0544 47.9172 0.0000 -15.7063 0.0000
# 2 46.0544 97.8536 45.7378 0.0000 -10.0921 0.0000
# 3 47.9172 45.7378 150.9462 0.0000 -13.8368 0.0000
# 4 0.0000 0.0000 0.0000 9.9794 0.0000 11.3106
# 5 -15.7063 -10.0921 -13.8368 0.0000 31.2557 0.0000
# 6 0.0000 0.0000 0.0000 11.3106 0.0000 16.8288
#
#
#
# Elastic Compliance Matrix: (Units=1/GPa)
#
#
# Indices 1 2 3 4 5 6 
#
# 1 0.008096 -0.002865 -0.001474 0.000000 0.002491 0.000000
# 2 -0.002865 0.013086 -0.002919 0.000000 0.001494 0.000000
# 3 -0.001474 -0.002919 0.008154 0.000000 0.001927 0.000000
# 4 0.000000 0.000000 0.000000 0.420598 0.000000 -0.282685
# 5 0.002491 0.001494 0.001927 0.000000 0.034581 0.000000
# 6 0.000000 0.000000 0.000000 -0.282685 0.000000 0.249415
#
#
# Mechanical properties :
#
#
# Convention : Reuss Voigt Hill
#
# Bulk Modulus (GPa) = 67.47068 75.73228 71.60148
# Shear Modulus (GPa) = 6.63672 29.11027 17.87350
#
# Velocity S-wave (km/s) = 1.86272 3.90116 3.05686
# Velocity P-wave (km/s) = 6.31667 7.73856 7.06348
#
# Compressibility (1/GPa) = 0.01482125
#
# Stress axis : x y z
#
# Youngs Moduli (GPa) = 123.52172 76.41821 122.64327
#
# Poissons Ratio (x) = 0.21890 0.18073
# Poissons Ratio (y) = 0.35383 0.35798
# Poissons Ratio (z) = 0.18203 0.22305
#
# Static dielectric constant tensor:
#      x y z
#    x 3.537410 0.000000 0.006680 
#    y 0.000000 3.210910 0.000000 
#    z 0.006680 0.000000 3.390490 
# 
# 
# High freq. dielectric constant tensor:
#      x y z
#    x 1.757920 0.000000 -0.002610 
#    y 0.000000 1.712860 0.000000 
#    z -0.002610 0.000000 1.746980 
# 
# From -- ./inp_files/34152.got.cif
#   From: 2010.06.25/outbox.cif.g09.slc.cpg/sg12_18_cif.got.tgz:34152.got - 2010.06.28 00:19:55.
