data_PCOD8108826
_publ_section_title
;
Structure prediction by ZEFSAII (Michael W. Deem and Ramdas Pophale) SiO2 
 PCOD8108826
Probable space group: C 2/M
;
_chemical_formula_sum "Si O2"
_cell_formula_units_Z 56
_cell_length_a 13.368237
_cell_length_b 30.625054
_cell_length_c 13.075925
_cell_angle_alpha 90.000000
_cell_angle_beta 148.504629
_cell_angle_gamma 90.000000
_cell_volume 2796.734629
_symmetry_space_group_name_H-M "C 2/M"
_symmetry_group_IT_number 12
_symmetry_cell_setting 'monoclinic'
loop_
_space_group_symop_operation_xyz
x,y,z
-x,y,-z
-x,-y,-z
x,-y,z
1/2+x,1/2+y,z
1/2-x,1/2+y,-z
1/2-x,1/2-y,-z
1/2+x,1/2-y,z
loop_
_atom_site_type_symbol
_atom_site_label
_atom_site_fract_x
_atom_site_fract_y
_atom_site_fract_z
Si Si1 0.512663 0.157680 0.902606
Si Si2 0.909955 0.951013 0.032668
Si Si3 0.847199 0.876003 0.665471
Si Si4 0.079611 0.608731 0.760759
Si Si5 0.598873 0.678679 0.482217
Si Si6 0.783348 0.237380 0.145322
Si Si7 0.289128 0.820854 0.274409
O O1 0.577993 0.121955 0.878017
O O2 0.325390 0.183727 0.699189
O O3 0.500000 0.132105 0.000000
O O4 0.669527 0.193582 0.067340
O O5 0.021296 0.917556 0.201432
O O6 0.925525 0.000000 0.090408
O O7 0.000000 0.948635 0.000000
O O8 0.685389 0.937507 0.836492
O O9 0.631502 0.894186 0.469805
O O10 0.929097 0.856135 0.632675
O O11 0.852104 0.839216 0.760014
O O12 0.207270 0.644657 0.814400
O O13 0.500000 0.661164 0.500000
O O14 0.506195 0.725081 0.365555
O O15 0.712824 0.275413 0.160616
O O16 0.750000 0.250000 0.000000
O O17 0.500000 0.812655 0.500000
#
# Coordination Sequence:
#
# PCOD8108826 Si02
#       7
#     8   8   8   8   8   8   8
#     4  11  23  40  62  87 118 169 216 255 311 352
#     4  11  23  39  67 101 125 150 190 244 313 389
#     4  10  23  41  65  86 122 166 199 248 310 367
#     4  10  21  43  59  88 123 157 203 246 300 372
#     4  11  24  43  58  88 121 162 218 261 300 360
#     4  12  24  39  57  85 126 165 214 269 304 344
#     4  10  21  39  57  83 119 164 206 252 301 351
#
# _framework density 20.023351000000002
#
# number of rings (size 3 to 8) (size 9 to 14) (size 15 to 20)
#    0.000    1.286    4.286    1.286    0.000    2.286 
#    0.000    1.429    0.000    0.857    0.000    0.000 
#    0.000    0.000    0.000    0.000    0.000    0.000 
#
# Total GULP energy -347141.810016 kJ/mol
# GULP energy per Si atom -12397.921786 kJ/mol
# Density = 1.997778 g / cm^3
# Si number density = 20.023351 Si / 1000 Ang^3
#
#
#
# Elastic Constant Matrix: (Units=GPa)
#
#
# Indices 1 2 3 4 5 6 
#
# 1 129.7243 43.3243 32.2887 0.0000 -21.6158 0.0000
# 2 43.3243 104.3112 38.7308 0.0000 -5.5687 0.0000
# 3 32.2887 38.7308 67.9764 0.0000 -6.5290 0.0000
# 4 0.0000 0.0000 0.0000 24.1253 0.0000 2.5922
# 5 -21.6158 -5.5687 -6.5290 0.0000 36.2805 0.0000
# 6 0.0000 0.0000 0.0000 2.5922 0.0000 18.2283
#
#
#
# Elastic Compliance Matrix: (Units=1/GPa)
#
#
# Indices 1 2 3 4 5 6 
#
# 1 0.010227 -0.002984 -0.002663 0.000000 0.005156 0.000000
# 2 -0.002984 0.013044 -0.006098 0.000000 -0.000873 0.000000
# 3 -0.002663 -0.006098 0.019546 0.000000 0.000995 0.000000
# 4 0.000000 0.000000 0.000000 0.042093 0.000000 -0.005986
# 5 0.005156 -0.000873 0.000995 0.000000 0.030680 0.000000
# 6 0.000000 0.000000 0.000000 -0.005986 0.000000 0.055711
#
#
# Mechanical properties :
#
#
# Convention : Reuss Voigt Hill
#
# Bulk Modulus (GPa) = 51.74067 58.96661 55.35364
# Shear Modulus (GPa) = 24.84680 28.23803 26.54241
#
# Velocity S-wave (km/s) = 3.52645 3.75941 3.64479
# Velocity P-wave (km/s) = 6.51747 6.95392 6.73923
#
# Compressibility (1/GPa) = 0.01932716
#
# Stress axis : x y z
#
# Youngs Moduli (GPa) = 97.78023 76.66510 51.16140
#
# Poissons Ratio (x) = 0.22875 0.13622
# Poissons Ratio (y) = 0.29176 0.31201
# Poissons Ratio (z) = 0.26034 0.46754
#
# Static dielectric constant tensor:
#      x y z
#    x 4.178750 0.000000 0.022970 
#    y 0.000000 3.509960 0.000000 
#    z 0.022970 0.000000 3.907470 
# 
# 
# High freq. dielectric constant tensor:
#      x y z
#    x 1.790080 0.000000 -0.004890 
#    y 0.000000 1.738820 0.000000 
#    z -0.004890 0.000000 1.802810 
# 
# From -- ./inp_files/219119.got.cif
#   From: 2010.06.25/outbox.cif.g09.slc.cpg/sg12_110_cif.got.tgz:219119.got - 2010.06.28 00:19:55.
