data_PCOD8108580
_publ_section_title
;
Structure prediction by ZEFSAII (Michael W. Deem and Ramdas Pophale) SiO2 
 PCOD8108580
Probable space group: C 2/M
;
_chemical_formula_sum "Si O2"
_cell_formula_units_Z 40
_cell_length_a 25.779686
_cell_length_b 16.901719
_cell_length_c 8.799302
_cell_angle_alpha 90.000000
_cell_angle_beta 151.142471
_cell_angle_gamma 90.000000
_cell_volume 1850.435754
_symmetry_space_group_name_H-M "C 2/M"
_symmetry_group_IT_number 12
_symmetry_cell_setting 'monoclinic'
loop_
_space_group_symop_operation_xyz
x,y,z
-x,y,-z
-x,-y,-z
x,-y,z
1/2+x,1/2+y,z
1/2-x,1/2+y,-z
1/2-x,1/2-y,-z
1/2+x,1/2-y,z
loop_
_atom_site_type_symbol
_atom_site_label
_atom_site_fract_x
_atom_site_fract_y
_atom_site_fract_z
Si Si1 0.009411 0.593273 0.693188
Si Si2 0.393894 0.679687 0.642707
Si Si3 0.277212 0.092955 0.600354
Si Si4 0.900225 0.092842 0.352930
Si Si5 0.696578 0.154667 0.666052
O O1 0.019893 0.500000 0.708647
O O2 0.000000 0.630304 0.500000
O O3 0.907596 0.614323 0.531464
O O4 0.115696 0.628274 0.045883
O O5 0.326653 0.630261 0.590750
O O6 0.428998 0.623178 0.594472
O O7 0.322803 0.752433 0.401953
O O8 0.500000 0.711459 0.000000
O O9 0.277193 0.112842 0.424125
O O10 0.270230 0.000000 0.605254
O O11 0.000000 0.111057 0.500000
O O12 0.872936 0.000000 0.287300
O O13 0.796762 0.141478 0.033526
#
# Coordination Sequence:
#
# PCOD8108580 Si02
#       5
#     8   8   8   8   8
#     4  10  21  38  62  92 126 167 216 267 318 377
#     4  12  26  43  65  96 134 172 213 265 325 385
#     4  11  23  40  64  93 128 172 219 265 317 382
#     4  11  25  45  69  96 128 171 220 266 317 382
#     4  12  24  42  66  95 130 168 213 268 325 381
#
# _framework density 21.616530000000001
#
# number of rings (size 3 to 8) (size 9 to 14) (size 15 to 20)
#    0.000    0.800    0.000    7.800    0.000    8.800 
#    0.000    0.000    0.000    0.000    0.000    0.000 
#    0.000    0.000    0.000    0.000    0.000    0.000 
#
# Total GULP energy -248144.788258 kJ/mol
# GULP energy per Si atom -12407.239413 kJ/mol
# Density = 2.156733 g / cm^3
# Si number density = 21.616530 Si / 1000 Ang^3
#
#
#
# Elastic Constant Matrix: (Units=GPa)
#
#
# Indices 1 2 3 4 5 6 
#
# 1 90.3089 26.9481 33.7410 0.0000 6.8174 0.0000
# 2 26.9481 64.6391 44.5177 0.0000 5.7793 0.0000
# 3 33.7410 44.5177 109.4022 0.0000 4.5051 0.0000
# 4 0.0000 0.0000 0.0000 28.9663 0.0000 -6.9756
# 5 6.8174 5.7793 4.5051 0.0000 37.7111 0.0000
# 6 0.0000 0.0000 0.0000 -6.9756 0.0000 13.1292
#
#
#
# Elastic Compliance Matrix: (Units=1/GPa)
#
#
# Indices 1 2 3 4 5 6 
#
# 1 0.013219 -0.003626 -0.002538 0.000000 -0.001531 0.000000
# 2 -0.003626 0.022682 -0.008035 0.000000 -0.001861 0.000000
# 3 -0.002538 -0.008035 0.013188 0.000000 0.000115 0.000000
# 4 0.000000 0.000000 0.000000 0.039588 0.000000 0.021033
# 5 -0.001531 -0.001861 0.000115 0.000000 0.027066 0.000000
# 6 0.000000 0.000000 0.000000 0.021033 0.000000 0.087341
#
#
# Mechanical properties :
#
#
# Convention : Reuss Voigt Hill
#
# Bulk Modulus (GPa) = 48.33002 52.75154 50.54078
# Shear Modulus (GPa) = 20.97492 26.57090 23.77291
#
# Velocity S-wave (km/s) = 3.11837 3.50979 3.31985
# Velocity P-wave (km/s) = 5.94744 6.39384 6.17468
#
# Compressibility (1/GPa) = 0.02069108
#
# Stress axis : x y z
#
# Youngs Moduli (GPa) = 75.64852 44.08727 75.82485
#
# Poissons Ratio (x) = 0.15986 0.19248
# Poissons Ratio (y) = 0.27430 0.60925
# Poissons Ratio (z) = 0.19203 0.35424
#
# Static dielectric constant tensor:
#      x y z
#    x 4.117130 0.000000 -0.155890 
#    y 0.000000 3.836880 0.000000 
#    z -0.155890 0.000000 4.133900 
# 
# 
# High freq. dielectric constant tensor:
#      x y z
#    x 1.870210 0.000000 -0.001210 
#    y 0.000000 1.847730 0.000000 
#    z -0.001210 0.000000 1.863400 
# 
# From -- ./inp_files/98289.got.cif
#   From: 2010.06.25/outbox.cif.g09.slc.cpg/sg12_50_cif.got.tgz:98289.got - 2010.06.28 00:19:55.
