data_PCOD8108200
_publ_section_title
;
Structure prediction by ZEFSAII (Michael W. Deem and Ramdas Pophale) SiO2 
 PCOD8108200
Probable space group: C 2/M
;
_chemical_formula_sum "Si O2"
_cell_formula_units_Z 48
_cell_length_a 30.854861
_cell_length_b 13.659340
_cell_length_c 15.524559
_cell_angle_alpha 90.000000
_cell_angle_beta 159.063748
_cell_angle_gamma 90.000000
_cell_volume 2337.980387
_symmetry_space_group_name_H-M "C 2/M"
_symmetry_group_IT_number 12
_symmetry_cell_setting 'monoclinic'
loop_
_space_group_symop_operation_xyz
x,y,z
-x,y,-z
-x,-y,-z
x,-y,z
1/2+x,1/2+y,z
1/2-x,1/2+y,-z
1/2-x,1/2-y,-z
1/2+x,1/2-y,z
loop_
_atom_site_type_symbol
_atom_site_label
_atom_site_fract_x
_atom_site_fract_y
_atom_site_fract_z
Si Si1 0.559766 0.390795 0.400685
Si Si2 0.360796 0.887819 0.717589
Si Si3 0.813008 0.199555 0.926061
Si Si4 0.266489 0.107990 0.911901
Si Si5 0.133611 0.387730 0.721527
Si Si6 0.288947 0.747510 0.435116
O O1 0.578533 0.500000 0.398122
O O2 0.629028 0.381501 0.620864
O O3 0.604731 0.311273 0.415447
O O4 0.417175 0.373716 0.150623
O O5 0.344738 0.831411 0.598115
O O6 0.287169 0.832731 0.654754
O O7 0.314523 0.000000 0.623124
O O8 0.500000 0.885740 0.000000
O O9 0.849243 0.311525 0.017574
O O10 0.687226 0.173213 0.741360
O O11 0.794405 0.195400 0.788824
O O12 0.319475 0.000000 0.988291
O O13 0.271447 0.124952 0.023463
O O14 0.121412 0.500000 0.669683
O O15 0.000000 0.347864 0.500000
#
# Coordination Sequence:
#
# PCOD8108200 Si02
#       6
#     8   8   8   8   8   8
#     4  10  21  38  60  88 121 157 201 247 294 350
#     4  10  21  40  64  89 118 154 196 238 289 361
#     4  11  22  37  63  87 120 157 206 247 296 352
#     4   9  21  39  57  82 116 159 203 246 298 342
#     4  10  22  39  58  85 122 160 204 255 301 343
#     4  10  22  39  60  90 123 154 191 243 302 354
#
# _framework density 20.530539999999998
#
# number of rings (size 3 to 8) (size 9 to 14) (size 15 to 20)
#    0.000    2.000    0.000    2.500    4.667    2.667 
#    0.000    3.333    0.000    5.500    0.000    0.000 
#    0.000    0.000    0.000    0.000    0.000    0.000 
#
# Total GULP energy -297548.377414 kJ/mol
# GULP energy per Si atom -12397.849059 kJ/mol
# Density = 2.048381 g / cm^3
# Si number density = 20.530540 Si / 1000 Ang^3
#
#
#
# Elastic Constant Matrix: (Units=GPa)
#
#
# Indices 1 2 3 4 5 6 
#
# 1 100.5128 52.2238 49.2206 0.0000 -15.0052 0.0000
# 2 52.2238 122.7760 56.1062 0.0000 -14.9117 0.0000
# 3 49.2206 56.1062 102.2064 0.0000 -8.1084 0.0000
# 4 0.0000 0.0000 0.0000 32.8967 0.0000 0.5996
# 5 -15.0052 -14.9117 -8.1084 0.0000 33.8420 0.0000
# 6 0.0000 0.0000 0.0000 0.5996 0.0000 30.5418
#
#
#
# Elastic Compliance Matrix: (Units=1/GPa)
#
#
# Indices 1 2 3 4 5 6 
#
# 1 0.014753 -0.003611 -0.004821 0.000000 0.003795 0.000000
# 2 -0.003611 0.012160 -0.004728 0.000000 0.002624 0.000000
# 3 -0.004821 -0.004728 0.014645 0.000000 -0.000712 0.000000
# 4 0.000000 0.000000 0.000000 0.030409 0.000000 -0.000597
# 5 0.003795 0.002624 -0.000712 0.000000 0.032217 0.000000
# 6 0.000000 0.000000 0.000000 -0.000597 0.000000 0.032754
#
#
# Mechanical properties :
#
#
# Convention : Reuss Voigt Hill
#
# Bulk Modulus (GPa) = 65.62981 71.17735 68.40358
# Shear Modulus (GPa) = 29.70214 30.65243 30.17728
#
# Velocity S-wave (km/s) = 3.80772 3.86815 3.83805
# Velocity P-wave (km/s) = 7.16714 7.39556 7.28225
#
# Compressibility (1/GPa) = 0.01523698
#
# Stress axis : x y z
#
# Youngs Moduli (GPa) = 67.78442 82.23472 68.28272
#
# Poissons Ratio (x) = 0.29695 0.32921
# Poissons Ratio (y) = 0.24477 0.32286
# Poissons Ratio (z) = 0.32681 0.38882
#
# Static dielectric constant tensor:
#      x y z
#    x 3.565280 0.000000 -0.186790 
#    y 0.000000 4.022950 0.000000 
#    z -0.186790 0.000000 3.673000 
# 
# 
# High freq. dielectric constant tensor:
#      x y z
#    x 1.786520 0.000000 -0.014530 
#    y 0.000000 1.821680 0.000000 
#    z -0.014530 0.000000 1.799870 
# 
# From -- ./inp_files/204861.got.cif
#   From: 2010.06.25/outbox.cif.g09.slc.cpg/sg12_103_cif.got.tgz:204861.got - 2010.06.28 00:19:55.
