data_PCOD8108341
_publ_section_title
;
Structure prediction by ZEFSAII (Michael W. Deem and Ramdas Pophale) SiO2 
 PCOD8108341
Probable space group: C 2/M
;
_chemical_formula_sum "Si O2"
_cell_formula_units_Z 56
_cell_length_a 18.105393
_cell_length_b 8.582729
_cell_length_c 19.817226
_cell_angle_alpha 90.000000
_cell_angle_beta 63.208760
_cell_angle_gamma 90.000000
_cell_volume 2748.905025
_symmetry_space_group_name_H-M "C 2/M"
_symmetry_group_IT_number 12
_symmetry_cell_setting 'monoclinic'
loop_
_space_group_symop_operation_xyz
x,y,z
-x,y,-z
-x,-y,-z
x,-y,z
1/2+x,1/2+y,z
1/2-x,1/2+y,-z
1/2-x,1/2-y,-z
1/2+x,1/2-y,z
loop_
_atom_site_type_symbol
_atom_site_label
_atom_site_fract_x
_atom_site_fract_y
_atom_site_fract_z
Si Si1 0.961983 0.819645 0.410501
Si Si2 0.371103 0.319567 0.584425
Si Si3 0.282220 0.319644 0.285398
Si Si4 0.916116 0.683310 0.003553
Si Si5 0.241007 0.683976 0.849003
Si Si6 0.445308 0.820184 0.275923
Si Si7 0.904233 0.819667 0.862605
O O1 0.898410 0.784589 0.496912
O O2 0.934745 0.713755 0.359406
O O3 0.054677 0.776538 0.395248
O O4 0.957442 0.000000 0.391242
O O5 0.347273 0.500000 0.603308
O O6 0.292211 0.213811 0.632330
O O7 0.306252 0.500000 0.279860
O O8 0.252368 0.275144 0.223409
O O9 0.361258 0.217241 0.271585
O O10 0.917970 0.500000 0.011245
O O11 0.838080 0.748195 0.077361
O O12 0.909238 0.721614 0.928299
O O13 0.000000 0.757020 0.000000
O O14 0.236574 0.500000 0.836630
O O15 0.321308 0.729365 0.858503
O O16 0.518547 0.715015 0.216941
O O17 0.466977 0.000000 0.255310
O O18 0.903529 0.000000 0.882341
#
# Coordination Sequence:
#
# PCOD8108341 Si02
#       7
#     8   8   8   8   8   8   8
#     4   9  19  38  63  89 117 152 195 239 286 345
#     4   9  19  38  63  88 118 155 191 235 292 348
#     4  12  25  39  59  87 118 153 196 244 291 346
#     4  10  21  38  61  88 119 157 198 239 286 341
#     4  10  22  40  61  87 121 158 194 237 291 345
#     4  12  25  40  59  83 116 156 196 243 297 348
#     4  11  23  39  61  88 119 155 196 242 289 343
#
# _framework density 20.371749000000001
#
# number of rings (size 3 to 8) (size 9 to 14) (size 15 to 20)
#    0.000    1.571    0.000    6.000    0.000    8.286 
#    0.000    1.429    0.000    0.000    0.000    0.000 
#    0.000    0.000    0.000    0.000    0.000    0.000 
#
# Total GULP energy -347374.965466 kJ/mol
# GULP energy per Si atom -12406.248767 kJ/mol
# Density = 2.032538 g / cm^3
# Si number density = 20.371749 Si / 1000 Ang^3
#
#
#
# Elastic Constant Matrix: (Units=GPa)
#
#
# Indices 1 2 3 4 5 6 
#
# 1 122.9083 16.2552 44.6630 0.0000 -17.8341 -0.0002
# 2 16.2552 30.6273 10.5291 -0.0001 -2.1825 -0.0007
# 3 44.6630 10.5291 101.8074 0.0000 -11.4232 0.0000
# 4 0.0000 -0.0001 0.0000 29.7650 0.0000 0.2943
# 5 -17.8341 -2.1825 -11.4232 0.0000 31.6134 0.0000
# 6 -0.0002 -0.0007 0.0000 0.2943 0.0000 28.8137
#
#
#
# Elastic Compliance Matrix: (Units=1/GPa)
#
#
# Indices 1 2 3 4 5 6 
#
# 1 0.010680 -0.004059 -0.003774 0.000000 0.004381 0.000000
# 2 -0.004059 0.035435 -0.001945 0.000000 -0.000546 0.000001
# 3 -0.003774 -0.001945 0.011908 0.000000 0.002040 0.000000
# 4 0.000000 0.000000 0.000000 0.033600 0.000000 -0.000343
# 5 0.004381 -0.000546 0.002040 0.000000 0.034803 0.000000
# 6 0.000000 0.000001 0.000000 -0.000343 0.000000 0.034709
#
#
# Mechanical properties :
#
#
# Convention : Reuss Voigt Hill
#
# Bulk Modulus (GPa) = 25.99667 44.24864 35.12265
# Shear Modulus (GPa) = 25.83800 30.29812 28.06806
#
# Velocity S-wave (km/s) = 3.56522 3.86069 3.71589
# Velocity P-wave (km/s) = 5.45312 6.45298 5.97401
#
# Compressibility (1/GPa) = 0.03846647
#
# Stress axis : x y z
#
# Youngs Moduli (GPa) = 93.63256 28.22100 83.97587
#
# Poissons Ratio (x) = 0.11454 0.31693
# Poissons Ratio (y) = 0.38003 0.16337
# Poissons Ratio (z) = 0.35337 0.05490
#
# Static dielectric constant tensor:
#      x y z
#    x 3.821600 0.000000 -0.101750 
#    y 0.000000 3.509120 0.000000 
#    z -0.101750 0.000000 3.737420 
# 
# 
# High freq. dielectric constant tensor:
#      x y z
#    x 1.806680 0.000000 -0.002110 
#    y 0.000000 1.784490 0.000000 
#    z -0.002110 0.000000 1.809480 
# 
# From -- ./inp_files/275001.got.cif
#   From: 2010.06.25/outbox.cif.g09.slc.cpg/sg12_138_cif.got.tgz:275001.got - 2010.06.28 00:19:55.
