data_PCOD8108116
_publ_section_title
;
Structure prediction by ZEFSAII (Michael W. Deem and Ramdas Pophale) SiO2 
 PCOD8108116
Probable space group: C 2/M
;
_chemical_formula_sum "Si O2"
_cell_formula_units_Z 64
_cell_length_a 24.782840
_cell_length_b 9.141759
_cell_length_c 14.527106
_cell_angle_alpha 90.000000
_cell_angle_beta 88.382762
_cell_angle_gamma 90.000000
_cell_volume 3289.931982
_symmetry_space_group_name_H-M "C 2/M"
_symmetry_group_IT_number 12
_symmetry_cell_setting 'monoclinic'
loop_
_space_group_symop_operation_xyz
x,y,z
-x,y,-z
-x,-y,-z
x,-y,z
1/2+x,1/2+y,z
1/2-x,1/2+y,-z
1/2-x,1/2-y,-z
1/2+x,1/2-y,z
loop_
_atom_site_type_symbol
_atom_site_label
_atom_site_fract_x
_atom_site_fract_y
_atom_site_fract_z
Si Si1 0.095930 0.668398 0.203710
Si Si2 0.652884 0.831470 0.505534
Si Si3 0.200356 0.670309 0.310482
Si Si4 0.058715 0.832665 0.026480
Si Si5 0.019888 0.331696 0.728732
Si Si6 0.397907 0.667525 0.168133
Si Si7 0.445778 0.663513 0.446683
Si Si8 0.308649 0.172042 0.292104
O O1 0.103467 0.500000 0.177518
O O2 0.147758 0.726106 0.257158
O O3 0.086626 0.750978 0.109287
O O4 0.044348 0.690150 0.272958
O O5 0.694143 0.801302 0.420229
O O6 0.601978 0.726729 0.488046
O O7 0.678475 0.788642 0.602498
O O8 0.634019 0.000000 0.504507
O O9 0.210965 0.500000 0.290719
O O10 0.250453 0.762399 0.270439
O O11 0.049472 0.000000 0.056551
O O12 0.102891 0.820463 0.942324
O O13 0.000000 0.766468 0.000000
O O14 0.036148 0.500000 0.742991
O O15 0.043477 0.233447 0.809501
O O16 0.049025 0.277210 0.635970
O O17 0.393329 0.500000 0.201051
O O18 0.351203 0.759447 0.219375
O O19 0.500000 0.658655 0.500000
O O20 0.431524 0.500000 0.412088
O O21 0.307755 0.000000 0.275685
#
# Coordination Sequence:
#
# PCOD8108116 Si02
#       8
#     8   8   8   8   8   8   8   8
#     4  10  22  38  60  89 120 156 198 243 296 355
#     4  10  21  38  60  85 117 155 200 247 293 349
#     4  10  22  41  61  85 119 160 200 244 299 352
#     4  10  21  38  61  90 121 154 193 239 299 359
#     4  11  21  35  57  85 118 155 193 238 293 350
#     4  11  22  38  61  88 119 154 191 239 295 352
#     4  11  23  35  51  81 119 159 201 241 289 349
#     4  11  23  39  61  90 118 155 205 249 291 345
#
# _framework density 19.453291
#
# number of rings (size 3 to 8) (size 9 to 14) (size 15 to 20)
#    0.000    1.500    2.500    2.625    0.000    5.250 
#    0.000    0.625    0.000    0.000    0.000    0.000 
#    0.000    0.000    0.000    0.000    0.000    0.000 
#
# Total GULP energy -396809.751981 kJ/mol
# GULP energy per Si atom -12400.304749 kJ/mol
# Density = 1.940901 g / cm^3
# Si number density = 19.453291 Si / 1000 Ang^3
#
#
#
# Elastic Constant Matrix: (Units=GPa)
#
#
# Indices 1 2 3 4 5 6 
#
# 1 120.8454 54.1549 33.2535 0.0000 -4.7292 0.0000
# 2 54.1549 89.1877 37.2987 0.0000 -4.5215 0.0000
# 3 33.2535 37.2987 82.6133 0.0000 -2.7826 0.0000
# 4 0.0000 0.0000 0.0000 29.4036 0.0000 0.8122
# 5 -4.7292 -4.5215 -2.7826 0.0000 22.4015 0.0000
# 6 0.0000 0.0000 0.0000 0.8122 0.0000 28.6772
#
#
#
# Elastic Compliance Matrix: (Units=1/GPa)
#
#
# Indices 1 2 3 4 5 6 
#
# 1 0.011610 -0.006238 -0.001825 0.000000 0.000965 0.000000
# 2 -0.006238 0.017265 -0.005233 0.000000 0.001518 0.000000
# 3 -0.001825 -0.005233 0.015217 0.000000 0.000449 0.000000
# 4 0.000000 0.000000 0.000000 0.034036 0.000000 -0.000964
# 5 0.000965 0.001518 0.000449 0.000000 0.045206 0.000000
# 6 0.000000 0.000000 0.000000 -0.000964 0.000000 0.034898
#
#
# Mechanical properties :
#
#
# Convention : Reuss Voigt Hill
#
# Bulk Modulus (GPa) = 57.13793 60.22893 58.68343
# Shear Modulus (GPa) = 26.22509 27.29242 26.75876
#
# Velocity S-wave (km/s) = 3.67564 3.74969 3.71285
# Velocity P-wave (km/s) = 6.88835 7.05513 6.97224
#
# Compressibility (1/GPa) = 0.01750151
#
# Stress axis : x y z
#
# Youngs Moduli (GPa) = 86.13087 57.91943 65.71682
#
# Poissons Ratio (x) = 0.36129 0.11991
# Poissons Ratio (y) = 0.53726 0.34390
# Poissons Ratio (z) = 0.15715 0.30310
#
# Static dielectric constant tensor:
#      x y z
#    x 3.552390 0.000000 0.017670 
#    y 0.000000 3.595310 0.000000 
#    z 0.017670 0.000000 3.627650 
# 
# 
# High freq. dielectric constant tensor:
#      x y z
#    x 1.752760 0.000000 -0.007690 
#    y 0.000000 1.761660 0.000000 
#    z -0.007690 0.000000 1.752840 
# 
# From -- ./inp_files/243936.got.cif
#   From: 2010.06.25/outbox.cif.g09.slc.cpg/sg12_122_cif.got.tgz:243936.got - 2010.06.28 00:19:55.
