data_PCOD8108520
_publ_section_title
;
Structure prediction by ZEFSAII (Michael W. Deem and Ramdas Pophale) SiO2 
 PCOD8108520
Probable space group: C 2/M
;
_chemical_formula_sum "Si O2"
_cell_formula_units_Z 48
_cell_length_a 5.249736
_cell_length_b 19.628991
_cell_length_c 24.515021
_cell_angle_alpha 90.000000
_cell_angle_beta 118.200882
_cell_angle_gamma 90.000000
_cell_volume 2226.330295
_symmetry_space_group_name_H-M "C 2/M"
_symmetry_group_IT_number 12
_symmetry_cell_setting 'monoclinic'
loop_
_space_group_symop_operation_xyz
x,y,z
-x,y,-z
-x,-y,-z
x,-y,z
1/2+x,1/2+y,z
1/2-x,1/2+y,-z
1/2-x,1/2-y,-z
1/2+x,1/2-y,z
loop_
_atom_site_type_symbol
_atom_site_label
_atom_site_fract_x
_atom_site_fract_y
_atom_site_fract_z
Si Si1 0.832644 0.423318 0.797689
Si Si2 0.762065 0.422263 0.668322
Si Si3 0.818443 0.079521 0.531240
Si Si4 0.808834 0.174803 0.026695
Si Si5 0.086979 0.289604 0.705105
Si Si6 0.902959 0.848938 0.832379
O O1 0.807083 0.500000 0.815595
O O2 0.678208 0.412857 0.723283
O O3 0.670424 0.377875 0.825160
O O4 0.171248 0.406236 0.825921
O O5 0.877423 0.500000 0.669109
O O6 0.476219 0.407335 0.604505
O O7 0.010238 0.367006 0.678267
O O8 0.500000 0.113493 0.500000
O O9 0.000000 0.112950 0.500000
O O10 0.782753 0.000000 0.515292
O O11 0.971620 0.183225 0.100259
O O12 0.500000 0.135734 0.000000
O O13 0.750000 0.250000 0.000000
O O14 0.000000 0.135904 0.000000
O O15 0.293665 0.254647 0.681404
O O16 0.244040 0.291357 0.780146
#
# Coordination Sequence:
#
# PCOD8108520 Si02
#       6
#     8   8   8   8   8   8
#     4  10  21  38  62  90 118 158 200 250 302 362
#     4   9  20  40  63  91 125 165 211 251 308 376
#     4   9  18  32  55  87 119 155 204 261 302 344
#     4  10  22  36  57  84 113 149 190 244 289 364
#     4  11  24  38  60  90 127 160 194 258 314 360
#     4  11  22  38  61  87 123 154 198 246 308 367
#
# _framework density 21.560144000000001
#
# number of rings (size 3 to 8) (size 9 to 14) (size 15 to 20)
#    0.000    2.000    0.000    3.500    4.667    4.667 
#    0.000   10.833    0.000   13.000    0.000    0.000 
#    0.000    0.000    0.000    0.000    0.000    0.000 
#
# Total GULP energy -297513.243846 kJ/mol
# GULP energy per Si atom -12396.385160 kJ/mol
# Density = 2.151107 g / cm^3
# Si number density = 21.560144 Si / 1000 Ang^3
#
#
#
# Elastic Constant Matrix: (Units=GPa)
#
#
# Indices 1 2 3 4 5 6 
#
# 1 153.3775 22.7911 35.5312 0.0000 3.8050 0.0000
# 2 22.7911 71.6762 19.6354 0.0000 3.8500 0.0000
# 3 35.5312 19.6354 132.1130 0.0000 13.0897 0.0000
# 4 0.0000 0.0000 0.0000 24.1803 0.0000 4.0061
# 5 3.8050 3.8500 13.0897 0.0000 30.2725 0.0000
# 6 0.0000 0.0000 0.0000 4.0061 0.0000 18.2597
#
#
#
# Elastic Compliance Matrix: (Units=1/GPa)
#
#
# Indices 1 2 3 4 5 6 
#
# 1 0.007176 -0.001829 -0.001663 0.000000 0.000050 0.000000
# 2 -0.001829 0.015036 -0.001647 0.000000 -0.000970 0.000000
# 3 -0.001663 -0.001647 0.008588 0.000000 -0.003295 0.000000
# 4 0.000000 0.000000 0.000000 0.042916 0.000000 -0.009416
# 5 0.000050 -0.000970 -0.003295 0.000000 0.034575 0.000000
# 6 0.000000 0.000000 0.000000 -0.009416 0.000000 0.056831
#
#
# Mechanical properties :
#
#
# Convention : Reuss Voigt Hill
#
# Bulk Modulus (GPa) = 48.72668 57.00914 52.86791
# Shear Modulus (GPa) = 27.43633 33.15641 30.29637
#
# Velocity S-wave (km/s) = 3.57115 3.92581 3.75267
# Velocity P-wave (km/s) = 6.29711 6.85920 6.58415
#
# Compressibility (1/GPa) = 0.02052264
#
# Stress axis : x y z
#
# Youngs Moduli (GPa) = 139.36086 66.50532 116.44504
#
# Poissons Ratio (x) = 0.12162 0.19365
# Poissons Ratio (y) = 0.25486 0.19176
# Poissons Ratio (z) = 0.23175 0.10952
#
# Static dielectric constant tensor:
#      x y z
#    x 3.183800 0.000000 0.176960 
#    y 0.000000 3.464760 0.000000 
#    z 0.176960 0.000000 3.897350 
# 
# 
# High freq. dielectric constant tensor:
#      x y z
#    x 1.861100 0.000000 0.005280 
#    y 0.000000 1.806420 0.000000 
#    z 0.005280 0.000000 1.840590 
# 
# From -- ./inp_files/297783.got.cif
#   From: 2010.06.25/outbox.cif.g09.slc.cpg/sg12_149_cif.got.tgz:297783.got - 2010.06.28 00:19:55.
