data_PCOD8108851
_publ_section_title
;
Structure prediction by ZEFSAII (Michael W. Deem and Ramdas Pophale) SiO2 
 PCOD8108851
Probable space group: C 2/M
;
_chemical_formula_sum "Si O2"
_cell_formula_units_Z 48
_cell_length_a 12.743055
_cell_length_b 18.825432
_cell_length_c 11.784183
_cell_angle_alpha 90.000000
_cell_angle_beta 124.277560
_cell_angle_gamma 90.000000
_cell_volume 2335.961564
_symmetry_space_group_name_H-M "C 2/M"
_symmetry_group_IT_number 12
_symmetry_cell_setting 'monoclinic'
loop_
_space_group_symop_operation_xyz
x,y,z
-x,y,-z
-x,-y,-z
x,-y,z
1/2+x,1/2+y,z
1/2-x,1/2+y,-z
1/2-x,1/2-y,-z
1/2+x,1/2-y,z
loop_
_atom_site_type_symbol
_atom_site_label
_atom_site_fract_x
_atom_site_fract_y
_atom_site_fract_z
Si Si1 0.713543 0.415873 0.423267
Si Si2 0.720589 0.176343 0.325772
Si Si3 0.790342 0.154706 0.118184
Si Si4 0.864512 0.682807 0.380703
Si Si5 0.006393 0.918851 0.877924
Si Si6 0.422736 0.799637 0.169215
O O1 0.716073 0.500000 0.448483
O O2 0.712150 0.373601 0.540800
O O3 0.838009 0.391195 0.429274
O O4 0.596329 0.389035 0.274356
O O5 0.766931 0.141768 0.236233
O O6 0.764537 0.257793 0.360425
O O7 0.568867 0.178441 0.246667
O O8 0.854142 0.087627 0.094192
O O9 0.896117 0.215540 0.158022
O O10 0.651843 0.169390 0.983312
O O11 0.861065 0.667029 0.244927
O O12 0.000000 0.713340 0.500000
O O13 0.971391 0.000000 0.875591
O O14 0.000000 0.881572 0.000000
#
# Coordination Sequence:
#
# PCOD8108851 Si02
#       6
#     8   8   8   8   8   8
#     4  11  24  40  62  91 124 161 204 257 306 364
#     4  11  23  38  61  91 128 157 201 248 314 368
#     4  10  22  37  64  87 121 157 200 252 300 363
#     4  11  22  37  63  90 120 161 205 251 303 357
#     4  10  22  41  63  86 116 159 207 253 302 359
#     4  10  21  39  58  92 119 158 201 251 304 357
#
# _framework density 20.548283000000001
#
# number of rings (size 3 to 8) (size 9 to 14) (size 15 to 20)
#    0.000    1.500    1.667    3.000    4.667    3.667 
#    0.000    2.500    0.000    2.000    0.000    0.000 
#    0.000    0.000    0.000    0.000    0.000    0.000 
#
# Total GULP energy -297519.421668 kJ/mol
# GULP energy per Si atom -12396.642569 kJ/mol
# Density = 2.050151 g / cm^3
# Si number density = 20.548283 Si / 1000 Ang^3
#
#
#
# Elastic Constant Matrix: (Units=GPa)
#
#
# Indices 1 2 3 4 5 6 
#
# 1 123.8200 42.8626 68.7242 0.0000 -9.0740 0.0000
# 2 42.8626 53.8981 44.2531 0.0000 -5.7577 0.0000
# 3 68.7242 44.2531 158.0868 0.0000 -19.2969 0.0000
# 4 0.0000 0.0000 0.0000 26.5063 0.0000 0.0069
# 5 -9.0740 -5.7577 -19.2969 0.0000 37.2004 0.0000
# 6 0.0000 0.0000 0.0000 0.0069 0.0000 23.4212
#
#
#
# Elastic Compliance Matrix: (Units=1/GPa)
#
#
# Indices 1 2 3 4 5 6 
#
# 1 0.012424 -0.007069 -0.003401 0.000000 0.000172 0.000000
# 2 -0.007069 0.028115 -0.004779 0.000000 0.000148 0.000000
# 3 -0.003401 -0.004779 0.009555 0.000000 0.003387 0.000000
# 4 0.000000 0.000000 0.000000 0.037727 0.000000 -0.000011
# 5 0.000172 0.000148 0.003387 0.000000 0.028703 0.000000
# 6 0.000000 0.000000 0.000000 -0.000011 0.000000 0.042696
#
#
# Mechanical properties :
#
#
# Convention : Reuss Voigt Hill
#
# Bulk Modulus (GPa) = 51.03157 71.94273 61.48715
# Shear Modulus (GPa) = 25.47761 29.42325 27.45043
#
# Velocity S-wave (km/s) = 3.52503 3.78816 3.65896
# Velocity P-wave (km/s) = 6.43868 7.36350 6.91656
#
# Compressibility (1/GPa) = 0.01959571
#
# Stress axis : x y z
#
# Youngs Moduli (GPa) = 80.49165 35.56831 104.65302
#
# Poissons Ratio (x) = 0.25144 0.35592
# Poissons Ratio (y) = 0.56901 0.50013
# Poissons Ratio (z) = 0.27375 0.16998
#
# Static dielectric constant tensor:
#      x y z
#    x 3.656620 0.000000 -0.168810 
#    y 0.000000 3.390890 0.000000 
#    z -0.168810 0.000000 4.047340 
# 
# 
# High freq. dielectric constant tensor:
#      x y z
#    x 1.810630 0.000000 -0.008830 
#    y 0.000000 1.771410 0.000000 
#    z -0.008830 0.000000 1.825650 
# 
# From -- ./inp_files/132965.got.cif
#   From: 2010.06.25/outbox.cif.g09.slc.cpg/sg12_67_cif.got.tgz:132965.got - 2010.06.28 00:19:55.
