data_PCOD8108566
_publ_section_title
;
Structure prediction by ZEFSAII (Michael W. Deem and Ramdas Pophale) SiO2 
 PCOD8108566
Probable space group: C 2/M
;
_chemical_formula_sum "Si O2"
_cell_formula_units_Z 56
_cell_length_a 18.825226
_cell_length_b 8.966640
_cell_length_c 19.281136
_cell_angle_alpha 90.000000
_cell_angle_beta 115.191594
_cell_angle_gamma 90.000000
_cell_volume 2945.086832
_symmetry_space_group_name_H-M "C 2/M"
_symmetry_group_IT_number 12
_symmetry_cell_setting 'monoclinic'
loop_
_space_group_symop_operation_xyz
x,y,z
-x,y,-z
-x,-y,-z
x,-y,z
1/2+x,1/2+y,z
1/2-x,1/2+y,-z
1/2-x,1/2-y,-z
1/2+x,1/2-y,z
loop_
_atom_site_type_symbol
_atom_site_label
_atom_site_fract_x
_atom_site_fract_y
_atom_site_fract_z
Si Si1 0.851804 0.839975 0.690482
Si Si2 0.623346 0.177655 0.738552
Si Si3 0.951724 0.328495 0.910367
Si Si4 0.575884 0.323070 0.576446
Si Si5 0.729600 0.671728 0.561847
Si Si6 0.801246 0.836323 0.824587
Si Si7 0.017311 0.173156 0.802789
O O1 0.802741 0.701553 0.642256
O O2 0.838119 0.857004 0.765258
O O3 0.943999 0.809206 0.719333
O O4 0.829318 0.000000 0.645178
O O5 0.579229 0.246491 0.653210
O O6 0.713971 0.231753 0.780731
O O7 0.586557 0.235420 0.794934
O O8 0.617522 0.000000 0.730396
O O9 0.945658 0.500000 0.884995
O O10 0.862960 0.270202 0.889776
O O11 0.998054 0.240309 0.869903
O O12 0.000000 0.306777 0.000000
O O13 0.500000 0.274796 0.500000
O O14 0.577692 0.500000 0.589127
O O15 0.650373 0.265240 0.563233
O O16 0.719470 0.500000 0.542987
O O17 0.750000 0.750000 0.500000
O O18 0.797328 0.000000 0.859322
O O19 0.040848 0.000000 0.821629
#
# Coordination Sequence:
#
# PCOD8108566 Si02
#       7
#     8   8   8   8   8   8   8
#     4   9  18  36  56  76 106 143 186 234 282 335
#     4  11  22  38  60  87 118 151 194 245 290 340
#     4  10  21  38  62  92 122 150 188 237 282 334
#     4  10  23  41  57  78 112 156 198 239 293 349
#     4  11  23  36  54  78 107 144 189 239 289 341
#     4   9  19  36  59  85 114 151 188 229 283 342
#     4  10  22  38  59  86 117 154 192 231 284 345
#
# _framework density 19.014720000000001
#
# number of rings (size 3 to 8) (size 9 to 14) (size 15 to 20)
#    0.000    2.000    1.429    2.571    2.000    6.000 
#    0.000    0.714    0.000    0.000    0.000    0.000 
#    0.000    0.000    0.000    0.000    0.000    0.000 
#
# Total GULP energy -347066.117569 kJ/mol
# GULP energy per Si atom -12395.218485 kJ/mol
# Density = 1.897144 g / cm^3
# Si number density = 19.014720 Si / 1000 Ang^3
#
#
#
# Elastic Constant Matrix: (Units=GPa)
#
#
# Indices 1 2 3 4 5 6 
#
# 1 97.0813 37.6635 38.3679 0.0000 4.3946 0.0000
# 2 37.6635 77.7003 43.3271 0.0000 3.0512 0.0000
# 3 38.3679 43.3271 92.5640 0.0000 12.1322 0.0000
# 4 0.0000 0.0000 0.0000 33.1613 0.0000 0.2846
# 5 4.3946 3.0512 12.1322 0.0000 27.9912 0.0000
# 6 0.0000 0.0000 0.0000 0.2846 0.0000 27.8771
#
#
#
# Elastic Compliance Matrix: (Units=1/GPa)
#
#
# Indices 1 2 3 4 5 6 
#
# 1 0.013438 -0.004618 -0.003391 0.000000 -0.000137 0.000000
# 2 -0.004618 0.019082 -0.007252 0.000000 0.001788 0.000000
# 3 -0.003391 -0.007252 0.016359 0.000000 -0.005768 0.000000
# 4 0.000000 0.000000 0.000000 0.030158 0.000000 -0.000308
# 5 -0.000137 0.001788 -0.005768 0.000000 0.038052 0.000000
# 6 0.000000 0.000000 0.000000 -0.000308 0.000000 0.035875
#
#
# Mechanical properties :
#
#
# Convention : Reuss Voigt Hill
#
# Bulk Modulus (GPa) = 54.47141 56.22917 55.35029
# Shear Modulus (GPa) = 26.37043 27.67172 27.02108
#
# Velocity S-wave (km/s) = 3.72807 3.81895 3.77379
# Velocity P-wave (km/s) = 6.87318 7.00581 6.93981
#
# Compressibility (1/GPa) = 0.01835825
#
# Stress axis : x y z
#
# Youngs Moduli (GPa) = 74.41319 52.40513 61.12691
#
# Poissons Ratio (x) = 0.24200 0.20727
# Poissons Ratio (y) = 0.34363 0.44330
# Poissons Ratio (z) = 0.25232 0.38005
#
# Static dielectric constant tensor:
#      x y z
#    x 3.581860 0.000000 0.096740 
#    y 0.000000 3.554300 0.000000 
#    z 0.096740 0.000000 3.163020 
# 
# 
# High freq. dielectric constant tensor:
#      x y z
#    x 1.744180 0.000000 0.009240 
#    y 0.000000 1.743120 0.000000 
#    z 0.009240 0.000000 1.724970 
# 
# From -- ./inp_files/275618.got.cif
#   From: 2010.06.25/outbox.cif.g09.slc.cpg/sg12_138_cif.got.tgz:275618.got - 2010.06.28 00:19:55.
