data_PCOD8108419
_publ_section_title
;
Structure prediction by ZEFSAII (Michael W. Deem and Ramdas Pophale) SiO2 
 PCOD8108419
Probable space group: C 2/M
;
_chemical_formula_sum "Si O2"
_cell_formula_units_Z 64
_cell_length_a 16.181796
_cell_length_b 18.019991
_cell_length_c 14.977008
_cell_angle_alpha 90.000000
_cell_angle_beta 143.743539
_cell_angle_gamma 90.000000
_cell_volume 2582.784089
_symmetry_space_group_name_H-M "C 2/M"
_symmetry_group_IT_number 12
_symmetry_cell_setting 'monoclinic'
loop_
_space_group_symop_operation_xyz
x,y,z
-x,y,-z
-x,-y,-z
x,-y,z
1/2+x,1/2+y,z
1/2-x,1/2+y,-z
1/2-x,1/2-y,-z
1/2+x,1/2-y,z
loop_
_atom_site_type_symbol
_atom_site_label
_atom_site_fract_x
_atom_site_fract_y
_atom_site_fract_z
Si Si1 0.457764 0.913179 0.565544
Si Si2 0.240165 0.818468 0.306808
Si Si3 0.031200 0.820700 0.832782
Si Si4 0.950790 0.657839 0.180370
Si Si5 0.792348 0.415883 0.882803
Si Si6 0.147121 0.916024 0.076896
Si Si7 0.532839 0.583098 0.379604
Si Si8 0.272547 0.154988 0.689475
O O1 0.500000 0.894580 0.500000
O O2 0.315205 0.865145 0.451308
O O3 0.561927 0.883797 0.734445
O O4 0.429165 0.000000 0.554556
O O5 0.077054 0.803221 0.182633
O O6 0.254831 0.866785 0.228605
O O7 0.299711 0.734981 0.352738
O O8 0.096537 0.744176 0.852600
O O9 0.942180 0.860557 0.679111
O O10 0.142627 0.877465 0.974788
O O11 0.111716 0.653948 0.287884
O O12 0.842673 0.621750 0.017490
O O13 0.844896 0.500000 0.929177
O O14 0.625979 0.408358 0.726977
O O15 0.852227 0.375017 0.847220
O O16 0.208423 0.000000 0.119898
O O17 0.000000 0.921618 0.000000
O O18 0.560544 0.500000 0.369550
O O19 0.643803 0.601099 0.553376
#
# Coordination Sequence:
#
# PCOD8108419 Si02
#       8
#     8   8   8   8   8   8   8   8
#     4  11  25  42  61  89 125 168 219 271 324 387
#     4  10  21  38  61  90 125 165 213 269 323 378
#     4  10  21  38  61  93 128 163 212 268 320 383
#     4  11  24  43  68  96 127 168 217 266 321 386
#     4  11  25  43  64  95 132 168 210 261 318 382
#     4   9  17  31  55  87 123 164 207 254 312 372
#     4  11  24  40  61  91 128 169 212 262 321 381
#     4  11  23  41  67  97 129 168 215 265 319 383
#
# _framework density 24.779461999999999
#
# number of rings (size 3 to 8) (size 9 to 14) (size 15 to 20)
#    0.000    1.500    0.000    4.500    0.000   13.500 
#    0.000    1.250    0.000    0.000    0.000    0.000 
#    0.000    0.000    0.000    0.000    0.000    0.000 
#
# Total GULP energy -396733.640794 kJ/mol
# GULP energy per Si atom -12397.926275 kJ/mol
# Density = 2.472306 g / cm^3
# Si number density = 24.779462 Si / 1000 Ang^3
#
#
#
# Elastic Constant Matrix: (Units=GPa)
#
#
# Indices 1 2 3 4 5 6 
#
# 1 50.9834 30.1927 18.8611 0.0003 -25.7221 0.0001
# 2 30.1927 210.5305 54.7280 -0.0002 -27.7592 -0.0001
# 3 18.8611 54.7280 132.7691 0.0000 -26.6116 0.0001
# 4 0.0003 -0.0002 0.0000 48.8871 0.0005 -10.5238
# 5 -25.7221 -27.7592 -26.6116 0.0005 41.5916 0.0003
# 6 0.0001 -0.0001 0.0001 -10.5238 0.0003 25.5634
#
#
#
# Elastic Compliance Matrix: (Units=1/GPa)
#
#
# Indices 1 2 3 4 5 6 
#
# 1 0.029247 -0.001989 0.000028 0.000000 0.016778 -0.000001
# 2 -0.001989 0.005685 -0.001774 0.000000 0.001429 0.000000
# 3 0.000028 -0.001774 0.009206 0.000000 0.004723 0.000000
# 4 0.000000 0.000000 0.000000 0.022444 -0.000001 0.009240
# 5 0.016778 0.001429 0.004723 -0.000001 0.038395 -0.000001
# 6 -0.000001 0.000000 0.000000 0.009240 -0.000001 0.042922
#
#
# Mechanical properties :
#
#
# Convention : Reuss Voigt Hill
#
# Bulk Modulus (GPa) = 27.27316 66.87184 47.07250
# Shear Modulus (GPa) = 29.83427 42.57515 36.20471
#
# Velocity S-wave (km/s) = 3.47362 4.14957 3.82655
# Velocity P-wave (km/s) = 5.20753 7.07135 6.20976
#
# Compressibility (1/GPa) = 0.03666609
#
# Stress axis : x y z
#
# Youngs Moduli (GPa) = 34.19200 175.90693 108.62456
#
# Poissons Ratio (x) = 0.34996 -0.00306
# Poissons Ratio (y) = 0.06802 0.19274
# Poissons Ratio (z) = -0.00096 0.31212
#
# Static dielectric constant tensor:
#      x y z
#    x 4.123010 0.000000 -0.074430 
#    y 0.000000 4.612470 0.000000 
#    z -0.074430 0.000000 4.412950 
# 
# 
# High freq. dielectric constant tensor:
#      x y z
#    x 1.974680 0.000000 -0.000900 
#    y 0.000000 1.996230 0.000000 
#    z -0.000900 0.000000 1.997060 
# 
# From -- ./inp_files/226895.got.cif
#   From: 2010.06.25/outbox.cif.g09.slc.cpg/sg12_114_cif.got.tgz:226895.got - 2010.06.28 00:19:55.
