data_PCOD8108535
_publ_section_title
;
Structure prediction by ZEFSAII (Michael W. Deem and Ramdas Pophale) SiO2 
 PCOD8108535
Probable space group: C 2/M
;
_chemical_formula_sum "Si O2"
_cell_formula_units_Z 56
_cell_length_a 17.641053
_cell_length_b 17.951700
_cell_length_c 14.599269
_cell_angle_alpha 90.000000
_cell_angle_beta 141.802271
_cell_angle_gamma 90.000000
_cell_volume 2859.003575
_symmetry_space_group_name_H-M "C 2/M"
_symmetry_group_IT_number 12
_symmetry_cell_setting 'monoclinic'
loop_
_space_group_symop_operation_xyz
x,y,z
-x,y,-z
-x,-y,-z
x,-y,z
1/2+x,1/2+y,z
1/2-x,1/2+y,-z
1/2-x,1/2-y,-z
1/2+x,1/2-y,z
loop_
_atom_site_type_symbol
_atom_site_label
_atom_site_fract_x
_atom_site_fract_y
_atom_site_fract_z
Si Si1 0.255331 0.670928 0.959417
Si Si2 0.167469 0.691212 0.201441
Si Si3 0.133458 0.584776 0.997550
Si Si4 0.640361 0.083489 0.326839
Si Si5 0.017123 0.170330 0.115227
Si Si6 0.251311 0.413254 0.622496
Si Si7 0.136918 0.686699 0.660958
O O1 0.233594 0.609101 0.017025
O O2 0.390681 0.663105 0.047885
O O3 0.250000 0.750000 0.000000
O O4 0.151512 0.664790 0.781561
O O5 0.127178 0.638459 0.079318
O O6 0.211704 0.638670 0.326333
O O7 0.056662 0.743675 0.133384
O O8 0.281599 0.740645 0.279516
O O9 0.162208 0.500000 0.056488
O O10 0.003731 0.589720 0.824857
O O11 0.667450 0.106905 0.456378
O O12 0.688480 0.000000 0.353891
O O13 0.118776 0.127020 0.269836
O O14 0.000000 0.131029 0.000000
O O15 0.273661 0.500000 0.656287
O O16 0.183956 0.383650 0.648466
O O17 0.000000 0.706267 0.500000
#
# Coordination Sequence:
#
# PCOD8108535 Si02
#       7
#     8   8   8   8   8   8   8
#     4  12  22  39  62  90 127 160 200 253 299 365
#     4  11  21  40  64  90 122 158 209 255 303 359
#     4  11  23  38  63  94 125 165 206 251 307 364
#     4  10  21  38  62  90 123 160 203 254 302 358
#     4  11  21  39  63  90 116 160 204 250 306 357
#     4  10  23  41  60  88 121 157 202 252 307 365
#     4  11  24  39  62  90 120 161 200 253 309 364
#
# _framework density 19.587243999999998
#
# number of rings (size 3 to 8) (size 9 to 14) (size 15 to 20)
#    0.000    1.143    4.286    3.429    0.000    6.286 
#    0.000    0.000    0.000    0.857    0.000    0.000 
#    0.000    0.000    0.000    0.000    0.000    0.000 
#
# Total GULP energy -347183.301249 kJ/mol
# GULP energy per Si atom -12399.403616 kJ/mol
# Density = 1.954266 g / cm^3
# Si number density = 19.587244 Si / 1000 Ang^3
#
#
#
# Elastic Constant Matrix: (Units=GPa)
#
#
# Indices 1 2 3 4 5 6 
#
# 1 84.5106 48.9485 26.3282 0.0000 -11.5630 0.0000
# 2 48.9485 124.2641 57.4843 0.0000 -12.8973 0.0000
# 3 26.3282 57.4843 106.1096 0.0000 -15.0330 0.0000
# 4 0.0000 0.0000 0.0000 30.7296 0.0000 -11.1787
# 5 -11.5630 -12.8973 -15.0330 0.0000 36.7062 0.0000
# 6 0.0000 0.0000 0.0000 -11.1787 0.0000 26.8331
#
#
#
# Elastic Compliance Matrix: (Units=1/GPa)
#
#
# Indices 1 2 3 4 5 6 
#
# 1 0.015628 -0.005680 -0.000410 0.000000 0.002760 0.000000
# 2 -0.005680 0.012879 -0.005499 0.000000 0.000484 0.000000
# 3 -0.000410 -0.005499 0.012965 0.000000 0.003249 0.000000
# 4 0.000000 0.000000 0.000000 0.038355 0.000000 0.015979
# 5 0.002760 0.000484 0.003249 0.000000 0.029613 0.000000
# 6 0.000000 0.000000 0.000000 0.015979 0.000000 0.043924
#
#
# Mechanical properties :
#
#
# Convention : Reuss Voigt Hill
#
# Bulk Modulus (GPa) = 54.66143 64.48960 59.57552
# Shear Modulus (GPa) = 27.37634 30.99535 29.18585
#
# Velocity S-wave (km/s) = 3.74259 3.98229 3.86430
# Velocity P-wave (km/s) = 6.82958 7.35803 7.09872
#
# Compressibility (1/GPa) = 0.01829443
#
# Stress axis : x y z
#
# Youngs Moduli (GPa) = 63.98818 77.64625 77.12929
#
# Poissons Ratio (x) = 0.44104 0.03159
# Poissons Ratio (y) = 0.36346 0.42415
# Poissons Ratio (z) = 0.02620 0.42699
#
# Static dielectric constant tensor:
#      x y z
#    x 3.466130 0.000000 -0.216470 
#    y 0.000000 3.727190 0.000000 
#    z -0.216470 0.000000 3.789470 
# 
# 
# High freq. dielectric constant tensor:
#      x y z
#    x 1.761500 0.000000 -0.012030 
#    y 0.000000 1.768090 0.000000 
#    z -0.012030 0.000000 1.768040 
# 
# From -- ./inp_files/234693.got.cif
#   From: 2010.06.25/outbox.cif.g09.slc.cpg/sg12_118_cif.got.tgz:234693.got - 2010.06.28 00:19:55.
