data_PCOD8108231
_publ_section_title
;
Structure prediction by ZEFSAII (Michael W. Deem and Ramdas Pophale) SiO2 
 PCOD8108231
Probable space group: C 2/M
;
_chemical_formula_sum "Si O2"
_cell_formula_units_Z 40
_cell_length_a 19.329059
_cell_length_b 17.219246
_cell_length_c 15.805599
_cell_angle_alpha 90.000000
_cell_angle_beta 159.046871
_cell_angle_gamma 90.000000
_cell_volume 1881.214444
_symmetry_space_group_name_H-M "C 2/M"
_symmetry_group_IT_number 12
_symmetry_cell_setting 'monoclinic'
loop_
_space_group_symop_operation_xyz
x,y,z
-x,y,-z
-x,-y,-z
x,-y,z
1/2+x,1/2+y,z
1/2-x,1/2+y,-z
1/2-x,1/2-y,-z
1/2+x,1/2-y,z
loop_
_atom_site_type_symbol
_atom_site_label
_atom_site_fract_x
_atom_site_fract_y
_atom_site_fract_z
Si Si1 0.392259 0.588506 0.962605
Si Si2 0.672495 0.412985 0.441035
Si Si3 0.444446 0.628089 0.346839
Si Si4 0.059626 0.666568 0.844962
Si Si5 0.168913 0.706668 0.795317
O O1 0.317035 0.500000 0.871041
O O2 0.525225 0.601223 0.196475
O O3 0.500000 0.612017 0.000000
O O4 0.211181 0.647987 0.765538
O O5 0.756876 0.500000 0.529613
O O6 0.573498 0.404941 0.419024
O O7 0.847213 0.351645 0.636345
O O8 0.500000 0.588953 0.500000
O O9 0.474143 0.721944 0.390049
O O10 0.218299 0.609587 0.069992
O O11 0.071605 0.654656 0.757601
O O12 0.122177 0.756384 0.935351
#
# Coordination Sequence:
#
# PCOD8108231 Si02
#       5
#     8   8   8   8   8
#     4  10  21  38  60  91 123 156 198 243 301 356
#     4  11  23  39  63  87 121 162 194 248 299 350
#     4  10  22  40  61  91 120 156 202 244 298 347
#     4   9  20  39  60  91 115 158 204 235 297 354
#     4   9  19  39  59  87 116 160 192 248 290 342
#
# _framework density 21.262861000000001
#
# number of rings (size 3 to 8) (size 9 to 14) (size 15 to 20)
#    1.200    1.000    2.000    0.000    0.000    9.200 
#    0.000    1.000    0.000    4.200    0.000    0.000 
#    0.000    0.000    0.000    0.000    0.000    0.000 
#
# Total GULP energy -247795.495799 kJ/mol
# GULP energy per Si atom -12389.774790 kJ/mol
# Density = 2.121447 g / cm^3
# Si number density = 21.262861 Si / 1000 Ang^3
#
#
#
# Elastic Constant Matrix: (Units=GPa)
#
#
# Indices 1 2 3 4 5 6 
#
# 1 149.7097 22.1502 15.5258 0.0001 -6.9530 -0.0001
# 2 22.1502 68.3403 0.1987 -0.0003 12.4415 0.0001
# 3 15.5258 0.1987 33.3424 0.0035 7.1898 0.0023
# 4 0.0001 -0.0003 0.0035 11.1123 0.0026 11.9749
# 5 -6.9530 12.4415 7.1898 0.0026 30.4400 0.0013
# 6 -0.0001 0.0001 0.0023 11.9749 0.0013 33.1765
#
#
#
# Elastic Compliance Matrix: (Units=1/GPa)
#
#
# Indices 1 2 3 4 5 6 
#
# 1 0.007832 -0.003291 -0.004534 0.000000 0.004205 0.000000
# 2 -0.003291 0.017251 0.003279 0.000002 -0.008577 -0.000001
# 3 -0.004534 0.003279 0.034345 -0.000010 -0.010488 0.000002
# 4 0.000000 0.000002 -0.000010 0.147275 -0.000009 -0.053158
# 5 0.004205 -0.008577 -0.010488 -0.000009 0.039795 0.000002
# 6 0.000000 -0.000001 0.000002 -0.053158 0.000002 0.049329
#
#
# Mechanical properties :
#
#
# Convention : Reuss Voigt Hill
#
# Bulk Modulus (GPa) = 19.86617 36.34908 28.10762
# Shear Modulus (GPa) = 15.54255 29.18026 22.36141
#
# Velocity S-wave (km/s) = 2.70658 3.70855 3.24646
# Velocity P-wave (km/s) = 4.37388 5.95567 5.22498
#
# Compressibility (1/GPa) = 0.05033684
#
# Stress axis : x y z
#
# Youngs Moduli (GPa) = 127.68168 57.96697 29.11614
#
# Poissons Ratio (x) = 0.19076 0.13201
# Poissons Ratio (y) = 0.42017 -0.09547
# Poissons Ratio (z) = 0.57892 -0.19008
#
# Static dielectric constant tensor:
#      x y z
#    x 3.736770 0.000000 -0.069940 
#    y 0.000000 3.696100 0.000000 
#    z -0.069940 0.000000 3.480090 
# 
# 
# High freq. dielectric constant tensor:
#      x y z
#    x 1.839880 0.000000 -0.005290 
#    y 0.000000 1.824080 0.000000 
#    z -0.005290 0.000000 1.804450 
# 
# From -- ./inp_files/285680.got.cif
#   From: 2010.06.25/outbox.cif.g09.slc.cpg/sg12_143_cif.got.tgz:285680.got - 2010.06.28 00:19:55.
