data_PCOD8108626
_publ_section_title
;
Structure prediction by ZEFSAII (Michael W. Deem and Ramdas Pophale) SiO2 
 PCOD8108626
Probable space group: C 2/M
;
_chemical_formula_sum "Si O2"
_cell_formula_units_Z 56
_cell_length_a 9.541365
_cell_length_b 18.235208
_cell_length_c 25.182626
_cell_angle_alpha 90.000000
_cell_angle_beta 140.212675
_cell_angle_gamma 90.000000
_cell_volume 2803.892226
_symmetry_space_group_name_H-M "C 2/M"
_symmetry_group_IT_number 12
_symmetry_cell_setting 'monoclinic'
loop_
_space_group_symop_operation_xyz
x,y,z
-x,y,-z
-x,-y,-z
x,-y,z
1/2+x,1/2+y,z
1/2-x,1/2+y,-z
1/2-x,1/2-y,-z
1/2+x,1/2-y,z
loop_
_atom_site_type_symbol
_atom_site_label
_atom_site_fract_x
_atom_site_fract_y
_atom_site_fract_z
Si Si1 0.159050 0.414186 0.595343
Si Si2 0.323370 0.580100 0.994286
Si Si3 0.024775 0.321982 0.842655
Si Si4 0.956332 0.342975 0.331241
Si Si5 0.378782 0.321908 0.852665
Si Si6 0.542222 0.671053 0.662872
Si Si7 0.868039 0.083209 0.407830
O O1 0.221546 0.500000 0.614345
O O2 0.039007 0.392148 0.614707
O O3 0.374464 0.362841 0.656730
O O4 0.000000 0.396192 0.500000
O O5 0.258629 0.500000 0.996941
O O6 0.428876 0.624089 0.073670
O O7 0.500000 0.574098 0.000000
O O8 0.106775 0.615652 0.906549
O O9 0.196014 0.307058 0.844763
O O10 0.002080 0.252048 0.873533
O O11 0.790369 0.346372 0.751843
O O12 0.732647 0.353451 0.233186
O O13 0.998852 0.257463 0.356477
O O14 0.143228 0.373237 0.347454
O O15 0.488239 0.627215 0.593192
O O16 0.000000 0.083515 0.500000
O O17 0.825307 0.000000 0.376036
#
# Coordination Sequence:
#
# PCOD8108626 Si02
#       7
#     8   8   8   8   8   8   8
#     4  11  25  43  61  86 123 164 201 247 314 371
#     4   9  19  36  59  91 124 157 200 244 289 352
#     4  10  21  38  63  90 120 159 199 245 300 356
#     4  11  23  39  62  90 119 156 205 253 298 359
#     4  10  21  38  63  90 120 159 199 245 300 356
#     4  11  23  39  62  90 119 156 205 253 298 359
#     4  11  23  39  59  86 119 156 199 249 304 361
#
# _framework density 19.972237
#
# number of rings (size 3 to 8) (size 9 to 14) (size 15 to 20)
#    0.000    1.571    1.429    3.000    6.000    8.000 
#    0.000    0.000    0.000    0.857    0.000    0.000 
#    0.000    0.000    0.000    0.000    0.000    0.000 
#
# Total GULP energy -347233.089298 kJ/mol
# GULP energy per Si atom -12401.181761 kJ/mol
# Density = 1.992678 g / cm^3
# Si number density = 19.972237 Si / 1000 Ang^3
#
#
#
# Elastic Constant Matrix: (Units=GPa)
#
#
# Indices 1 2 3 4 5 6 
#
# 1 59.9086 25.1387 10.5365 0.0001 -10.3911 0.0002
# 2 25.1387 122.9391 48.4100 0.0000 -16.9718 0.0001
# 3 10.5365 48.4100 62.5168 -0.0001 -16.0876 0.0005
# 4 0.0001 0.0000 -0.0001 23.2875 -0.0001 -4.9416
# 5 -10.3911 -16.9718 -16.0876 -0.0001 19.4223 0.0001
# 6 0.0002 0.0001 0.0005 -4.9416 0.0001 22.9520
#
#
#
# Elastic Compliance Matrix: (Units=1/GPa)
#
#
# Indices 1 2 3 4 5 6 
#
# 1 0.019342 -0.003383 0.001604 0.000000 0.008720 0.000000
# 2 -0.003383 0.012479 -0.008582 0.000000 0.001986 0.000000
# 3 0.001604 -0.008582 0.026259 0.000000 0.015109 -0.000001
# 4 0.000000 0.000000 0.000000 0.044997 0.000000 0.009688
# 5 0.008720 0.001986 0.015109 0.000000 0.070403 -0.000001
# 6 0.000000 0.000000 -0.000001 0.009688 -0.000001 0.045655
#
#
# Mechanical properties :
#
#
# Convention : Reuss Voigt Hill
#
# Bulk Modulus (GPa) = 26.76801 45.94834 36.35817
# Shear Modulus (GPa) = 19.81676 23.88432 21.85054
#
# Velocity S-wave (km/s) = 3.15336 3.46190 3.31122
# Velocity P-wave (km/s) = 5.16623 6.24785 5.73261
#
# Compressibility (1/GPa) = 0.03735803
#
# Stress axis : x y z
#
# Youngs Moduli (GPa) = 51.70082 80.13159 38.08193
#
# Poissons Ratio (x) = 0.27106 -0.06107
# Poissons Ratio (y) = 0.17489 0.32683
# Poissons Ratio (z) = -0.08290 0.68771
#
# Static dielectric constant tensor:
#      x y z
#    x 3.760600 0.000000 0.071970 
#    y 0.000000 3.881840 0.000000 
#    z 0.071970 0.000000 3.703300 
# 
# 
# High freq. dielectric constant tensor:
#      x y z
#    x 1.774650 0.000000 -0.002900 
#    y 0.000000 1.786040 0.000000 
#    z -0.002900 0.000000 1.785710 
# 
# From -- ./inp_files/356723.got.cif
#   From: 2010.06.25/outbox.cif.g09.slc.cpg/sg12_179_cif.got.tgz:356723.got - 2010.06.28 00:19:55.
