data_PCOD8108463
_publ_section_title
;
Structure prediction by ZEFSAII (Michael W. Deem and Ramdas Pophale) SiO2 
 PCOD8108463
Probable space group: C 2/M
;
_chemical_formula_sum "Si O2"
_cell_formula_units_Z 48
_cell_length_a 5.157533
_cell_length_b 24.142790
_cell_length_c 21.656143
_cell_angle_alpha 90.000000
_cell_angle_beta 122.360301
_cell_angle_gamma 90.000000
_cell_volume 2277.784091
_symmetry_space_group_name_H-M "C 2/M"
_symmetry_group_IT_number 12
_symmetry_cell_setting 'monoclinic'
loop_
_space_group_symop_operation_xyz
x,y,z
-x,y,-z
-x,-y,-z
x,-y,z
1/2+x,1/2+y,z
1/2-x,1/2+y,-z
1/2-x,1/2-y,-z
1/2+x,1/2-y,z
loop_
_atom_site_type_symbol
_atom_site_label
_atom_site_fract_x
_atom_site_fract_y
_atom_site_fract_z
Si Si1 0.544377 0.786646 0.292005
Si Si2 0.237858 0.873946 0.162190
Si Si3 0.724981 0.372779 0.582782
Si Si4 0.331783 0.435687 0.630196
Si Si5 0.949767 0.226000 0.081600
Si Si6 0.179257 0.063662 0.801233
O O1 0.320770 0.738443 0.287181
O O2 0.356066 0.830417 0.227566
O O3 0.685914 0.817971 0.368757
O O4 0.509572 0.900818 0.157312
O O5 0.015512 0.839770 0.086742
O O6 0.040183 0.921430 0.169753
O O7 0.500000 0.353332 0.500000
O O8 0.560356 0.417815 0.605172
O O9 0.020322 0.400909 0.588973
O O10 0.251261 0.500000 0.611693
O O11 0.502627 0.423745 0.715870
O O12 0.776371 0.241636 0.122932
O O13 0.750000 0.250000 0.000000
O O14 0.271955 0.000000 0.818863
#
# Coordination Sequence:
#
# PCOD8108463 Si02
#       6
#     8   8   8   8   8   8
#     4  12  24  39  59  83 115 155 205 254 306 362
#     4  12  21  39  64  93 125 163 199 258 307 359
#     4  12  25  41  59  84 117 160 211 256 320 386
#     4  11  22  41  62  86 119 154 204 266 320 373
#     4  10  21  38  61  97 132 162 203 241 299 361
#     4  11  22  38  63  93 125 161 205 255 314 371
#
# _framework density 21.073112999999999
#
# number of rings (size 3 to 8) (size 9 to 14) (size 15 to 20)
#    0.000    0.667    3.333    5.500    0.000    5.333 
#    0.000    0.000    0.000    0.000    0.000   46.667 
#    0.000    0.000    0.000    0.000    0.000    0.000 
#
# Total GULP energy -297640.474944 kJ/mol
# GULP energy per Si atom -12401.686456 kJ/mol
# Density = 2.102515 g / cm^3
# Si number density = 21.073113 Si / 1000 Ang^3
#
#
#
# Elastic Constant Matrix: (Units=GPa)
#
#
# Indices 1 2 3 4 5 6 
#
# 1 127.9721 27.1733 3.0008 0.0000 18.0205 0.0000
# 2 27.1733 88.9138 35.9970 0.0000 13.4562 0.0000
# 3 3.0008 35.9970 75.0197 0.0000 9.6870 0.0000
# 4 0.0000 0.0000 0.0000 25.2089 0.0000 2.5394
# 5 18.0205 13.4562 9.6870 0.0000 17.0367 0.0000
# 6 0.0000 0.0000 0.0000 2.5394 0.0000 51.0873
#
#
#
# Elastic Compliance Matrix: (Units=1/GPa)
#
#
# Indices 1 2 3 4 5 6 
#
# 1 0.009581 -0.002282 0.001929 0.000000 -0.009429 0.000000
# 2 -0.002282 0.015530 -0.006571 0.000000 -0.006116 0.000000
# 3 0.001929 -0.006571 0.017267 0.000000 -0.006669 0.000000
# 4 0.000000 0.000000 0.000000 0.039868 0.000000 -0.001982
# 5 -0.009429 -0.006116 -0.006669 0.000000 0.077293 0.000000
# 6 0.000000 0.000000 0.000000 -0.001982 0.000000 0.019673
#
#
# Mechanical properties :
#
#
# Convention : Reuss Voigt Hill
#
# Bulk Modulus (GPa) = 35.05004 47.13866 41.09435
# Shear Modulus (GPa) = 24.68282 33.71553 29.19917
#
# Velocity S-wave (km/s) = 3.42613 4.00425 3.72642
# Velocity P-wave (km/s) = 5.68506 6.61788 6.16913
#
# Compressibility (1/GPa) = 0.02853064
#
# Stress axis : x y z
#
# Youngs Moduli (GPa) = 104.36957 64.39069 57.91499
#
# Poissons Ratio (x) = 0.14696 -0.11174
# Poissons Ratio (y) = 0.23821 0.38055
# Poissons Ratio (z) = -0.20137 0.42310
#
# Static dielectric constant tensor:
#      x y z
#    x 2.665660 0.000000 0.236880 
#    y 0.000000 3.889390 0.000000 
#    z 0.236880 0.000000 3.816950 
# 
# 
# High freq. dielectric constant tensor:
#      x y z
#    x 1.854890 0.000000 0.007650 
#    y 0.000000 1.826670 0.000000 
#    z 0.007650 0.000000 1.808040 
# 
# From -- ./inp_files/297945.got.cif
#   From: 2010.06.25/outbox.cif.g09.slc.cpg/sg12_149_cif.got.tgz:297945.got - 2010.06.28 00:19:55.
