data_PCOD8108795
_publ_section_title
;
Structure prediction by ZEFSAII (Michael W. Deem and Ramdas Pophale) SiO2 
 PCOD8108795
Probable space group: C 2/M
;
_chemical_formula_sum "Si O2"
_cell_formula_units_Z 40
_cell_length_a 17.566686
_cell_length_b 10.183667
_cell_length_c 18.987595
_cell_angle_alpha 90.000000
_cell_angle_beta 32.823203
_cell_angle_gamma 90.000000
_cell_volume 1841.205189
_symmetry_space_group_name_H-M "C 2/M"
_symmetry_group_IT_number 12
_symmetry_cell_setting 'monoclinic'
loop_
_space_group_symop_operation_xyz
x,y,z
-x,y,-z
-x,-y,-z
x,-y,z
1/2+x,1/2+y,z
1/2-x,1/2+y,-z
1/2-x,1/2-y,-z
1/2+x,1/2-y,z
loop_
_atom_site_type_symbol
_atom_site_label
_atom_site_fract_x
_atom_site_fract_y
_atom_site_fract_z
Si Si1 0.356446 0.228360 0.807576
Si Si2 0.572108 0.219006 0.094939
Si Si3 0.516374 0.500000 0.875686
Si Si4 0.347549 0.500000 0.589414
Si Si5 0.923140 0.500000 0.133081
Si Si6 0.644617 0.643538 0.550343
Si Si7 0.733872 0.500000 0.821273
O O1 0.399178 0.162384 0.849262
O O2 0.480827 0.322257 0.686421
O O3 0.330216 0.125390 0.764822
O O4 0.209854 0.301678 0.938766
O O5 0.512847 0.368580 0.147233
O O6 0.454982 0.131046 0.150921
O O7 0.674501 0.500000 0.786888
O O8 0.403039 0.500000 0.024881
O O9 0.500000 0.500000 0.500000
O O10 0.246215 0.500000 0.736791
O O11 0.325045 0.628722 0.556941
O O12 0.000000 0.500000 0.000000
O O13 0.669277 0.500000 0.568006
O O14 0.750000 0.750000 0.500000
#
# Coordination Sequence:
#
# PCOD8108795 Si02
#       7
#     8   8   4   4   4   8   4
#     4  10  21  38  66  96 129 170 217 277 326 389
#     4  10  23  38  63  99 135 162 225 272 330 390
#     4   9  20  37  56  92 131 173 195 271 331 390
#     4  10  26  46  65 100 140 175 218 279 331 399
#     4  12  27  39  70  94 135 175 225 267 335 396
#     4  10  24  42  71  91 132 176 226 266 337 396
#     4   9  19  34  61  84 134 168 212 253 336 383
#
# _framework density 21.724900999999999
#
# number of rings (size 3 to 8) (size 9 to 14) (size 15 to 20)
#    0.600    1.400    0.000    1.800   12.600    1.600 
#    0.000    0.000    0.000    0.600    0.000    0.000 
#    0.000    0.000    0.000    0.000    0.000    0.000 
#
# Total GULP energy -247766.370354 kJ/mol
# GULP energy per Si atom -12388.318518 kJ/mol
# Density = 2.167545 g / cm^3
# Si number density = 21.724901 Si / 1000 Ang^3
#
#
#
# Elastic Constant Matrix: (Units=GPa)
#
#
# Indices 1 2 3 4 5 6 
#
# 1 104.1891 41.0351 41.7702 0.0000 -24.0886 0.0000
# 2 41.0351 123.4167 45.9680 -0.0003 -24.1611 0.0001
# 3 41.7702 45.9680 135.4228 -0.0006 -10.8291 0.0002
# 4 0.0000 -0.0003 -0.0006 26.9837 0.0002 -11.4302
# 5 -24.0886 -24.1611 -10.8291 0.0002 31.9097 -0.0001
# 6 0.0000 0.0001 0.0002 -11.4302 -0.0001 32.4556
#
#
#
# Elastic Compliance Matrix: (Units=1/GPa)
#
#
# Indices 1 2 3 4 5 6 
#
# 1 0.013228 -0.001847 -0.002844 0.000000 0.007622 0.000000
# 2 -0.001847 0.010863 -0.002643 0.000000 0.005934 0.000000
# 3 -0.002844 -0.002643 0.009073 0.000000 -0.001069 0.000000
# 4 0.000000 0.000000 0.000000 0.043557 0.000000 0.015340
# 5 0.007622 0.005934 -0.001069 0.000000 0.041223 0.000000
# 6 0.000000 0.000000 0.000000 0.015340 0.000000 0.036214
#
#
# Mechanical properties :
#
#
# Convention : Reuss Voigt Hill
#
# Bulk Modulus (GPa) = 54.06440 68.95279 61.50859
# Shear Modulus (GPa) = 28.57311 33.88683 31.22997
#
# Velocity S-wave (km/s) = 3.63054 3.95373 3.79558
# Velocity P-wave (km/s) = 6.52030 7.25608 6.89801
#
# Compressibility (1/GPa) = 0.01849646
#
# Stress axis : x y z
#
# Youngs Moduli (GPa) = 75.59992 92.05724 110.21607
#
# Poissons Ratio (x) = 0.17001 0.31341
# Poissons Ratio (y) = 0.13961 0.29132
# Poissons Ratio (z) = 0.21497 0.24332
#
# Static dielectric constant tensor:
#      x y z
#    x 3.965940 0.000000 -0.344190 
#    y 0.000000 3.755490 0.000000 
#    z -0.344190 0.000000 3.313500 
# 
# 
# High freq. dielectric constant tensor:
#      x y z
#    x 1.851180 0.000000 -0.016630 
#    y 0.000000 1.841190 0.000000 
#    z -0.016630 0.000000 1.844070 
# 
# From -- ./inp_files/315579.got.cif
#   From: 2010.06.25/outbox.cif.g09.slc.cpg/sg12_158_cif.got.tgz:315579.got - 2010.06.28 00:19:55.
