data_PCOD8108668
_publ_section_title
;
Structure prediction by ZEFSAII (Michael W. Deem and Ramdas Pophale) SiO2 
 PCOD8108668
Probable space group: C 2/M
;
_chemical_formula_sum "Si O2"
_cell_formula_units_Z 52
_cell_length_a 16.908149
_cell_length_b 27.211686
_cell_length_c 5.481225
_cell_angle_alpha 90.000000
_cell_angle_beta 91.090845
_cell_angle_gamma 90.000000
_cell_volume 2521.450411
_symmetry_space_group_name_H-M "C 2/M"
_symmetry_group_IT_number 12
_symmetry_cell_setting 'monoclinic'
loop_
_space_group_symop_operation_xyz
x,y,z
-x,y,-z
-x,-y,-z
x,-y,z
1/2+x,1/2+y,z
1/2-x,1/2+y,-z
1/2-x,1/2-y,-z
1/2+x,1/2-y,z
loop_
_atom_site_type_symbol
_atom_site_label
_atom_site_fract_x
_atom_site_fract_y
_atom_site_fract_z
Si Si1 0.282553 0.626906 0.128949
Si Si2 0.427013 0.366512 0.823192
Si Si3 0.450767 0.000000 0.249667
Si Si4 0.845286 0.943824 0.507962
Si Si5 0.281745 0.773055 0.749026
Si Si6 0.543866 0.740653 0.262921
Si Si7 0.302354 0.947225 0.164106
O O1 0.337427 0.585947 0.258717
O O2 0.246602 0.670653 0.284372
O O3 0.344113 0.649560 0.941441
O O4 0.206619 0.599092 0.012261
O O5 0.412990 0.415504 0.663851
O O6 0.445439 0.317175 0.672627
O O7 0.500000 0.379774 0.000000
O O8 0.500000 0.000000 0.500000
O O9 0.394007 0.951382 0.256252
O O10 0.500000 0.000000 0.000000
O O11 0.757973 0.940405 0.617058
O O12 0.872702 0.000000 0.468256
O O13 0.250000 0.750000 0.500000
O O14 0.375731 0.770845 0.757877
O O15 0.250000 0.750000 0.000000
O O16 0.500000 0.762763 0.500000
O O17 0.500000 0.746969 0.000000
O O18 0.281068 0.000000 0.032009
#
# Coordination Sequence:
#
# PCOD8108668 Si02
#       7
#     8   8   4   8   8   8   8
#     4  11  22  39  67  94 127 178 223 275 330 401
#     4  10  23  38  62  94 127 175 225 272 333 397
#     4  10  22  38  68  98 125 168 219 266 328 396
#     4  10  21  38  63  93 131 175 220 266 335 383
#     4  12  25  43  69 101 130 171 232 276 334 408
#     4  11  24  44  70  95 135 176 218 282 347 397
#     4   8  20  38  62  91 130 170 219 267 322 392
#
# _framework density 20.623051
#
# number of rings (size 3 to 8) (size 9 to 14) (size 15 to 20)
#    0.462    1.231    1.538    2.308   10.769    0.923 
#    0.000    1.538    0.000    0.000    0.000    0.000 
#    0.000    0.000    0.000    0.000    0.000    0.000 
#
# Total GULP energy -322099.561416 kJ/mol
# GULP energy per Si atom -12388.444670 kJ/mol
# Density = 2.057611 g / cm^3
# Si number density = 20.623051 Si / 1000 Ang^3
#
#
#
# Elastic Constant Matrix: (Units=GPa)
#
#
# Indices 1 2 3 4 5 6 
#
# 1 117.0325 22.5941 44.1126 0.0000 14.4795 0.0000
# 2 22.5941 90.7452 32.2259 0.0000 11.4479 0.0000
# 3 44.1126 32.2259 114.8664 0.0000 5.4340 0.0000
# 4 0.0000 0.0000 0.0000 27.9869 0.0000 2.2510
# 5 14.4795 11.4479 5.4340 0.0000 35.0888 0.0000
# 6 0.0000 0.0000 0.0000 2.2510 0.0000 32.4130
#
#
#
# Elastic Compliance Matrix: (Units=1/GPa)
#
#
# Indices 1 2 3 4 5 6 
#
# 1 0.010514 -0.000891 -0.003623 0.000000 -0.003487 0.000000
# 2 -0.000891 0.012754 -0.003079 0.000000 -0.003316 0.000000
# 3 -0.003623 -0.003079 0.010922 0.000000 0.000808 0.000000
# 4 0.000000 0.000000 0.000000 0.035932 0.000000 -0.002495
# 5 -0.003487 -0.003316 0.000808 0.000000 0.030895 0.000000
# 6 0.000000 0.000000 0.000000 -0.002495 0.000000 0.031025
#
#
# Mechanical properties :
#
#
# Convention : Reuss Voigt Hill
#
# Bulk Modulus (GPa) = 52.62029 57.83439 55.22734
# Shear Modulus (GPa) = 32.56029 34.01183 33.28606
#
# Velocity S-wave (km/s) = 3.97776 4.06546 4.02185
# Velocity P-wave (km/s) = 6.83136 7.08108 6.95734
#
# Compressibility (1/GPa) = 0.01900408
#
# Stress axis : x y z
#
# Youngs Moduli (GPa) = 95.11555 78.40963 91.55424
#
# Poissons Ratio (x) = 0.06989 0.33166
# Poissons Ratio (y) = 0.08479 0.28188
# Poissons Ratio (z) = 0.34456 0.24141
#
# Static dielectric constant tensor:
#      x y z
#    x 3.372060 0.000000 -0.104950 
#    y 0.000000 3.755520 0.000000 
#    z -0.104950 0.000000 3.689400 
# 
# 
# High freq. dielectric constant tensor:
#      x y z
#    x 1.808900 0.000000 -0.000830 
#    y 0.000000 1.797680 0.000000 
#    z -0.000830 0.000000 1.804050 
# 
# From -- ./inp_files/17445.got.cif
#   From: 2010.06.25/outbox.cif.g09.slc.cpg/sg12_9_cif.got.tgz:17445.got - 2010.06.28 00:19:55.
