data_PCOD8108130
_publ_section_title
;
Structure prediction by ZEFSAII (Michael W. Deem and Ramdas Pophale) SiO2 
 PCOD8108130
Probable space group: C 2/M
;
_chemical_formula_sum "Si O2"
_cell_formula_units_Z 40
_cell_length_a 27.080328
_cell_length_b 9.063859
_cell_length_c 8.893752
_cell_angle_alpha 90.000000
_cell_angle_beta 109.034603
_cell_angle_gamma 90.000000
_cell_volume 2063.629562
_symmetry_space_group_name_H-M "C 2/M"
_symmetry_group_IT_number 12
_symmetry_cell_setting 'monoclinic'
loop_
_space_group_symop_operation_xyz
x,y,z
-x,y,-z
-x,-y,-z
x,-y,z
1/2+x,1/2+y,z
1/2-x,1/2+y,-z
1/2-x,1/2-y,-z
1/2+x,1/2-y,z
loop_
_atom_site_type_symbol
_atom_site_label
_atom_site_fract_x
_atom_site_fract_y
_atom_site_fract_z
Si Si1 0.844881 0.669860 0.269110
Si Si2 0.252395 0.672989 0.342922
Si Si3 0.051727 0.174431 0.136672
Si Si4 0.146550 0.328464 0.069019
Si Si5 0.549097 0.829705 0.449665
O O1 0.827395 0.500000 0.268761
O O2 0.802081 0.773407 0.300250
O O3 0.899538 0.699704 0.402981
O O4 0.850542 0.714965 0.101911
O O5 0.257167 0.500000 0.374287
O O6 0.250000 0.750000 0.500000
O O7 0.201030 0.714577 0.199002
O O8 0.101726 0.234638 0.100749
O O9 0.050797 0.231030 0.304692
O O10 0.055167 0.000000 0.142891
O O11 0.000000 0.229982 0.000000
O O12 0.133304 0.500000 0.078037
O O13 0.500000 0.780040 0.500000
O O14 0.544239 0.000000 0.396329
#
# Coordination Sequence:
#
# PCOD8108130 Si02
#       5
#     8   8   8   8   8
#     4  10  21  38  60  86 114 146 189 237 283 333
#     4  11  23  38  58  85 116 151 190 232 281 335
#     4  11  24  39  57  85 118 150 186 231 283 336
#     4  10  22  40  61  84 112 150 193 233 277 335
#     4  10  21  38  61  86 112 148 192 234 279 334
#
# _framework density 19.383324000000002
#
# number of rings (size 3 to 8) (size 9 to 14) (size 15 to 20)
#    0.000    1.600    0.000    4.200    0.000   11.600 
#    0.000    0.000    0.000    0.000    0.000    0.000 
#    0.000    0.000    0.000    0.000    0.000    0.000 
#
# Total GULP energy -248125.985012 kJ/mol
# GULP energy per Si atom -12406.299251 kJ/mol
# Density = 1.933921 g / cm^3
# Si number density = 19.383324 Si / 1000 Ang^3
#
#
#
# Elastic Constant Matrix: (Units=GPa)
#
#
# Indices 1 2 3 4 5 6 
#
# 1 164.0780 68.0936 77.9721 0.0000 -4.5567 0.0000
# 2 68.0936 69.5118 56.2306 0.0000 -1.9965 0.0000
# 3 77.9721 56.2306 161.6780 0.0000 -5.2010 0.0000
# 4 0.0000 0.0000 0.0000 34.8836 0.0000 4.2073
# 5 -4.5567 -1.9965 -5.2010 0.0000 31.8877 0.0000
# 6 0.0000 0.0000 0.0000 4.2073 0.0000 28.0881
#
#
#
# Elastic Compliance Matrix: (Units=1/GPa)
#
#
# Indices 1 2 3 4 5 6 
#
# 1 0.010781 -0.008841 -0.002104 0.000000 0.000644 0.000000
# 2 -0.008841 0.027268 -0.005233 0.000000 -0.000410 0.000000
# 3 -0.002104 -0.005233 0.009047 0.000000 0.000847 0.000000
# 4 0.000000 0.000000 0.000000 0.029194 0.000000 -0.004373
# 5 0.000644 -0.000410 0.000847 0.000000 0.031565 0.000000
# 6 0.000000 0.000000 0.000000 -0.004373 0.000000 0.036257
#
#
# Mechanical properties :
#
#
# Convention : Reuss Voigt Hill
#
# Bulk Modulus (GPa) = 67.84034 88.87336 78.35685
# Shear Modulus (GPa) = 27.56602 31.83666 29.70134
#
# Velocity S-wave (km/s) = 3.77523 4.05714 3.91873
# Velocity P-wave (km/s) = 7.35381 8.23998 7.80947
#
# Compressibility (1/GPa) = 0.01474049
#
# Stress axis : x y z
#
# Youngs Moduli (GPa) = 92.75164 36.67275 110.53219
#
# Poissons Ratio (x) = 0.32422 0.23256
# Poissons Ratio (y) = 0.82002 0.57843
# Poissons Ratio (z) = 0.19515 0.19191
#
# Static dielectric constant tensor:
#      x y z
#    x 3.776470 0.000000 0.020260 
#    y 0.000000 3.519870 0.000000 
#    z 0.020260 0.000000 3.821810 
# 
# 
# High freq. dielectric constant tensor:
#      x y z
#    x 1.772860 0.000000 0.001890 
#    y 0.000000 1.753020 0.000000 
#    z 0.001890 0.000000 1.776260 
# 
# From -- ./inp_files/92724.got.cif
#   From: 2010.06.25/outbox.cif.g09.slc.cpg/sg12_47_cif.got.tgz:92724.got - 2010.06.28 00:19:55.
