data_PCOD8108628
_publ_section_title
;
Structure prediction by ZEFSAII (Michael W. Deem and Ramdas Pophale) SiO2 
 PCOD8108628
Probable space group: C 2/M
;
_chemical_formula_sum "Si O2"
_cell_formula_units_Z 64
_cell_length_a 26.875836
_cell_length_b 13.206635
_cell_length_c 16.720740
_cell_angle_alpha 90.000000
_cell_angle_beta 148.396912
_cell_angle_gamma 90.000000
_cell_volume 3110.049501
_symmetry_space_group_name_H-M "C 2/M"
_symmetry_group_IT_number 12
_symmetry_cell_setting 'monoclinic'
loop_
_space_group_symop_operation_xyz
x,y,z
-x,y,-z
-x,-y,-z
x,-y,z
1/2+x,1/2+y,z
1/2-x,1/2+y,-z
1/2-x,1/2-y,-z
1/2+x,1/2-y,z
loop_
_atom_site_type_symbol
_atom_site_label
_atom_site_fract_x
_atom_site_fract_y
_atom_site_fract_z
Si Si1 0.711626 0.888681 0.495630
Si Si2 0.619732 0.312755 0.368994
Si Si3 0.837996 0.234965 0.305202
Si Si4 0.354741 0.880259 0.999292
Si Si5 0.778867 0.112503 0.760105
Si Si6 0.639939 0.767197 0.837159
Si Si7 0.975318 0.882833 0.604568
Si Si8 0.463689 0.265416 0.038306
O O1 0.627038 0.808739 0.391517
O O2 0.777400 0.858460 0.510881
O O3 0.778382 0.888947 0.664182
O O4 0.666816 0.000000 0.419608
O O5 0.590937 0.370959 0.409097
O O6 0.545189 0.327367 0.195818
O O7 0.807427 0.318829 0.327147
O O8 0.874577 0.295869 0.276185
O O9 0.924199 0.169465 0.458934
O O10 0.750920 0.160987 0.163096
O O11 0.390216 0.850633 0.137986
O O12 0.429403 0.835426 0.037406
O O13 0.354261 0.000000 0.989847
O O14 0.766665 0.000000 0.779073
O O15 0.879047 0.155028 0.923885
O O16 0.577402 0.666036 0.765137
O O17 0.750000 0.750000 0.000000
O O18 0.991569 0.000000 0.606638
O O19 0.500000 0.234065 0.000000
#
# Coordination Sequence:
#
# PCOD8108628 Si02
#       8
#     8   8   8   8   8   8   8   8
#     4  10  21  38  63  90 126 173 208 251 320 379
#     4  11  22  40  60  95 134 163 211 268 311 381
#     4  10  22  42  64  95 128 159 211 266 313 376
#     4  10  22  41  64  90 126 170 207 256 320 377
#     4  10  21  38  63  90 123 166 208 258 313 371
#     4  10  23  43  62  90 127 162 204 260 314 374
#     4  12  24  41  68  98 127 164 213 266 322 378
#     4  11  22  39  60  91 128 163 212 265 309 374
#
# _framework density 20.57845
#
# number of rings (size 3 to 8) (size 9 to 14) (size 15 to 20)
#    0.000    1.500    3.750    1.125    0.000    5.500 
#    0.000    1.875    0.000    1.500    0.000    0.000 
#    0.000    0.000    0.000    0.000    0.000    0.000 
#
# Total GULP energy -396711.061397 kJ/mol
# GULP energy per Si atom -12397.220669 kJ/mol
# Density = 2.053161 g / cm^3
# Si number density = 20.578450 Si / 1000 Ang^3
#
#
#
# Elastic Constant Matrix: (Units=GPa)
#
#
# Indices 1 2 3 4 5 6 
#
# 1 104.4744 28.6090 17.7025 0.0000 -12.0673 0.0000
# 2 28.6090 133.3340 28.8838 0.0000 3.9038 0.0000
# 3 17.7025 28.8838 80.9874 0.0000 -4.3626 0.0000
# 4 0.0000 0.0000 0.0000 26.9948 0.0000 -3.1520
# 5 -12.0673 3.9038 -4.3626 0.0000 32.6219 0.0000
# 6 0.0000 0.0000 0.0000 -3.1520 0.0000 17.8465
#
#
#
# Elastic Compliance Matrix: (Units=1/GPa)
#
#
# Indices 1 2 3 4 5 6 
#
# 1 0.010869 -0.002151 -0.001388 0.000000 0.004092 0.000000
# 2 -0.002151 0.008615 -0.002720 0.000000 -0.002190 0.000000
# 3 -0.001388 -0.002720 0.013710 0.000000 0.001645 0.000000
# 4 0.000000 0.000000 0.000000 0.037824 0.000000 0.006680
# 5 0.004092 -0.002190 0.001645 0.000000 0.032650 0.000000
# 6 0.000000 0.000000 0.000000 0.006680 0.000000 0.057213
#
#
# Mechanical properties :
#
#
# Convention : Reuss Voigt Hill
#
# Bulk Modulus (GPa) = 48.36893 52.13182 50.25038
# Shear Modulus (GPa) = 27.73286 31.73268 29.73277
#
# Velocity S-wave (km/s) = 3.67504 3.93113 3.80524
# Velocity P-wave (km/s) = 6.44698 6.78184 6.61653
#
# Compressibility (1/GPa) = 0.02067443
#
# Stress axis : x y z
#
# Youngs Moduli (GPa) = 92.00755 116.07732 72.94045
#
# Poissons Ratio (x) = 0.24970 0.10125
# Poissons Ratio (y) = 0.19792 0.19842
# Poissons Ratio (z) = 0.12771 0.31576
#
# Static dielectric constant tensor:
#      x y z
#    x 4.033320 0.000000 -0.144640 
#    y 0.000000 3.648130 0.000000 
#    z -0.144640 0.000000 3.739920 
# 
# 
# High freq. dielectric constant tensor:
#      x y z
#    x 1.819880 0.000000 -0.003650 
#    y 0.000000 1.788450 0.000000 
#    z -0.003650 0.000000 1.804730 
# 
# From -- ./inp_files/296517.got.cif
#   From: 2010.06.25/outbox.cif.g09.slc.cpg/sg12_149_cif.got.tgz:296517.got - 2010.06.28 00:19:55.
