data_PCOD8108217
_publ_section_title
;
Structure prediction by ZEFSAII (Michael W. Deem and Ramdas Pophale) SiO2 
 PCOD8108217
Probable space group: C 2/M
;
_chemical_formula_sum "Si O2"
_cell_formula_units_Z 64
_cell_length_a 29.830644
_cell_length_b 8.896719
_cell_length_c 15.541431
_cell_angle_alpha 90.000000
_cell_angle_beta 130.574490
_cell_angle_gamma 90.000000
_cell_volume 3132.897260
_symmetry_space_group_name_H-M "C 2/M"
_symmetry_group_IT_number 12
_symmetry_cell_setting 'monoclinic'
loop_
_space_group_symop_operation_xyz
x,y,z
-x,y,-z
-x,-y,-z
x,-y,z
1/2+x,1/2+y,z
1/2-x,1/2+y,-z
1/2-x,1/2-y,-z
1/2+x,1/2-y,z
loop_
_atom_site_type_symbol
_atom_site_label
_atom_site_fract_x
_atom_site_fract_y
_atom_site_fract_z
Si Si1 0.237741 0.322533 0.576166
Si Si2 0.702722 0.677409 0.004828
Si Si3 0.488772 0.170484 0.754025
Si Si4 0.117213 0.171007 0.456989
Si Si5 0.400102 0.170587 0.215479
Si Si6 0.046805 0.827704 0.982998
Si Si7 0.433699 0.328822 0.418204
Si Si8 0.819443 0.822558 0.831803
O O1 0.244632 0.500000 0.576360
O O2 0.250000 0.250000 0.500000
O O3 0.172093 0.281286 0.521524
O O4 0.282377 0.256790 0.704849
O O5 0.709686 0.500000 0.007221
O O6 0.637655 0.724863 0.894427
O O7 0.750000 0.750000 0.000000
O O8 0.708530 0.732701 0.111682
O O9 0.432264 0.277096 0.672609
O O10 0.531368 0.183402 0.724777
O O11 0.526382 0.219018 0.882554
O O12 0.466827 0.000000 0.738832
O O13 0.092301 0.185732 0.520514
O O14 0.135110 0.000000 0.456460
O O15 0.393732 0.228524 0.305084
O O16 0.376593 0.000000 0.180683
O O17 0.049427 0.000000 0.953635
O O18 0.112105 0.773745 0.093660
O O19 0.000000 0.809513 0.000000
O O20 0.500000 0.266067 0.500000
O O21 0.432644 0.500000 0.383278
O O22 0.814694 0.000000 0.823417
#
# Coordination Sequence:
#
# PCOD8108217 Si02
#       8
#     8   8   8   8   8   8   8   8
#     4  11  25  46  68  94 128 170 218 269 323 383
#     4  11  23  41  64  91 124 167 213 260 314 376
#     4  11  23  39  61  94 130 164 205 261 321 379
#     4  11  24  42  65  92 125 169 219 266 318 378
#     4  11  23  38  59  89 127 167 205 254 318 380
#     4  10  21  39  67  96 121 160 206 255 315 381
#     4  10  21  38  60  89 123 163 208 256 309 369
#     4   9  21  42  65  92 128 166 208 257 317 380
#
# _framework density 20.428374999999999
#
# number of rings (size 3 to 8) (size 9 to 14) (size 15 to 20)
#    0.000    1.500    2.500    1.875    3.500    2.500 
#    0.000    3.125    0.000    0.000    0.000    0.000 
#    0.000    0.000    0.000    0.000    0.000    0.000 
#
# Total GULP energy -396856.930781 kJ/mol
# GULP energy per Si atom -12401.779087 kJ/mol
# Density = 2.038188 g / cm^3
# Si number density = 20.428375 Si / 1000 Ang^3
#
#
#
# Elastic Constant Matrix: (Units=GPa)
#
#
# Indices 1 2 3 4 5 6 
#
# 1 105.2096 36.2008 54.1733 0.0000 1.2482 0.0000
# 2 36.2008 74.5018 41.8883 0.0000 -6.8046 0.0000
# 3 54.1733 41.8883 154.6311 0.0000 -2.7395 0.0000
# 4 0.0000 0.0000 0.0000 29.8782 0.0000 0.8503
# 5 1.2482 -6.8046 -2.7395 0.0000 31.1278 0.0000
# 6 0.0000 0.0000 0.0000 0.8503 0.0000 32.5614
#
#
#
# Elastic Compliance Matrix: (Units=1/GPa)
#
#
# Indices 1 2 3 4 5 6 
#
# 1 0.012772 -0.004525 -0.003281 0.000000 -0.001790 0.000000
# 2 -0.004525 0.017740 -0.003153 0.000000 0.003782 0.000000
# 3 -0.003281 -0.003153 0.008474 0.000000 0.000188 0.000000
# 4 0.000000 0.000000 0.000000 0.033494 0.000000 -0.000875
# 5 -0.001790 0.003782 0.000188 0.000000 0.033041 0.000000
# 6 0.000000 0.000000 0.000000 -0.000875 0.000000 0.030734
#
#
# Mechanical properties :
#
#
# Convention : Reuss Voigt Hill
#
# Bulk Modulus (GPa) = 58.58931 66.54081 62.56506
# Shear Modulus (GPa) = 30.51359 32.18548 31.34954
#
# Velocity S-wave (km/s) = 3.86902 3.97360 3.92166
# Velocity P-wave (km/s) = 6.97866 7.32776 7.15534
#
# Compressibility (1/GPa) = 0.01706796
#
# Stress axis : x y z
#
# Youngs Moduli (GPa) = 78.29470 56.37120 118.01090
#
# Poissons Ratio (x) = 0.25509 0.38714
# Poissons Ratio (y) = 0.35430 0.37211
# Poissons Ratio (z) = 0.25685 0.17775
#
# Static dielectric constant tensor:
#      x y z
#    x 3.632660 0.000000 -0.072240 
#    y 0.000000 3.677280 0.000000 
#    z -0.072240 0.000000 3.842420 
# 
# 
# High freq. dielectric constant tensor:
#      x y z
#    x 1.802880 0.000000 -0.001390 
#    y 0.000000 1.789060 0.000000 
#    z -0.001390 0.000000 1.806670 
# 
# From -- ./inp_files/249986.got.cif
#   From: 2010.06.25/outbox.cif.g09.slc.cpg/sg12_125_cif.got.tgz:249986.got - 2010.06.28 00:19:55.
