data_PCOD8108176
_publ_section_title
;
Structure prediction by ZEFSAII (Michael W. Deem and Ramdas Pophale) SiO2 
 PCOD8108176
Probable space group: C 2/M
;
_chemical_formula_sum "Si O2"
_cell_formula_units_Z 40
_cell_length_a 17.790154
_cell_length_b 8.337976
_cell_length_c 25.751100
_cell_angle_alpha 90.000000
_cell_angle_beta 29.982456
_cell_angle_gamma 90.000000
_cell_volume 1908.867247
_symmetry_space_group_name_H-M "C 2/M"
_symmetry_group_IT_number 12
_symmetry_cell_setting 'monoclinic'
loop_
_space_group_symop_operation_xyz
x,y,z
-x,y,-z
-x,-y,-z
x,-y,z
1/2+x,1/2+y,z
1/2-x,1/2+y,-z
1/2-x,1/2-y,-z
1/2+x,1/2-y,z
loop_
_atom_site_type_symbol
_atom_site_label
_atom_site_fract_x
_atom_site_fract_y
_atom_site_fract_z
Si Si1 0.907996 0.685115 0.804223
Si Si2 0.573192 0.185734 0.402145
Si Si3 0.579258 0.186816 0.003120
Si Si4 0.917356 0.814445 0.396500
Si Si5 0.904379 0.689983 0.208021
O O1 0.864486 0.500000 0.835486
O O2 0.994111 0.713762 0.699285
O O3 0.012317 0.740652 0.789168
O O4 0.756165 0.785695 0.896513
O O5 0.500000 0.239416 0.500000
O O6 0.499147 0.294591 0.402384
O O7 0.749763 0.215087 0.298749
O O8 0.539915 0.000000 0.410090
O O9 0.504953 0.255042 0.100068
O O10 0.546434 0.000000 0.021728
O O11 0.500000 0.266884 0.000000
O O12 0.750000 0.750000 0.500000
O O13 0.916758 0.000000 0.380875
O O14 0.874630 0.500000 0.223566
#
# Coordination Sequence:
#
# PCOD8108176 Si02
#       5
#     8   8   8   8   8
#     4  11  23  39  61  90 123 160 204 250 299 357
#     4  11  24  41  63  92 123 157 199 246 299 360
#     4  10  21  38  60  87 120 160 205 251 302 358
#     4  12  25  42  64  89 121 159 201 250 301 355
#     4  10  22  39  60  89 124 162 202 247 301 358
#
# _framework density 20.954837000000001
#
# number of rings (size 3 to 8) (size 9 to 14) (size 15 to 20)
#    0.000    1.200    0.000    6.000    0.000    9.200 
#    0.000    0.000    0.000    0.000    0.000    0.000 
#    0.000    0.000    0.000    0.000    0.000    0.000 
#
# Total GULP energy -248139.278025 kJ/mol
# GULP energy per Si atom -12406.963901 kJ/mol
# Density = 2.090714 g / cm^3
# Si number density = 20.954837 Si / 1000 Ang^3
#
#
#
# Elastic Constant Matrix: (Units=GPa)
#
#
# Indices 1 2 3 4 5 6 
#
# 1 151.8639 14.4248 59.5265 0.0003 4.0244 -0.0001
# 2 14.4248 31.0737 -2.3384 0.0003 1.0048 0.0005
# 3 59.5265 -2.3384 160.2288 -0.0002 6.0053 0.0002
# 4 0.0003 0.0003 -0.0002 24.2330 -0.0001 -11.8041
# 5 4.0244 1.0048 6.0053 -0.0001 45.0308 0.0001
# 6 -0.0001 0.0005 0.0002 -11.8041 0.0001 26.2571
#
#
#
# Elastic Compliance Matrix: (Units=1/GPa)
#
#
# Indices 1 2 3 4 5 6 
#
# 1 0.008185 -0.004025 -0.003091 0.000000 -0.000229 0.000000
# 2 -0.004025 0.034224 0.002020 -0.000001 -0.000673 -0.000001
# 3 -0.003091 0.002020 0.007447 0.000000 -0.000762 0.000000
# 4 0.000000 -0.000001 0.000000 0.052836 0.000000 0.023753
# 5 -0.000229 -0.000673 -0.000762 0.000000 0.022344 0.000000
# 6 0.000000 -0.000001 0.000000 0.023753 0.000000 0.048763
#
#
# Mechanical properties :
#
#
# Convention : Reuss Voigt Hill
#
# Bulk Modulus (GPa) = 25.21138 54.04356 39.62747
# Shear Modulus (GPa) = 25.35337 37.20774 31.28055
#
# Velocity S-wave (km/s) = 3.48214 4.21838 3.86782
# Velocity P-wave (km/s) = 5.31267 7.04079 6.23688
#
# Compressibility (1/GPa) = 0.03966463
#
# Stress axis : x y z
#
# Youngs Moduli (GPa) = 122.17873 29.21954 134.27519
#
# Poissons Ratio (x) = 0.11760 0.41502
# Poissons Ratio (y) = 0.49172 -0.27122
# Poissons Ratio (z) = 0.37763 -0.05902
#
# Static dielectric constant tensor:
#      x y z
#    x 3.881810 0.000000 -0.049780 
#    y 0.000000 3.684390 0.000000 
#    z -0.049780 0.000000 3.891860 
# 
# 
# High freq. dielectric constant tensor:
#      x y z
#    x 1.840030 0.000000 0.002960 
#    y 0.000000 1.812910 0.000000 
#    z 0.002960 0.000000 1.837440 
# 
# From -- ./inp_files/151929.got.cif
#   From: 2010.06.25/outbox.cif.g09.slc.cpg/sg12_76_cif.got.tgz:151929.got - 2010.06.28 00:19:55.
