data_PCOD8108672
_publ_section_title
;
Structure prediction by ZEFSAII (Michael W. Deem and Ramdas Pophale) SiO2 
 PCOD8108672
Probable space group: C 2/M
;
_chemical_formula_sum "Si O2"
_cell_formula_units_Z 48
_cell_length_a 29.156762
_cell_length_b 13.549441
_cell_length_c 9.093081
_cell_angle_alpha 90.000000
_cell_angle_beta 40.178372
_cell_angle_gamma 90.000000
_cell_volume 2317.637128
_symmetry_space_group_name_H-M "C 2/M"
_symmetry_group_IT_number 12
_symmetry_cell_setting 'monoclinic'
loop_
_space_group_symop_operation_xyz
x,y,z
-x,y,-z
-x,-y,-z
x,-y,z
1/2+x,1/2+y,z
1/2-x,1/2+y,-z
1/2-x,1/2-y,-z
1/2+x,1/2-y,z
loop_
_atom_site_type_symbol
_atom_site_label
_atom_site_fract_x
_atom_site_fract_y
_atom_site_fract_z
Si Si1 0.680947 0.278746 0.510422
Si Si2 0.575457 0.609599 0.240981
Si Si3 0.438866 0.615445 0.046232
Si Si4 0.833505 0.249594 0.782475
Si Si5 0.576109 0.113348 0.269640
Si Si6 0.822243 0.618077 0.239929
O O1 0.637649 0.363904 0.698313
O O2 0.646137 0.266342 0.436443
O O3 0.760443 0.322833 0.303530
O O4 0.673566 0.172817 0.612128
O O5 0.500000 0.606185 0.500000
O O6 0.606984 0.500000 0.143753
O O7 0.633162 0.666348 0.195180
O O8 0.563019 0.661630 0.113140
O O9 0.453855 0.500000 0.996073
O O10 0.500000 0.663862 0.000000
O O11 0.865020 0.353416 0.757308
O O12 0.750000 0.250000 0.000000
O O13 0.500000 0.165650 0.500000
O O14 0.565712 0.000000 0.323038
O O15 0.604926 0.133532 0.032712
O O16 0.806986 0.500000 0.296932
#
# Coordination Sequence:
#
# PCOD8108672 Si02
#       6
#     8   8   8   8   8   8
#     4  11  23  38  61  90 127 160 207 258 322 378
#     4  10  22  40  63  91 126 166 209 258 311 370
#     4  10  21  38  63  94 127 165 210 259 317 377
#     4  12  24  39  60  93 129 164 208 258 316 384
#     4  10  22  43  67  89 122 169 218 266 313 372
#     4  10  22  41  63  88 121 165 214 262 316 375
#
# _framework density 20.710750000000001
#
# number of rings (size 3 to 8) (size 9 to 14) (size 15 to 20)
#    0.000    1.500    1.667    3.000    2.333    5.333 
#    0.000    0.000    0.000    3.500    0.000    0.000 
#    0.000    0.000    0.000    0.000    0.000    0.000 
#
# Total GULP energy -297440.743284 kJ/mol
# GULP energy per Si atom -12393.364304 kJ/mol
# Density = 2.066361 g / cm^3
# Si number density = 20.710750 Si / 1000 Ang^3
#
#
#
# Elastic Constant Matrix: (Units=GPa)
#
#
# Indices 1 2 3 4 5 6 
#
# 1 168.6368 46.5056 61.6936 0.0000 18.2554 0.0000
# 2 46.5056 86.1989 34.7530 0.0000 5.6641 0.0000
# 3 61.6936 34.7530 135.1268 0.0000 0.8779 0.0000
# 4 0.0000 0.0000 0.0000 22.7285 0.0000 2.7579
# 5 18.2554 5.6641 0.8779 0.0000 45.3916 0.0000
# 6 0.0000 0.0000 0.0000 2.7579 0.0000 22.3892
#
#
#
# Elastic Compliance Matrix: (Units=1/GPa)
#
#
# Indices 1 2 3 4 5 6 
#
# 1 0.008140 -0.003028 -0.002919 0.000000 -0.002840 0.000000
# 2 -0.003028 0.014180 -0.002261 0.000000 -0.000508 0.000000
# 3 -0.002919 -0.002261 0.009306 0.000000 0.001276 0.000000
# 4 0.000000 0.000000 0.000000 0.044665 0.000000 -0.005502
# 5 -0.002840 -0.000508 0.001276 0.000000 0.023211 0.000000
# 6 0.000000 0.000000 0.000000 -0.005502 0.000000 0.045342
#
#
# Mechanical properties :
#
#
# Convention : Reuss Voigt Hill
#
# Bulk Modulus (GPa) = 65.74811 75.09633 70.42222
# Shear Modulus (GPa) = 30.06030 34.56921 32.31475
#
# Velocity S-wave (km/s) = 3.81390 4.08995 3.95433
# Velocity P-wave (km/s) = 7.15607 7.65780 7.41118
#
# Compressibility (1/GPa) = 0.01520956
#
# Stress axis : x y z
#
# Youngs Moduli (GPa) = 122.84400 70.52276 107.45185
#
# Poissons Ratio (x) = 0.21356 0.31368
# Poissons Ratio (y) = 0.37201 0.24295
# Poissons Ratio (z) = 0.35862 0.15945
#
# Static dielectric constant tensor:
#      x y z
#    x 4.000610 0.000000 0.067780 
#    y 0.000000 3.850570 0.000000 
#    z 0.067780 0.000000 3.888890 
# 
# 
# High freq. dielectric constant tensor:
#      x y z
#    x 1.808170 0.000000 0.004850 
#    y 0.000000 1.809190 0.000000 
#    z 0.004850 0.000000 1.825760 
# 
# From -- ./inp_files/104954.got.cif
#   From: 2010.06.25/outbox.cif.g09.slc.cpg/sg12_53_cif.got.tgz:104954.got - 2010.06.28 00:19:55.
