data_PCOD8108212
_publ_section_title
;
Structure prediction by ZEFSAII (Michael W. Deem and Ramdas Pophale) SiO2 
 PCOD8108212
Probable space group: C 2/M
;
_chemical_formula_sum "Si O2"
_cell_formula_units_Z 56
_cell_length_a 24.406201
_cell_length_b 8.888305
_cell_length_c 13.539102
_cell_angle_alpha 90.000000
_cell_angle_beta 70.511113
_cell_angle_gamma 90.000000
_cell_volume 2768.760333
_symmetry_space_group_name_H-M "C 2/M"
_symmetry_group_IT_number 12
_symmetry_cell_setting 'monoclinic'
loop_
_space_group_symop_operation_xyz
x,y,z
-x,y,-z
-x,-y,-z
x,-y,z
1/2+x,1/2+y,z
1/2-x,1/2+y,-z
1/2-x,1/2-y,-z
1/2+x,1/2-y,z
loop_
_atom_site_type_symbol
_atom_site_label
_atom_site_fract_x
_atom_site_fract_y
_atom_site_fract_z
Si Si1 0.788264 0.333728 0.397700
Si Si2 0.079234 0.675067 0.189363
Si Si3 0.809551 0.320925 0.002944
Si Si4 0.557225 0.324807 0.409702
Si Si5 0.154537 0.178716 0.812847
Si Si6 0.455845 0.824694 0.213621
Si Si7 0.094642 0.662991 0.557935
O O1 0.762727 0.500000 0.386629
O O2 0.750000 0.250000 0.500000
O O3 0.797112 0.233373 0.294779
O O4 0.849848 0.355759 0.408688
O O5 0.079845 0.500000 0.213322
O O6 0.074693 0.758693 0.295409
O O7 0.023967 0.710770 0.149641
O O8 0.138650 0.725952 0.102045
O O9 0.802988 0.500000 0.015046
O O10 0.826436 0.253302 0.097348
O O11 0.750000 0.250000 0.000000
O O12 0.500000 0.256240 0.500000
O O13 0.550815 0.500000 0.399348
O O14 0.606001 0.281104 0.462212
O O15 0.088417 0.226565 0.825072
O O16 0.156954 0.000000 0.819485
O O17 0.453389 0.783205 0.332666
O O18 0.440448 0.000000 0.204396
O O19 0.078102 0.500000 0.522276
#
# Coordination Sequence:
#
# PCOD8108212 Si02
#       7
#     8   8   8   8   8   8   8
#     4  10  21  38  60  89 120 156 203 252 301 359
#     4  10  22  40  64  89 118 163 211 253 305 371
#     4  11  25  46  68  90 119 159 210 263 311 366
#     4  11  22  33  52  87 126 159 193 240 299 357
#     4  11  23  40  64  91 123 163 200 248 311 369
#     4   9  18  36  61  90 120 153 198 249 301 362
#     4   9  18  33  55  80 115 158 197 237 290 355
#
# _framework density 20.225657999999999
#
# number of rings (size 3 to 8) (size 9 to 14) (size 15 to 20)
#    0.000    1.857    1.429    3.429    0.000    6.857 
#    0.000    4.286    0.000    0.000    0.000    0.000 
#    0.000    0.000    0.000    0.000    0.000    0.000 
#
# Total GULP energy -346995.821813 kJ/mol
# GULP energy per Si atom -12392.707922 kJ/mol
# Density = 2.017962 g / cm^3
# Si number density = 20.225658 Si / 1000 Ang^3
#
#
#
# Elastic Constant Matrix: (Units=GPa)
#
#
# Indices 1 2 3 4 5 6 
#
# 1 84.3684 51.9484 75.1781 0.0000 -6.5518 0.0000
# 2 51.9484 100.6994 76.1423 0.0000 -7.0599 0.0000
# 3 75.1781 76.1423 153.5495 0.0000 -0.4711 0.0000
# 4 0.0000 0.0000 0.0000 34.0808 0.0000 1.4105
# 5 -6.5518 -7.0599 -0.4711 0.0000 34.7368 0.0000
# 6 0.0000 0.0000 0.0000 1.4105 0.0000 30.0667
#
#
#
# Elastic Compliance Matrix: (Units=1/GPa)
#
#
# Indices 1 2 3 4 5 6 
#
# 1 0.022997 -0.005013 -0.008764 0.000000 0.003200 0.000000
# 2 -0.005013 0.017326 -0.006130 0.000000 0.002493 0.000000
# 3 -0.008764 -0.006130 0.013835 0.000000 -0.002711 0.000000
# 4 0.000000 0.000000 0.000000 0.029399 0.000000 -0.001379
# 5 0.003200 0.002493 -0.002711 0.000000 0.029861 0.000000
# 6 0.000000 0.000000 0.000000 -0.001379 0.000000 0.033324
#
#
# Mechanical properties :
#
#
# Convention : Reuss Voigt Hill
#
# Bulk Modulus (GPa) = 69.70989 82.79498 76.25244
# Shear Modulus (GPa) = 26.13191 28.80008 27.46600
#
# Velocity S-wave (km/s) = 3.59836 3.77760 3.68907
# Velocity P-wave (km/s) = 7.19758 7.74929 7.47853
#
# Compressibility (1/GPa) = 0.01434517
#
# Stress axis : x y z
#
# Youngs Moduli (GPa) = 43.48415 57.71596 72.28151
#
# Poissons Ratio (x) = 0.28930 0.63347
# Poissons Ratio (y) = 0.21796 0.44308
# Poissons Ratio (z) = 0.38109 0.35380
#
# Static dielectric constant tensor:
#      x y z
#    x 3.514100 0.000000 0.268040 
#    y 0.000000 3.735830 0.000000 
#    z 0.268040 0.000000 3.397660 
# 
# 
# High freq. dielectric constant tensor:
#      x y z
#    x 1.789680 0.000000 0.000670 
#    y 0.000000 1.790930 0.000000 
#    z 0.000670 0.000000 1.788510 
# 
# From -- ./inp_files/180870.got.cif
#   From: 2010.06.25/outbox.cif.g09.slc.cpg/sg12_91_cif.got.tgz:180870.got - 2010.06.28 00:19:55.
