data_PCOD8108527
_publ_section_title
;
Structure prediction by ZEFSAII (Michael W. Deem and Ramdas Pophale) SiO2 
 PCOD8108527
Probable space group: C 2/M
;
_chemical_formula_sum "Si O2"
_cell_formula_units_Z 48
_cell_length_a 29.525507
_cell_length_b 8.650523
_cell_length_c 20.480202
_cell_angle_alpha 90.000000
_cell_angle_beta 28.168372
_cell_angle_gamma 90.000000
_cell_volume 2469.306689
_symmetry_space_group_name_H-M "C 2/M"
_symmetry_group_IT_number 12
_symmetry_cell_setting 'monoclinic'
loop_
_space_group_symop_operation_xyz
x,y,z
-x,y,-z
-x,-y,-z
x,-y,z
1/2+x,1/2+y,z
1/2-x,1/2+y,-z
1/2-x,1/2-y,-z
1/2+x,1/2-y,z
loop_
_atom_site_type_symbol
_atom_site_label
_atom_site_fract_x
_atom_site_fract_y
_atom_site_fract_z
Si Si1 0.988866 0.181819 0.088683
Si Si2 0.791239 0.682651 0.381602
Si Si3 0.818992 0.817477 0.605004
Si Si4 0.720060 0.181801 0.106636
Si Si5 0.180679 0.317432 0.895755
Si Si6 0.005754 0.319916 0.419408
O O1 0.900386 0.267126 0.234335
O O2 0.971643 0.000000 0.114418
O O3 0.000000 0.238540 0.000000
O O4 0.081872 0.228283 0.011109
O O5 0.785952 0.500000 0.391326
O O6 0.750000 0.750000 0.500000
O O7 0.727985 0.747300 0.401701
O O8 0.756463 0.757575 0.745594
O O9 0.927188 0.757844 0.472879
O O10 0.820558 0.000000 0.602202
O O11 0.781001 0.273299 0.082307
O O12 0.608280 0.217369 0.258517
O O13 0.741839 0.000000 0.083597
O O14 0.750000 0.250000 0.000000
O O15 0.163235 0.500000 0.912684
O O16 0.982764 0.500000 0.451053
O O17 0.000000 0.250397 0.500000
#
# Coordination Sequence:
#
# PCOD8108527 Si02
#       6
#     8   8   8   8   8   8
#     4  11  23  39  64  95 124 162 210 258 311 374
#     4  11  24  43  63  91 129 166 206 258 315 372
#     4  10  22  38  62  92 122 158 203 252 305 365
#     4  11  24  42  62  90 127 164 203 255 310 368
#     4  11  22  39  64  93 123 161 206 255 312 370
#     4  10  21  38  62  90 120 156 201 250 302 358
#
# _framework density 19.438654
#
# number of rings (size 3 to 8) (size 9 to 14) (size 15 to 20)
#    0.000    1.333    3.333    2.000    0.000    5.667 
#    0.000    3.333    0.000    0.000    0.000    0.000 
#    0.000    0.000    0.000    0.000    0.000    0.000 
#
# Total GULP energy -297747.784396 kJ/mol
# GULP energy per Si atom -12406.157683 kJ/mol
# Density = 1.939441 g / cm^3
# Si number density = 19.438654 Si / 1000 Ang^3
#
#
#
# Elastic Constant Matrix: (Units=GPa)
#
#
# Indices 1 2 3 4 5 6 
#
# 1 145.9046 24.4261 63.9773 0.0002 3.9613 0.0001
# 2 24.4261 43.2414 24.8209 0.0283 5.2829 -0.0043
# 3 63.9773 24.8209 119.8876 0.0108 6.5201 -0.0019
# 4 0.0002 0.0283 0.0108 35.5094 -0.0033 -3.0450
# 5 3.9613 5.2829 6.5201 -0.0033 44.1487 -0.0003
# 6 0.0001 -0.0043 -0.0019 -3.0450 -0.0003 34.8349
#
#
#
# Elastic Compliance Matrix: (Units=1/GPa)
#
#
# Indices 1 2 3 4 5 6 
#
# 1 0.009219 -0.002720 -0.004364 0.000003 0.000143 0.000000
# 2 -0.002720 0.027293 -0.004067 -0.000021 -0.002421 0.000001
# 3 -0.004364 -0.004067 0.011557 0.000000 -0.000829 0.000000
# 4 0.000003 -0.000021 0.000000 0.028374 0.000004 0.002480
# 5 0.000143 -0.002421 -0.000829 0.000004 0.023050 0.000000
# 6 0.000000 0.000001 0.000000 0.002480 0.000000 0.028924
#
#
# Mechanical properties :
#
#
# Convention : Reuss Voigt Hill
#
# Bulk Modulus (GPa) = 38.81097 59.49802 49.15450
# Shear Modulus (GPa) = 31.38555 35.95257 33.66906
#
# Velocity S-wave (km/s) = 4.02256 4.30529 4.16633
# Velocity P-wave (km/s) = 6.44856 7.44235 6.96321
#
# Compressibility (1/GPa) = 0.02576591
#
# Stress axis : x y z
#
# Youngs Moduli (GPa) = 108.47222 36.63947 86.52542
#
# Poissons Ratio (x) = 0.09966 0.37762
# Poissons Ratio (y) = 0.29503 0.35194
# Poissons Ratio (z) = 0.47340 0.14903
#
# Static dielectric constant tensor:
#      x y z
#    x 3.688320 -0.000010 0.034640 
#    y -0.000010 3.544580 -0.000010 
#    z 0.034640 -0.000010 3.553420 
# 
# 
# High freq. dielectric constant tensor:
#      x y z
#    x 1.767090 0.000000 -0.006220 
#    y 0.000000 1.759380 0.000000 
#    z -0.006220 0.000000 1.764940 
# 
# From -- ./inp_files/327186.got.cif
#   From: 2010.06.25/outbox.cif.g09.slc.cpg/sg12_164_cif.got.tgz:327186.got - 2010.06.28 00:19:55.
