data_PCOD8108692
_publ_section_title
;
Structure prediction by ZEFSAII (Michael W. Deem and Ramdas Pophale) SiO2 
 PCOD8108692
Probable space group: C 2/M
;
_chemical_formula_sum "Si O2"
_cell_formula_units_Z 56
_cell_length_a 23.027472
_cell_length_b 14.315320
_cell_length_c 9.060090
_cell_angle_alpha 90.000000
_cell_angle_beta 65.180987
_cell_angle_gamma 90.000000
_cell_volume 2710.769679
_symmetry_space_group_name_H-M "C 2/M"
_symmetry_group_IT_number 12
_symmetry_cell_setting 'monoclinic'
loop_
_space_group_symop_operation_xyz
x,y,z
-x,y,-z
-x,-y,-z
x,-y,z
1/2+x,1/2+y,z
1/2-x,1/2+y,-z
1/2-x,1/2-y,-z
1/2+x,1/2-y,z
loop_
_atom_site_type_symbol
_atom_site_label
_atom_site_fract_x
_atom_site_fract_y
_atom_site_fract_z
Si Si1 0.276754 0.895454 0.755545
Si Si2 0.610981 0.893945 0.775784
Si Si3 0.943782 0.239894 0.957488
Si Si4 0.345717 0.392941 0.932306
Si Si5 0.352481 0.284215 0.628054
Si Si6 0.970389 0.690977 0.383765
Si Si7 0.254873 0.394201 0.538760
O O1 0.332192 0.818430 0.709211
O O2 0.237610 0.886235 0.644949
O O3 0.307340 0.000000 0.732125
O O4 0.227939 0.879783 0.942275
O O5 0.567575 0.883415 0.675427
O O6 0.683006 0.865295 0.659617
O O7 0.606661 0.000000 0.834579
O O8 0.585618 0.832023 0.936635
O O9 0.889917 0.161935 0.000392
O O10 0.970341 0.265039 0.768033
O O11 0.000000 0.198888 0.000000
O O12 0.366814 0.500000 0.915883
O O13 0.354319 0.357204 0.757997
O O14 0.422180 0.275230 0.479888
O O15 0.302960 0.320788 0.558975
O O16 0.000000 0.643932 0.500000
O O17 0.270028 0.500000 0.575621
#
# Coordination Sequence:
#
# PCOD8108692 Si02
#       7
#     8   8   8   8   8   8   8
#     4  10  22  38  61  92 123 157 206 255 308 376
#     4  10  22  42  67  94 128 164 205 257 310 372
#     4  10  23  41  63  87 124 163 214 254 304 364
#     4  11  24  42  62  90 124 161 209 261 314 371
#     4  12  22  39  66  89 129 166 198 258 326 362
#     4  11  23  40  61  91 125 167 215 252 298 371
#     4  10  21  38  63  98 124 158 211 257 312 377
#
# _framework density 20.658339000000002
#
# number of rings (size 3 to 8) (size 9 to 14) (size 15 to 20)
#    0.000    1.429    2.857    2.143    4.000    3.143 
#    0.000    4.286    0.000    0.000    0.000    0.000 
#    0.000    0.000    0.000    0.000    0.000    0.000 
#
# Total GULP energy -347292.464714 kJ/mol
# GULP energy per Si atom -12403.302311 kJ/mol
# Density = 2.061132 g / cm^3
# Si number density = 20.658339 Si / 1000 Ang^3
#
#
#
# Elastic Constant Matrix: (Units=GPa)
#
#
# Indices 1 2 3 4 5 6 
#
# 1 65.4897 31.6352 23.5970 0.0000 0.1435 0.0000
# 2 31.6352 110.6523 43.2498 0.0000 -5.2387 0.0000
# 3 23.5970 43.2498 118.4972 0.0000 -5.6195 0.0000
# 4 0.0000 0.0000 0.0000 27.9862 0.0000 6.6518
# 5 0.1435 -5.2387 -5.6195 0.0000 29.3416 0.0000
# 6 0.0000 0.0000 0.0000 6.6518 0.0000 24.2180
#
#
#
# Elastic Compliance Matrix: (Units=1/GPa)
#
#
# Indices 1 2 3 4 5 6 
#
# 1 0.018162 -0.004450 -0.002053 0.000000 -0.001277 0.000000
# 2 -0.004450 0.011671 -0.003304 0.000000 0.001473 0.000000
# 3 -0.002053 -0.003304 0.010118 0.000000 0.001358 0.000000
# 4 0.000000 0.000000 0.000000 0.038227 0.000000 -0.010500
# 5 -0.001277 0.001473 0.001358 0.000000 0.034611 0.000000
# 6 0.000000 0.000000 0.000000 -0.010500 0.000000 0.044176
#
#
# Mechanical properties :
#
#
# Convention : Reuss Voigt Hill
#
# Bulk Modulus (GPa) = 49.17204 54.62256 51.89730
# Shear Modulus (GPa) = 27.26924 29.38631 28.32778
#
# Velocity S-wave (km/s) = 3.63714 3.77568 3.70706
# Velocity P-wave (km/s) = 6.44147 6.74582 6.59540
#
# Compressibility (1/GPa) = 0.02033676
#
# Stress axis : x y z
#
# Youngs Moduli (GPa) = 55.06038 85.68498 98.83418
#
# Poissons Ratio (x) = 0.38134 0.20289
# Poissons Ratio (y) = 0.24505 0.32650
# Poissons Ratio (z) = 0.11303 0.28306
#
# Static dielectric constant tensor:
#      x y z
#    x 3.670830 0.000000 -0.062630 
#    y 0.000000 3.688590 0.000000 
#    z -0.062630 0.000000 3.858360 
# 
# 
# High freq. dielectric constant tensor:
#      x y z
#    x 1.802770 0.000000 -0.002000 
#    y 0.000000 1.801150 0.000000 
#    z -0.002000 0.000000 1.822050 
# 
# From -- ./inp_files/96751.got.cif
#   From: 2010.06.25/outbox.cif.g09.slc.cpg/sg12_49_cif.got.tgz:96751.got - 2010.06.28 00:19:55.
