data_PCOD8108050
_publ_section_title
;
Structure prediction by ZEFSAII (Michael W. Deem and Ramdas Pophale) SiO2 
 PCOD8108050
Probable space group: C 2/M
;
_chemical_formula_sum "Si O2"
_cell_formula_units_Z 36
_cell_length_a 18.584937
_cell_length_b 22.373583
_cell_length_c 10.105570
_cell_angle_alpha 90.000000
_cell_angle_beta 155.724500
_cell_angle_gamma 90.000000
_cell_volume 1727.551135
_symmetry_space_group_name_H-M "C 2/M"
_symmetry_group_IT_number 12
_symmetry_cell_setting 'monoclinic'
loop_
_space_group_symop_operation_xyz
x,y,z
-x,y,-z
-x,-y,-z
x,-y,z
1/2+x,1/2+y,z
1/2-x,1/2+y,-z
1/2-x,1/2-y,-z
1/2+x,1/2-y,z
loop_
_atom_site_type_symbol
_atom_site_label
_atom_site_fract_x
_atom_site_fract_y
_atom_site_fract_z
Si Si1 0.609149 0.332924 0.445765
Si Si2 0.584494 0.000000 0.415699
Si Si3 0.667537 0.715484 0.186126
Si Si4 0.157852 0.616753 0.365583
Si Si5 0.000000 0.097283 0.500000
Si Si6 0.744712 0.500000 0.012029
O O1 0.750832 0.280372 0.688722
O O2 0.666816 0.382415 0.431968
O O3 0.617214 0.361922 0.602574
O O4 0.411618 0.309367 0.084785
O O5 0.634174 0.056566 0.409343
O O6 0.684542 0.000000 0.721639
O O7 0.381751 0.000000 0.119367
O O8 0.821031 0.671905 0.496813
O O9 0.500000 0.719388 0.000000
O O10 0.000000 0.626869 0.000000
O O11 0.872313 0.058629 0.195282
#
# Coordination Sequence:
#
# PCOD8108050 Si02
#       6
#     8   4   8   8   4   4
#     4  11  22  38  60  87 120 156 195 237 289 346
#     4  11  23  41  65  87 113 154 198 239 289 352
#     4  10  21  38  59  88 122 151 188 245 295 335
#     4  11  21  37  62  90 116 151 198 242 287 342
#     4  11  24  42  60  84 120 159 194 238 292 347
#     4  10  24  43  59  84 123 153 185 245 301 334
#
# _framework density 20.838747000000001
#
# number of rings (size 3 to 8) (size 9 to 14) (size 15 to 20)
#    0.000    1.333    0.000    7.667    0.000    2.667 
#    0.000    8.333    0.000    0.000    0.000    0.000 
#    0.000    0.000    0.000    0.000    0.000    0.000 
#
# Total GULP energy -223126.351580 kJ/mol
# GULP energy per Si atom -12395.908421 kJ/mol
# Density = 2.079132 g / cm^3
# Si number density = 20.838747 Si / 1000 Ang^3
#
#
#
# Elastic Constant Matrix: (Units=GPa)
#
#
# Indices 1 2 3 4 5 6 
#
# 1 96.2125 70.2651 34.5403 0.0000 3.1136 0.0000
# 2 70.2651 147.0739 56.8981 0.0000 7.8661 0.0000
# 3 34.5403 56.8981 112.0420 0.0000 -13.9071 0.0000
# 4 0.0000 0.0000 0.0000 78.0276 0.0000 -26.5293
# 5 3.1136 7.8661 -13.9071 0.0000 26.9695 0.0000
# 6 0.0000 0.0000 0.0000 -26.5293 0.0000 31.1964
#
#
#
# Elastic Compliance Matrix: (Units=1/GPa)
#
#
# Indices 1 2 3 4 5 6 
#
# 1 0.016124 -0.007129 -0.001414 0.000000 -0.000511 0.000000
# 2 -0.007129 0.012297 -0.004690 0.000000 -0.005182 0.000000
# 3 -0.001414 -0.004690 0.012749 0.000000 0.008105 0.000000
# 4 0.000000 0.000000 0.000000 0.018029 0.000000 0.015332
# 5 -0.000511 -0.005182 0.008105 0.000000 0.042829 0.000000
# 6 0.000000 0.000000 0.000000 0.015332 0.000000 0.045093
#
#
# Mechanical properties :
#
#
# Convention : Reuss Voigt Hill
#
# Bulk Modulus (GPa) = 68.00965 75.41502 71.71234
# Shear Modulus (GPa) = 28.01309 40.14705 34.08007
#
# Velocity S-wave (km/s) = 3.67042 4.39402 4.04842
# Velocity P-wave (km/s) = 7.11826 7.87474 7.50604
#
# Compressibility (1/GPa) = 0.01470380
#
# Stress axis : x y z
#
# Youngs Moduli (GPa) = 62.01847 81.32157 78.43785
#
# Poissons Ratio (x) = 0.57975 0.11090
# Poissons Ratio (y) = 0.44213 0.36789
# Poissons Ratio (z) = 0.08769 0.38141
#
# Static dielectric constant tensor:
#      x y z
#    x 3.771550 0.000000 -0.194680 
#    y 0.000000 3.780660 0.000000 
#    z -0.194680 0.000000 4.105380 
# 
# 
# High freq. dielectric constant tensor:
#      x y z
#    x 1.801970 0.000000 -0.013800 
#    y 0.000000 1.821230 0.000000 
#    z -0.013800 0.000000 1.829160 
# 
# From -- ./inp_files/169819.got.cif
#   From: 2010.06.25/outbox.cif.g09.slc.cpg/sg12_85_cif.got.tgz:169819.got - 2010.06.28 00:19:55.
