data_PCOD8108754
_publ_section_title
;
Structure prediction by ZEFSAII (Michael W. Deem and Ramdas Pophale) SiO2 
 PCOD8108754
Probable space group: C 2/M
;
_chemical_formula_sum "Si O2"
_cell_formula_units_Z 44
_cell_length_a 21.598182
_cell_length_b 9.646212
_cell_length_c 15.954484
_cell_angle_alpha 90.000000
_cell_angle_beta 46.118880
_cell_angle_gamma 90.000000
_cell_volume 2395.847796
_symmetry_space_group_name_H-M "C 2/M"
_symmetry_group_IT_number 12
_symmetry_cell_setting 'monoclinic'
loop_
_space_group_symop_operation_xyz
x,y,z
-x,y,-z
-x,-y,-z
x,-y,z
1/2+x,1/2+y,z
1/2-x,1/2+y,-z
1/2-x,1/2-y,-z
1/2+x,1/2-y,z
loop_
_atom_site_type_symbol
_atom_site_label
_atom_site_fract_x
_atom_site_fract_y
_atom_site_fract_z
Si Si1 0.221903 0.274725 0.399193
Si Si2 0.934405 0.770459 0.816765
Si Si3 0.123690 0.343499 0.653275
Si Si4 0.268430 0.000000 0.749639
Si Si5 0.166230 0.500000 0.135653
Si Si6 0.628087 0.500000 0.436202
Si Si7 0.564007 0.500000 0.318988
Si Si8 0.146307 0.000000 0.006537
O O1 0.170016 0.354493 0.519918
O O2 0.319593 0.246881 0.335864
O O3 0.221387 0.363538 0.315376
O O4 0.176530 0.130742 0.426356
O O5 0.877599 0.633492 0.863751
O O6 0.033656 0.733392 0.731100
O O7 0.917930 0.861935 0.750180
O O8 0.907551 0.860753 0.923243
O O9 0.110534 0.500000 0.699094
O O10 0.341506 0.000000 0.754618
O O11 0.174156 0.000000 0.882486
O O12 0.267142 0.500000 0.016647
O O13 0.630133 0.500000 0.333821
O O14 0.532529 0.500000 0.559317
#
# Coordination Sequence:
#
# PCOD8108754 Si02
#       8
#     8   8   8   4   4   4   4   4
#     4  11  22  39  60  86 126 156 202 235 300 363
#     4  11  20  40  61  91 118 152 208 246 290 360
#     4  11  22  37  63  89 118 160 192 254 295 351
#     4  10  23  40  60  90 116 162 196 246 299 355
#     4  10  21  38  65  87 116 155 199 252 302 340
#     4  11  20  36  53  85 128 159 189 233 297 358
#     4  10  22  32  55  90 123 157 189 240 295 347
#     4   9  24  40  63  89 116 162 203 241 307 343
#
# _framework density 18.365105
#
# number of rings (size 3 to 8) (size 9 to 14) (size 15 to 20)
#    0.545    0.909    4.545    1.636    0.000    1.455 
#    0.000    2.727    0.000    1.091    0.000    0.000 
#    0.000    0.000    0.000    0.000    0.000    0.000 
#
# Total GULP energy -272795.798070 kJ/mol
# GULP energy per Si atom -12399.809003 kJ/mol
# Density = 1.832331 g / cm^3
# Si number density = 18.365105 Si / 1000 Ang^3
#
#
#
# Elastic Constant Matrix: (Units=GPa)
#
#
# Indices 1 2 3 4 5 6 
#
# 1 54.9905 14.6714 3.7497 0.0001 -9.5895 -0.0001
# 2 14.6714 115.7652 12.1780 0.0002 -0.2277 -0.0003
# 3 3.7497 12.1780 41.6618 0.0000 1.2820 0.0000
# 4 0.0001 0.0002 0.0000 6.8191 0.0000 9.0204
# 5 -9.5895 -0.2277 1.2820 0.0000 30.6677 0.0000
# 6 -0.0001 -0.0003 0.0000 9.0204 0.0000 8.1230
#
#
#
# Elastic Compliance Matrix: (Units=1/GPa)
#
#
# Indices 1 2 3 4 5 6 
#
# 1 0.020008 -0.002387 -0.001297 0.000000 0.006293 0.000000
# 2 -0.002387 0.009198 -0.002456 0.000002 -0.000575 -0.000001
# 3 -0.001297 -0.002456 0.024882 0.000000 -0.001464 0.000000
# 4 0.000000 0.000002 0.000000 -0.312710 -0.000001 0.347259
# 5 0.006293 -0.000575 -0.001464 -0.000001 0.034632 0.000001
# 6 0.000000 -0.000001 0.000000 0.347259 0.000001 -0.262517
#
#
# Mechanical properties :
#
#
# Convention : Reuss Voigt Hill
#
# Bulk Modulus (GPa) = 23.91847 30.40173 27.16010
# Shear Modulus (GPa) = -10.86268 21.24320 5.19026
#
# Velocity S-wave (km/s) = -2.43468 3.40474 1.68294
# Velocity P-wave (km/s) = 2.26904 5.66095 4.31248
#
# Compressibility (1/GPa) = 0.04180869
#
# Stress axis : x y z
#
# Youngs Moduli (GPa) = 49.98115 108.72046 40.18895
#
# Poissons Ratio (x) = 0.25950 0.05211
# Poissons Ratio (y) = 0.11930 0.09871
# Poissons Ratio (z) = 0.06481 0.26702
#
# Static dielectric constant tensor:
#      x y z
#    x 3.354720 0.000000 -0.028550 
#    y 0.000000 3.406890 0.000000 
#    z -0.028550 0.000000 3.330100 
# 
# 
# High freq. dielectric constant tensor:
#      x y z
#    x 1.704960 0.000000 -0.008250 
#    y 0.000000 1.729470 0.000000 
#    z -0.008250 0.000000 1.703750 
# 
# From -- ./inp_files/288138.got.cif
#   From: 2010.06.25/outbox.cif.g09.slc.cpg/sg12_145_cif.got.tgz:288138.got - 2010.06.28 00:19:55.
