data_PCOD8108776
_publ_section_title
;
Structure prediction by ZEFSAII (Michael W. Deem and Ramdas Pophale) SiO2 
 PCOD8108776
Probable space group: C 2/M
;
_chemical_formula_sum "Si O2"
_cell_formula_units_Z 64
_cell_length_a 18.334283
_cell_length_b 17.126085
_cell_length_c 14.580669
_cell_angle_alpha 90.000000
_cell_angle_beta 39.049787
_cell_angle_gamma 90.000000
_cell_volume 2884.276498
_symmetry_space_group_name_H-M "C 2/M"
_symmetry_group_IT_number 12
_symmetry_cell_setting 'monoclinic'
loop_
_space_group_symop_operation_xyz
x,y,z
-x,y,-z
-x,-y,-z
x,-y,z
1/2+x,1/2+y,z
1/2-x,1/2+y,-z
1/2-x,1/2-y,-z
1/2+x,1/2-y,z
loop_
_atom_site_type_symbol
_atom_site_label
_atom_site_fract_x
_atom_site_fract_y
_atom_site_fract_z
Si Si1 0.301577 0.770767 0.849331
Si Si2 0.255326 0.351453 0.400306
Si Si3 0.818295 0.911428 0.632687
Si Si4 0.369695 0.091282 0.658789
Si Si5 0.497593 0.585542 0.826506
Si Si6 0.937649 0.754680 0.968809
Si Si7 0.354614 0.180930 0.309575
Si Si8 0.555635 0.630489 0.316264
O O1 0.332395 0.859352 0.786838
O O2 0.417809 0.722242 0.721172
O O3 0.250000 0.750000 0.000000
O O4 0.197589 0.735992 0.887907
O O5 0.208961 0.384294 0.350157
O O6 0.366133 0.401997 0.320692
O O7 0.287154 0.261335 0.359463
O O8 0.164652 0.359217 0.572692
O O9 0.695359 0.874495 0.722636
O O10 0.847387 0.907912 0.712592
O O11 0.924819 0.868449 0.479379
O O12 0.816455 0.000000 0.601767
O O13 0.500000 0.109076 0.500000
O O14 0.352108 0.000000 0.699924
O O15 0.474722 0.500000 0.892931
O O16 0.444145 0.652607 0.942188
O O17 0.434643 0.586675 0.789611
O O18 0.006875 0.699462 0.828787
O O19 0.000000 0.733442 0.000000
#
# Coordination Sequence:
#
# PCOD8108776 Si02
#       8
#     8   8   8   8   8   8   8   8
#     4  12  26  45  70  98 136 189 232 275 343 421
#     4  10  21  38  65  96 134 175 226 281 344 406
#     4  11  22  38  65 101 131 165 220 288 348 395
#     4  11  27  46  70 104 142 184 236 296 358 418
#     4  11  21  37  63  96 132 168 214 278 346 403
#     4  11  24  43  62  93 132 178 228 276 335 421
#     4  10  22  38  65  97 130 176 228 284 333 413
#     4  11  22  38  62  97 133 173 222 279 331 408
#
# _framework density 22.189274000000001
#
# number of rings (size 3 to 8) (size 9 to 14) (size 15 to 20)
#    0.000    1.125    2.500    4.875    5.250    1.250 
#    0.000    0.000    0.000    4.875    0.000    0.000 
#    0.000    0.000    0.000    0.000    0.000    0.000 
#
# Total GULP energy -396545.962104 kJ/mol
# GULP energy per Si atom -12392.061316 kJ/mol
# Density = 2.213877 g / cm^3
# Si number density = 22.189274 Si / 1000 Ang^3
#
#
#
# Elastic Constant Matrix: (Units=GPa)
#
#
# Indices 1 2 3 4 5 6 
#
# 1 74.5473 42.1821 16.6904 0.0000 7.3352 0.0000
# 2 42.1821 123.0366 41.1290 0.0000 -1.7578 0.0000
# 3 16.6904 41.1290 67.6995 0.0000 -0.9297 0.0000
# 4 0.0000 0.0000 0.0000 18.2325 0.0000 9.0101
# 5 7.3352 -1.7578 -0.9297 0.0000 34.7993 0.0000
# 6 0.0000 0.0000 0.0000 9.0101 0.0000 22.4210
#
#
#
# Elastic Compliance Matrix: (Units=1/GPa)
#
#
# Indices 1 2 3 4 5 6 
#
# 1 0.017199 -0.005669 -0.000851 0.000000 -0.003934 0.000000
# 2 -0.005669 0.012071 -0.005914 0.000000 0.001647 0.000000
# 3 -0.000851 -0.005914 0.018579 0.000000 0.000377 0.000000
# 4 0.000000 0.000000 0.000000 0.068439 0.000000 -0.027503
# 5 -0.003934 0.001647 0.000377 0.000000 0.029659 0.000000
# 6 0.000000 0.000000 0.000000 -0.027503 0.000000 0.055653
#
#
# Mechanical properties :
#
#
# Convention : Reuss Voigt Hill
#
# Bulk Modulus (GPa) = 43.50820 51.69848 47.60334
# Shear Modulus (GPa) = 21.35595 26.10934 23.73265
#
# Velocity S-wave (km/s) = 3.10570 3.43398 3.27395
# Velocity P-wave (km/s) = 5.70182 6.25079 5.98261
#
# Compressibility (1/GPa) = 0.02298417
#
# Stress axis : x y z
#
# Youngs Moduli (GPa) = 58.14162 82.84045 53.82527
#
# Poissons Ratio (x) = 0.46959 0.04578
# Poissons Ratio (y) = 0.32958 0.31830
# Poissons Ratio (z) = 0.04945 0.48988
#
# Static dielectric constant tensor:
#      x y z
#    x 4.707810 0.000000 -0.985240 
#    y 0.000000 3.949610 0.000000 
#    z -0.985240 0.000000 6.412980 
# 
# 
# High freq. dielectric constant tensor:
#      x y z
#    x 1.886920 0.000000 0.001530 
#    y 0.000000 1.860630 0.000000 
#    z 0.001530 0.000000 1.861300 
# 
# From -- ./inp_files/226842.got.cif
#   From: 2010.06.25/outbox.cif.g09.slc.cpg/sg12_114_cif.got.tgz:226842.got - 2010.06.28 00:19:55.
