data_PCOD8108787
_publ_section_title
;
Structure prediction by ZEFSAII (Michael W. Deem and Ramdas Pophale) SiO2 
 PCOD8108787
Probable space group: C 2/M
;
_chemical_formula_sum "Si O2"
_cell_formula_units_Z 48
_cell_length_a 23.828565
_cell_length_b 15.575838
_cell_length_c 11.993855
_cell_angle_alpha 90.000000
_cell_angle_beta 28.170474
_cell_angle_gamma 90.000000
_cell_volume 2101.546121
_symmetry_space_group_name_H-M "C 2/M"
_symmetry_group_IT_number 12
_symmetry_cell_setting 'monoclinic'
loop_
_space_group_symop_operation_xyz
x,y,z
-x,y,-z
-x,-y,-z
x,-y,z
1/2+x,1/2+y,z
1/2-x,1/2+y,-z
1/2-x,1/2-y,-z
1/2+x,1/2-y,z
loop_
_atom_site_type_symbol
_atom_site_label
_atom_site_fract_x
_atom_site_fract_y
_atom_site_fract_z
Si Si1 0.132485 0.836708 0.777051
Si Si2 0.779125 0.817276 0.608371
Si Si3 0.562711 0.903740 0.551350
Si Si4 0.999962 0.219109 0.374884
Si Si5 0.545759 0.096218 0.032268
Si Si6 0.836708 0.905810 0.048248
O O1 0.169335 0.870499 0.588782
O O2 0.233935 0.772927 0.642063
O O3 0.129104 0.908496 0.880016
O O4 0.000000 0.795964 0.000000
O O5 0.876054 0.803032 0.533456
O O6 0.668559 0.863588 0.861010
O O7 0.483115 0.823527 0.646461
O O8 0.556971 0.896475 0.695736
O O9 0.696512 0.893039 0.276154
O O10 0.513843 0.000000 0.601902
O O11 0.000000 0.181713 0.500000
O O12 0.103093 0.172741 0.123600
O O13 0.578204 0.000000 0.944023
O O14 0.500000 0.143559 0.000000
O O15 0.874546 0.000000 0.935092
#
# Coordination Sequence:
#
# PCOD8108787 Si02
#       6
#     8   8   8   8   8   8
#     4  11  21  38  65  99 134 174 217 278 339 411
#     4  11  23  38  65 101 134 178 223 280 342 408
#     4  10  23  46  71  99 134 176 231 286 338 404
#     4  12  27  46  71  96 136 185 235 284 344 410
#     4  10  21  38  65  99 138 175 217 276 343 409
#     4  11  24  45  70 101 139 180 227 281 344 414
#
# _framework density 22.840326000000001
#
# number of rings (size 3 to 8) (size 9 to 14) (size 15 to 20)
#    0.000    1.167    3.333    2.500    2.333    4.333 
#    0.000    0.000    0.000    0.000    0.000    0.000 
#    0.000    0.000    0.000    0.000    0.000    0.000 
#
# Total GULP energy -297357.738206 kJ/mol
# GULP energy per Si atom -12389.905759 kJ/mol
# Density = 2.278834 g / cm^3
# Si number density = 22.840326 Si / 1000 Ang^3
#
#
#
# Elastic Constant Matrix: (Units=GPa)
#
#
# Indices 1 2 3 4 5 6 
#
# 1 112.7378 26.5936 45.5082 0.0000 15.7811 0.0000
# 2 26.5936 133.3468 54.6592 0.0000 -0.6678 0.0000
# 3 45.5082 54.6592 121.3738 0.0000 -5.0015 0.0000
# 4 0.0000 0.0000 0.0000 44.2225 0.0000 0.3778
# 5 15.7811 -0.6678 -5.0015 0.0000 25.4329 0.0000
# 6 0.0000 0.0000 0.0000 0.3778 0.0000 12.9115
#
#
#
# Elastic Compliance Matrix: (Units=1/GPa)
#
#
# Indices 1 2 3 4 5 6 
#
# 1 0.012035 -0.000553 -0.004609 0.000000 -0.008389 0.000000
# 2 -0.000553 0.009231 -0.003958 0.000000 -0.000193 0.000000
# 3 -0.004609 -0.003958 0.011960 0.000000 0.005108 0.000000
# 4 0.000000 0.000000 0.000000 0.022619 0.000000 -0.000662
# 5 -0.008389 -0.000193 0.005108 0.000000 0.045524 0.000000
# 6 0.000000 0.000000 0.000000 -0.000662 0.000000 0.077470
#
#
# Mechanical properties :
#
#
# Convention : Reuss Voigt Hill
#
# Bulk Modulus (GPa) = 66.72627 68.99784 67.86205
# Shear Modulus (GPa) = 24.74349 32.55988 28.65168
#
# Velocity S-wave (km/s) = 3.29496 3.77973 3.54564
# Velocity P-wave (km/s) = 6.61463 7.02302 6.82188
#
# Compressibility (1/GPa) = 0.01498660
#
# Stress axis : x y z
#
# Youngs Moduli (GPa) = 83.08787 108.33325 83.61209
#
# Poissons Ratio (x) = 0.05990 0.38539
# Poissons Ratio (y) = 0.04594 0.33090
# Poissons Ratio (z) = 0.38298 0.42874
#
# Static dielectric constant tensor:
#      x y z
#    x 3.942660 0.000000 0.115360 
#    y 0.000000 4.235020 0.000000 
#    z 0.115360 0.000000 4.144160 
# 
# 
# High freq. dielectric constant tensor:
#      x y z
#    x 1.880410 0.000000 0.003090 
#    y 0.000000 1.893870 0.000000 
#    z 0.003090 0.000000 1.906370 
# 
# From -- ./inp_files/177297.got.cif
#   From: 2010.06.25/outbox.cif.g09.slc.cpg/sg12_89_cif.got.tgz:177297.got - 2010.06.28 00:19:55.
