data_PCOD8108085
_publ_section_title
;
Structure prediction by ZEFSAII (Michael W. Deem and Ramdas Pophale) SiO2 
 PCOD8108085
Probable space group: C 2/M
;
_chemical_formula_sum "Si O2"
_cell_formula_units_Z 48
_cell_length_a 9.223322
_cell_length_b 19.467284
_cell_length_c 13.432566
_cell_angle_alpha 90.000000
_cell_angle_beta 81.402917
_cell_angle_gamma 90.000000
_cell_volume 2384.758257
_symmetry_space_group_name_H-M "C 2/M"
_symmetry_group_IT_number 12
_symmetry_cell_setting 'monoclinic'
loop_
_space_group_symop_operation_xyz
x,y,z
-x,y,-z
-x,-y,-z
x,-y,z
1/2+x,1/2+y,z
1/2-x,1/2+y,-z
1/2-x,1/2-y,-z
1/2+x,1/2-y,z
loop_
_atom_site_type_symbol
_atom_site_label
_atom_site_fract_x
_atom_site_fract_y
_atom_site_fract_z
Si Si1 0.140142 0.193922 0.052682
Si Si2 0.169769 0.576924 0.713272
Si Si3 0.212368 0.205816 0.602694
Si Si4 0.093513 0.576068 0.393277
Si Si5 0.651294 0.923622 0.947831
Si Si6 0.386749 0.304547 0.710367
O O1 0.212054 0.119794 0.027857
O O2 0.095223 0.201565 0.172811
O O3 0.250000 0.250000 0.000000
O O4 0.000000 0.198532 0.000000
O O5 0.205606 0.500000 0.669200
O O6 0.139026 0.575421 0.831902
O O7 0.309164 0.625635 0.679363
O O8 0.019601 0.605014 0.678582
O O9 0.250000 0.250000 0.500000
O O10 0.275019 0.128368 0.595838
O O11 0.282884 0.241874 0.690871
O O12 0.038809 0.200995 0.635752
O O13 0.155864 0.500000 0.355962
O O14 0.000000 0.566756 0.500000
O O15 0.670420 0.000000 0.990422
O O16 0.500000 0.889594 0.000000
#
# Coordination Sequence:
#
# PCOD8108085 Si02
#       6
#     8   8   8   8   8   8
#     4  11  23  38  57  83 114 150 192 237 283 335
#     4   9  19  37  59  84 114 147 185 230 281 337
#     4  12  24  39  59  86 117 150 191 235 284 338
#     4  10  21  38  60  84 112 147 187 230 277 333
#     4   9  19  36  58  83 112 148 187 229 281 337
#     4  11  23  38  59  83 114 152 189 235 286 338
#
# _framework density 20.127825999999999
#
# number of rings (size 3 to 8) (size 9 to 14) (size 15 to 20)
#    0.000    1.667    0.000    5.000    0.000    6.333 
#    0.000    0.000    0.000    5.000    0.000    0.000 
#    0.000    0.000    0.000    0.000    0.000    0.000 
#
# Total GULP energy -297527.802960 kJ/mol
# GULP energy per Si atom -12396.991790 kJ/mol
# Density = 2.008201 g / cm^3
# Si number density = 20.127826 Si / 1000 Ang^3
#
#
#
# Elastic Constant Matrix: (Units=GPa)
#
#
# Indices 1 2 3 4 5 6 
#
# 1 137.8486 64.9234 46.4320 0.0000 -1.8982 0.0000
# 2 64.9234 107.7938 47.1327 0.0000 1.9144 0.0000
# 3 46.4320 47.1327 53.3694 0.0000 3.8643 0.0000
# 4 0.0000 0.0000 0.0000 30.4870 0.0000 -20.5835
# 5 -1.8982 1.9144 3.8643 0.0000 40.1298 0.0000
# 6 0.0000 0.0000 0.0000 -20.5835 0.0000 133.3446
#
#
#
# Elastic Compliance Matrix: (Units=1/GPa)
#
#
# Indices 1 2 3 4 5 6 
#
# 1 0.011332 -0.004066 -0.006365 0.000000 0.001343 0.000000
# 2 -0.004066 0.016584 -0.011116 0.000000 0.000087 0.000000
# 3 -0.006365 -0.011116 0.034315 0.000000 -0.003075 0.000000
# 4 0.000000 0.000000 0.000000 0.036617 0.000000 0.005652
# 5 0.001343 0.000087 -0.003075 0.000000 0.025275 0.000000
# 6 0.000000 0.000000 0.000000 0.005652 0.000000 0.008372
#
#
# Mechanical properties :
#
#
# Convention : Reuss Voigt Hill
#
# Bulk Modulus (GPa) = 52.25341 68.44312 60.34826
# Shear Modulus (GPa) = 27.47759 50.16055 38.81907
#
# Velocity S-wave (km/s) = 3.69881 4.99751 4.39638
# Velocity P-wave (km/s) = 6.65272 8.20842 7.47117
#
# Compressibility (1/GPa) = 0.01913751
#
# Stress axis : x y z
#
# Youngs Moduli (GPa) = 88.24796 60.29788 29.14210
#
# Poissons Ratio (x) = 0.24514 0.18550
# Poissons Ratio (y) = 0.35878 0.32393
# Poissons Ratio (z) = 0.56174 0.67024
#
# Static dielectric constant tensor:
#      x y z
#    x 2.442260 0.000000 -0.200780 
#    y 0.000000 4.761160 0.000000 
#    z -0.200780 0.000000 3.645810 
# 
# 
# High freq. dielectric constant tensor:
#      x y z
#    x 1.781130 0.000000 0.008790 
#    y 0.000000 1.798960 0.000000 
#    z 0.008790 0.000000 1.790970 
# 
# From -- ./inp_files/195961.got.cif
#   From: 2010.06.25/outbox.cif.g09.slc.cpg/sg12_98_cif.got.tgz:195961.got - 2010.06.28 00:19:55.
