data_PCOD8108305
_publ_section_title
;
Structure prediction by ZEFSAII (Michael W. Deem and Ramdas Pophale) SiO2 
 PCOD8108305
Probable space group: C 2/M
;
_chemical_formula_sum "Si O2"
_cell_formula_units_Z 40
_cell_length_a 17.730112
_cell_length_b 8.753118
_cell_length_c 25.494968
_cell_angle_alpha 90.000000
_cell_angle_beta 149.905606
_cell_angle_gamma 90.000000
_cell_volume 1983.972540
_symmetry_space_group_name_H-M "C 2/M"
_symmetry_group_IT_number 12
_symmetry_cell_setting 'monoclinic'
loop_
_space_group_symop_operation_xyz
x,y,z
-x,y,-z
-x,-y,-z
x,-y,z
1/2+x,1/2+y,z
1/2-x,1/2+y,-z
1/2-x,1/2-y,-z
1/2+x,1/2-y,z
loop_
_atom_site_type_symbol
_atom_site_label
_atom_site_fract_x
_atom_site_fract_y
_atom_site_fract_z
Si Si1 0.081101 0.321404 0.602060
Si Si2 0.923084 0.175621 0.009226
Si Si3 0.077437 0.676593 0.793352
Si Si4 0.599274 0.823734 0.207330
Si Si5 0.413568 0.678797 0.598494
O O1 0.060780 0.500000 0.600335
O O2 0.255840 0.282929 0.702974
O O3 0.000000 0.269734 0.500000
O O4 0.008362 0.231866 0.605957
O O5 0.002310 0.285517 0.098111
O O6 0.938292 0.000000 0.036774
O O7 0.750383 0.225216 0.901259
O O8 0.000000 0.202021 0.000000
O O9 0.061441 0.500000 0.767247
O O10 0.001076 0.711476 0.802644
O O11 0.999645 0.779398 0.703089
O O12 0.649271 0.000000 0.235209
O O13 0.392963 0.500000 0.582914
O O14 0.250000 0.750000 0.500000
#
# Coordination Sequence:
#
# PCOD8108305 Si02
#       5
#     8   8   8   8   8
#     4  11  24  42  64  89 119 158 203 250 302 359
#     4  10  21  38  61  87 119 162 206 250 301 357
#     4  10  22  40  61  89 125 162 202 249 301 356
#     4  11  23  38  60  90 123 160 202 251 302 355
#     4  12  25  41  64  92 123 159 199 246 299 357
#
# _framework density 20.161569
#
# number of rings (size 3 to 8) (size 9 to 14) (size 15 to 20)
#    0.000    1.200    0.000    6.000    0.000    9.200 
#    0.000    0.000    0.000    0.000    0.000    0.000 
#    0.000    0.000    0.000    0.000    0.000    0.000 
#
# Total GULP energy -248157.647542 kJ/mol
# GULP energy per Si atom -12407.882377 kJ/mol
# Density = 2.011568 g / cm^3
# Si number density = 20.161569 Si / 1000 Ang^3
#
#
#
# Elastic Constant Matrix: (Units=GPa)
#
#
# Indices 1 2 3 4 5 6 
#
# 1 117.5260 39.1188 63.5421 -0.0001 8.7699 0.0000
# 2 39.1188 83.8575 43.4113 0.0000 -5.8027 0.0000
# 3 63.5421 43.4113 143.1673 0.0007 4.5778 0.0000
# 4 -0.0001 0.0000 0.0007 37.7073 0.0001 -2.6183
# 5 8.7699 -5.8027 4.5778 0.0001 43.4227 0.0000
# 6 0.0000 0.0000 0.0000 -2.6183 0.0000 36.1574
#
#
#
# Elastic Compliance Matrix: (Units=1/GPa)
#
#
# Indices 1 2 3 4 5 6 
#
# 1 0.012203 -0.003682 -0.004219 0.000000 -0.002512 0.000000
# 2 -0.003682 0.015500 -0.003166 0.000000 0.003149 0.000000
# 3 -0.004219 -0.003166 0.009837 0.000000 -0.000608 0.000000
# 4 0.000000 0.000000 0.000000 0.026654 0.000000 0.001930
# 5 -0.002512 0.003149 -0.000608 0.000000 0.024022 0.000000
# 6 0.000000 0.000000 0.000000 0.001930 0.000000 0.027797
#
#
# Mechanical properties :
#
#
# Convention : Reuss Voigt Hill
#
# Bulk Modulus (GPa) = 64.91683 70.74390 67.83036
# Shear Modulus (GPa) = 34.89619 36.68938 35.79279
#
# Velocity S-wave (km/s) = 4.16483 4.27050 4.21800
# Velocity P-wave (km/s) = 7.44285 7.71239 7.57882
#
# Compressibility (1/GPa) = 0.01540433
#
# Stress axis : x y z
#
# Youngs Moduli (GPa) = 81.94699 64.51743 101.65739
#
# Poissons Ratio (x) = 0.23757 0.42892
# Poissons Ratio (y) = 0.30175 0.32187
# Poissons Ratio (z) = 0.34575 0.20428
#
# Static dielectric constant tensor:
#      x y z
#    x 3.934310 0.000000 0.197140 
#    y 0.000000 3.683200 0.000000 
#    z 0.197140 0.000000 4.013420 
# 
# 
# High freq. dielectric constant tensor:
#      x y z
#    x 1.808210 0.000000 0.002920 
#    y 0.000000 1.790050 0.000000 
#    z 0.002920 0.000000 1.804210 
# 
# From -- ./inp_files/151676.got.cif
#   From: 2010.06.25/outbox.cif.g09.slc.cpg/sg12_76_cif.got.tgz:151676.got - 2010.06.28 00:19:55.
