data_PCOD8108719
_publ_section_title
;
Structure prediction by ZEFSAII (Michael W. Deem and Ramdas Pophale) SiO2 
 PCOD8108719
Probable space group: C 2/M
;
_chemical_formula_sum "Si O2"
_cell_formula_units_Z 64
_cell_length_a 26.767358
_cell_length_b 13.451255
_cell_length_c 12.946623
_cell_angle_alpha 90.000000
_cell_angle_beta 41.684574
_cell_angle_gamma 90.000000
_cell_volume 3100.027892
_symmetry_space_group_name_H-M "C 2/M"
_symmetry_group_IT_number 12
_symmetry_cell_setting 'monoclinic'
loop_
_space_group_symop_operation_xyz
x,y,z
-x,y,-z
-x,-y,-z
x,-y,z
1/2+x,1/2+y,z
1/2-x,1/2+y,-z
1/2-x,1/2-y,-z
1/2+x,1/2-y,z
loop_
_atom_site_type_symbol
_atom_site_label
_atom_site_fract_x
_atom_site_fract_y
_atom_site_fract_z
Si Si1 0.819432 0.285523 0.461435
Si Si2 0.528651 0.110046 0.840269
Si Si3 0.661000 0.309083 0.213982
Si Si4 0.272666 0.110863 0.883345
Si Si5 0.453735 0.609151 0.759634
Si Si6 0.946310 0.203245 0.984488
Si Si7 0.204078 0.888289 0.774372
Si Si8 0.624720 0.389226 0.485159
O O1 0.750000 0.250000 0.500000
O O2 0.886368 0.345315 0.298504
O O3 0.784317 0.358008 0.602073
O O4 0.853981 0.187117 0.458190
O O5 0.468183 0.192014 0.892905
O O6 0.524890 0.000000 0.792089
O O7 0.500000 0.095893 0.000000
O O8 0.663053 0.191711 0.238794
O O9 0.591665 0.316306 0.242627
O O10 0.662743 0.368550 0.317510
O O11 0.734981 0.354017 0.047292
O O12 0.210661 0.113476 0.888246
O O13 0.307322 0.000000 0.839841
O O14 0.420598 0.500000 0.788100
O O15 0.452564 0.622020 0.885343
O O16 0.537977 0.618957 0.592032
O O17 0.860552 0.191829 0.158793
O O18 0.000000 0.183356 0.000000
O O19 0.183616 0.000000 0.768151
O O20 0.646933 0.500000 0.489353
#
# Coordination Sequence:
#
# PCOD8108719 Si02
#       8
#     8   8   8   8   8   8   8   8
#     4  12  24  43  64  95 134 170 216 265 321 383
#     4  10  22  43  66  88 123 174 219 259 318 385
#     4  11  21  40  64  87 128 164 206 268 320 379
#     4  10  21  38  64  93 122 163 210 257 320 389
#     4  11  22  38  63  90 121 164 209 260 324 381
#     4  11  22  40  62  96 129 164 212 267 318 380
#     4  11  23  40  66  96 128 170 213 263 327 382
#     4  11  24  40  62  94 126 164 215 267 320 379
#
# _framework density 20.644974999999999
#
# number of rings (size 3 to 8) (size 9 to 14) (size 15 to 20)
#    0.000    1.125    3.750    3.750    0.000    3.000 
#    0.000    1.250    0.000    1.125    0.000    0.000 
#    0.000    0.000    0.000    0.000    0.000    0.000 
#
# Total GULP energy -396494.891104 kJ/mol
# GULP energy per Si atom -12390.465347 kJ/mol
# Density = 2.059799 g / cm^3
# Si number density = 20.644975 Si / 1000 Ang^3
#
#
#
# Elastic Constant Matrix: (Units=GPa)
#
#
# Indices 1 2 3 4 5 6 
#
# 1 80.6034 57.9049 13.4313 0.0000 -2.3572 0.0000
# 2 57.9049 162.5659 49.9996 0.0000 -27.3051 0.0000
# 3 13.4313 49.9996 98.4288 0.0000 -8.3239 0.0000
# 4 0.0000 0.0000 0.0000 26.2141 0.0000 -6.2600
# 5 -2.3572 -27.3051 -8.3239 0.0000 27.2875 0.0000
# 6 0.0000 0.0000 0.0000 -6.2600 0.0000 27.9678
#
#
#
# Elastic Compliance Matrix: (Units=1/GPa)
#
#
# Indices 1 2 3 4 5 6 
#
# 1 0.017436 -0.007446 0.000924 0.000000 -0.005663 0.000000
# 2 -0.007446 0.011717 -0.004105 0.000000 0.009829 0.000000
# 3 0.000924 -0.004105 0.012090 0.000000 -0.000339 0.000000
# 4 0.000000 0.000000 0.000000 0.040302 0.000000 0.009021
# 5 -0.005663 0.009829 -0.000339 0.000000 0.045889 0.000000
# 6 0.000000 0.000000 0.000000 0.009021 0.000000 0.037774
#
#
# Mechanical properties :
#
#
# Convention : Reuss Voigt Hill
#
# Bulk Modulus (GPa) = 50.02493 64.91884 57.47189
# Shear Modulus (GPa) = 25.89007 30.97805 28.43406
#
# Velocity S-wave (km/s) = 3.54512 3.87785 3.71521
# Velocity P-wave (km/s) = 6.40631 7.18080 6.80458
#
# Compressibility (1/GPa) = 0.01999003
#
# Stress axis : x y z
#
# Youngs Moduli (GPa) = 57.35292 85.34666 82.71382
#
# Poissons Ratio (x) = 0.63548 -0.07645
# Poissons Ratio (y) = 0.42705 0.33951
# Poissons Ratio (z) = -0.05301 0.35032
#
# Static dielectric constant tensor:
#      x y z
#    x 3.457540 0.000000 -0.014490 
#    y 0.000000 4.492710 0.000000 
#    z -0.014490 0.000000 4.024090 
# 
# 
# High freq. dielectric constant tensor:
#      x y z
#    x 1.782980 0.000000 0.009180 
#    y 0.000000 1.817140 0.000000 
#    z 0.009180 0.000000 1.820700 
# 
# From -- ./inp_files/245951.got.cif
#   From: 2010.06.25/outbox.cif.g09.slc.cpg/sg12_123_cif.got.tgz:245951.got - 2010.06.28 00:19:55.
