data_PCOD8108207
_publ_section_title
;
Structure prediction by ZEFSAII (Michael W. Deem and Ramdas Pophale) SiO2 
 PCOD8108207
Probable space group: C 2/M
;
_chemical_formula_sum "Si O2"
_cell_formula_units_Z 56
_cell_length_a 25.153850
_cell_length_b 8.753123
_cell_length_c 13.417134
_cell_angle_alpha 90.000000
_cell_angle_beta 67.624517
_cell_angle_gamma 90.000000
_cell_volume 2731.695860
_symmetry_space_group_name_H-M "C 2/M"
_symmetry_group_IT_number 12
_symmetry_cell_setting 'monoclinic'
loop_
_space_group_symop_operation_xyz
x,y,z
-x,y,-z
-x,-y,-z
x,-y,z
1/2+x,1/2+y,z
1/2-x,1/2+y,-z
1/2-x,1/2-y,-z
1/2+x,1/2-y,z
loop_
_atom_site_type_symbol
_atom_site_label
_atom_site_fract_x
_atom_site_fract_y
_atom_site_fract_z
Si Si1 0.141871 0.320053 0.226991
Si Si2 0.084170 0.320527 0.692647
Si Si3 0.436746 0.325624 0.085154
Si Si4 0.848298 0.674982 0.007871
Si Si5 0.483651 0.181572 0.620621
Si Si6 0.248007 0.324571 0.769824
Si Si7 0.203260 0.820085 0.605440
O O1 0.146943 0.500000 0.240917
O O2 0.187755 0.238542 0.265349
O O3 0.078977 0.257832 0.302160
O O4 0.155569 0.274574 0.103846
O O5 0.093342 0.500000 0.671870
O O6 0.073026 0.286399 0.815863
O O7 0.030622 0.259047 0.666127
O O8 0.140981 0.235732 0.613353
O O9 0.426076 0.500000 0.126718
O O10 0.393775 0.284846 0.027297
O O11 0.500000 0.299924 0.000000
O O12 0.869732 0.500000 0.001393
O O13 0.785767 0.695389 0.102037
O O14 0.500000 0.245676 0.500000
O O15 0.483035 0.000000 0.620557
O O16 0.250859 0.500000 0.733946
O O17 0.213371 0.231784 0.711406
O O18 0.250000 0.750000 0.500000
O O19 0.206674 0.000000 0.596425
#
# Coordination Sequence:
#
# PCOD8108207 Si02
#       7
#     8   8   8   8   8   8   8
#     4  10  21  38  62  91 123 168 215 257 311 374
#     4  11  22  40  66  94 126 164 209 260 314 375
#     4  11  23  37  58  89 125 166 212 261 316 373
#     4  10  21  38  60  88 123 163 211 258 314 384
#     4   9  20  38  61  90 122 161 209 255 306 370
#     4  11  23  40  62  93 128 164 208 258 314 376
#     4  12  26  44  67  95 128 165 209 260 315 377
#
# _framework density 20.500086
#
# number of rings (size 3 to 8) (size 9 to 14) (size 15 to 20)
#    0.000    1.429    1.429    3.857    2.000    3.429 
#    0.000    1.429    0.000    2.143    0.000    0.000 
#    0.000    0.000    0.000    0.000    0.000    0.000 
#
# Total GULP energy -347367.119947 kJ/mol
# GULP energy per Si atom -12405.968570 kJ/mol
# Density = 2.045343 g / cm^3
# Si number density = 20.500086 Si / 1000 Ang^3
#
#
#
# Elastic Constant Matrix: (Units=GPa)
#
#
# Indices 1 2 3 4 5 6 
#
# 1 138.6953 41.9442 27.6358 0.0000 -21.2923 0.0000
# 2 41.9442 88.4983 30.1645 0.0000 -12.4087 0.0000
# 3 27.6358 30.1645 92.5455 0.0000 -15.0039 0.0000
# 4 0.0000 0.0000 0.0000 23.2366 0.0000 -3.2429
# 5 -21.2923 -12.4087 -15.0039 0.0000 33.7683 0.0000
# 6 0.0000 0.0000 0.0000 -3.2429 0.0000 34.0686
#
#
#
# Elastic Compliance Matrix: (Units=1/GPa)
#
#
# Indices 1 2 3 4 5 6 
#
# 1 0.009045 -0.003401 -0.000938 0.000000 0.004037 0.000000
# 2 -0.003401 0.014289 -0.003382 0.000000 0.001604 0.000000
# 3 -0.000938 -0.003382 0.012814 0.000000 0.003859 0.000000
# 4 0.000000 0.000000 0.000000 0.043615 0.000000 0.004152
# 5 0.004037 0.001604 0.003859 0.000000 0.034463 0.000000
# 6 0.000000 0.000000 0.000000 0.004152 0.000000 0.029748
#
#
# Mechanical properties :
#
#
# Convention : Reuss Voigt Hill
#
# Bulk Modulus (GPa) = 48.29558 57.69201 52.99380
# Shear Modulus (GPa) = 30.06292 32.88100 31.47196
#
# Velocity S-wave (km/s) = 3.83362 4.00927 3.92243
# Velocity P-wave (km/s) = 6.57308 7.04527 6.81326
#
# Compressibility (1/GPa) = 0.02070583
#
# Stress axis : x y z
#
# Youngs Moduli (GPa) = 110.55466 69.98267 78.04246
#
# Poissons Ratio (x) = 0.23803 0.07320
# Poissons Ratio (y) = 0.37603 0.26392
# Poissons Ratio (z) = 0.10370 0.23667
#
# Static dielectric constant tensor:
#      x y z
#    x 3.860670 0.000000 -0.071380 
#    y 0.000000 3.565950 0.000000 
#    z -0.071380 0.000000 3.846770 
# 
# 
# High freq. dielectric constant tensor:
#      x y z
#    x 1.813710 0.000000 -0.007170 
#    y 0.000000 1.787960 0.000000 
#    z -0.007170 0.000000 1.810350 
# 
# From -- ./inp_files/238346.got.cif
#   From: 2010.06.25/outbox.cif.g09.slc.cpg/sg12_120_cif.got.tgz:238346.got - 2010.06.28 00:19:55.
