data_PCOD8108070
_publ_section_title
;
Structure prediction by ZEFSAII (Michael W. Deem and Ramdas Pophale) SiO2 
 PCOD8108070
Probable space group: C 2/M
;
_chemical_formula_sum "Si O2"
_cell_formula_units_Z 48
_cell_length_a 9.248330
_cell_length_b 26.398641
_cell_length_c 18.055087
_cell_angle_alpha 90.000000
_cell_angle_beta 30.179821
_cell_angle_gamma 90.000000
_cell_volume 2215.984774
_symmetry_space_group_name_H-M "C 2/M"
_symmetry_group_IT_number 12
_symmetry_cell_setting 'monoclinic'
loop_
_space_group_symop_operation_xyz
x,y,z
-x,y,-z
-x,-y,-z
x,-y,z
1/2+x,1/2+y,z
1/2-x,1/2+y,-z
1/2-x,1/2-y,-z
1/2+x,1/2-y,z
loop_
_atom_site_type_symbol
_atom_site_label
_atom_site_fract_x
_atom_site_fract_y
_atom_site_fract_z
Si Si1 0.275380 0.371512 0.916475
Si Si2 0.696327 0.108908 0.595452
Si Si3 0.062685 0.702966 0.560578
Si Si4 0.822997 0.661538 0.874933
Si Si5 0.457435 0.733151 0.842702
Si Si6 0.830254 0.557428 0.648405
O O1 0.325441 0.315378 0.856892
O O2 0.558320 0.405905 0.782395
O O3 0.179417 0.362449 0.042836
O O4 0.000000 0.397964 0.000000
O O5 0.718775 0.153159 0.523448
O O6 0.463889 0.119823 0.761256
O O7 0.563394 0.060636 0.611803
O O8 0.000000 0.097028 0.500000
O O9 0.250000 0.750000 0.500000
O O10 0.000000 0.699367 0.500000
O O11 0.761580 0.711400 0.737037
O O12 0.002576 0.713997 0.779218
O O13 0.500000 0.675523 0.000000
O O14 0.250000 0.750000 0.000000
O O15 0.716913 0.500000 0.692675
O O16 0.000000 0.574429 0.500000
#
# Coordination Sequence:
#
# PCOD8108070 Si02
#       6
#     8   8   8   8   8   8
#     4  11  24  41  69 101 134 182 227 280 345 420
#     4  12  25  43  67  99 138 179 228 289 349 416
#     4  12  24  39  61  97 141 190 240 285 337 406
#     4  11  21  41  62  98 142 181 223 278 334 413
#     4  10  21  38  59  93 140 179 224 265 332 406
#     4  11  26  51  75  98 133 178 233 298 357 413
#
# _framework density 21.660799000000001
#
# number of rings (size 3 to 8) (size 9 to 14) (size 15 to 20)
#    0.000    0.833    3.333    4.500    2.333    4.667 
#    0.000    1.667    0.000    0.000    0.000    0.000 
#    0.000    0.000    0.000    0.000    0.000    0.000 
#
# Total GULP energy -297352.006215 kJ/mol
# GULP energy per Si atom -12389.666926 kJ/mol
# Density = 2.161150 g / cm^3
# Si number density = 21.660799 Si / 1000 Ang^3
#
#
#
# Elastic Constant Matrix: (Units=GPa)
#
#
# Indices 1 2 3 4 5 6 
#
# 1 134.1918 37.9176 45.6444 0.0009 -12.1734 0.0015
# 2 37.9176 96.8102 45.2729 0.0012 1.8064 0.0000
# 3 45.6444 45.2729 104.1121 -0.0103 -10.1837 -0.0048
# 4 0.0009 0.0012 -0.0103 35.7649 -0.0001 -2.8629
# 5 -12.1734 1.8064 -10.1837 -0.0001 45.9246 -0.0013
# 6 0.0015 0.0000 -0.0048 -2.8629 -0.0013 24.0608
#
#
#
# Elastic Compliance Matrix: (Units=1/GPa)
#
#
# Indices 1 2 3 4 5 6 
#
# 1 0.009255 -0.002323 -0.002861 -0.000001 0.001910 -0.000001
# 2 -0.002323 0.013696 -0.005162 -0.000002 -0.002299 -0.000001
# 3 -0.002861 -0.005162 0.013339 0.000004 0.002403 0.000003
# 4 -0.000001 -0.000002 0.000004 0.028229 0.000001 0.003359
# 5 0.001910 -0.002299 0.002403 0.000001 0.022904 0.000002
# 6 -0.000001 -0.000001 0.000003 0.003359 0.000002 0.041961
#
#
# Mechanical properties :
#
#
# Convention : Reuss Voigt Hill
#
# Bulk Modulus (GPa) = 64.10782 65.86489 64.98635
# Shear Modulus (GPa) = 32.20088 34.90201 33.55144
#
# Velocity S-wave (km/s) = 3.85982 4.01845 3.93994
# Velocity P-wave (km/s) = 7.03739 7.21138 7.12492
#
# Compressibility (1/GPa) = 0.01559872
#
# Stress axis : x y z
#
# Youngs Moduli (GPa) = 108.05447 73.01255 74.96820
#
# Poissons Ratio (x) = 0.16959 0.21445
# Poissons Ratio (y) = 0.25098 0.38701
# Poissons Ratio (z) = 0.30909 0.37692
#
# Static dielectric constant tensor:
#      x y z
#    x 4.198770 0.000010 -0.096570 
#    y 0.000010 3.952160 -0.000010 
#    z -0.096570 -0.000010 4.253480 
# 
# 
# High freq. dielectric constant tensor:
#      x y z
#    x 1.858210 0.000000 -0.000970 
#    y 0.000000 1.827500 0.000000 
#    z -0.000970 0.000000 1.863710 
# 
# From -- ./inp_files/260225.got.cif
#   From: 2010.06.25/outbox.cif.g09.slc.cpg/sg12_131_cif.got.tgz:260225.got - 2010.06.28 00:19:55.
