data_PCOD8108620
_publ_section_title
;
Structure prediction by ZEFSAII (Michael W. Deem and Ramdas Pophale) SiO2 
 PCOD8108620
Probable space group: C 2/M
;
_chemical_formula_sum "Si O2"
_cell_formula_units_Z 60
_cell_length_a 15.228817
_cell_length_b 17.079262
_cell_length_c 12.130178
_cell_angle_alpha 90.000000
_cell_angle_beta 66.907776
_cell_angle_gamma 90.000000
_cell_volume 2902.225366
_symmetry_space_group_name_H-M "C 2/M"
_symmetry_group_IT_number 12
_symmetry_cell_setting 'monoclinic'
loop_
_space_group_symop_operation_xyz
x,y,z
-x,y,-z
-x,-y,-z
x,-y,z
1/2+x,1/2+y,z
1/2-x,1/2+y,-z
1/2-x,1/2-y,-z
1/2+x,1/2-y,z
loop_
_atom_site_type_symbol
_atom_site_label
_atom_site_fract_x
_atom_site_fract_y
_atom_site_fract_z
Si Si1 0.221945 0.262947 0.762275
Si Si2 0.359940 0.761051 0.413845
Si Si3 0.352752 0.153581 0.815100
Si Si4 0.000000 0.160841 0.500000
Si Si5 0.332526 0.587526 0.707433
Si Si6 0.528913 0.087271 0.610451
Si Si7 0.907539 0.243037 0.981457
Si Si8 0.674926 0.413230 0.027163
O O1 0.140183 0.234197 0.715823
O O2 0.304772 0.196972 0.732924
O O3 0.262548 0.345264 0.695274
O O4 0.182247 0.275324 0.904853
O O5 0.250000 0.750000 0.500000
O O6 0.432914 0.713077 0.453661
O O7 0.388025 0.852116 0.401237
O O8 0.434809 0.096887 0.731744
O O9 0.403423 0.221312 0.862118
O O10 0.279377 0.104631 0.925646
O O11 0.061576 0.105797 0.389550
O O12 0.302684 0.500000 0.682524
O O13 0.326417 0.591978 0.841307
O O14 0.500000 0.100319 0.500000
O O15 0.569196 0.000000 0.611059
O O16 0.901820 0.148707 0.980748
O O17 0.000000 0.271477 0.000000
O O18 0.644578 0.500000 0.003228
#
# Coordination Sequence:
#
# PCOD8108620 Si02
#       8
#     8   8   8   4   8   8   8   8
#     4  11  21  39  64  94 121 164 218 266 315 378
#     4  12  24  42  69  94 123 169 220 257 315 384
#     4  11  20  42  66  90 127 169 211 263 316 387
#     4  12  25  44  67  92 126 170 214 270 313 388
#     4  11  22  40  64  92 127 165 211 266 325 378
#     4  11  24  41  64  95 131 166 209 268 323 375
#     4  11  22  36  62  92 125 163 214 263 314 385
#     4  10  21  38  63  89 121 167 209 260 324 380
#
# _framework density 20.673791000000001
#
# number of rings (size 3 to 8) (size 9 to 14) (size 15 to 20)
#    0.000    0.933    4.667    3.800    1.867    0.800 
#    0.000    0.000    0.000    3.600    0.000    0.000 
#    0.000    0.000    0.000    0.000    0.000    0.000 
#
# Total GULP energy -371878.536242 kJ/mol
# GULP energy per Si atom -12395.951208 kJ/mol
# Density = 2.062674 g / cm^3
# Si number density = 20.673791 Si / 1000 Ang^3
#
#
#
# Elastic Constant Matrix: (Units=GPa)
#
#
# Indices 1 2 3 4 5 6 
#
# 1 94.3567 38.7320 29.0208 0.0000 16.4119 0.0000
# 2 38.7320 109.2457 41.3699 0.0000 5.3993 0.0000
# 3 29.0208 41.3699 102.2517 0.0000 1.8143 0.0000
# 4 0.0000 0.0000 0.0000 -0.1007 0.0000 3.9471
# 5 16.4119 5.3993 1.8143 0.0000 34.0799 0.0000
# 6 0.0000 0.0000 0.0000 3.9471 0.0000 21.8528
#
#
#
# Elastic Compliance Matrix: (Units=1/GPa)
#
#
# Indices 1 2 3 4 5 6 
#
# 1 0.013890 -0.003751 -0.002318 0.000000 -0.005971 0.000000
# 2 -0.003751 0.011898 -0.003751 0.000000 0.000121 0.000000
# 3 -0.002318 -0.003751 0.011936 0.000000 0.001075 0.000000
# 4 0.000000 0.000000 0.000000 -1.229006 0.000000 0.221985
# 5 -0.005971 0.000121 0.001075 0.000000 0.032142 0.000000
# 6 0.000000 0.000000 0.000000 0.221985 0.000000 0.005665
#
#
# Mechanical properties :
#
#
# Convention : Reuss Voigt Hill
#
# Bulk Modulus (GPa) = 55.30332 58.23328 56.76830
# Shear Modulus (GPa) = -4.43339 24.28183 9.92422
#
# Velocity S-wave (km/s) = -1.46598 3.43085 2.19336
# Velocity P-wave (km/s) = 4.89316 6.62745 5.82521
#
# Compressibility (1/GPa) = 0.01808210
#
# Stress axis : x y z
#
# Youngs Moduli (GPa) = 71.99632 84.04569 83.77688
#
# Poissons Ratio (x) = 0.31529 0.19423
# Poissons Ratio (y) = 0.27008 0.31428
# Poissons Ratio (z) = 0.16692 0.31529
#
# Static dielectric constant tensor:
#      x y z
#    x 3.719610 0.000000 0.046880 
#    y 0.000000 3.896650 0.000000 
#    z 0.046880 0.000000 4.044610 
# 
# 
# High freq. dielectric constant tensor:
#      x y z
#    x 1.795220 0.000000 -0.003740 
#    y 0.000000 1.804110 0.000000 
#    z -0.003740 0.000000 1.828480 
# 
# From -- ./inp_files/146105.got.cif
#   From: 2010.06.25/outbox.cif.g09.slc.cpg/sg12_74_cif.got.tgz:146105.got - 2010.06.28 00:19:55.
