data_PCOD8108192
_publ_section_title
;
Structure prediction by ZEFSAII (Michael W. Deem and Ramdas Pophale) SiO2 
 PCOD8108192
Probable space group: C 2/M
;
_chemical_formula_sum "Si O2"
_cell_formula_units_Z 64
_cell_length_a 12.464507
_cell_length_b 18.753394
_cell_length_c 26.570216
_cell_angle_alpha 90.000000
_cell_angle_beta 149.671209
_cell_angle_gamma 90.000000
_cell_volume 3136.232583
_symmetry_space_group_name_H-M "C 2/M"
_symmetry_group_IT_number 12
_symmetry_cell_setting 'monoclinic'
loop_
_space_group_symop_operation_xyz
x,y,z
-x,y,-z
-x,-y,-z
x,-y,z
1/2+x,1/2+y,z
1/2-x,1/2+y,-z
1/2-x,1/2-y,-z
1/2+x,1/2-y,z
loop_
_atom_site_type_symbol
_atom_site_label
_atom_site_fract_x
_atom_site_fract_y
_atom_site_fract_z
Si Si1 0.838865 0.670407 0.889554
Si Si2 0.610692 0.320194 0.597008
Si Si3 0.120441 0.916686 0.421118
Si Si4 0.535626 0.839398 0.573193
Si Si5 0.898623 0.313603 0.199482
Si Si6 0.821355 0.324998 0.050852
Si Si7 0.443834 0.579348 0.918939
Si Si8 0.446700 0.417885 0.723495
O O1 0.706556 0.741195 0.822946
O O2 0.674386 0.607740 0.836781
O O3 0.971689 0.646729 0.894454
O O4 0.000000 0.686165 0.000000
O O5 0.500000 0.339945 0.500000
O O6 0.559543 0.380503 0.617342
O O7 0.534120 0.243703 0.587586
O O8 0.859460 0.317361 0.685583
O O9 0.347004 0.880152 0.525941
O O10 0.058258 0.903926 0.338184
O O11 0.133938 0.000000 0.439578
O O12 0.500000 0.849907 0.500000
O O13 0.762501 0.874750 0.678246
O O14 0.881526 0.316764 0.132854
O O15 0.777307 0.378854 0.177289
O O16 0.750000 0.250000 0.000000
O O17 0.631859 0.381064 0.965338
O O18 0.417649 0.500000 0.886007
O O19 0.500000 0.576719 0.000000
O O20 0.414498 0.500000 0.723694
#
# Coordination Sequence:
#
# PCOD8108192 Si02
#       8
#     8   8   8   8   8   8   8   8
#     4  12  22  37  60  86 121 156 198 246 300 359
#     4  11  23  39  60  89 119 154 204 251 293 348
#     4  10  21  39  62  88 119 155 194 244 301 355
#     4   9  18  36  61  86 114 152 195 243 287 345
#     4  11  21  39  61  88 120 160 200 246 301 357
#     4  11  20  36  61  89 118 155 201 245 296 360
#     4   9  19  37  62  90 118 153 202 249 291 350
#     4  10  21  38  60  88 118 154 196 237 296 362
#
# _framework density 20.406649999999999
#
# number of rings (size 3 to 8) (size 9 to 14) (size 15 to 20)
#    0.000    1.625    3.750    1.875    0.000    3.000 
#    2.250    3.750    0.000    0.000    0.000    0.000 
#    0.000    0.000    0.000    0.000    0.000    0.000 
#
# Total GULP energy -396910.301245 kJ/mol
# GULP energy per Si atom -12403.446914 kJ/mol
# Density = 2.036020 g / cm^3
# Si number density = 20.406650 Si / 1000 Ang^3
#
#
#
# Elastic Constant Matrix: (Units=GPa)
#
#
# Indices 1 2 3 4 5 6 
#
# 1 72.5452 35.4352 29.3029 -0.0009 25.3527 0.0000
# 2 35.4352 125.0605 35.2899 -0.0014 14.4625 0.0002
# 3 29.3029 35.2899 113.3834 -0.0036 29.3059 0.0001
# 4 -0.0009 -0.0014 -0.0036 30.6029 -0.0012 9.1529
# 5 25.3527 14.4625 29.3059 -0.0012 31.3885 0.0001
# 6 0.0000 0.0002 0.0001 9.1529 0.0001 31.5117
#
#
#
# Elastic Compliance Matrix: (Units=1/GPa)
#
#
# Indices 1 2 3 4 5 6 
#
# 1 0.021149 -0.004183 -0.000325 0.000000 -0.014851 0.000000
# 2 -0.004183 0.009687 -0.002179 0.000000 0.000951 0.000000
# 3 -0.000325 -0.002179 0.012198 0.000001 -0.010122 0.000000
# 4 0.000000 0.000000 0.000001 0.035785 0.000000 -0.010394
# 5 -0.014851 0.000951 -0.010122 0.000000 0.052867 0.000000
# 6 0.000000 0.000000 0.000000 -0.010394 0.000000 0.034753
#
#
# Mechanical properties :
#
#
# Convention : Reuss Voigt Hill
#
# Bulk Modulus (GPa) = 33.71741 56.78276 45.25008
# Shear Modulus (GPa) = 26.35712 32.76467 29.56090
#
# Velocity S-wave (km/s) = 3.59777 4.01133 3.81017
# Velocity P-wave (km/s) = 5.81526 7.02427 6.44816
#
# Compressibility (1/GPa) = 0.02965827
#
# Stress axis : x y z
#
# Youngs Moduli (GPa) = 47.28252 103.23631 81.97907
#
# Poissons Ratio (x) = 0.43187 0.02666
# Poissons Ratio (y) = 0.19780 0.17867
# Poissons Ratio (z) = 0.01538 0.22499
#
# Static dielectric constant tensor:
#      x y z
#    x 2.129150 -0.000030 2.779520 
#    y -0.000030 3.819820 0.000040 
#    z 2.779520 0.000040 -0.153900 
# 
# 
# High freq. dielectric constant tensor:
#      x y z
#    x 1.786040 0.000000 0.024470 
#    y 0.000000 1.799490 0.000000 
#    z 0.024470 0.000000 1.794320 
# 
# From -- ./inp_files/359010.got.cif
#   From: 2010.06.25/outbox.cif.g09.slc.cpg/sg12_180_cif.got.tgz:359010.got - 2010.06.28 00:19:55.
