data_PCOD8108728
_publ_section_title
;
Structure prediction by ZEFSAII (Michael W. Deem and Ramdas Pophale) SiO2 
 PCOD8108728
Probable space group: C 2/M
;
_chemical_formula_sum "Si O2"
_cell_formula_units_Z 60
_cell_length_a 25.873159
_cell_length_b 9.425391
_cell_length_c 17.582211
_cell_angle_alpha 90.000000
_cell_angle_beta 136.267160
_cell_angle_gamma 90.000000
_cell_volume 2964.058632
_symmetry_space_group_name_H-M "C 2/M"
_symmetry_group_IT_number 12
_symmetry_cell_setting 'monoclinic'
loop_
_space_group_symop_operation_xyz
x,y,z
-x,y,-z
-x,-y,-z
x,-y,z
1/2+x,1/2+y,z
1/2-x,1/2+y,-z
1/2-x,1/2-y,-z
1/2+x,1/2-y,z
loop_
_atom_site_type_symbol
_atom_site_label
_atom_site_fract_x
_atom_site_fract_y
_atom_site_fract_z
Si Si1 0.432407 0.838126 0.977688
Si Si2 0.288424 0.666340 0.774665
Si Si3 0.177918 0.836140 0.904542
Si Si4 0.936331 0.338532 0.587533
Si Si5 0.500000 0.260323 0.500000
Si Si6 0.050502 0.661812 0.831791
Si Si7 0.226419 0.666000 0.549925
Si Si8 0.159993 0.844057 0.711171
O O1 0.467867 0.833239 0.099128
O O2 0.411749 0.000000 0.933243
O O3 0.500000 0.776237 0.000000
O O4 0.358617 0.743967 0.887517
O O5 0.292011 0.500000 0.798372
O O6 0.286797 0.690440 0.681706
O O7 0.210589 0.725470 0.725586
O O8 0.117086 0.771471 0.895061
O O9 0.154295 0.808891 0.793430
O O10 0.190273 0.000000 0.937064
O O11 0.250000 0.750000 0.000000
O O12 0.922119 0.500000 0.590496
O O13 0.981472 0.329176 0.556122
O O14 0.852992 0.271247 0.502405
O O15 0.983755 0.276361 0.708598
O O16 0.574687 0.351639 0.591128
O O17 0.071650 0.500000 0.829405
O O18 0.222185 0.500000 0.524514
O O19 0.250000 0.750000 0.500000
O O20 0.195772 0.000000 0.735589
#
# Coordination Sequence:
#
# PCOD8108728 Si02
#       8
#     8   8   8   8   4   8   8   8
#     4  10  23  42  66  92 120 159 209 260 316 376
#     4  11  24  42  64  92 126 163 209 259 312 374
#     4  11  23  39  58  86 119 157 199 247 298 360
#     4  10  21  38  64  94 126 161 206 258 313 377
#     4  12  20  40  64  92 129 168 211 258 321 370
#     4  10  21  39  61  88 118 155 201 251 303 363
#     4  10  23  42  63  94 126 163 209 257 310 375
#     4  11  24  40  61  90 127 164 205 253 308 375
#
# _framework density 20.242514
#
# number of rings (size 3 to 8) (size 9 to 14) (size 15 to 20)
#    0.000    1.467    2.667    2.000    1.867    6.667 
#    0.000    0.667    0.000    0.000    0.000    0.000 
#    0.000    0.000    0.000    0.000    0.000    0.000 
#
# Total GULP energy -371839.209402 kJ/mol
# GULP energy per Si atom -12394.640313 kJ/mol
# Density = 2.019644 g / cm^3
# Si number density = 20.242514 Si / 1000 Ang^3
#
#
#
# Elastic Constant Matrix: (Units=GPa)
#
#
# Indices 1 2 3 4 5 6 
#
# 1 114.9915 36.8917 42.5547 0.0000 -0.6373 0.0000
# 2 36.8917 82.5841 37.0209 0.0000 0.5935 0.0000
# 3 42.5547 37.0209 127.0456 0.0000 3.4297 0.0000
# 4 0.0000 0.0000 0.0000 27.1522 0.0000 -2.2398
# 5 -0.6373 0.5935 3.4297 0.0000 34.1113 0.0000
# 6 0.0000 0.0000 0.0000 -2.2398 0.0000 30.1853
#
#
#
# Elastic Compliance Matrix: (Units=1/GPa)
#
#
# Indices 1 2 3 4 5 6 
#
# 1 0.010834 -0.003693 -0.002567 0.000000 0.000525 0.000000
# 2 -0.003693 0.015188 -0.003188 0.000000 -0.000013 0.000000
# 3 -0.002567 -0.003188 0.009686 0.000000 -0.000966 0.000000
# 4 0.000000 0.000000 0.000000 0.037056 0.000000 0.002750
# 5 0.000525 -0.000013 -0.000966 0.000000 0.029423 0.000000
# 6 0.000000 0.000000 0.000000 0.002750 0.000000 0.033333
#
#
# Mechanical properties :
#
#
# Convention : Reuss Voigt Hill
#
# Bulk Modulus (GPa) = 59.48268 61.95064 60.71666
# Shear Modulus (GPa) = 31.24605 32.16668 31.70636
#
# Velocity S-wave (km/s) = 3.93311 3.99063 3.96198
# Velocity P-wave (km/s) = 7.07634 7.20446 7.14069
#
# Compressibility (1/GPa) = 0.01681162
#
# Stress axis : x y z
#
# Youngs Moduli (GPa) = 92.30322 65.84197 103.23938
#
# Poissons Ratio (x) = 0.24313 0.26501
# Poissons Ratio (y) = 0.34085 0.32918
# Poissons Ratio (z) = 0.23694 0.20994
#
# Static dielectric constant tensor:
#      x y z
#    x 3.503510 0.000000 -0.141900 
#    y 0.000000 3.573180 0.000000 
#    z -0.141900 0.000000 3.613100 
# 
# 
# High freq. dielectric constant tensor:
#      x y z
#    x 1.787850 0.000000 -0.004130 
#    y 0.000000 1.777610 0.000000 
#    z -0.004130 0.000000 1.809880 
# 
# From -- ./inp_files/292245.got.cif
#   From: 2010.06.25/outbox.cif.g09.slc.cpg/sg12_147_cif.got.tgz:292245.got - 2010.06.28 00:19:55.
