data_PCOD8108663
_publ_section_title
;
Structure prediction by ZEFSAII (Michael W. Deem and Ramdas Pophale) SiO2 
 PCOD8108663
Probable space group: C 2/M
;
_chemical_formula_sum "Si O2"
_cell_formula_units_Z 56
_cell_length_a 10.701174
_cell_length_b 18.360757
_cell_length_c 14.693918
_cell_angle_alpha 90.000000
_cell_angle_beta 66.601871
_cell_angle_gamma 90.000000
_cell_volume 2649.673360
_symmetry_space_group_name_H-M "C 2/M"
_symmetry_group_IT_number 12
_symmetry_cell_setting 'monoclinic'
loop_
_space_group_symop_operation_xyz
x,y,z
-x,y,-z
-x,-y,-z
x,-y,z
1/2+x,1/2+y,z
1/2-x,1/2+y,-z
1/2-x,1/2-y,-z
1/2+x,1/2-y,z
loop_
_atom_site_type_symbol
_atom_site_label
_atom_site_fract_x
_atom_site_fract_y
_atom_site_fract_z
Si Si1 0.480274 0.581558 0.218722
Si Si2 0.422966 0.583536 0.611325
Si Si3 0.145954 0.663100 0.697958
Si Si4 0.882450 0.697615 0.870547
Si Si5 0.379282 0.651472 0.966984
Si Si6 0.244015 0.188780 0.727188
Si Si7 0.968448 0.581049 0.611813
O O1 0.429807 0.500000 0.213079
O O2 0.484930 0.593055 0.325958
O O3 0.619498 0.598278 0.122407
O O4 0.384408 0.642658 0.200855
O O5 0.500000 0.618007 0.500000
O O6 0.391903 0.500000 0.597902
O O7 0.281082 0.618987 0.681019
O O8 0.192378 0.747574 0.674308
O O9 0.087176 0.629381 0.622404
O O10 0.028478 0.657774 0.810607
O O11 0.903578 0.764543 0.931718
O O12 0.824550 0.724330 0.788890
O O13 0.771031 0.642235 0.945102
O O14 0.500000 0.627598 0.000000
O O15 0.331718 0.128017 0.650668
O O16 0.952589 0.500000 0.662797
O O17 0.000000 0.565931 0.500000
#
# Coordination Sequence:
#
# PCOD8108663 Si02
#       7
#     8   8   8   8   8   8   8
#     4  11  23  40  62  90 129 168 213 266 318 391
#     4  10  24  44  66  90 124 173 217 262 326 392
#     4  11  22  39  67  92 127 161 222 275 318 384
#     4  10  21  38  63  93 128 165 206 268 327 380
#     4  11  20  38  63  93 127 168 213 254 325 389
#     4  11  22  40  61  94 126 169 212 270 321 380
#     4  10  24  42  61  89 129 173 214 267 337 396
#
# _framework density 21.134681
#
# number of rings (size 3 to 8) (size 9 to 14) (size 15 to 20)
#    0.000    1.429    2.857    1.714    4.000    2.571 
#    0.000    1.429    0.000    1.714    0.000    0.000 
#    0.000    0.000    0.000    0.000    0.000    0.000 
#
# Total GULP energy -346941.077707 kJ/mol
# GULP energy per Si atom -12390.752775 kJ/mol
# Density = 2.108658 g / cm^3
# Si number density = 21.134681 Si / 1000 Ang^3
#
#
#
# Elastic Constant Matrix: (Units=GPa)
#
#
# Indices 1 2 3 4 5 6 
#
# 1 78.6303 44.6339 31.6844 0.0000 -21.3363 0.0000
# 2 44.6339 105.5121 33.9746 0.0000 -3.8368 0.0000
# 3 31.6844 33.9746 104.4846 0.0000 -9.8500 0.0000
# 4 0.0000 0.0000 0.0000 31.6364 0.0000 3.4584
# 5 -21.3363 -3.8368 -9.8500 0.0000 31.5527 0.0000
# 6 0.0000 0.0000 0.0000 3.4584 0.0000 7.3671
#
#
#
# Elastic Compliance Matrix: (Units=1/GPa)
#
#
# Indices 1 2 3 4 5 6 
#
# 1 0.021823 -0.007844 -0.002850 0.000000 0.012913 0.000000
# 2 -0.007844 0.013407 -0.002398 0.000000 -0.004423 0.000000
# 3 -0.002850 -0.002398 0.011339 0.000000 0.001321 0.000000
# 4 0.000000 0.000000 0.000000 0.033319 0.000000 -0.015641
# 5 0.012913 -0.004423 0.001321 0.000000 0.040300 0.000000
# 6 0.000000 0.000000 0.000000 -0.015641 0.000000 0.143081
#
#
# Mechanical properties :
#
#
# Convention : Reuss Voigt Hill
#
# Bulk Modulus (GPa) = 49.05375 56.57921 52.81648
# Shear Modulus (GPa) = 16.87779 26.00019 21.43899
#
# Velocity S-wave (km/s) = 2.82899 3.51125 3.18842
# Velocity P-wave (km/s) = 5.82506 6.57779 6.21284
#
# Compressibility (1/GPa) = 0.02038580
#
# Stress axis : x y z
#
# Youngs Moduli (GPa) = 45.82349 74.58690 88.19029
#
# Poissons Ratio (x) = 0.58509 0.25130
# Poissons Ratio (y) = 0.35946 0.21145
# Poissons Ratio (z) = 0.13058 0.17884
#
# Static dielectric constant tensor:
#      x y z
#    x 3.932950 0.000000 -0.293050 
#    y 0.000000 3.819600 0.000000 
#    z -0.293050 0.000000 4.013220 
# 
# 
# High freq. dielectric constant tensor:
#      x y z
#    x 1.823920 0.000000 -0.011350 
#    y 0.000000 1.815940 0.000000 
#    z -0.011350 0.000000 1.832880 
# 
# From -- ./inp_files/206562.got.cif
#   From: 2010.06.25/outbox.cif.g09.slc.cpg/sg12_104_cif.got.tgz:206562.got - 2010.06.28 00:19:55.
