data_PCOD8108394
_publ_section_title
;
Structure prediction by ZEFSAII (Michael W. Deem and Ramdas Pophale) SiO2 
 PCOD8108394
Probable space group: C 2/M
;
_chemical_formula_sum "Si O2"
_cell_formula_units_Z 48
_cell_length_a 7.994262
_cell_length_b 27.639549
_cell_length_c 14.254491
_cell_angle_alpha 90.000000
_cell_angle_beta 40.080598
_cell_angle_gamma 90.000000
_cell_volume 2027.942191
_symmetry_space_group_name_H-M "C 2/M"
_symmetry_group_IT_number 12
_symmetry_cell_setting 'monoclinic'
loop_
_space_group_symop_operation_xyz
x,y,z
-x,y,-z
-x,-y,-z
x,-y,z
1/2+x,1/2+y,z
1/2-x,1/2+y,-z
1/2-x,1/2-y,-z
1/2+x,1/2-y,z
loop_
_atom_site_type_symbol
_atom_site_label
_atom_site_fract_x
_atom_site_fract_y
_atom_site_fract_z
Si Si1 0.932569 0.105571 0.919039
Si Si2 0.943710 0.555227 0.177174
Si Si3 0.474695 0.789756 0.405917
Si Si4 0.877345 0.944485 0.334192
Si Si5 0.479230 0.288320 0.903618
Si Si6 0.214414 0.610719 0.580356
O O1 0.143383 0.078841 0.761132
O O2 0.914799 0.160190 0.883527
O O3 0.654853 0.080849 0.020540
O O4 0.000000 0.100120 0.000000
O O5 0.025285 0.500000 0.156328
O O6 0.669793 0.559953 0.244755
O O7 0.953439 0.579804 0.275216
O O8 0.500000 0.808785 0.500000
O O9 0.250000 0.750000 0.500000
O O10 0.408455 0.835640 0.370027
O O11 0.749454 0.766494 0.253045
O O12 0.700645 0.915516 0.484907
O O13 0.784115 0.000000 0.371062
O O14 0.500000 0.304723 0.000000
O O15 0.250000 0.250000 0.000000
O O16 0.500000 0.615941 0.500000
#
# Coordination Sequence:
#
# PCOD8108394 Si02
#       6
#     8   8   8   8   8   8
#     4  11  23  39  59  87 124 162 204 257 315 373
#     4  10  21  38  61  89 122 163 211 258 305 368
#     4  12  25  43  67  95 128 166 214 266 319 383
#     4  10  21  38  61  90 123 163 211 257 305 369
#     4  11  25  44  65  91 126 164 208 260 318 380
#     4  10  21  39  64  92 125 164 208 262 319 371
#
# _framework density 23.669314
#
# number of rings (size 3 to 8) (size 9 to 14) (size 15 to 20)
#    0.000    1.333    0.000    6.000    0.000    8.667 
#    0.000    0.000    0.000    4.000    0.000    0.000 
#    0.000    0.000    0.000    0.000    0.000    0.000 
#
# Total GULP energy -297568.753658 kJ/mol
# GULP energy per Si atom -12398.698069 kJ/mol
# Density = 2.361544 g / cm^3
# Si number density = 23.669314 Si / 1000 Ang^3
#
#
#
# Elastic Constant Matrix: (Units=GPa)
#
#
# Indices 1 2 3 4 5 6 
#
# 1 41.5035 39.0829 26.0012 0.0000 17.4731 0.0000
# 2 39.0829 171.7962 57.4045 0.0000 -11.2040 0.0000
# 3 26.0012 57.4045 166.2307 0.0000 -4.6890 0.0000
# 4 0.0000 0.0000 0.0000 37.3041 0.0000 5.0042
# 5 17.4731 -11.2040 -4.6890 0.0000 43.2504 0.0000
# 6 0.0000 0.0000 0.0000 5.0042 0.0000 52.2530
#
#
#
# Elastic Compliance Matrix: (Units=1/GPa)
#
#
# Indices 1 2 3 4 5 6 
#
# 1 0.045526 -0.010376 -0.004145 0.000000 -0.021530 0.000000
# 2 -0.010376 0.009039 -0.001318 0.000000 0.006390 0.000000
# 3 -0.004145 -0.001318 0.007179 0.000000 0.002112 0.000000
# 4 0.000000 0.000000 0.000000 0.027156 0.000000 -0.002601
# 5 -0.021530 0.006390 0.002112 0.000000 0.033704 0.000000
# 6 0.000000 0.000000 0.000000 -0.002601 0.000000 0.019387
#
#
# Mechanical properties :
#
#
# Convention : Reuss Voigt Hill
#
# Bulk Modulus (GPa) = 33.26119 69.38974 51.32546
# Shear Modulus (GPa) = 27.21980 43.69760 35.45870
#
# Velocity S-wave (km/s) = 3.39485 4.30137 3.87471
# Velocity P-wave (km/s) = 5.42675 7.35180 6.46137
#
# Compressibility (1/GPa) = 0.03006507
#
# Stress axis : x y z
#
# Youngs Moduli (GPa) = 21.96533 110.63733 139.29839
#
# Poissons Ratio (x) = 1.14798 0.57742
# Poissons Ratio (y) = 0.22791 0.18360
# Poissons Ratio (z) = 0.09105 0.14582
#
# Static dielectric constant tensor:
#      x y z
#    x 4.080810 0.000000 0.083220 
#    y 0.000000 4.289800 0.000000 
#    z 0.083220 0.000000 4.528760 
# 
# 
# High freq. dielectric constant tensor:
#      x y z
#    x 1.935810 0.000000 -0.001160 
#    y 0.000000 1.940230 0.000000 
#    z -0.001160 0.000000 1.958930 
# 
# From -- ./inp_files/200115.got.cif
#   From: 2010.06.25/outbox.cif.g09.slc.cpg/sg12_101_cif.got.tgz:200115.got - 2010.06.28 00:19:55.
