data_PCOD8108600
_publ_section_title
;
Structure prediction by ZEFSAII (Michael W. Deem and Ramdas Pophale) SiO2 
 PCOD8108600
Probable space group: C 2/M
;
_chemical_formula_sum "Si O2"
_cell_formula_units_Z 40
_cell_length_a 23.677394
_cell_length_b 15.591258
_cell_length_c 8.336849
_cell_angle_alpha 90.000000
_cell_angle_beta 147.183947
_cell_angle_gamma 90.000000
_cell_volume 1667.904438
_symmetry_space_group_name_H-M "C 2/M"
_symmetry_group_IT_number 12
_symmetry_cell_setting 'monoclinic'
loop_
_space_group_symop_operation_xyz
x,y,z
-x,y,-z
-x,-y,-z
x,-y,z
1/2+x,1/2+y,z
1/2-x,1/2+y,-z
1/2-x,1/2-y,-z
1/2+x,1/2-y,z
loop_
_atom_site_type_symbol
_atom_site_label
_atom_site_fract_x
_atom_site_fract_y
_atom_site_fract_z
Si Si1 0.497241 0.310181 0.176585
Si Si2 0.107537 0.405078 0.212451
Si Si3 0.801743 0.103322 0.199717
Si Si4 0.412123 0.149343 0.172579
Si Si5 0.690889 0.400947 0.149830
O O1 0.607180 0.352632 0.481764
O O2 0.457548 0.237427 0.206459
O O3 0.500000 0.277602 0.000000
O O4 0.409343 0.382677 0.981685
O O5 0.101715 0.500000 0.273463
O O6 0.205476 0.354924 0.526979
O O7 0.116609 0.412888 0.042538
O O8 0.000000 0.355601 0.000000
O O9 0.794460 0.000000 0.212199
O O10 0.695284 0.154554 0.984781
O O11 0.827034 0.125165 0.076081
O O12 0.500000 0.109928 0.500000
O O13 0.713655 0.500000 0.220967
#
# Coordination Sequence:
#
# PCOD8108600 Si02
#       5
#     8   8   8   8   8
#     4  12  27  44  67  98 136 179 225 276 335 397
#     4  10  21  38  62  94 132 174 221 273 330 395
#     4  11  25  46  72 101 134 176 225 275 332 400
#     4  12  26  42  66  98 136 176 223 277 335 394
#     4  10  22  43  70  98 132 175 224 277 333 398
#
# _framework density 23.982189000000002
#
# number of rings (size 3 to 8) (size 9 to 14) (size 15 to 20)
#    0.000    1.000    0.000    6.000    0.000   16.000 
#    0.000    0.000    0.000    0.000    0.000    0.000 
#    0.000    0.000    0.000    0.000    0.000    0.000 
#
# Total GULP energy -247841.905372 kJ/mol
# GULP energy per Si atom -12392.095269 kJ/mol
# Density = 2.392760 g / cm^3
# Si number density = 23.982189 Si / 1000 Ang^3
#
#
#
# Elastic Constant Matrix: (Units=GPa)
#
#
# Indices 1 2 3 4 5 6 
#
# 1 105.9560 35.1497 41.1524 0.0000 17.5646 0.0000
# 2 35.1497 66.2526 38.5511 0.0000 -2.0014 0.0000
# 3 41.1524 38.5511 203.5853 0.0000 18.5645 0.0000
# 4 0.0000 0.0000 0.0000 16.4637 0.0000 2.6474
# 5 17.5646 -2.0014 18.5645 0.0000 51.9374 0.0000
# 6 0.0000 0.0000 0.0000 2.6474 0.0000 34.7886
#
#
#
# Elastic Compliance Matrix: (Units=1/GPa)
#
#
# Indices 1 2 3 4 5 6 
#
# 1 0.012570 -0.006221 -0.000986 0.000000 -0.004139 0.000000
# 2 -0.006221 0.020217 -0.002929 0.000000 0.003930 0.000000
# 3 -0.000986 -0.002929 0.005836 0.000000 -0.001866 0.000000
# 4 0.000000 0.000000 0.000000 0.061492 0.000000 -0.004680
# 5 -0.004139 0.003930 -0.001866 0.000000 0.021472 0.000000
# 6 0.000000 0.000000 0.000000 -0.004680 0.000000 0.029101
#
#
# Mechanical properties :
#
#
# Convention : Reuss Voigt Hill
#
# Bulk Modulus (GPa) = 54.48832 67.27783 60.88307
# Shear Modulus (GPa) = 28.23625 38.03399 33.13512
#
# Velocity S-wave (km/s) = 3.43503 3.98669 3.72109
# Velocity P-wave (km/s) = 6.20501 7.02180 6.62601
#
# Compressibility (1/GPa) = 0.01835256
#
# Stress axis : x y z
#
# Youngs Moduli (GPa) = 79.55224 49.46273 171.35055
#
# Poissons Ratio (x) = 0.30769 0.16889
# Poissons Ratio (y) = 0.49486 0.50194
# Poissons Ratio (z) = 0.07841 0.14489
#
# Static dielectric constant tensor:
#      x y z
#    x 4.479620 0.000000 -0.025820 
#    y 0.000000 4.029890 0.000000 
#    z -0.025820 0.000000 4.604160 
# 
# 
# High freq. dielectric constant tensor:
#      x y z
#    x 1.959430 0.000000 0.003890 
#    y 0.000000 1.942400 0.000000 
#    z 0.003890 0.000000 1.972000 
# 
# From -- ./inp_files/98318.got.cif
#   From: 2010.06.25/outbox.cif.g09.slc.cpg/sg12_50_cif.got.tgz:98318.got - 2010.06.28 00:19:55.
