data_PCOD8108790
_publ_section_title
;
Structure prediction by ZEFSAII (Michael W. Deem and Ramdas Pophale) SiO2 
 PCOD8108790
Probable space group: C 2/M
;
_chemical_formula_sum "Si O2"
_cell_formula_units_Z 48
_cell_length_a 8.242431
_cell_length_b 29.173753
_cell_length_c 13.765813
_cell_angle_alpha 90.000000
_cell_angle_beta 44.906731
_cell_angle_gamma 90.000000
_cell_volume 2336.825972
_symmetry_space_group_name_H-M "C 2/M"
_symmetry_group_IT_number 12
_symmetry_cell_setting 'monoclinic'
loop_
_space_group_symop_operation_xyz
x,y,z
-x,y,-z
-x,-y,-z
x,-y,z
1/2+x,1/2+y,z
1/2-x,1/2+y,-z
1/2-x,1/2-y,-z
1/2+x,1/2-y,z
loop_
_atom_site_type_symbol
_atom_site_label
_atom_site_fract_x
_atom_site_fract_y
_atom_site_fract_z
Si Si1 0.750100 0.116597 0.859595
Si Si2 0.964897 0.199627 0.854251
Si Si3 0.497930 0.551584 0.895204
Si Si4 0.873978 0.702393 0.824408
Si Si5 0.250385 0.375713 0.641402
Si Si6 0.489729 0.052085 0.394264
O O1 0.758284 0.100796 0.744230
O O2 0.932545 0.157983 0.793276
O O3 0.821480 0.074607 0.896914
O O4 0.500000 0.133217 0.000000
O O5 0.208621 0.195454 0.803122
O O6 0.961671 0.245483 0.791452
O O7 0.757573 0.194355 0.018888
O O8 0.406256 0.500000 0.945940
O O9 0.753029 0.553884 0.750179
O O10 0.500000 0.576370 0.000000
O O11 0.085859 0.668342 0.719525
O O12 0.500000 0.358863 0.500000
O O13 0.166021 0.414195 0.602488
O O14 0.500000 0.069663 0.500000
O O15 0.391214 0.000000 0.429439
#
# Coordination Sequence:
#
# PCOD8108790 Si02
#       6
#     8   8   8   8   8   8
#     4  12  23  37  62  92 126 167 217 259 321 388
#     4  10  21  38  66  89 119 163 220 263 305 387
#     4  10  22  39  61  91 126 165 212 268 322 373
#     4  10  21  39  63  91 122 164 213 267 317 370
#     4  12  25  40  61  98 134 164 209 270 328 379
#     4  10  22  43  67  90 124 176 224 256 312 391
#
# _framework density 20.540683999999999
#
# number of rings (size 3 to 8) (size 9 to 14) (size 15 to 20)
#    0.000    1.333    1.667    4.000    4.667    1.333 
#    0.000    3.333    0.000    1.000    0.000    0.000 
#    0.000    0.000    0.000    0.000    0.000    0.000 
#
# Total GULP energy -297638.350215 kJ/mol
# GULP energy per Si atom -12401.597926 kJ/mol
# Density = 2.049393 g / cm^3
# Si number density = 20.540684 Si / 1000 Ang^3
#
#
#
# Elastic Constant Matrix: (Units=GPa)
#
#
# Indices 1 2 3 4 5 6 
#
# 1 157.3436 80.0396 65.6316 0.0000 12.6585 0.0000
# 2 80.0396 120.7755 37.0417 0.0000 4.8217 0.0000
# 3 65.6316 37.0417 100.7164 0.0000 14.0952 0.0000
# 4 0.0000 0.0000 0.0000 27.3253 0.0000 4.3489
# 5 12.6585 4.8217 14.0952 0.0000 37.5507 0.0000
# 6 0.0000 0.0000 0.0000 4.3489 0.0000 34.4830
#
#
#
# Elastic Compliance Matrix: (Units=1/GPa)
#
#
# Indices 1 2 3 4 5 6 
#
# 1 0.011760 -0.006139 -0.005236 0.000000 -0.001211 0.000000
# 2 -0.006139 0.012538 -0.000712 0.000000 0.000727 0.000000
# 3 -0.005236 -0.000712 0.014083 0.000000 -0.003430 0.000000
# 4 0.000000 0.000000 0.000000 0.037346 0.000000 -0.004710
# 5 -0.001211 0.000727 -0.003430 0.000000 0.028233 0.000000
# 6 0.000000 0.000000 0.000000 -0.004710 0.000000 0.029594
#
#
# Mechanical properties :
#
#
# Convention : Reuss Voigt Hill
#
# Bulk Modulus (GPa) = 70.39528 82.69570 76.54549
# Shear Modulus (GPa) = 30.77615 32.94664 31.86139
#
# Velocity S-wave (km/s) = 3.87499 4.00930 3.94272
# Velocity P-wave (km/s) = 7.37335 7.86000 7.62056
#
# Compressibility (1/GPa) = 0.01420550
#
# Stress axis : x y z
#
# Youngs Moduli (GPa) = 85.03397 79.75838 71.00826
#
# Poissons Ratio (x) = 0.48966 0.37180
# Poissons Ratio (y) = 0.52205 0.05058
# Poissons Ratio (z) = 0.44524 0.05681
#
# Static dielectric constant tensor:
#      x y z
#    x 3.881120 0.000000 0.083940 
#    y 0.000000 3.807340 0.000000 
#    z 0.083940 0.000000 3.624840 
# 
# 
# High freq. dielectric constant tensor:
#      x y z
#    x 1.820760 0.000000 0.003890 
#    y 0.000000 1.804640 0.000000 
#    z 0.003890 0.000000 1.789690 
# 
# From -- ./inp_files/200150.got.cif
#   From: 2010.06.25/outbox.cif.g09.slc.cpg/sg12_101_cif.got.tgz:200150.got - 2010.06.28 00:19:55.
