data_PCOD8108969
_publ_section_title
;
Structure prediction by ZEFSAII (Michael W. Deem and Ramdas Pophale) SiO2 
 PCOD8108969
Probable space group: C 2/M
;
_chemical_formula_sum "Si O2"
_cell_formula_units_Z 56
_cell_length_a 10.184825
_cell_length_b 14.683067
_cell_length_c 29.693446
_cell_angle_alpha 90.000000
_cell_angle_beta 139.184423
_cell_angle_gamma 90.000000
_cell_volume 2902.421802
_symmetry_space_group_name_H-M "C 2/M"
_symmetry_group_IT_number 12
_symmetry_cell_setting 'monoclinic'
loop_
_space_group_symop_operation_xyz
x,y,z
-x,y,-z
-x,-y,-z
x,-y,z
1/2+x,1/2+y,z
1/2-x,1/2+y,-z
1/2-x,1/2-y,-z
1/2+x,1/2-y,z
loop_
_atom_site_type_symbol
_atom_site_label
_atom_site_fract_x
_atom_site_fract_y
_atom_site_fract_z
Si Si1 0.180210 0.257038 0.749488
Si Si2 0.767067 0.758200 0.341314
Si Si3 0.140127 0.599790 0.993352
Si Si4 0.550198 0.605172 0.462690
Si Si5 0.713405 0.107163 0.155104
Si Si6 0.990113 0.892654 0.142074
Si Si7 0.000174 0.605023 0.551581
O O1 0.248127 0.248330 0.715938
O O2 0.226119 0.160336 0.784426
O O3 0.302503 0.337827 0.805643
O O4 0.947280 0.283124 0.693038
O O5 0.923357 0.836876 0.394521
O O6 0.835370 0.660946 0.378312
O O7 0.198613 0.500000 0.990726
O O8 0.348604 0.646126 0.064108
O O9 0.000000 0.588555 0.000000
O O10 0.005210 0.645964 0.919017
O O11 0.500000 0.636748 0.500000
O O12 0.495936 0.500000 0.440476
O O13 0.783614 0.624602 0.516191
O O14 0.882055 0.125678 0.161468
O O15 0.700053 0.000000 0.162677
O O16 0.033099 0.000000 0.147052
O O17 0.063154 0.500000 0.572033
O O18 0.000000 0.637273 0.500000
#
# Coordination Sequence:
#
# PCOD8108969 Si02
#       7
#     8   8   8   8   8   8   8
#     4  12  24  36  54  86 120 159 190 224 281 354
#     4  12  24  37  56  83 120 151 184 226 285 341
#     4   7  12  27  56  83 102 141 198 247 284 320
#     4  10  21  39  61  82 106 140 185 235 283 329
#     4   9  18  36  58  81 113 152 197 243 283 333
#     4   9  18  36  58  81 113 152 197 242 283 336
#     4  10  21  39  63  86 106 140 192 240 278 324
#
# _framework density 19.294232000000001
#
# number of rings (size 3 to 8) (size 9 to 14) (size 15 to 20)
#    0.000    2.143    1.429    4.286    0.000    2.857 
#    0.000    0.000    0.000    0.000    0.000    3.000 
#    0.000    0.000    0.000    0.000    0.000    0.000 
#
# Total GULP energy -347081.167936 kJ/mol
# GULP energy per Si atom -12395.755998 kJ/mol
# Density = 1.925032 g / cm^3
# Si number density = 19.294232 Si / 1000 Ang^3
#
#
#
# Elastic Constant Matrix: (Units=GPa)
#
#
# Indices 1 2 3 4 5 6 
#
# 1 66.1903 15.2337 17.7653 0.0000 5.0746 0.0000
# 2 15.2337 75.0454 43.4929 0.0000 8.6979 0.0000
# 3 17.7653 43.4929 100.6817 0.0000 11.3637 0.0002
# 4 0.0000 0.0000 0.0000 28.7138 0.0000 -16.3112
# 5 5.0746 8.6979 11.3637 0.0000 28.5402 0.0001
# 6 0.0000 0.0000 0.0002 -16.3112 0.0001 -68.5719
#
#
#
# Elastic Compliance Matrix: (Units=1/GPa)
#
#
# Indices 1 2 3 4 5 6 
#
# 1 0.016182 -0.002071 -0.001787 0.000000 -0.001534 0.000000
# 2 -0.002071 0.018209 -0.007241 0.000000 -0.002298 0.000000
# 3 -0.001787 -0.007241 0.013707 0.000000 -0.002933 0.000000
# 4 0.000000 0.000000 0.000000 0.030681 0.000000 -0.007298
# 5 -0.001534 -0.002298 -0.002933 0.000000 0.037179 0.000000
# 6 0.000000 0.000000 0.000000 -0.007298 0.000000 -0.012847
#
#
# Mechanical properties :
#
#
# Convention : Reuss Voigt Hill
#
# Bulk Modulus (GPa) = 38.61274 43.87791 41.24532
# Shear Modulus (GPa) = 37.32966 8.76480 23.04723
#
# Velocity S-wave (km/s) = 4.40336 2.13367 3.45992
# Velocity P-wave (km/s) = 6.77560 5.37224 6.11432
#
# Compressibility (1/GPa) = 0.02589819
#
# Stress axis : x y z
#
# Youngs Moduli (GPa) = 61.79712 54.91921 72.95686
#
# Poissons Ratio (x) = 0.11374 0.13041
# Poissons Ratio (y) = 0.12798 0.52828
# Poissons Ratio (z) = 0.11046 0.39767
#
# Static dielectric constant tensor:
#      x y z
#    x 3.332010 0.000000 0.056580 
#    y 0.000000 3.375600 0.000000 
#    z 0.056580 0.000000 3.761120 
# 
# 
# High freq. dielectric constant tensor:
#      x y z
#    x 1.730390 0.000000 0.003910 
#    y 0.000000 1.743010 0.000000 
#    z 0.003910 0.000000 1.767150 
# 
# From -- ./inp_files/356733.got.cif
#   From: 2010.06.25/outbox.cif.g09.slc.cpg/sg12_179_cif.got.tgz:356733.got - 2010.06.28 00:19:55.
