data_PCOD8108452
_publ_section_title
;
Structure prediction by ZEFSAII (Michael W. Deem and Ramdas Pophale) SiO2 
 PCOD8108452
Probable space group: C 2/M
;
_chemical_formula_sum "Si O2"
_cell_formula_units_Z 56
_cell_length_a 24.827196
_cell_length_b 8.562939
_cell_length_c 12.336312
_cell_angle_alpha 90.000000
_cell_angle_beta 103.622411
_cell_angle_gamma 90.000000
_cell_volume 2548.845877
_symmetry_space_group_name_H-M "C 2/M"
_symmetry_group_IT_number 12
_symmetry_cell_setting 'monoclinic'
loop_
_space_group_symop_operation_xyz
x,y,z
-x,y,-z
-x,-y,-z
x,-y,z
1/2+x,1/2+y,z
1/2-x,1/2+y,-z
1/2-x,1/2-y,-z
1/2+x,1/2-y,z
loop_
_atom_site_type_symbol
_atom_site_label
_atom_site_fract_x
_atom_site_fract_y
_atom_site_fract_z
Si Si1 0.773668 0.819596 0.807885
Si Si2 0.054040 0.817899 0.264110
Si Si3 0.648904 0.183506 0.732683
Si Si4 0.931704 0.818473 0.133737
Si Si5 0.615977 0.817619 0.095672
Si Si6 0.208201 0.327088 0.400465
Si Si7 0.900144 0.672398 0.513352
O O1 0.711054 0.749217 0.784160
O O2 0.819618 0.727531 0.901186
O O3 0.796477 0.795994 0.698158
O O4 0.774839 0.000000 0.842609
O O5 0.097899 0.724311 0.210050
O O6 0.057464 0.775965 0.394701
O O7 0.992929 0.769326 0.197578
O O8 0.065443 0.000000 0.253238
O O9 0.612127 0.219154 0.818784
O O10 0.619190 0.252847 0.609643
O O11 0.655596 0.000000 0.715835
O O12 0.920777 0.000000 0.149309
O O13 0.924033 0.776820 0.004162
O O14 0.608692 0.000000 0.072729
O O15 0.227559 0.500000 0.369250
O O16 0.250000 0.250000 0.500000
O O17 0.151357 0.346373 0.433671
O O18 0.926075 0.500000 0.503287
#
# Coordination Sequence:
#
# PCOD8108452 Si02
#       7
#     8   8   8   8   8   8   8
#     4  11  22  39  63  93 129 164 204 257 313 371
#     4  11  24  42  66  95 126 161 207 262 317 368
#     4  10  23  43  64  91 128 170 210 250 303 372
#     4  11  26  46  65  89 123 166 214 261 311 369
#     4  12  25  42  67  97 124 159 209 260 317 376
#     4  11  20  33  56  90 128 166 206 253 311 371
#     4  10  21  38  61  93 129 164 208 254 307 371
#
# _framework density 21.970728000000001
#
# number of rings (size 3 to 8) (size 9 to 14) (size 15 to 20)
#    0.000    1.143    2.857    3.429    0.000    7.429 
#    0.000    2.857    0.000    0.000    0.000    0.000 
#    0.000    0.000    0.000    0.000    0.000    0.000 
#
# Total GULP energy -347091.224160 kJ/mol
# GULP energy per Si atom -12396.115149 kJ/mol
# Density = 2.192072 g / cm^3
# Si number density = 21.970728 Si / 1000 Ang^3
#
#
#
# Elastic Constant Matrix: (Units=GPa)
#
#
# Indices 1 2 3 4 5 6 
#
# 1 87.4591 24.3718 27.6775 0.0000 19.0974 0.0000
# 2 24.3718 48.1087 18.0950 0.0000 11.5758 0.0000
# 3 27.6775 18.0950 74.7637 0.0000 24.4174 0.0000
# 4 0.0000 0.0000 0.0000 32.2727 0.0000 -0.3619
# 5 19.0974 11.5758 24.4174 0.0000 43.6183 0.0000
# 6 0.0000 0.0000 0.0000 -0.3619 0.0000 23.4378
#
#
#
# Elastic Compliance Matrix: (Units=1/GPa)
#
#
# Indices 1 2 3 4 5 6 
#
# 1 0.014632 -0.005492 -0.003024 0.000000 -0.003256 0.000000
# 2 -0.005492 0.025410 -0.003304 0.000000 -0.002490 0.000000
# 3 -0.003024 -0.003304 0.017837 0.000000 -0.007784 0.000000
# 4 0.000000 0.000000 0.000000 0.030991 0.000000 0.000479
# 5 -0.003256 -0.002490 -0.007784 0.000000 0.029370 0.000000
# 6 0.000000 0.000000 0.000000 0.000479 0.000000 0.042674
#
#
# Mechanical properties :
#
#
# Convention : Reuss Voigt Hill
#
# Bulk Modulus (GPa) = 29.20599 38.95779 34.08189
# Shear Modulus (GPa) = 25.51449 29.21158 27.36304
#
# Velocity S-wave (km/s) = 3.41147 3.65028 3.53290
# Velocity P-wave (km/s) = 5.37025 5.96123 5.67344
#
# Compressibility (1/GPa) = 0.03423955
#
# Stress axis : x y z
#
# Youngs Moduli (GPa) = 68.34176 39.35448 56.06346
#
# Poissons Ratio (x) = 0.21612 0.16955
# Poissons Ratio (y) = 0.37531 0.18522
# Poissons Ratio (z) = 0.20669 0.13002
#
# Static dielectric constant tensor:
#      x y z
#    x 3.868900 0.000000 0.298540 
#    y 0.000000 3.983730 0.000000 
#    z 0.298540 0.000000 4.119970 
# 
# 
# High freq. dielectric constant tensor:
#      x y z
#    x 1.858840 0.000000 0.021500 
#    y 0.000000 1.853460 0.000000 
#    z 0.021500 0.000000 1.873070 
# 
# From -- ./inp_files/181085.got.cif
#   From: 2010.06.25/outbox.cif.g09.slc.cpg/sg12_91_cif.got.tgz:181085.got - 2010.06.28 00:19:55.
