data_PCOD8108800
_publ_section_title
;
Structure prediction by ZEFSAII (Michael W. Deem and Ramdas Pophale) SiO2 
 PCOD8108800
Probable space group: C 2/M
;
_chemical_formula_sum "Si O2"
_cell_formula_units_Z 52
_cell_length_a 17.689774
_cell_length_b 13.878296
_cell_length_c 11.921137
_cell_angle_alpha 90.000000
_cell_angle_beta 59.781074
_cell_angle_gamma 90.000000
_cell_volume 2528.974413
_symmetry_space_group_name_H-M "C 2/M"
_symmetry_group_IT_number 12
_symmetry_cell_setting 'monoclinic'
loop_
_space_group_symop_operation_xyz
x,y,z
-x,y,-z
-x,-y,-z
x,-y,z
1/2+x,1/2+y,z
1/2-x,1/2+y,-z
1/2-x,1/2-y,-z
1/2+x,1/2-y,z
loop_
_atom_site_type_symbol
_atom_site_label
_atom_site_fract_x
_atom_site_fract_y
_atom_site_fract_z
Si Si1 0.878098 0.233046 0.494065
Si Si2 0.923942 0.753220 0.711417
Si Si3 0.864665 0.109052 0.158522
Si Si4 0.810969 0.890642 0.946898
Si Si5 0.251375 0.390599 0.459391
Si Si6 0.389005 0.112622 0.916050
Si Si7 0.000000 0.258621 0.000000
O O1 0.874751 0.244040 0.630155
O O2 0.836588 0.327544 0.466640
O O3 0.820888 0.140277 0.502592
O O4 0.975424 0.217805 0.376971
O O5 0.880443 0.826654 0.830321
O O6 0.915372 0.646354 0.770758
O O7 0.791813 0.125331 0.306643
O O8 0.902998 0.000000 0.138587
O O9 0.819366 0.127026 0.073044
O O10 0.941000 0.187552 0.120829
O O11 0.832282 0.000000 0.899008
O O12 0.712574 0.864052 0.984766
O O13 0.224417 0.500000 0.502726
O O14 0.410007 0.000000 0.911073
O O15 0.443339 0.172508 0.965020
#
# Coordination Sequence:
#
# PCOD8108800 Si02
#       7
#     8   8   8   8   8   8   4
#     4  10  24  40  63  91 117 166 218 244 303 362
#     4  11  22  42  64  87 123 163 208 262 296 359
#     4  10  21  38  66  98 123 158 205 255 312 364
#     4  10  22  40  64  93 121 159 207 254 314 372
#     4  10  22  42  63  90 127 161 202 257 305 362
#     4  11  24  40  61  93 127 164 203 248 313 374
#     4  12  22  36  62  94 136 160 188 250 312 376
#
# _framework density 20.561693999999999
#
# number of rings (size 3 to 8) (size 9 to 14) (size 15 to 20)
#    0.000    1.538    1.538    2.769    2.154    3.692 
#    0.000    3.077    0.000    0.000    0.000    0.000 
#    0.000    0.000    0.000    0.000    0.000    0.000 
#
# Total GULP energy -322481.391102 kJ/mol
# GULP energy per Si atom -12403.130427 kJ/mol
# Density = 2.051490 g / cm^3
# Si number density = 20.561694 Si / 1000 Ang^3
#
#
#
# Elastic Constant Matrix: (Units=GPa)
#
#
# Indices 1 2 3 4 5 6 
#
# 1 119.2891 53.2326 36.8376 0.0000 8.9007 0.0000
# 2 53.2326 103.3913 33.7284 0.0000 8.4275 0.0000
# 3 36.8376 33.7284 77.7034 0.0000 13.1928 0.0000
# 4 0.0000 0.0000 0.0000 21.1462 0.0000 0.8481
# 5 8.9007 8.4275 13.1928 0.0000 22.1965 0.0000
# 6 0.0000 0.0000 0.0000 0.8481 0.0000 33.3061
#
#
#
# Elastic Compliance Matrix: (Units=1/GPa)
#
#
# Indices 1 2 3 4 5 6 
#
# 1 0.011617 -0.004848 -0.003253 0.000000 -0.000884 0.000000
# 2 -0.004848 0.013337 -0.003294 0.000000 -0.001162 0.000000
# 3 -0.003253 -0.003294 0.017137 0.000000 -0.007631 0.000000
# 4 0.000000 0.000000 0.000000 0.047338 0.000000 -0.001205
# 5 -0.000884 -0.001162 -0.007631 0.000000 0.050383 0.000000
# 6 0.000000 0.000000 0.000000 -0.001205 0.000000 0.030055
#
#
# Mechanical properties :
#
#
# Convention : Reuss Voigt Hill
#
# Bulk Modulus (GPa) = 51.80790 60.88677 56.34734
# Shear Modulus (GPa) = 25.11426 27.10213 26.10820
#
# Velocity S-wave (km/s) = 3.49866 3.63449 3.56722
# Velocity P-wave (km/s) = 6.44762 6.87668 6.66560
#
# Compressibility (1/GPa) = 0.01930207
#
# Stress axis : x y z
#
# Youngs Moduli (GPa) = 86.08179 74.97843 58.35414
#
# Poissons Ratio (x) = 0.36349 0.18982
# Poissons Ratio (y) = 0.41731 0.19219
# Poissons Ratio (z) = 0.28001 0.24695
#
# Static dielectric constant tensor:
#      x y z
#    x 3.847050 0.000000 0.079060 
#    y 0.000000 3.921860 0.000000 
#    z 0.079060 0.000000 3.701830 
# 
# 
# High freq. dielectric constant tensor:
#      x y z
#    x 1.817560 0.000000 0.001650 
#    y 0.000000 1.812010 0.000000 
#    z 0.001650 0.000000 1.796820 
# 
# From -- ./inp_files/155915.got.cif
#   From: 2010.06.25/outbox.cif.g09.slc.cpg/sg12_78_cif.got.tgz:155915.got - 2010.06.28 00:19:55.
