data_PCOD8108835
_publ_section_title
;
Structure prediction by ZEFSAII (Michael W. Deem and Ramdas Pophale) SiO2 
 PCOD8108835
Probable space group: C 2/M
;
_chemical_formula_sum "Si O2"
_cell_formula_units_Z 64
_cell_length_a 14.396659
_cell_length_b 9.369157
_cell_length_c 31.123657
_cell_angle_alpha 90.000000
_cell_angle_beta 130.228193
_cell_angle_gamma 90.000000
_cell_volume 3205.158944
_symmetry_space_group_name_H-M "C 2/M"
_symmetry_group_IT_number 12
_symmetry_cell_setting 'monoclinic'
loop_
_space_group_symop_operation_xyz
x,y,z
-x,y,-z
-x,-y,-z
x,-y,z
1/2+x,1/2+y,z
1/2-x,1/2+y,-z
1/2-x,1/2-y,-z
1/2+x,1/2-y,z
loop_
_atom_site_type_symbol
_atom_site_label
_atom_site_fract_x
_atom_site_fract_y
_atom_site_fract_z
Si Si1 0.183504 0.670038 0.299272
Si Si2 0.047057 0.162865 0.759224
Si Si3 0.654696 0.165251 0.500370
Si Si4 0.534269 0.341654 0.106785
Si Si5 0.828002 0.838133 0.116714
Si Si6 0.125106 0.666225 0.589728
Si Si7 0.289651 0.161548 0.788926
Si Si8 0.826262 0.831991 0.987053
O O1 0.185645 0.500000 0.304311
O O2 0.303949 0.733230 0.356355
O O3 0.176945 0.722637 0.247826
O O4 0.065032 0.735640 0.286911
O O5 0.112727 0.218687 0.821848
O O6 0.144182 0.174092 0.749869
O O7 0.000759 0.000000 0.751211
O O8 0.750000 0.250000 0.500000
O O9 0.669480 0.204226 0.554924
O O10 0.516786 0.201405 0.445669
O O11 0.682044 0.000000 0.501082
O O12 0.589627 0.500000 0.122957
O O13 0.429687 0.327874 0.110901
O O14 0.644546 0.238447 0.151588
O O15 0.470103 0.309413 0.041301
O O16 0.712337 0.736843 0.070291
O O17 0.780406 0.000000 0.108223
O O18 0.150708 0.500000 0.606980
O O19 0.333828 0.000000 0.805459
O O20 0.794141 0.000000 0.978142
O O21 0.750000 0.750000 0.000000
#
# Coordination Sequence:
#
# PCOD8108835 Si02
#       8
#     8   8   8   8   8   8   8   8
#     4  11  23  38  57  86 116 145 190 242 280 318
#     4  10  21  39  58  77 107 148 187 227 282 345
#     4   9  19  37  62  91 122 156 195 231 273 324
#     4   9  17  31  51  75 101 135 177 221 274 339
#     4   9  17  31  52  75  99 135 180 221 272 339
#     4   9  20  39  60  84 118 161 195 223 272 337
#     4  10  22  37  55  79 107 141 184 232 281 331
#     4   9  17  28  46  74 103 133 172 219 274 337
#
# _framework density 19.967808000000002
#
# number of rings (size 3 to 8) (size 9 to 14) (size 15 to 20)
#    0.000    2.500    1.250    2.250    0.000    6.000 
#    0.000    5.625    0.000    3.750    0.000    0.000 
#    0.000    0.000    0.000    0.000    0.000    0.000 
#
# Total GULP energy -396700.728735 kJ/mol
# GULP energy per Si atom -12396.897773 kJ/mol
# Density = 1.992236 g / cm^3
# Si number density = 19.967808 Si / 1000 Ang^3
#
#
#
# Elastic Constant Matrix: (Units=GPa)
#
#
# Indices 1 2 3 4 5 6 
#
# 1 69.9524 36.7161 28.9178 0.0000 13.8881 0.0000
# 2 36.7161 98.3421 64.6427 0.0000 15.5909 0.0000
# 3 28.9178 64.6427 105.5472 0.0000 19.4748 0.0000
# 4 0.0000 0.0000 0.0000 39.8686 0.0000 5.8504
# 5 13.8881 15.5909 19.4748 0.0000 19.6060 0.0000
# 6 0.0000 0.0000 0.0000 5.8504 0.0000 28.4668
#
#
#
# Elastic Compliance Matrix: (Units=1/GPa)
#
#
# Indices 1 2 3 4 5 6 
#
# 1 0.019068 -0.005613 -0.000144 0.000000 -0.008900 0.000000
# 2 -0.005613 0.018920 -0.009804 0.000000 -0.001331 0.000000
# 3 -0.000144 -0.009804 0.017216 0.000000 -0.009203 0.000000
# 4 0.000000 0.000000 0.000000 0.025862 0.000000 -0.005315
# 5 -0.008900 -0.001331 -0.009203 0.000000 0.067509 0.000000
# 6 0.000000 0.000000 0.000000 -0.005315 0.000000 0.036221
#
#
# Mechanical properties :
#
#
# Convention : Reuss Voigt Hill
#
# Bulk Modulus (GPa) = 41.52589 59.37721 50.45155
# Shear Modulus (GPa) = 22.32674 27.15928 24.74301
#
# Velocity S-wave (km/s) = 3.34748 3.69203 3.52397
# Velocity P-wave (km/s) = 5.98184 6.92645 6.47141
#
# Compressibility (1/GPa) = 0.02408136
#
# Stress axis : x y z
#
# Youngs Moduli (GPa) = 52.44289 52.85505 58.08401
#
# Poissons Ratio (x) = 0.29670 0.00838
# Poissons Ratio (y) = 0.29438 0.56945
# Poissons Ratio (z) = 0.00756 0.51819
#
# Static dielectric constant tensor:
#      x y z
#    x 3.434370 0.000000 -0.013570 
#    y 0.000000 3.577610 0.000000 
#    z -0.013570 0.000000 3.772850 
# 
# 
# High freq. dielectric constant tensor:
#      x y z
#    x 1.769280 0.000000 0.003170 
#    y 0.000000 1.773350 0.000000 
#    z 0.003170 0.000000 1.778660 
# 
# From -- ./inp_files/375678.got.cif
#   From: 2010.06.25/outbox.cif.g09.slc.cpg/sg12_188_cif.got.tgz:375678.got - 2010.06.28 00:19:55.
