data_PCOD8108119
_publ_section_title
;
Structure prediction by ZEFSAII (Michael W. Deem and Ramdas Pophale) SiO2 
 PCOD8108119
Probable space group: C 2/M
;
_chemical_formula_sum "Si O2"
_cell_formula_units_Z 56
_cell_length_a 28.889065
_cell_length_b 8.620421
_cell_length_c 20.095135
_cell_angle_alpha 90.000000
_cell_angle_beta 147.428226
_cell_angle_gamma 90.000000
_cell_volume 2694.152677
_symmetry_space_group_name_H-M "C 2/M"
_symmetry_group_IT_number 12
_symmetry_cell_setting 'monoclinic'
loop_
_space_group_symop_operation_xyz
x,y,z
-x,y,-z
-x,-y,-z
x,-y,z
1/2+x,1/2+y,z
1/2-x,1/2+y,-z
1/2-x,1/2-y,-z
1/2+x,1/2-y,z
loop_
_atom_site_type_symbol
_atom_site_label
_atom_site_fract_x
_atom_site_fract_y
_atom_site_fract_z
Si Si1 0.109187 0.322727 0.043573
Si Si2 0.012078 0.181055 0.314306
Si Si3 0.299102 0.321145 0.228743
Si Si4 0.665053 0.181903 0.864799
Si Si5 0.318112 0.179221 0.727246
Si Si6 0.349188 0.819797 0.425803
Si Si7 0.945517 0.821897 0.783669
O O1 0.078414 0.500000 0.997913
O O2 0.197177 0.292660 0.110533
O O3 0.122250 0.282682 0.137007
O O4 0.037751 0.210258 0.927983
O O5 0.062742 0.277919 0.430914
O O6 0.052763 0.217514 0.291958
O O7 0.914127 0.236300 0.194682
O O8 0.017210 0.000000 0.337510
O O9 0.319097 0.500000 0.237273
O O10 0.337204 0.215901 0.216517
O O11 0.345461 0.276565 0.353264
O O12 0.660346 0.000000 0.872420
O O13 0.750000 0.250000 0.000000
O O14 0.230912 0.278127 0.623679
O O15 0.370697 0.217972 0.724738
O O16 0.290684 0.000000 0.694387
O O17 0.347569 0.000000 0.406321
O O18 0.922783 0.000000 0.769150
#
# Coordination Sequence:
#
# PCOD8108119 Si02
#       7
#     8   8   8   8   8   8   8
#     4   9  19  35  57  86 119 155 195 238 292 359
#     4  11  25  44  62  85 120 160 202 249 301 357
#     4  10  21  40  65  91 122 161 199 243 301 358
#     4  12  25  42  65  95 126 158 199 245 297 355
#     4  10  21  38  60  85 118 160 200 242 297 359
#     4  11  23  41  64  91 120 153 200 251 298 354
#     4  11  23  36  56  86 118 155 200 250 301 351
#
# _framework density 20.785755000000002
#
# number of rings (size 3 to 8) (size 9 to 14) (size 15 to 20)
#    0.000    1.429    0.000    6.429    0.000   10.857 
#    0.000    2.857    0.000    0.000    0.000    0.000 
#    0.000    0.000    0.000    0.000    0.000    0.000 
#
# Total GULP energy -347413.124243 kJ/mol
# GULP energy per Si atom -12407.611580 kJ/mol
# Density = 2.073845 g / cm^3
# Si number density = 20.785755 Si / 1000 Ang^3
#
#
#
# Elastic Constant Matrix: (Units=GPa)
#
#
# Indices 1 2 3 4 5 6 
#
# 1 73.2664 36.2987 9.1340 0.0000 -7.8557 0.0000
# 2 36.2987 63.4805 18.7908 0.0000 0.8744 0.0000
# 3 9.1340 18.7908 84.2424 0.0000 -2.4072 0.0000
# 4 0.0000 0.0000 0.0000 36.9681 0.0000 0.9041
# 5 -7.8557 0.8744 -2.4072 0.0000 17.8089 0.0000
# 6 0.0000 0.0000 0.0000 0.9041 0.0000 38.0529
#
#
#
# Elastic Compliance Matrix: (Units=1/GPa)
#
#
# Indices 1 2 3 4 5 6 
#
# 1 0.020626 -0.012152 0.000754 0.000000 0.009797 0.000000
# 2 -0.012152 0.024058 -0.004252 0.000000 -0.007116 0.000000
# 3 0.000754 -0.004252 0.012802 0.000000 0.002272 0.000000
# 4 0.000000 0.000000 0.000000 0.027066 0.000000 -0.000643
# 5 0.009797 -0.007116 0.002272 0.000000 0.061130 0.000000
# 6 0.000000 0.000000 0.000000 -0.000643 0.000000 0.026295
#
#
# Mechanical properties :
#
#
# Convention : Reuss Voigt Hill
#
# Bulk Modulus (GPa) = 38.18830 38.82624 38.50727
# Shear Modulus (GPa) = 23.58428 29.01702 26.30065
#
# Velocity S-wave (km/s) = 3.37209 3.74037 3.56099
# Velocity P-wave (km/s) = 5.79427 6.11340 5.95597
#
# Compressibility (1/GPa) = 0.02618603
#
# Stress axis : x y z
#
# Youngs Moduli (GPa) = 48.48284 41.56566 78.11210
#
# Poissons Ratio (x) = 0.50512 -0.05891
# Poissons Ratio (y) = 0.58918 0.33214
# Poissons Ratio (z) = -0.03657 0.17674
#
# Static dielectric constant tensor:
#      x y z
#    x 3.874930 0.000000 -0.010280 
#    y 0.000000 3.802720 0.000000 
#    z -0.010280 0.000000 3.643670 
# 
# 
# High freq. dielectric constant tensor:
#      x y z
#    x 1.821400 0.000000 -0.000540 
#    y 0.000000 1.820700 0.000000 
#    z -0.000540 0.000000 1.810370 
# 
# From -- ./inp_files/329623.got.cif
#   From: 2010.06.25/outbox.cif.g09.slc.cpg/sg12_165_cif.got.tgz:329623.got - 2010.06.28 00:19:55.
