data_PCOD8108157
_publ_section_title
;
Structure prediction by ZEFSAII (Michael W. Deem and Ramdas Pophale) SiO2 
 PCOD8108157
Probable space group: C 2/M
;
_chemical_formula_sum "Si O2"
_cell_formula_units_Z 40
_cell_length_a 20.194628
_cell_length_b 8.818000
_cell_length_c 15.241285
_cell_angle_alpha 90.000000
_cell_angle_beta 131.171014
_cell_angle_gamma 90.000000
_cell_volume 2043.041423
_symmetry_space_group_name_H-M "C 2/M"
_symmetry_group_IT_number 12
_symmetry_cell_setting 'monoclinic'
loop_
_space_group_symop_operation_xyz
x,y,z
-x,y,-z
-x,-y,-z
x,-y,z
1/2+x,1/2+y,z
1/2-x,1/2+y,-z
1/2-x,1/2-y,-z
1/2+x,1/2-y,z
loop_
_atom_site_type_symbol
_atom_site_label
_atom_site_fract_x
_atom_site_fract_y
_atom_site_fract_z
Si Si1 0.478662 0.679121 0.229837
Si Si2 0.821630 0.821776 0.627205
Si Si3 0.823362 0.678886 0.000662
Si Si4 0.231644 0.677815 0.241402
Si Si5 0.073455 0.820664 0.626450
O O1 0.467206 0.500000 0.206870
O O2 0.580615 0.726637 0.316753
O O3 0.421715 0.763414 0.106248
O O4 0.438546 0.740235 0.285915
O O5 0.750000 0.750000 0.500000
O O6 0.813792 0.769236 0.720533
O O7 0.808828 0.000000 0.609961
O O8 0.815886 0.500000 0.005298
O O9 0.750000 0.750000 0.000000
O O10 0.807845 0.726412 0.886438
O O11 0.219382 0.500000 0.248272
O O12 0.333324 0.725746 0.331298
O O13 0.000000 0.746645 0.500000
O O14 0.061835 0.000000 0.619711
#
# Coordination Sequence:
#
# PCOD8108157 Si02
#       5
#     8   8   8   8   8
#     4  10  21  39  61  86 118 160 205 247 299 357
#     4  11  24  41  63  89 123 162 199 250 302 358
#     4  11  22  38  62  90 123 160 199 253 305 355
#     4  10  21  38  60  86 119 160 201 245 300 359
#     4   9  16  31  57  83 109 150 201 245 290 350
#
# _framework density 19.578655000000001
#
# number of rings (size 3 to 8) (size 9 to 14) (size 15 to 20)
#    0.000    1.800    2.000    2.400    0.000    7.200 
#    0.000    4.000    0.000    2.400    0.000    0.000 
#    0.000    0.000    0.000    0.000    0.000    0.000 
#
# Total GULP energy -248013.414111 kJ/mol
# GULP energy per Si atom -12400.670706 kJ/mol
# Density = 1.953409 g / cm^3
# Si number density = 19.578655 Si / 1000 Ang^3
#
#
#
# Elastic Constant Matrix: (Units=GPa)
#
#
# Indices 1 2 3 4 5 6 
#
# 1 64.1253 28.9376 13.7666 0.0000 -9.8926 0.0000
# 2 28.9376 51.6096 36.8047 0.0000 0.7775 0.0000
# 3 13.7666 36.8047 125.8651 0.0000 3.5981 0.0000
# 4 0.0000 0.0000 0.0000 33.5490 0.0000 0.4182
# 5 -9.8926 0.7775 3.5981 0.0000 34.7137 0.0000
# 6 0.0000 0.0000 0.0000 0.4182 0.0000 31.3602
#
#
#
# Elastic Compliance Matrix: (Units=1/GPa)
#
#
# Indices 1 2 3 4 5 6 
#
# 1 0.022488 -0.013671 0.001350 0.000000 0.006575 0.000000
# 2 -0.013671 0.032793 -0.007985 0.000000 -0.003803 0.000000
# 3 0.001350 -0.007985 0.010146 0.000000 -0.000488 0.000000
# 4 0.000000 0.000000 0.000000 0.029812 0.000000 -0.000398
# 5 0.006575 -0.003803 -0.000488 0.000000 0.030817 0.000000
# 6 0.000000 0.000000 0.000000 -0.000398 0.000000 0.031893
#
#
# Mechanical properties :
#
#
# Convention : Reuss Voigt Hill
#
# Bulk Modulus (GPa) = 40.29748 44.51308 42.40528
# Shear Modulus (GPa) = 24.17401 30.73066 27.45233
#
# Velocity S-wave (km/s) = 3.51766 3.96612 3.74860
# Velocity P-wave (km/s) = 6.09308 6.61501 6.35940
#
# Compressibility (1/GPa) = 0.02481545
#
# Stress axis : x y z
#
# Youngs Moduli (GPa) = 44.46780 30.49389 98.55795
#
# Poissons Ratio (x) = 0.41688 -0.13305
# Poissons Ratio (y) = 0.60792 0.78701
# Poissons Ratio (z) = -0.06003 0.24350
#
# Static dielectric constant tensor:
#      x y z
#    x 3.645550 0.000000 0.039990 
#    y 0.000000 3.345820 0.000000 
#    z 0.039990 0.000000 3.880140 
# 
# 
# High freq. dielectric constant tensor:
#      x y z
#    x 1.768390 0.000000 0.001400 
#    y 0.000000 1.739000 0.000000 
#    z 0.001400 0.000000 1.783320 
# 
# From -- ./inp_files/221226.got.cif
#   From: 2010.06.25/outbox.cif.g09.slc.cpg/sg12_111_cif.got.tgz:221226.got - 2010.06.28 00:19:55.
