data_PCOD8108507
_publ_section_title
;
Structure prediction by ZEFSAII (Michael W. Deem and Ramdas Pophale) SiO2 
 PCOD8108507
Probable space group: C 2/M
;
_chemical_formula_sum "Si O2"
_cell_formula_units_Z 64
_cell_length_a 26.790525
_cell_length_b 8.953074
_cell_length_c 15.215427
_cell_angle_alpha 90.000000
_cell_angle_beta 120.269138
_cell_angle_gamma 90.000000
_cell_volume 3151.983697
_symmetry_space_group_name_H-M "C 2/M"
_symmetry_group_IT_number 12
_symmetry_cell_setting 'monoclinic'
loop_
_space_group_symop_operation_xyz
x,y,z
-x,y,-z
-x,-y,-z
x,-y,z
1/2+x,1/2+y,z
1/2-x,1/2+y,-z
1/2-x,1/2-y,-z
1/2+x,1/2-y,z
loop_
_atom_site_type_symbol
_atom_site_label
_atom_site_fract_x
_atom_site_fract_y
_atom_site_fract_z
Si Si1 0.623805 0.672564 0.238699
Si Si2 0.704104 0.327556 0.896501
Si Si3 0.919717 0.171343 0.133640
Si Si4 0.061390 0.675844 0.516515
Si Si5 0.738736 0.175925 0.397327
Si Si6 0.934392 0.328616 0.967278
Si Si7 0.460770 0.329883 0.678744
Si Si8 0.324703 0.323122 0.320744
O O1 0.642993 0.500000 0.256473
O O2 0.676185 0.777977 0.309982
O O3 0.604701 0.718742 0.124751
O O4 0.571370 0.703559 0.258540
O O5 0.719445 0.500000 0.915493
O O6 0.639505 0.293887 0.870238
O O7 0.707376 0.272155 0.797974
O O8 0.750000 0.250000 0.000000
O O9 0.971452 0.202952 0.247915
O O10 0.923405 0.000000 0.103162
O O11 0.924768 0.286399 0.059065
O O12 0.068220 0.500000 0.529742
O O13 0.065738 0.723580 0.418796
O O14 0.112368 0.749540 0.617909
O O15 0.000000 0.731165 0.500000
O O16 0.750000 0.250000 0.500000
O O17 0.786054 0.230510 0.368473
O O18 0.742150 0.000000 0.412042
O O19 0.915745 0.500000 0.935720
O O20 0.000000 0.301871 0.000000
O O21 0.449911 0.500000 0.639139
O O22 0.333692 0.500000 0.327656
#
# Coordination Sequence:
#
# PCOD8108507 Si02
#       8
#     8   8   8   8   8   8   8   8
#     4  11  23  39  62  90 122 160 204 251 306 367
#     4  10  23  42  64  90 120 160 208 259 311 364
#     4  10  21  39  62  88 120 160 207 255 305 364
#     4  11  24  39  60  92 125 154 195 251 309 361
#     4  11  24  42  64  93 128 166 210 258 309 367
#     4  11  23  38  59  90 126 164 202 249 310 368
#     4  10  21  38  62  89 119 158 201 246 299 366
#     4  10  23  44  66  88 122 165 210 253 303 370
#
# _framework density 20.304673999999999
#
# number of rings (size 3 to 8) (size 9 to 14) (size 15 to 20)
#    0.000    1.500    1.250    3.000    1.750    9.000 
#    0.000    0.000    0.000    0.000    0.000    0.000 
#    0.000    0.000    0.000    0.000    0.000    0.000 
#
# Total GULP energy -396950.424306 kJ/mol
# GULP energy per Si atom -12404.700760 kJ/mol
# Density = 2.025846 g / cm^3
# Si number density = 20.304674 Si / 1000 Ang^3
#
#
#
# Elastic Constant Matrix: (Units=GPa)
#
#
# Indices 1 2 3 4 5 6 
#
# 1 103.8569 44.7386 56.7023 0.0000 3.4358 0.0000
# 2 44.7386 53.7655 47.6241 0.0000 -1.3867 0.0000
# 3 56.7023 47.6241 141.9324 0.0000 -1.9062 0.0000
# 4 0.0000 0.0000 0.0000 38.0360 0.0000 -1.5864
# 5 3.4358 -1.3867 -1.9062 0.0000 38.2372 0.0000
# 6 0.0000 0.0000 0.0000 -1.5864 0.0000 17.8386
#
#
#
# Elastic Compliance Matrix: (Units=1/GPa)
#
#
# Indices 1 2 3 4 5 6 
#
# 1 0.015841 -0.010818 -0.002725 0.000000 -0.001952 0.000000
# 2 -0.010818 0.033863 -0.007016 0.000000 0.001850 0.000000
# 3 -0.002725 -0.007016 0.010495 0.000000 0.000514 0.000000
# 4 0.000000 0.000000 0.000000 0.026389 0.000000 0.002347
# 5 -0.001952 0.001850 0.000514 0.000000 0.026421 0.000000
# 6 0.000000 0.000000 0.000000 0.002347 0.000000 0.056267
#
#
# Mechanical properties :
#
#
# Convention : Reuss Voigt Hill
#
# Bulk Modulus (GPa) = 52.40559 66.40943 59.40751
# Shear Modulus (GPa) = 23.06767 28.85502 25.96134
#
# Velocity S-wave (km/s) = 3.37423 3.77384 3.57962
# Velocity P-wave (km/s) = 6.40673 7.19490 6.81223
#
# Compressibility (1/GPa) = 0.01908193
#
# Stress axis : x y z
#
# Youngs Moduli (GPa) = 63.12741 29.53056 95.28225
#
# Poissons Ratio (x) = 0.31947 0.25962
# Poissons Ratio (y) = 0.68292 0.66848
# Poissons Ratio (z) = 0.17201 0.20718
#
# Static dielectric constant tensor:
#      x y z
#    x 3.812820 0.000000 0.015200 
#    y 0.000000 3.624960 0.000000 
#    z 0.015200 0.000000 3.532840 
# 
# 
# High freq. dielectric constant tensor:
#      x y z
#    x 1.800560 0.000000 0.000310 
#    y 0.000000 1.789210 0.000000 
#    z 0.000310 0.000000 1.806420 
# 
# From -- ./inp_files/249928.got.cif
#   From: 2010.06.25/outbox.cif.g09.slc.cpg/sg12_125_cif.got.tgz:249928.got - 2010.06.28 00:19:55.
