data_PCOD8108761
_publ_section_title
;
Structure prediction by ZEFSAII (Michael W. Deem and Ramdas Pophale) SiO2 
 PCOD8108761
Probable space group: C 2/M
;
_chemical_formula_sum "Si O2"
_cell_formula_units_Z 64
_cell_length_a 14.567093
_cell_length_b 17.734989
_cell_length_c 23.792920
_cell_angle_alpha 90.000000
_cell_angle_beta 151.150988
_cell_angle_gamma 90.000000
_cell_volume 2965.867032
_symmetry_space_group_name_H-M "C 2/M"
_symmetry_group_IT_number 12
_symmetry_cell_setting 'monoclinic'
loop_
_space_group_symop_operation_xyz
x,y,z
-x,y,-z
-x,-y,-z
x,-y,z
1/2+x,1/2+y,z
1/2-x,1/2+y,-z
1/2-x,1/2-y,-z
1/2+x,1/2-y,z
loop_
_atom_site_type_symbol
_atom_site_label
_atom_site_fract_x
_atom_site_fract_y
_atom_site_fract_z
Si Si1 0.342185 0.413595 0.115251
Si Si2 0.349848 0.312093 0.516738
Si Si3 0.180778 0.912888 0.209364
Si Si4 0.700533 0.292847 0.130317
Si Si5 0.638151 0.358538 0.751377
Si Si6 0.081258 0.685724 0.273381
Si Si7 0.036822 0.585029 0.143449
Si Si8 0.865104 0.298193 0.382274
O O1 0.309293 0.500000 0.114645
O O2 0.500119 0.405955 0.152402
O O3 0.400331 0.370201 0.203198
O O4 0.150005 0.378546 0.985665
O O5 0.250000 0.250000 0.500000
O O6 0.442762 0.371650 0.610860
O O7 0.198012 0.346303 0.390632
O O8 0.528158 0.277299 0.579794
O O9 0.147047 0.871870 0.131963
O O10 0.347476 0.863732 0.326814
O O11 0.240295 0.000000 0.231754
O O12 0.786745 0.228164 0.217634
O O13 0.856841 0.308047 0.165879
O O14 0.500000 0.261141 0.000000
O O15 0.796510 0.415410 0.813443
O O16 0.105205 0.628951 0.234921
O O17 0.164257 0.768222 0.300546
O O18 0.990738 0.500000 0.137290
O O19 0.000000 0.338589 0.500000
#
# Coordination Sequence:
#
# PCOD8108761 Si02
#       8
#     8   8   8   8   8   8   8   8
#     4  10  23  41  62  90 129 176 213 260 324 376
#     4  11  21  40  65  92 128 166 207 259 325 377
#     4  11  23  41  60  87 125 163 211 257 313 389
#     4  12  24  39  64  96 125 162 214 270 319 371
#     4  12  22  39  65  96 124 164 219 265 318 379
#     4  11  22  41  67  95 125 171 213 260 322 386
#     4  11  23  41  63  92 134 172 210 263 321 385
#     4  10  21  38  65  91 117 160 206 259 315 363
#
# _framework density 21.578849999999999
#
# number of rings (size 3 to 8) (size 9 to 14) (size 15 to 20)
#    0.000    1.000    3.750    3.000    1.750    2.000 
#    0.000    5.625    0.000    0.000    0.000    0.000 
#    0.000    0.000    0.000    0.000    0.000    0.000 
#
# Total GULP energy -396686.865418 kJ/mol
# GULP energy per Si atom -12396.464544 kJ/mol
# Density = 2.152974 g / cm^3
# Si number density = 21.578850 Si / 1000 Ang^3
#
#
#
# Elastic Constant Matrix: (Units=GPa)
#
#
# Indices 1 2 3 4 5 6 
#
# 1 94.9302 17.6940 20.5621 -0.0007 3.4548 0.0000
# 2 17.6940 77.0963 20.1493 0.0021 -7.9472 0.0001
# 3 20.5621 20.1493 94.0643 0.0060 -5.8494 0.0004
# 4 -0.0007 0.0021 0.0060 23.5633 0.0002 -2.9314
# 5 3.4548 -7.9472 -5.8494 0.0002 37.8448 -0.0003
# 6 0.0000 0.0001 0.0004 -2.9314 -0.0003 31.8556
#
#
#
# Elastic Compliance Matrix: (Units=1/GPa)
#
#
# Indices 1 2 3 4 5 6 
#
# 1 0.011488 -0.002268 -0.002141 0.000001 -0.001856 0.000000
# 2 -0.002268 0.014417 -0.002415 -0.000001 0.002861 0.000000
# 3 -0.002141 -0.002415 0.011709 -0.000003 0.001498 0.000000
# 4 0.000001 -0.000001 -0.000003 0.042930 -0.000001 0.003950
# 5 -0.001856 0.002861 0.001498 -0.000001 0.027426 0.000000
# 6 0.000000 0.000000 0.000000 0.003950 0.000000 0.031755
#
#
# Mechanical properties :
#
#
# Convention : Reuss Voigt Hill
#
# Bulk Modulus (GPa) = 41.72313 42.54460 42.13386
# Shear Modulus (GPa) = 30.98612 32.49842 31.74227
#
# Velocity S-wave (km/s) = 3.79350 3.88497 3.83951
# Velocity P-wave (km/s) = 6.21005 6.31527 6.26288
#
# Compressibility (1/GPa) = 0.02396752
#
# Stress axis : x y z
#
# Youngs Moduli (GPa) = 87.04659 69.36057 85.40174
#
# Poissons Ratio (x) = 0.15734 0.18282
# Poissons Ratio (y) = 0.19746 0.20620
# Poissons Ratio (z) = 0.18635 0.16747
#
# Static dielectric constant tensor:
#      x y z
#    x 4.045870 0.000000 -0.109000 
#    y 0.000000 3.660510 0.000000 
#    z -0.109000 0.000000 4.207030 
# 
# 
# High freq. dielectric constant tensor:
#      x y z
#    x 1.859220 0.000000 -0.002290 
#    y 0.000000 1.813210 0.000000 
#    z -0.002290 0.000000 1.859140 
# 
# From -- ./inp_files/340868.got.cif
#   From: 2010.06.25/outbox.cif.g09.slc.cpg/sg12_171_cif.got.tgz:340868.got - 2010.06.28 00:19:55.
