data_PCOD8108817
_publ_section_title
;
Structure prediction by ZEFSAII (Michael W. Deem and Ramdas Pophale) SiO2 
 PCOD8108817
Probable space group: C 2/M
;
_chemical_formula_sum "Si O2"
_cell_formula_units_Z 52
_cell_length_a 24.138383
_cell_length_b 11.217892
_cell_length_c 12.567962
_cell_angle_alpha 90.000000
_cell_angle_beta 132.517227
_cell_angle_gamma 90.000000
_cell_volume 2508.392436
_symmetry_space_group_name_H-M "C 2/M"
_symmetry_group_IT_number 12
_symmetry_cell_setting 'monoclinic'
loop_
_space_group_symop_operation_xyz
x,y,z
-x,y,-z
-x,-y,-z
x,-y,z
1/2+x,1/2+y,z
1/2-x,1/2+y,-z
1/2-x,1/2-y,-z
1/2+x,1/2-y,z
loop_
_atom_site_type_symbol
_atom_site_label
_atom_site_fract_x
_atom_site_fract_y
_atom_site_fract_z
Si Si1 0.600277 0.258980 0.809193
Si Si2 0.797752 0.778834 0.861668
Si Si3 0.576565 0.000000 0.388026
Si Si4 0.565705 0.736092 0.344366
Si Si5 0.083372 0.862092 0.143199
Si Si6 0.343928 0.360468 0.340054
Si Si7 0.076511 0.500000 0.718519
Si Si8 0.306655 0.000000 0.304170
O O1 0.518293 0.306774 0.736416
O O2 0.617108 0.314908 0.716704
O O3 0.604308 0.116324 0.817323
O O4 0.662416 0.298921 0.974046
O O5 0.858209 0.780910 0.845602
O O6 0.746394 0.660570 0.784011
O O7 0.739294 0.884621 0.781067
O O8 0.565029 0.123623 0.308713
O O9 0.514438 0.000000 0.403784
O O10 0.663784 0.000000 0.536840
O O11 0.595310 0.660049 0.283459
O O12 0.620248 0.712985 0.515256
O O13 0.099688 0.000000 0.137762
O O14 0.000000 0.824458 0.000000
O O15 0.359405 0.500000 0.375850
O O16 0.113622 0.500000 0.651984
#
# Coordination Sequence:
#
# PCOD8108817 Si02
#       8
#     8   8   4   8   8   8   4   4
#     4  11  24  41  68  97 136 172 218 267 326 391
#     4  12  25  42  66  99 131 175 218 271 324 387
#     4  10  21  42  66  99 130 173 220 264 323 392
#     4  11  23  46  68  97 130 174 223 266 320 390
#     4  11  24  45  71  95 129 173 223 266 321 393
#     4  12  27  42  65 100 136 171 211 272 336 386
#     4  10  21  38  69  93 130 181 211 266 322 390
#     4  12  21  40  67  95 128 176 224 262 323 383
#
# _framework density 20.730409999999999
#
# number of rings (size 3 to 8) (size 9 to 14) (size 15 to 20)
#    0.000    0.769    5.385    1.615    2.154    4.923 
#    1.385    0.385    0.000    0.000    0.000    0.000 
#    0.000    0.000    0.000    0.000    0.000    0.000 
#
# Total GULP energy -322369.168049 kJ/mol
# GULP energy per Si atom -12398.814156 kJ/mol
# Density = 2.068323 g / cm^3
# Si number density = 20.730410 Si / 1000 Ang^3
#
#
#
# Elastic Constant Matrix: (Units=GPa)
#
#
# Indices 1 2 3 4 5 6 
#
# 1 87.9522 23.9459 34.1538 0.0000 -9.7833 0.0000
# 2 23.9459 88.2407 6.2684 0.0000 2.9310 0.0000
# 3 34.1538 6.2684 118.2172 0.0000 1.3969 0.0000
# 4 0.0000 0.0000 0.0000 78.6066 0.0000 14.1800
# 5 -9.7833 2.9310 1.3969 0.0000 34.3662 0.0000
# 6 0.0000 0.0000 0.0000 14.1800 0.0000 32.2467
#
#
#
# Elastic Compliance Matrix: (Units=1/GPa)
#
#
# Indices 1 2 3 4 5 6 
#
# 1 0.014485 -0.003797 -0.004038 0.000000 0.004611 0.000000
# 2 -0.003797 0.012402 0.000465 0.000000 -0.002158 0.000000
# 3 -0.004038 0.000465 0.009620 0.000000 -0.001580 0.000000
# 4 0.000000 0.000000 0.000000 0.013818 0.000000 -0.006076
# 5 0.004611 -0.002158 -0.001580 0.000000 0.030659 0.000000
# 6 0.000000 0.000000 0.000000 -0.006076 0.000000 0.033683
#
#
# Mechanical properties :
#
#
# Convention : Reuss Voigt Hill
#
# Bulk Modulus (GPa) = 45.94349 47.01626 46.47988
# Shear Modulus (GPa) = 36.58695 44.38004 40.48349
#
# Velocity S-wave (km/s) = 4.20562 4.63192 4.42391
# Velocity P-wave (km/s) = 6.76709 7.16487 6.96881
#
# Compressibility (1/GPa) = 0.02176587
#
# Stress axis : x y z
#
# Youngs Moduli (GPa) = 69.03927 80.63425 103.95457
#
# Poissons Ratio (x) = 0.30617 0.41975
# Poissons Ratio (y) = 0.26214 -0.04833
# Poissons Ratio (z) = 0.27877 -0.03749
#
# Static dielectric constant tensor:
#      x y z
#    x 3.809580 0.000000 0.204430 
#    y 0.000000 -4.263950 0.000000 
#    z 0.204430 0.000000 3.691410 
# 
# 
# High freq. dielectric constant tensor:
#      x y z
#    x 1.810550 0.000000 0.016140 
#    y 0.000000 1.812490 0.000000 
#    z 0.016140 0.000000 1.814120 
# 
# From -- ./inp_files/165156.got.cif
#   From: 2010.06.25/outbox.cif.g09.slc.cpg/sg12_83_cif.got.tgz:165156.got - 2010.06.28 00:19:55.
