data_PCOD8108346
_publ_section_title
;
Structure prediction by ZEFSAII (Michael W. Deem and Ramdas Pophale) SiO2 
 PCOD8108346
Probable space group: C 2/M
;
_chemical_formula_sum "Si O2"
_cell_formula_units_Z 48
_cell_length_a 28.415818
_cell_length_b 8.848880
_cell_length_c 18.481925
_cell_angle_alpha 90.000000
_cell_angle_beta 31.208622
_cell_angle_gamma 90.000000
_cell_volume 2407.997153
_symmetry_space_group_name_H-M "C 2/M"
_symmetry_group_IT_number 12
_symmetry_cell_setting 'monoclinic'
loop_
_space_group_symop_operation_xyz
x,y,z
-x,y,-z
-x,-y,-z
x,-y,z
1/2+x,1/2+y,z
1/2-x,1/2+y,-z
1/2-x,1/2-y,-z
1/2+x,1/2-y,z
loop_
_atom_site_type_symbol
_atom_site_label
_atom_site_fract_x
_atom_site_fract_y
_atom_site_fract_z
Si Si1 0.913367 0.827055 0.436232
Si Si2 0.408212 0.322761 0.160992
Si Si3 0.734687 0.173936 0.753997
Si Si4 0.617453 0.325740 0.195976
Si Si5 0.236745 0.825150 0.902731
Si Si6 0.152082 0.677530 0.620079
O O1 0.840987 0.804441 0.595717
O O2 0.891600 0.717149 0.398972
O O3 0.011633 0.784044 0.338414
O O4 0.912685 0.000000 0.408925
O O5 0.399484 0.500000 0.185908
O O6 0.321829 0.269390 0.229223
O O7 0.413048 0.239696 0.231508
O O8 0.500000 0.278472 0.000000
O O9 0.714479 0.230621 0.860838
O O10 0.705204 0.000000 0.786680
O O11 0.635311 0.500000 0.192717
O O12 0.667088 0.223365 0.189971
O O13 0.656038 0.291035 0.065307
O O14 0.241474 0.000000 0.875232
O O15 0.162571 0.500000 0.613949
O O16 0.250000 0.750000 0.500000
#
# Coordination Sequence:
#
# PCOD8108346 Si02
#       6
#     8   8   8   8   8   8
#     4  10  22  40  62  88 118 159 204 247 298 355
#     4  11  25  43  63  88 122 162 203 250 304 359
#     4  11  23  39  61  88 121 158 199 249 299 357
#     4   9  20  40  63  86 115 155 200 244 299 362
#     4  10  21  38  61  88 120 155 195 248 303 357
#     4  12  24  40  63  90 123 162 202 249 300 356
#
# _framework density 19.933579999999999
#
# number of rings (size 3 to 8) (size 9 to 14) (size 15 to 20)
#    0.000    1.500    1.667    3.000    2.333    4.000 
#    0.000    3.333    0.000    0.000    0.000    0.000 
#    0.000    0.000    0.000    0.000    0.000    0.000 
#
# Total GULP energy -297753.200149 kJ/mol
# GULP energy per Si atom -12406.383340 kJ/mol
# Density = 1.988821 g / cm^3
# Si number density = 19.933580 Si / 1000 Ang^3
#
#
#
# Elastic Constant Matrix: (Units=GPa)
#
#
# Indices 1 2 3 4 5 6 
#
# 1 41.2513 9.4697 7.7511 -0.0111 3.4018 0.0040
# 2 9.4697 87.5734 33.0548 -0.0192 3.7446 0.0099
# 3 7.7511 33.0548 71.0218 -0.0295 -7.2536 0.0139
# 4 -0.0111 -0.0192 -0.0295 27.1354 0.0121 2.4030
# 5 3.4018 3.7446 -7.2536 0.0121 39.4174 -0.0066
# 6 0.0040 0.0099 0.0139 2.4030 -0.0066 38.0505
#
#
#
# Elastic Compliance Matrix: (Units=1/GPa)
#
#
# Indices 1 2 3 4 5 6 
#
# 1 0.025262 -0.001814 -0.002158 0.000008 -0.002405 -0.000002
# 2 -0.001814 0.014239 -0.006677 0.000003 -0.002425 -0.000002
# 3 -0.002158 -0.006677 0.017842 0.000012 0.004104 -0.000005
# 4 0.000008 0.000003 0.000012 0.037059 -0.000011 -0.002340
# 5 -0.002405 -0.002425 0.004104 -0.000011 0.026563 0.000005
# 6 -0.000002 -0.000002 -0.000005 -0.002340 0.000005 0.026429
#
#
# Mechanical properties :
#
#
# Convention : Reuss Voigt Hill
#
# Bulk Modulus (GPa) = 27.74314 33.37751 30.56032
# Shear Modulus (GPa) = 27.66902 30.89205 29.28053
#
# Velocity S-wave (km/s) = 3.72971 3.94096 3.83679
# Velocity P-wave (km/s) = 5.70050 6.12282 5.91543
#
# Compressibility (1/GPa) = 0.03604494
#
# Stress axis : x y z
#
# Youngs Moduli (GPa) = 39.58515 70.22963 56.04640
#
# Poissons Ratio (x) = 0.12741 0.12096
# Poissons Ratio (y) = 0.07182 0.37421
# Poissons Ratio (z) = 0.08544 0.46890
#
# Static dielectric constant tensor:
#      x y z
#    x 3.599300 -0.000020 0.053110 
#    y -0.000020 3.700270 0.000040 
#    z 0.053110 0.000040 3.863160 
# 
# 
# High freq. dielectric constant tensor:
#      x y z
#    x 1.774720 0.000000 0.001310 
#    y 0.000000 1.784430 0.000000 
#    z 0.001310 0.000000 1.787190 
# 
# From -- ./inp_files/244590.got.cif
#   From: 2010.06.25/outbox.cif.g09.slc.cpg/sg12_123_cif.got.tgz:244590.got - 2010.06.28 00:19:55.
