data_PCOD8108139
_publ_section_title
;
Structure prediction by ZEFSAII (Michael W. Deem and Ramdas Pophale) SiO2 
 PCOD8108139
Probable space group: C 2/M
;
_chemical_formula_sum "Si O2"
_cell_formula_units_Z 56
_cell_length_a 11.860291
_cell_length_b 18.780217
_cell_length_c 14.790851
_cell_angle_alpha 90.000000
_cell_angle_beta 63.332279
_cell_angle_gamma 90.000000
_cell_volume 2944.042821
_symmetry_space_group_name_H-M "C 2/M"
_symmetry_group_IT_number 12
_symmetry_cell_setting 'monoclinic'
loop_
_space_group_symop_operation_xyz
x,y,z
-x,y,-z
-x,-y,-z
x,-y,z
1/2+x,1/2+y,z
1/2-x,1/2+y,-z
1/2-x,1/2-y,-z
1/2+x,1/2-y,z
loop_
_atom_site_type_symbol
_atom_site_label
_atom_site_fract_x
_atom_site_fract_y
_atom_site_fract_z
Si Si1 0.034873 0.415089 0.134414
Si Si2 0.068213 0.337803 0.309684
Si Si3 0.547017 0.581595 0.258982
Si Si4 0.715257 0.171036 0.541455
Si Si5 0.093361 0.191220 0.385821
Si Si6 0.229083 0.918721 0.647623
Si Si7 0.192472 0.583523 0.908941
O O1 0.045033 0.500000 0.154603
O O2 0.061180 0.363947 0.209450
O O3 0.896870 0.396228 0.143685
O O4 0.138010 0.388932 0.023721
O O5 0.112779 0.256025 0.307416
O O6 0.168645 0.386640 0.323132
O O7 0.932149 0.345852 0.404072
O O8 0.574522 0.500000 0.274891
O O9 0.533881 0.624707 0.356291
O O10 0.411620 0.588884 0.257235
O O11 0.664472 0.612078 0.157628
O O12 0.750000 0.250000 0.500000
O O13 0.774369 0.163362 0.620252
O O14 0.775594 0.117595 0.448347
O O15 0.000000 0.215937 0.500000
O O16 0.265183 0.000000 0.618863
O O17 0.191752 0.500000 0.918865
#
# Coordination Sequence:
#
# PCOD8108139 Si02
#       7
#     8   8   8   8   8   8   8
#     4   9  18  35  61  91 119 149 195 243 290 348
#     4  12  23  36  57  83 119 154 194 239 290 353
#     4  10  21  38  60  86 116 151 196 246 290 339
#     4  12  22  39  55  78 113 162 199 232 288 344
#     4  12  22  37  59  81 112 155 198 238 285 344
#     4  11  23  37  56  85 121 156 195 242 288 345
#     4   8  16  36  63  88 115 151 192 242 296 342
#
# _framework density 19.021463000000001
#
# number of rings (size 3 to 8) (size 9 to 14) (size 15 to 20)
#    0.000    1.429    4.286    2.571    0.000    2.571 
#    0.000    1.429    0.000    3.429    0.000    0.000 
#    0.000    0.000    0.000    0.000    0.000    0.000 
#
# Total GULP energy -347005.562220 kJ/mol
# GULP energy per Si atom -12393.055794 kJ/mol
# Density = 1.897817 g / cm^3
# Si number density = 19.021463 Si / 1000 Ang^3
#
#
#
# Elastic Constant Matrix: (Units=GPa)
#
#
# Indices 1 2 3 4 5 6 
#
# 1 142.4759 47.7613 64.7987 0.0000 -16.7025 0.0000
# 2 47.7613 85.3770 48.6779 0.0000 -2.8242 0.0000
# 3 64.7987 48.6779 105.3812 0.0000 -2.4577 0.0000
# 4 0.0000 0.0000 0.0000 28.0832 0.0000 7.3954
# 5 -16.7025 -2.8242 -2.4577 0.0000 28.9653 0.0000
# 6 0.0000 0.0000 0.0000 7.3954 0.0000 30.9178
#
#
#
# Elastic Compliance Matrix: (Units=1/GPa)
#
#
# Indices 1 2 3 4 5 6 
#
# 1 0.011102 -0.002995 -0.005311 0.000000 0.005659 0.000000
# 2 -0.002995 0.016733 -0.005902 0.000000 -0.000596 0.000000
# 3 -0.005311 -0.005902 0.015427 0.000000 -0.002329 0.000000
# 4 0.000000 0.000000 0.000000 0.038002 0.000000 -0.009090
# 5 0.005659 -0.000596 -0.002329 0.000000 0.037531 0.000000
# 6 0.000000 0.000000 0.000000 -0.009090 0.000000 0.034518
#
#
# Mechanical properties :
#
#
# Convention : Reuss Voigt Hill
#
# Bulk Modulus (GPa) = 67.35663 72.85665 70.10664
# Shear Modulus (GPa) = 26.78409 29.05967 27.92188
#
# Velocity S-wave (km/s) = 3.75653 3.91286 3.83549
# Velocity P-wave (km/s) = 7.36907 7.66808 7.52006
#
# Compressibility (1/GPa) = 0.01484635
#
# Stress axis : x y z
#
# Youngs Moduli (GPa) = 90.07715 59.76037 64.82235
#
# Poissons Ratio (x) = 0.17900 0.34426
# Poissons Ratio (y) = 0.26980 0.38256
# Poissons Ratio (z) = 0.47838 0.35269
#
# Static dielectric constant tensor:
#      x y z
#    x 4.034170 0.000000 -0.378440 
#    y 0.000000 3.335270 0.000000 
#    z -0.378440 0.000000 3.672760 
# 
# 
# High freq. dielectric constant tensor:
#      x y z
#    x 1.756910 0.000000 -0.012840 
#    y 0.000000 1.728120 0.000000 
#    z -0.012840 0.000000 1.720680 
# 
# From -- ./inp_files/206565.got.cif
#   From: 2010.06.25/outbox.cif.g09.slc.cpg/sg12_104_cif.got.tgz:206565.got - 2010.06.28 00:19:55.
