data_PCOD8108675
_publ_section_title
;
Structure prediction by ZEFSAII (Michael W. Deem and Ramdas Pophale) SiO2 
 PCOD8108675
Probable space group: C 2/M
;
_chemical_formula_sum "Si O2"
_cell_formula_units_Z 40
_cell_length_a 24.047234
_cell_length_b 8.427872
_cell_length_c 27.798627
_cell_angle_alpha 90.000000
_cell_angle_beta 160.516994
_cell_angle_gamma 90.000000
_cell_volume 1879.047407
_symmetry_space_group_name_H-M "C 2/M"
_symmetry_group_IT_number 12
_symmetry_cell_setting 'monoclinic'
loop_
_space_group_symop_operation_xyz
x,y,z
-x,y,-z
-x,-y,-z
x,-y,z
1/2+x,1/2+y,z
1/2-x,1/2+y,-z
1/2-x,1/2-y,-z
1/2+x,1/2-y,z
loop_
_atom_site_type_symbol
_atom_site_label
_atom_site_fract_x
_atom_site_fract_y
_atom_site_fract_z
Si Si1 0.623168 0.185307 0.356819
Si Si2 0.818175 0.183083 0.341592
Si Si3 0.935722 0.815479 0.791210
Si Si4 0.272220 0.686825 0.101710
Si Si5 0.328969 0.182523 0.878013
O O1 0.750000 0.250000 0.500000
O O2 0.662425 0.262383 0.336858
O O3 0.432356 0.221534 0.213471
O O4 0.653304 0.000000 0.377152
O O5 0.677911 0.280707 0.255121
O O6 0.803729 0.201825 0.272505
O O7 0.000000 0.253366 0.500000
O O8 0.801743 0.000000 0.344236
O O9 0.111117 0.722490 0.937597
O O10 0.976753 0.000000 0.822255
O O11 0.310921 0.500000 0.132582
O O12 0.239864 0.757045 0.128927
O O13 0.369861 0.000000 0.923658
O O14 0.500000 0.266146 0.000000
#
# Coordination Sequence:
#
# PCOD8108675 Si02
#       5
#     8   8   8   8   8
#     4  12  27  47  68  95 128 166 212 267 327 388
#     4  10  21  38  63  94 128 170 214 262 322 387
#     4  12  25  43  65  94 130 172 219 269 322 380
#     4  11  22  41  69  97 129 171 217 267 318 383
#     4   9  17  34  61  94 126 162 208 254 310 381
#
# _framework density 21.287382999999998
#
# number of rings (size 3 to 8) (size 9 to 14) (size 15 to 20)
#    0.000    1.200    2.000    4.800    2.800    0.400 
#    0.000    3.000    0.000    0.000    0.000    0.000 
#    0.000    0.000    0.000    0.000    0.000    0.000 
#
# Total GULP energy -248054.151789 kJ/mol
# GULP energy per Si atom -12402.707589 kJ/mol
# Density = 2.123893 g / cm^3
# Si number density = 21.287383 Si / 1000 Ang^3
#
#
#
# Elastic Constant Matrix: (Units=GPa)
#
#
# Indices 1 2 3 4 5 6 
#
# 1 95.8232 22.7035 14.2134 -0.0075 -15.0841 0.0003
# 2 22.7035 70.7566 7.2643 -0.1184 -1.0099 -0.0004
# 3 14.2134 7.2643 109.1760 -0.0496 -7.5412 0.0062
# 4 -0.0075 -0.1184 -0.0496 31.2690 0.0107 3.2464
# 5 -15.0841 -1.0099 -7.5412 0.0107 38.0276 0.0087
# 6 0.0003 -0.0004 0.0062 3.2464 0.0087 26.8032
#
#
#
# Elastic Compliance Matrix: (Units=1/GPa)
#
#
# Indices 1 2 3 4 5 6 
#
# 1 0.012188 -0.003741 -0.001025 -0.000014 0.004532 0.000000
# 2 -0.003741 0.015380 -0.000619 0.000057 -0.001198 -0.000006
# 3 -0.001025 -0.000619 0.009434 0.000012 0.001448 -0.000004
# 4 -0.000014 0.000057 0.000012 0.032388 -0.000010 -0.003923
# 5 0.004532 -0.001198 0.001448 -0.000010 0.028350 -0.000008
# 6 0.000000 -0.000006 -0.000004 -0.003923 -0.000008 0.037784
#
#
# Mechanical properties :
#
#
# Convention : Reuss Voigt Hill
#
# Bulk Modulus (GPa) = 38.12081 40.45758 39.28919
# Shear Modulus (GPa) = 32.25045 34.65826 33.45436
#
# Velocity S-wave (km/s) = 3.89653 4.03937 3.96859
# Velocity P-wave (km/s) = 6.17984 6.38764 6.28460
#
# Compressibility (1/GPa) = 0.02623239
#
# Stress axis : x y z
#
# Youngs Moduli (GPa) = 82.05082 65.02043 105.99793
#
# Poissons Ratio (x) = 0.24322 0.10862
# Poissons Ratio (y) = 0.30693 0.06562
# Poissons Ratio (z) = 0.08408 0.04025
#
# Static dielectric constant tensor:
#      x y z
#    x 4.095210 0.000010 -0.106430 
#    y 0.000010 3.592940 -0.000060 
#    z -0.106430 -0.000060 3.889120 
# 
# 
# High freq. dielectric constant tensor:
#      x y z
#    x 1.851440 0.000000 -0.007810 
#    y 0.000000 1.810860 -0.000010 
#    z -0.007810 -0.000010 1.841080 
# 
# From -- ./inp_files/365291.got.cif
#   From: 2010.06.25/outbox.cif.g09.slc.cpg/sg12_183_cif.got.tgz:365291.got - 2010.06.28 00:19:55.
