data_PCOD8108024
_publ_section_title
;
Structure prediction by ZEFSAII (Michael W. Deem and Ramdas Pophale) SiO2 
 PCOD8108024
Probable space group: C 2/M
;
_chemical_formula_sum "Si O2"
_cell_formula_units_Z 40
_cell_length_a 14.625625
_cell_length_b 15.359998
_cell_length_c 9.676994
_cell_angle_alpha 90.000000
_cell_angle_beta 116.904973
_cell_angle_gamma 90.000000
_cell_volume 1938.622300
_symmetry_space_group_name_H-M "C 2/M"
_symmetry_group_IT_number 12
_symmetry_cell_setting 'monoclinic'
loop_
_space_group_symop_operation_xyz
x,y,z
-x,y,-z
-x,-y,-z
x,-y,z
1/2+x,1/2+y,z
1/2-x,1/2+y,-z
1/2-x,1/2-y,-z
1/2+x,1/2-y,z
loop_
_atom_site_type_symbol
_atom_site_label
_atom_site_fract_x
_atom_site_fract_y
_atom_site_fract_z
Si Si1 0.390913 0.903223 0.993307
Si Si2 0.256917 0.675044 0.315484
Si Si3 0.124078 0.821328 0.344740
Si Si4 0.109452 0.767367 0.834266
Si Si5 0.879348 0.903609 0.933773
O O1 0.383020 0.831069 0.106624
O O2 0.383129 0.000000 0.053480
O O3 0.500000 0.887454 0.000000
O O4 0.302612 0.896721 0.815590
O O5 0.173037 0.728301 0.344133
O O6 0.334494 0.636130 0.484040
O O7 0.325050 0.733869 0.260010
O O8 0.160924 0.885721 0.247996
O O9 0.003060 0.804376 0.274159
O O10 0.161000 0.831979 0.984156
O O11 0.845428 0.000000 0.960249
O O12 0.000000 0.895038 0.000000
#
# Coordination Sequence:
#
# PCOD8108024 Si02
#       5
#     8   8   8   8   8
#     4  11  22  39  62  88 124 164 204 248 294 356
#     4  11  22  37  60  89 116 159 198 248 300 357
#     4  10  21  38  59  85 122 153 197 245 309 355
#     4  11  20  40  62  89 117 157 204 252 299 356
#     4   9  18  34  58  83 114 151 189 240 298 355
#
# _framework density 20.633209999999998
#
# number of rings (size 3 to 8) (size 9 to 14) (size 15 to 20)
#    0.000    1.600    4.000    1.800    0.000    1.600 
#    0.000    0.000    0.000    9.600    0.000    0.000 
#    0.000    0.000    0.000    0.000    0.000    0.000 
#
# Total GULP energy -247872.021632 kJ/mol
# GULP energy per Si atom -12393.601082 kJ/mol
# Density = 2.058625 g / cm^3
# Si number density = 20.633210 Si / 1000 Ang^3
#
#
#
# Elastic Constant Matrix: (Units=GPa)
#
#
# Indices 1 2 3 4 5 6 
#
# 1 74.3908 8.1072 35.8126 0.0000 -0.4365 0.0000
# 2 8.1072 101.4755 28.7621 0.0000 -6.7792 0.0000
# 3 35.8126 28.7621 138.6396 0.0000 2.6272 0.0000
# 4 0.0000 0.0000 0.0000 16.5865 0.0000 6.6625
# 5 -0.4365 -6.7792 2.6272 0.0000 31.3010 0.0000
# 6 0.0000 0.0000 0.0000 6.6625 0.0000 -3.0250
#
#
#
# Elastic Compliance Matrix: (Units=1/GPa)
#
#
# Indices 1 2 3 4 5 6 
#
# 1 0.015361 -0.000068 -0.003964 0.000000 0.000532 0.000000
# 2 -0.000068 0.010662 -0.002242 0.000000 0.002496 0.000000
# 3 -0.003964 -0.002242 0.008726 0.000000 -0.001273 0.000000
# 4 0.000000 0.000000 0.000000 0.031989 0.000000 0.070455
# 5 0.000532 0.002496 -0.001273 0.000000 0.032603 0.000000
# 6 0.000000 0.000000 0.000000 0.070455 0.000000 -0.175401
#
#
# Mechanical properties :
#
#
# Convention : Reuss Voigt Hill
#
# Bulk Modulus (GPa) = 45.04099 51.09661 48.06880
# Shear Modulus (GPa) = -89.10965 25.09411 -32.00777
#
# Velocity S-wave (km/s) = -6.57885 3.49119 -3.94289
# Velocity P-wave (km/s) = 5.98595 6.40853 1.61828
#
# Compressibility (1/GPa) = 0.02220200
#
# Stress axis : x y z
#
# Youngs Moduli (GPa) = 65.09827 93.78932 114.59891
#
# Poissons Ratio (x) = 0.00639 0.45427
# Poissons Ratio (y) = 0.00444 0.25689
# Poissons Ratio (z) = 0.25805 0.21024
#
# Static dielectric constant tensor:
#      x y z
#    x 3.788930 0.000000 0.170700 
#    y 0.000000 3.551720 0.000000 
#    z 0.170700 0.000000 4.100300 
# 
# 
# High freq. dielectric constant tensor:
#      x y z
#    x 1.817040 0.000000 0.005020 
#    y 0.000000 1.782600 0.000000 
#    z 0.005020 0.000000 1.807080 
# 
# From -- ./inp_files/58912.got.cif
#   From: 2010.06.25/outbox.cif.g09.slc.cpg/sg12_30_cif.got.tgz:58912.got - 2010.06.28 00:19:55.
