data_PCOD8108665
_publ_section_title
;
Structure prediction by ZEFSAII (Michael W. Deem and Ramdas Pophale) SiO2 
 PCOD8108665
Probable space group: C 2/M
;
_chemical_formula_sum "Si O2"
_cell_formula_units_Z 64
_cell_length_a 10.023821
_cell_length_b 25.148441
_cell_length_c 19.078533
_cell_angle_alpha 90.000000
_cell_angle_beta 141.658971
_cell_angle_gamma 90.000000
_cell_volume 2983.456599
_symmetry_space_group_name_H-M "C 2/M"
_symmetry_group_IT_number 12
_symmetry_cell_setting 'monoclinic'
loop_
_space_group_symop_operation_xyz
x,y,z
-x,y,-z
-x,-y,-z
x,-y,z
1/2+x,1/2+y,z
1/2-x,1/2+y,-z
1/2-x,1/2-y,-z
1/2+x,1/2-y,z
loop_
_atom_site_type_symbol
_atom_site_label
_atom_site_fract_x
_atom_site_fract_y
_atom_site_fract_z
Si Si1 0.307155 0.698863 0.874594
Si Si2 0.869907 0.217108 0.306461
Si Si3 0.453732 0.869162 0.798744
Si Si4 0.410957 0.376144 0.797099
Si Si5 0.231693 0.295062 0.615263
Si Si6 0.473730 0.939706 0.412848
Si Si7 0.741725 0.561093 0.595813
Si Si8 0.165084 0.439602 0.005427
O O1 0.226062 0.746131 0.793380
O O2 0.404662 0.650291 0.870618
O O3 0.115933 0.678076 0.845049
O O4 0.500000 0.722890 0.000000
O O5 0.758599 0.159132 0.256792
O O6 0.827635 0.241421 0.366179
O O7 0.127222 0.214499 0.396971
O O8 0.393911 0.903070 0.706014
O O9 0.561217 0.908843 0.897828
O O10 0.383059 0.332622 0.724723
O O11 0.629653 0.408624 0.879819
O O12 0.213056 0.415776 0.710965
O O13 0.000000 0.321102 0.500000
O O14 0.500000 0.912078 0.500000
O O15 0.692168 0.933605 0.458452
O O16 0.406991 0.000000 0.398004
O O17 0.500000 0.582636 0.500000
O O18 0.757358 0.500000 0.628035
O O19 0.225961 0.500000 0.007337
O O20 0.000000 0.441970 0.000000
#
# Coordination Sequence:
#
# PCOD8108665 Si02
#       8
#     8   8   8   8   8   8   8   8
#     4  11  23  43  66  96 128 170 224 284 326 410
#     4  11  25  43  67  96 132 176 221 282 342 399
#     4  12  23  44  70  98 134 178 230 274 350 398
#     4  11  22  40  64  92 130 170 222 269 338 393
#     4  11  24  42  65  95 133 173 225 277 339 403
#     4  10  21  38  63  93 128 171 219 275 336 398
#     4  10  23  42  66  99 136 177 226 277 334 407
#     4  11  25  43  66 100 138 176 226 285 342 407
#
# _framework density 21.451627999999999
#
# number of rings (size 3 to 8) (size 9 to 14) (size 15 to 20)
#    0.000    1.125    3.750    2.250    0.000    5.500 
#    0.000    3.125    0.000    0.000    0.000    0.000 
#    0.000    0.000    0.000    0.000    0.000    0.000 
#
# Total GULP energy -396836.041909 kJ/mol
# GULP energy per Si atom -12401.126310 kJ/mol
# Density = 2.140280 g / cm^3
# Si number density = 21.451628 Si / 1000 Ang^3
#
#
#
# Elastic Constant Matrix: (Units=GPa)
#
#
# Indices 1 2 3 4 5 6 
#
# 1 106.0759 31.9676 28.3771 -0.0018 14.0914 -0.0015
# 2 31.9676 87.9224 30.7413 -0.0001 3.4226 -0.0001
# 3 28.3771 30.7413 95.3758 -0.0032 7.4888 -0.0014
# 4 -0.0018 -0.0001 -0.0032 22.8190 -0.0012 3.8648
# 5 14.0914 3.4226 7.4888 -0.0012 38.0629 -0.0003
# 6 -0.0015 -0.0001 -0.0014 3.8648 -0.0003 27.1009
#
#
#
# Elastic Compliance Matrix: (Units=1/GPa)
#
#
# Indices 1 2 3 4 5 6 
#
# 1 0.011444 -0.003302 -0.002063 0.000000 -0.003534 0.000000
# 2 -0.003302 0.013775 -0.003511 -0.000001 0.000674 0.000000
# 3 -0.002063 -0.003511 0.012336 0.000001 -0.001348 0.000000
# 4 0.000000 -0.000001 0.000001 0.044908 0.000001 -0.006404
# 5 -0.003534 0.000674 -0.001348 0.000001 0.027785 0.000000
# 6 0.000000 0.000000 0.000000 -0.006404 0.000000 0.037813
#
#
# Mechanical properties :
#
#
# Convention : Reuss Voigt Hill
#
# Bulk Modulus (GPa) = 50.49512 52.39401 51.44456
# Shear Modulus (GPa) = 29.00015 30.81576 29.90796
#
# Velocity S-wave (km/s) = 3.68079 3.79426 3.73796
# Velocity P-wave (km/s) = 6.45403 6.60852 6.53173
#
# Compressibility (1/GPa) = 0.01980389
#
# Stress axis : x y z
#
# Youngs Moduli (GPa) = 87.38489 72.59327 81.06350
#
# Poissons Ratio (x) = 0.23969 0.16724
# Poissons Ratio (y) = 0.28853 0.28458
# Poissons Ratio (z) = 0.18028 0.25485
#
# Static dielectric constant tensor:
#      x y z
#    x 3.979990 0.000000 0.023810 
#    y 0.000000 3.961010 0.000000 
#    z 0.023810 0.000000 3.859300 
# 
# 
# High freq. dielectric constant tensor:
#      x y z
#    x 1.848900 0.000000 0.003320 
#    y 0.000000 1.847900 0.000000 
#    z 0.003320 0.000000 1.843170 
# 
# From -- ./inp_files/260380.got.cif
#   From: 2010.06.25/outbox.cif.g09.slc.cpg/sg12_131_cif.got.tgz:260380.got - 2010.06.28 00:19:55.
