data_PCOD8108012
_publ_section_title
;
Structure prediction by ZEFSAII (Michael W. Deem and Ramdas Pophale) SiO2 
 PCOD8108012
Probable space group: C 2/M
;
_chemical_formula_sum "Si O2"
_cell_formula_units_Z 48
_cell_length_a 10.245479
_cell_length_b 8.716040
_cell_length_c 27.049755
_cell_angle_alpha 90.000000
_cell_angle_beta 100.798001
_cell_angle_gamma 90.000000
_cell_volume 2372.773129
_symmetry_space_group_name_H-M "C 2/M"
_symmetry_group_IT_number 12
_symmetry_cell_setting 'monoclinic'
loop_
_space_group_symop_operation_xyz
x,y,z
-x,y,-z
-x,-y,-z
x,-y,z
1/2+x,1/2+y,z
1/2-x,1/2+y,-z
1/2-x,1/2-y,-z
1/2+x,1/2-y,z
loop_
_atom_site_type_symbol
_atom_site_label
_atom_site_fract_x
_atom_site_fract_y
_atom_site_fract_z
Si Si1 0.641910 0.319404 0.028018
Si Si2 0.519267 0.177967 0.299354
Si Si3 0.858732 0.319112 0.472440
Si Si4 0.289937 0.179098 0.863656
Si Si5 0.497851 0.321147 0.807121
Si Si6 0.282572 0.821272 0.357385
O O1 0.649310 0.500000 0.023901
O O2 0.664031 0.273165 0.085819
O O3 0.500000 0.256810 0.000000
O O4 0.750000 0.250000 0.000000
O O5 0.499371 0.282435 0.250173
O O6 0.397966 0.215166 0.326811
O O7 0.655522 0.219297 0.336022
O O8 0.521418 0.000000 0.284223
O O9 0.855140 0.500000 0.477669
O O10 0.750000 0.250000 0.500000
O O11 0.833933 0.268431 0.414469
O O12 0.000000 0.252926 0.500000
O O13 0.381942 0.223643 0.824208
O O14 0.138559 0.223158 0.841069
O O15 0.304366 0.000000 0.875748
O O16 0.466495 0.500000 0.811835
O O17 0.243144 0.000000 0.353675
#
# Coordination Sequence:
#
# PCOD8108012 Si02
#       6
#     8   8   8   8   8   8
#     4  11  24  41  62  90 123 159 200 245 293 347
#     4  11  23  39  61  87 115 152 196 239 288 347
#     4  10  21  38  59  85 117 152 193 240 289 345
#     4  11  24  41  63  91 120 155 199 243 292 350
#     4  11  24  41  61  88 121 154 193 242 293 348
#     4  10  22  39  59  85 118 154 192 239 293 345
#
# _framework density 20.229492
#
# number of rings (size 3 to 8) (size 9 to 14) (size 15 to 20)
#    0.000    1.333    0.000    5.000    0.000   14.333 
#    0.000    0.000    0.000    0.000    0.000    0.000 
#    0.000    0.000    0.000    0.000    0.000    0.000 
#
# Total GULP energy -297768.194707 kJ/mol
# GULP energy per Si atom -12407.008113 kJ/mol
# Density = 2.018345 g / cm^3
# Si number density = 20.229492 Si / 1000 Ang^3
#
#
#
# Elastic Constant Matrix: (Units=GPa)
#
#
# Indices 1 2 3 4 5 6 
#
# 1 -38.9543 -11.3237 -101.2263 0.0000 -2.3939 0.0000
# 2 -11.3237 19.1811 -24.8277 0.0000 4.1121 0.0000
# 3 -101.2263 -24.8277 9.9130 0.0000 -0.7931 0.0000
# 4 0.0000 0.0000 0.0000 32.7993 0.0000 -2.9865
# 5 -2.3939 4.1121 -0.7931 0.0000 44.5691 0.0000
# 6 0.0000 0.0000 0.0000 -2.9865 0.0000 35.9070
#
#
#
# Elastic Compliance Matrix: (Units=1/GPa)
#
#
# Indices 1 2 3 4 5 6 
#
# 1 0.001831 -0.011229 -0.009350 0.000000 0.000968 0.000000
# 2 -0.011229 0.045669 -0.000673 0.000000 -0.004829 0.000000
# 3 -0.009350 -0.000673 0.003682 0.000000 -0.000375 0.000000
# 4 0.000000 0.000000 0.000000 0.030721 0.000000 0.002555
# 5 0.000968 -0.004829 -0.000375 0.000000 0.022928 0.000000
# 6 0.000000 0.000000 0.000000 0.002555 0.000000 0.028062
#
#
# Mechanical properties :
#
#
# Convention : Reuss Voigt Hill
#
# Bulk Modulus (GPa) = 115.24991 -31.62395 41.81298
# Shear Modulus (GPa) = 28.04399 31.15626 29.60012
#
# Velocity S-wave (km/s) = 3.72733 3.92872 3.82935
# Velocity P-wave (km/s) = 8.69591 2.21659 6.34556
#
# Compressibility (1/GPa) = 0.00867680
#
# Stress axis : x y z
#
# Youngs Moduli (GPa) = 546.15890 21.89669 271.56649
#
# Poissons Ratio (x) = 0.24588 2.53920
# Poissons Ratio (y) = 6.13299 0.18283
# Poissons Ratio (z) = 5.10668 0.01474
#
# Static dielectric constant tensor:
#      x y z
#    x 3.912800 0.000000 0.114170 
#    y 0.000000 3.638810 0.000000 
#    z 0.114170 0.000000 3.683850 
# 
# 
# High freq. dielectric constant tensor:
#      x y z
#    x 1.809030 0.000000 0.000640 
#    y 0.000000 1.791890 0.000000 
#    z 0.000640 0.000000 1.808490 
# 
# From -- ./inp_files/371860.got.cif
#   From: 2010.06.25/outbox.cif.g09.slc.cpg/sg12_186_cif.got.tgz:371860.got - 2010.06.28 00:19:55.
