data_PCOD8108667
_publ_section_title
;
Structure prediction by ZEFSAII (Michael W. Deem and Ramdas Pophale) SiO2 
 PCOD8108667
Probable space group: C 2/M
;
_chemical_formula_sum "Si O2"
_cell_formula_units_Z 56
_cell_length_a 14.213440
_cell_length_b 22.259895
_cell_length_c 9.229527
_cell_angle_alpha 90.000000
_cell_angle_beta 114.498159
_cell_angle_gamma 90.000000
_cell_volume 2657.241487
_symmetry_space_group_name_H-M "C 2/M"
_symmetry_group_IT_number 12
_symmetry_cell_setting 'monoclinic'
loop_
_space_group_symop_operation_xyz
x,y,z
-x,y,-z
-x,-y,-z
x,-y,z
1/2+x,1/2+y,z
1/2-x,1/2+y,-z
1/2-x,1/2-y,-z
1/2+x,1/2-y,z
loop_
_atom_site_type_symbol
_atom_site_label
_atom_site_fract_x
_atom_site_fract_y
_atom_site_fract_z
Si Si1 0.116241 0.356409 0.583052
Si Si2 0.615726 0.067777 0.075236
Si Si3 0.255762 0.931855 0.125408
Si Si4 0.434663 0.429487 0.598807
Si Si5 0.241019 0.359131 0.385427
Si Si6 0.398661 0.725084 0.342334
Si Si7 0.938808 0.855525 0.099428
O O1 0.192310 0.406148 0.696529
O O2 0.155529 0.339077 0.447402
O O3 0.116168 0.296476 0.681576
O O4 0.000000 0.382607 0.500000
O O5 0.688001 0.108787 0.217523
O O6 0.616806 0.000000 0.139124
O O7 0.500000 0.093880 0.000000
O O8 0.656002 0.068702 0.938357
O O9 0.217095 0.000000 0.130229
O O10 0.161740 0.890571 0.016700
O O11 0.500000 0.410122 0.500000
O O12 0.430746 0.500000 0.615675
O O13 0.319505 0.405257 0.510198
O O14 0.487092 0.402823 0.774455
O O15 0.299291 0.300869 0.361903
O O16 0.500000 0.708913 0.500000
O O17 0.408593 0.698905 0.186581
O O18 0.000000 0.828753 0.000000
#
# Coordination Sequence:
#
# PCOD8108667 Si02
#       7
#     8   8   8   8   8   8   8
#     4  11  27  44  65  93 127 171 224 271 321 374
#     4  10  21  38  63  93 130 172 216 266 321 379
#     4  11  24  43  64  94 136 170 208 267 328 385
#     4  11  21  37  66 102 136 172 213 261 326 399
#     4  12  20  41  68  92 125 174 218 271 317 382
#     4  11  23  46  66  94 130 168 219 270 322 389
#     4  12  23  40  65  98 137 169 206 266 330 390
#
# _framework density 21.074484999999999
#
# number of rings (size 3 to 8) (size 9 to 14) (size 15 to 20)
#    0.000    0.857    4.286    3.000    0.000    6.571 
#    0.000    0.714    0.000    0.000    0.000    0.000 
#    0.000    0.000    0.000    0.000    0.000    0.000 
#
# Total GULP energy -347353.089896 kJ/mol
# GULP energy per Si atom -12405.467496 kJ/mol
# Density = 2.102652 g / cm^3
# Si number density = 21.074485 Si / 1000 Ang^3
#
#
#
# Elastic Constant Matrix: (Units=GPa)
#
#
# Indices 1 2 3 4 5 6 
#
# 1 105.0345 3.3016 29.7047 0.0000 -11.9454 0.0000
# 2 3.3016 65.3764 20.7104 0.0000 -6.3369 0.0000
# 3 29.7047 20.7104 92.6060 0.0000 2.5282 0.0000
# 4 0.0000 0.0000 0.0000 34.4867 0.0000 1.5809
# 5 -11.9454 -6.3369 2.5282 0.0000 45.5457 0.0000
# 6 0.0000 0.0000 0.0000 1.5809 0.0000 19.1341
#
#
#
# Elastic Compliance Matrix: (Units=1/GPa)
#
#
# Indices 1 2 3 4 5 6 
#
# 1 0.010934 0.000967 -0.003811 0.000000 0.003214 0.000000
# 2 0.000967 0.016837 -0.004153 0.000000 0.002827 0.000000
# 3 -0.003811 -0.004153 0.013012 0.000000 -0.002300 0.000000
# 4 0.000000 0.000000 0.000000 0.029107 0.000000 -0.002405
# 5 0.003214 0.002827 -0.002300 0.000000 0.023320 0.000000
# 6 0.000000 0.000000 0.000000 -0.002405 0.000000 0.052461
#
#
# Mechanical properties :
#
#
# Convention : Reuss Voigt Hill
#
# Bulk Modulus (GPa) = 37.32923 41.16112 39.24518
# Shear Modulus (GPa) = 29.65701 33.78664 31.72183
#
# Velocity S-wave (km/s) = 3.75540 4.00834 3.88393
# Velocity P-wave (km/s) = 6.04611 6.40282 6.22702
#
# Compressibility (1/GPa) = 0.02678866
#
# Stress axis : x y z
#
# Youngs Moduli (GPa) = 91.46144 59.39406 76.85013
#
# Poissons Ratio (x) = -0.05741 0.29288
# Poissons Ratio (y) = -0.08841 0.31913
# Poissons Ratio (z) = 0.34856 0.24664
#
# Static dielectric constant tensor:
#      x y z
#    x 4.038220 0.000000 -0.065830 
#    y 0.000000 3.714420 0.000000 
#    z -0.065830 0.000000 3.558420 
# 
# 
# High freq. dielectric constant tensor:
#      x y z
#    x 1.843040 0.000000 0.000100 
#    y 0.000000 1.820070 0.000000 
#    z 0.000100 0.000000 1.826930 
# 
# From -- ./inp_files/65947.got.cif
#   From: 2010.06.25/outbox.cif.g09.slc.cpg/sg12_33_cif.got.tgz:65947.got - 2010.06.28 00:19:55.
