data_PCOD8108919
_publ_section_title
;
Structure prediction by ZEFSAII (Michael W. Deem and Ramdas Pophale) SiO2 
 PCOD8108919
Probable space group: C 2/M
;
_chemical_formula_sum "Si O2"
_cell_formula_units_Z 64
_cell_length_a 18.761338
_cell_length_b 8.626567
_cell_length_c 30.928910
_cell_angle_alpha 90.000000
_cell_angle_beta 139.232894
_cell_angle_gamma 90.000000
_cell_volume 3268.663588
_symmetry_space_group_name_H-M "C 2/M"
_symmetry_group_IT_number 12
_symmetry_cell_setting 'monoclinic'
loop_
_space_group_symop_operation_xyz
x,y,z
-x,y,-z
-x,-y,-z
x,-y,z
1/2+x,1/2+y,z
1/2-x,1/2+y,-z
1/2-x,1/2-y,-z
1/2+x,1/2-y,z
loop_
_atom_site_type_symbol
_atom_site_label
_atom_site_fract_x
_atom_site_fract_y
_atom_site_fract_z
Si Si1 0.491521 0.676237 0.425821
Si Si2 0.547840 0.820540 0.681199
Si Si3 0.271013 0.318305 0.179799
Si Si4 0.095113 0.178694 0.314338
Si Si5 0.081843 0.319936 0.823691
Si Si6 0.870257 0.317376 0.056969
Si Si7 0.963892 0.181474 0.935213
Si Si8 0.676822 0.323919 0.574935
O O1 0.492358 0.500000 0.408917
O O2 0.464271 0.793689 0.375141
O O3 0.398902 0.697554 0.418667
O O4 0.608776 0.717869 0.500517
O O5 0.665924 0.766130 0.752199
O O6 0.453214 0.725207 0.661558
O O7 0.532968 0.000000 0.685093
O O8 0.284400 0.500000 0.192305
O O9 0.321678 0.270950 0.156739
O O10 0.145231 0.274217 0.125719
O O11 0.223441 0.207750 0.373964
O O12 0.036421 0.275875 0.249518
O O13 0.071821 0.000000 0.294466
O O14 0.105361 0.500000 0.827036
O O15 0.080605 0.278125 0.873512
O O16 0.868814 0.500000 0.047035
O O17 0.941822 0.232219 0.054044
O O18 0.750000 0.250000 0.000000
O O19 0.941152 0.000000 0.919867
O O20 0.000000 0.224739 0.000000
O O21 0.720021 0.500000 0.591766
#
# Coordination Sequence:
#
# PCOD8108919 Si02
#       8
#     8   8   8   8   8   8   8   8
#     4   9  19  37  59  82 110 146 188 231 280 337
#     4  11  22  37  58  83 114 150 187 231 282 333
#     4  11  22  38  61  86 114 148 188 233 280 334
#     4  11  22  36  57  84 113 147 188 233 279 331
#     4  10  21  39  60  83 114 149 186 229 281 336
#     4  11  24  40  61  88 117 152 190 232 281 334
#     4  11  24  41  61  86 117 152 190 233 280 331
#     4   9  19  37  59  81 110 148 185 229 284 337
#
# _framework density 19.579868000000001
#
# number of rings (size 3 to 8) (size 9 to 14) (size 15 to 20)
#    0.000    1.625    0.000    7.500    0.000    8.500 
#    0.000    2.500    0.000    0.000    0.000    0.000 
#    0.000    0.000    0.000    0.000    0.000    0.000 
#
# Total GULP energy -396936.609836 kJ/mol
# GULP energy per Si atom -12404.269057 kJ/mol
# Density = 1.953530 g / cm^3
# Si number density = 19.579868 Si / 1000 Ang^3
#
#
#
# Elastic Constant Matrix: (Units=GPa)
#
#
# Indices 1 2 3 4 5 6 
#
# 1 87.2811 21.1717 57.1149 0.0000 -1.5283 0.0000
# 2 21.1717 65.9555 29.9778 -0.0001 -4.4949 0.0000
# 3 57.1149 29.9778 108.3477 0.0000 -0.8295 0.0001
# 4 0.0000 -0.0001 0.0000 34.2892 0.0000 1.6547
# 5 -1.5283 -4.4949 -0.8295 0.0000 42.9820 -0.0001
# 6 0.0000 0.0000 0.0001 1.6547 -0.0001 33.7783
#
#
#
# Elastic Compliance Matrix: (Units=1/GPa)
#
#
# Indices 1 2 3 4 5 6 
#
# 1 0.017648 -0.001622 -0.008852 0.000000 0.000287 0.000000
# 2 -0.001622 0.017620 -0.004007 0.000000 0.001708 0.000000
# 3 -0.008852 -0.004007 0.015001 0.000000 -0.000444 0.000000
# 4 0.000000 0.000000 0.000000 0.029233 0.000000 -0.001432
# 5 0.000287 0.001708 -0.000444 0.000000 0.023446 0.000000
# 6 0.000000 0.000000 0.000000 -0.001432 0.000000 0.029675
#
#
# Mechanical properties :
#
#
# Convention : Reuss Voigt Hill
#
# Bulk Modulus (GPa) = 46.93291 53.12368 50.02830
# Shear Modulus (GPa) = 29.64042 32.43119 31.03581
#
# Velocity S-wave (km/s) = 3.89501 4.07425 3.98564
# Velocity P-wave (km/s) = 6.65208 7.02306 6.84008
#
# Compressibility (1/GPa) = 0.02130701
#
# Stress axis : x y z
#
# Youngs Moduli (GPa) = 56.66206 56.75350 66.66109
#
# Poissons Ratio (x) = 0.09206 0.59010
# Poissons Ratio (y) = 0.09191 0.26711
# Poissons Ratio (z) = 0.50159 0.22741
#
# Static dielectric constant tensor:
#      x y z
#    x 3.477290 0.000000 -0.043800 
#    y 0.000000 3.687480 0.000000 
#    z -0.043800 0.000000 3.650420 
# 
# 
# High freq. dielectric constant tensor:
#      x y z
#    x 1.759150 0.000000 -0.000270 
#    y 0.000000 1.771810 0.000000 
#    z -0.000270 0.000000 1.773820 
# 
# From -- ./inp_files/378416.got.cif
#   From: 2010.06.25/outbox.cif.g09.slc.cpg/sg12_190_cif.got.tgz:378416.got - 2010.06.28 00:19:55.
