data_PCOD8108558
_publ_section_title
;
Structure prediction by ZEFSAII (Michael W. Deem and Ramdas Pophale) SiO2 
 PCOD8108558
Probable space group: C 2/M
;
_chemical_formula_sum "Si O2"
_cell_formula_units_Z 56
_cell_length_a 15.853899
_cell_length_b 8.904917
_cell_length_c 19.661406
_cell_angle_alpha 90.000000
_cell_angle_beta 78.386572
_cell_angle_gamma 90.000000
_cell_volume 2718.926280
_symmetry_space_group_name_H-M "C 2/M"
_symmetry_group_IT_number 12
_symmetry_cell_setting 'monoclinic'
loop_
_space_group_symop_operation_xyz
x,y,z
-x,y,-z
-x,-y,-z
x,-y,z
1/2+x,1/2+y,z
1/2-x,1/2+y,-z
1/2-x,1/2-y,-z
1/2+x,1/2-y,z
loop_
_atom_site_type_symbol
_atom_site_label
_atom_site_fract_x
_atom_site_fract_y
_atom_site_fract_z
Si Si1 0.268988 0.331840 0.800548
Si Si2 0.520766 0.675320 0.073890
Si Si3 0.132037 0.173431 0.346609
Si Si4 0.446700 0.325102 0.334778
Si Si5 0.235642 0.177289 0.574676
Si Si6 0.420996 0.170014 0.202251
Si Si7 0.301516 0.824222 0.930778
O O1 0.284198 0.500000 0.827037
O O2 0.343756 0.287760 0.735469
O O3 0.181355 0.323892 0.771785
O O4 0.262386 0.217957 0.864210
O O5 0.539393 0.500000 0.080312
O O6 0.442360 0.727791 0.133525
O O7 0.601202 0.770584 0.085290
O O8 0.500000 0.715482 0.000000
O O9 0.186683 0.275258 0.388585
O O10 0.029233 0.204492 0.370635
O O11 0.153627 0.000000 0.359309
O O12 0.440453 0.500000 0.316858
O O13 0.358435 0.269353 0.384043
O O14 0.464028 0.234508 0.262964
O O15 0.250000 0.250000 0.500000
O O16 0.237651 0.000000 0.566691
O O17 0.453737 0.000000 0.185222
O O18 0.294861 0.000000 0.942372
O O19 0.250000 0.750000 0.000000
#
# Coordination Sequence:
#
# PCOD8108558 Si02
#       7
#     8   8   8   8   8   8   8
#     4  10  21  38  62  91 125 163 203 255 319 382
#     4  11  24  41  60  84 117 161 208 258 317 378
#     4  10  21  41  66  93 126 166 209 260 317 380
#     4  10  22  40  65  94 127 169 215 260 317 385
#     4  11  24  42  65  95 130 170 213 264 320 383
#     4  11  22  37  62  94 124 160 205 258 316 376
#     4  12  25  40  60  86 119 160 208 263 319 381
#
# _framework density 20.596366
#
# number of rings (size 3 to 8) (size 9 to 14) (size 15 to 20)
#    0.000    1.286    1.429    4.286    0.000    8.000 
#    0.000    2.857    0.000    0.000    0.000    0.000 
#    0.000    0.000    0.000    0.000    0.000    0.000 
#
# Total GULP energy -347303.594610 kJ/mol
# GULP energy per Si atom -12403.699807 kJ/mol
# Density = 2.054949 g / cm^3
# Si number density = 20.596366 Si / 1000 Ang^3
#
#
#
# Elastic Constant Matrix: (Units=GPa)
#
#
# Indices 1 2 3 4 5 6 
#
# 1 116.3832 34.8758 46.6689 0.0000 4.0552 0.0000
# 2 34.8758 95.4248 54.3312 0.0000 3.6615 0.0000
# 3 46.6689 54.3312 118.7980 0.0000 -2.6816 0.0000
# 4 0.0000 0.0000 0.0000 39.1618 0.0000 2.1158
# 5 4.0552 3.6615 -2.6816 0.0000 26.3844 0.0000
# 6 0.0000 0.0000 0.0000 2.1158 0.0000 28.3073
#
#
#
# Elastic Compliance Matrix: (Units=1/GPa)
#
#
# Indices 1 2 3 4 5 6 
#
# 1 0.010550 -0.001906 -0.003311 0.000000 -0.001694 0.000000
# 2 -0.001906 0.014698 -0.006027 0.000000 -0.002359 0.000000
# 3 -0.003311 -0.006027 0.012534 0.000000 0.002619 0.000000
# 4 0.000000 0.000000 0.000000 0.025639 0.000000 -0.001916
# 5 -0.001694 -0.002359 0.002619 0.000000 0.038755 0.000000
# 6 0.000000 0.000000 0.000000 -0.001916 0.000000 0.035470
#
#
# Mechanical properties :
#
#
# Convention : Reuss Voigt Hill
#
# Bulk Modulus (GPa) = 65.38144 66.92864 66.15504
# Shear Modulus (GPa) = 30.26081 31.75270 31.00675
#
# Velocity S-wave (km/s) = 3.83721 3.93066 3.88422
# Velocity P-wave (km/s) = 7.17254 7.29151 7.23227
#
# Compressibility (1/GPa) = 0.01529486
#
# Stress axis : x y z
#
# Youngs Moduli (GPa) = 94.78540 68.03784 79.78443
#
# Poissons Ratio (x) = 0.12965 0.26419
# Poissons Ratio (y) = 0.18062 0.48082
# Poissons Ratio (z) = 0.31386 0.41003
#
# Static dielectric constant tensor:
#      x y z
#    x 4.079080 0.000000 -0.044930 
#    y 0.000000 3.723800 0.000000 
#    z -0.044930 0.000000 3.806140 
# 
# 
# High freq. dielectric constant tensor:
#      x y z
#    x 1.819190 0.000000 -0.002330 
#    y 0.000000 1.805630 0.000000 
#    z -0.002330 0.000000 1.802380 
# 
# From -- ./inp_files/308900.got.cif
#   From: 2010.06.25/outbox.cif.g09.slc.cpg/sg12_155_cif.got.tgz:308900.got - 2010.06.28 00:19:55.
