data_PCOD8108765
_publ_section_title
;
Structure prediction by ZEFSAII (Michael W. Deem and Ramdas Pophale) SiO2 
 PCOD8108765
Probable space group: C 2/M
;
_chemical_formula_sum "Si O2"
_cell_formula_units_Z 64
_cell_length_a 30.927862
_cell_length_b 8.763378
_cell_length_c 14.156506
_cell_angle_alpha 90.000000
_cell_angle_beta 57.515963
_cell_angle_gamma 90.000000
_cell_volume 3236.560825
_symmetry_space_group_name_H-M "C 2/M"
_symmetry_group_IT_number 12
_symmetry_cell_setting 'monoclinic'
loop_
_space_group_symop_operation_xyz
x,y,z
-x,y,-z
-x,-y,-z
x,-y,z
1/2+x,1/2+y,z
1/2-x,1/2+y,-z
1/2-x,1/2-y,-z
1/2+x,1/2-y,z
loop_
_atom_site_type_symbol
_atom_site_label
_atom_site_fract_x
_atom_site_fract_y
_atom_site_fract_z
Si Si1 0.414638 0.179723 0.501199
Si Si2 0.355600 0.181231 0.078026
Si Si3 0.305685 0.819465 0.943497
Si Si4 0.028554 0.679515 0.062626
Si Si5 0.607215 0.322508 0.273876
Si Si6 0.505554 0.322453 0.281651
Si Si7 0.711012 0.819412 0.671687
Si Si8 0.685641 0.820458 0.492833
O O1 0.411655 0.266331 0.603036
O O2 0.467227 0.224844 0.389936
O O3 0.367760 0.232160 0.489592
O O4 0.413712 0.000000 0.520842
O O5 0.324619 0.248074 0.203697
O O6 0.354933 0.000000 0.081923
O O7 0.329747 0.241962 0.012796
O O8 0.413615 0.240479 0.015114
O O9 0.341320 0.765951 0.815449
O O10 0.301599 0.000000 0.946277
O O11 0.250000 0.750000 0.000000
O O12 0.026312 0.500000 0.087547
O O13 0.000417 0.768241 0.179868
O O14 0.000000 0.720588 0.000000
O O15 0.620213 0.500000 0.264223
O O16 0.562958 0.288266 0.249724
O O17 0.491508 0.500000 0.307039
O O18 0.687213 0.764935 0.599818
O O19 0.768187 0.756146 0.619222
O O20 0.713566 0.000000 0.674587
O O21 0.693014 0.000000 0.477665
#
# Coordination Sequence:
#
# PCOD8108765 Si02
#       8
#     8   8   8   8   8   8   8   8
#     4  11  24  39  62  91 118 152 198 251 303 360
#     4   9  19  36  60  90 118 154 199 243 296 356
#     4  11  23  40  62  91 125 161 205 251 302 362
#     4  10  21  38  65  93 121 160 205 249 299 362
#     4  11  24  43  63  86 119 159 201 248 305 361
#     4  11  24  42  62  87 122 158 197 248 303 361
#     4   9  18  35  59  82 116 156 190 233 289 350
#     4   9  20  37  56  85 118 149 191 241 290 346
#
# _framework density 19.774076999999998
#
# number of rings (size 3 to 8) (size 9 to 14) (size 15 to 20)
#    0.000    1.875    1.250    1.875    3.500    4.250 
#    0.000    1.250    0.000    0.000    0.000    0.000 
#    0.000    0.000    0.000    0.000    0.000    0.000 
#
# Total GULP energy -396952.265339 kJ/mol
# GULP energy per Si atom -12404.758292 kJ/mol
# Density = 1.972907 g / cm^3
# Si number density = 19.774077 Si / 1000 Ang^3
#
#
#
# Elastic Constant Matrix: (Units=GPa)
#
#
# Indices 1 2 3 4 5 6 
#
# 1 118.8223 39.1873 48.5964 0.0000 -4.4394 0.0000
# 2 39.1873 45.5555 23.2079 0.0000 -1.4311 0.0000
# 3 48.5964 23.2079 142.8535 0.0000 -0.8017 0.0000
# 4 0.0000 0.0000 0.0000 34.0676 0.0000 -2.6987
# 5 -4.4394 -1.4311 -0.8017 0.0000 30.2539 0.0000
# 6 0.0000 0.0000 0.0000 -2.6987 0.0000 27.1403
#
#
#
# Elastic Compliance Matrix: (Units=1/GPa)
#
#
# Indices 1 2 3 4 5 6 
#
# 1 0.012736 -0.009496 -0.002782 0.000000 0.001346 0.000000
# 2 -0.009496 0.031044 -0.001813 0.000000 0.000027 0.000000
# 3 -0.002782 -0.001813 0.008240 0.000000 -0.000276 0.000000
# 4 0.000000 0.000000 0.000000 0.029586 0.000000 0.002942
# 5 0.001346 0.000027 -0.000276 0.000000 0.033245 0.000000
# 6 0.000000 0.000000 0.000000 0.002942 0.000000 0.037138
#
#
# Mechanical properties :
#
#
# Convention : Reuss Voigt Hill
#
# Bulk Modulus (GPa) = 41.95067 58.80160 50.37614
# Shear Modulus (GPa) = 26.57920 31.37500 28.97710
#
# Velocity S-wave (km/s) = 3.67023 3.98763 3.83222
# Velocity P-wave (km/s) = 6.26274 7.14163 6.71657
#
# Compressibility (1/GPa) = 0.02383752
#
# Stress axis : x y z
#
# Youngs Moduli (GPa) = 78.51873 32.21226 121.36447
#
# Poissons Ratio (x) = 0.30588 0.33767
# Poissons Ratio (y) = 0.74560 0.22003
# Poissons Ratio (z) = 0.21846 0.05840
#
# Static dielectric constant tensor:
#      x y z
#    x 3.753550 0.000000 0.062490 
#    y 0.000000 3.414620 0.000000 
#    z 0.062490 0.000000 3.776310 
# 
# 
# High freq. dielectric constant tensor:
#      x y z
#    x 1.778470 0.000000 -0.000010 
#    y 0.000000 1.757200 0.000000 
#    z -0.000010 0.000000 1.784730 
# 
# From -- ./inp_files/249714.got.cif
#   From: 2010.06.25/outbox.cif.g09.slc.cpg/sg12_125_cif.got.tgz:249714.got - 2010.06.28 00:19:55.
