data_PCOD8108830
_publ_section_title
;
Structure prediction by ZEFSAII (Michael W. Deem and Ramdas Pophale) SiO2 
 PCOD8108830
Probable space group: C 2/M
;
_chemical_formula_sum "Si O2"
_cell_formula_units_Z 64
_cell_length_a 22.853372
_cell_length_b 8.989951
_cell_length_c 22.141224
_cell_angle_alpha 90.000000
_cell_angle_beta 125.358609
_cell_angle_gamma 90.000000
_cell_volume 3709.861819
_symmetry_space_group_name_H-M "C 2/M"
_symmetry_group_IT_number 12
_symmetry_cell_setting 'monoclinic'
loop_
_space_group_symop_operation_xyz
x,y,z
-x,y,-z
-x,-y,-z
x,-y,z
1/2+x,1/2+y,z
1/2-x,1/2+y,-z
1/2-x,1/2-y,-z
1/2+x,1/2-y,z
loop_
_atom_site_type_symbol
_atom_site_label
_atom_site_fract_x
_atom_site_fract_y
_atom_site_fract_z
Si Si1 0.449354 0.673849 0.915661
Si Si2 0.812982 0.328119 0.877547
Si Si3 0.953930 0.333142 0.560293
Si Si4 0.108992 0.666981 0.593525
Si Si5 0.677816 0.172721 0.977339
Si Si6 0.480221 0.822935 0.282244
Si Si7 0.670296 0.823238 0.749565
Si Si8 0.462463 0.674588 0.150389
O O1 0.433959 0.500000 0.914177
O O2 0.373891 0.758340 0.871666
O O3 0.485931 0.712928 0.874287
O O4 0.500000 0.731582 0.000000
O O5 0.805031 0.500000 0.856856
O O6 0.737571 0.250575 0.821219
O O7 0.835503 0.301577 0.959972
O O8 0.925089 0.500000 0.551144
O O9 0.900595 0.252360 0.478724
O O10 0.962543 0.262888 0.632526
O O11 0.032803 0.338776 0.580217
O O12 0.135422 0.500000 0.596505
O O13 0.162869 0.739143 0.675340
O O14 0.613296 0.245027 0.902075
O O15 0.682169 0.000000 0.962976
O O16 0.750000 0.250000 0.000000
O O17 0.399389 0.779838 0.253109
O O18 0.500306 0.737824 0.232960
O O19 0.487514 0.000000 0.278397
O O20 0.680012 0.000000 0.753861
O O21 0.448682 0.500000 0.147745
#
# Coordination Sequence:
#
# PCOD8108830 Si02
#       8
#     8   8   8   8   8   8   8   8
#     4  10  21  39  58  71  86 117 161 205 246 289
#     4  11  23  35  50  72  96 123 157 200 246 284
#     4   7  10  19  38  65  96 126 160 195 227 267
#     4   7  10  19  38  65  94 126 162 196 224 263
#     4  11  23  36  51  72  98 128 159 191 232 284
#     4   9  17  29  47  73 103 134 161 193 237 284
#     4   9  17  29  47  71 101 134 164 193 231 281
#     4  11  22  35  52  72  94 123 159 200 243 285
#
# _framework density 17.251317
#
# number of rings (size 3 to 8) (size 9 to 14) (size 15 to 20)
#    0.000    2.625    1.250    4.125    0.000    5.250 
#    0.000    0.000    0.000    0.750    0.000    4.375 
#    0.000    0.000    0.000    0.000    0.000    0.000 
#
# Total GULP energy -396436.261845 kJ/mol
# GULP energy per Si atom -12388.633183 kJ/mol
# Density = 1.721205 g / cm^3
# Si number density = 17.251317 Si / 1000 Ang^3
#
#
#
# Elastic Constant Matrix: (Units=GPa)
#
#
# Indices 1 2 3 4 5 6 
#
# 1 65.8770 32.4652 22.1250 0.0000 -16.8768 0.0000
# 2 32.4652 48.6038 23.9688 0.0000 -10.9289 0.0000
# 3 22.1250 23.9688 83.8947 0.0000 -36.5772 0.0000
# 4 0.0000 0.0000 0.0000 13.8582 0.0000 -2.8579
# 5 -16.8768 -10.9289 -36.5772 0.0000 24.8917 0.0000
# 6 0.0000 0.0000 0.0000 -2.8579 0.0000 21.4057
#
#
#
# Elastic Compliance Matrix: (Units=1/GPa)
#
#
# Indices 1 2 3 4 5 6 
#
# 1 0.026110 -0.016116 0.006545 0.000000 0.020244 0.000000
# 2 -0.016116 0.033911 -0.010327 0.000000 -0.011213 0.000000
# 3 0.006545 -0.010327 0.036462 0.000000 0.053482 0.000000
# 4 0.000000 0.000000 0.000000 0.074203 0.000000 0.009907
# 5 0.020244 -0.011213 0.053482 0.000000 0.127566 0.000000
# 6 0.000000 0.000000 0.000000 0.009907 0.000000 0.048039
#
#
# Mechanical properties :
#
#
# Convention : Reuss Voigt Hill
#
# Bulk Modulus (GPa) = 17.64086 39.49929 28.57007
# Shear Modulus (GPa) = 12.34625 20.01888 16.18256
#
# Velocity S-wave (km/s) = 2.67810 3.41020 3.06608
# Velocity P-wave (km/s) = 4.45095 6.20097 5.39736
#
# Compressibility (1/GPa) = 0.05668659
#
# Stress axis : x y z
#
# Youngs Moduli (GPa) = 38.29925 29.48932 27.42609
#
# Poissons Ratio (x) = 0.47525 -0.17950
# Poissons Ratio (y) = 0.61723 0.28322
# Poissons Ratio (z) = -0.25066 0.30453
#
# Static dielectric constant tensor:
#      x y z
#    x 2.920460 0.000000 -0.350640 
#    y 0.000000 2.966730 0.000000 
#    z -0.350640 0.000000 3.718050 
# 
# 
# High freq. dielectric constant tensor:
#      x y z
#    x 1.629900 0.000000 -0.022780 
#    y 0.000000 1.638390 0.000000 
#    z -0.022780 0.000000 1.682560 
# 
# From -- ./inp_files/346210.got.cif
#   From: 2010.06.25/outbox.cif.g09.slc.cpg/sg12_174_cif.got.tgz:346210.got - 2010.06.28 00:19:55.
