data_PCOD8108401
_publ_section_title
;
Structure prediction by ZEFSAII (Michael W. Deem and Ramdas Pophale) SiO2 
 PCOD8108401
Probable space group: C 2/M
;
_chemical_formula_sum "Si O2"
_cell_formula_units_Z 48
_cell_length_a 9.189542
_cell_length_b 15.644111
_cell_length_c 15.789822
_cell_angle_alpha 90.000000
_cell_angle_beta 82.531685
_cell_angle_gamma 90.000000
_cell_volume 2250.723302
_symmetry_space_group_name_H-M "C 2/M"
_symmetry_group_IT_number 12
_symmetry_cell_setting 'monoclinic'
loop_
_space_group_symop_operation_xyz
x,y,z
-x,y,-z
-x,-y,-z
x,-y,z
1/2+x,1/2+y,z
1/2-x,1/2+y,-z
1/2-x,1/2-y,-z
1/2+x,1/2-y,z
loop_
_atom_site_type_symbol
_atom_site_label
_atom_site_fract_x
_atom_site_fract_y
_atom_site_fract_z
Si Si1 0.725273 0.156829 0.728523
Si Si2 0.290145 0.666212 0.178291
Si Si3 0.106503 0.094448 0.137855
Si Si4 0.077836 0.597807 0.325942
Si Si5 0.661460 0.899049 0.018993
Si Si6 0.367632 0.744269 0.562303
O O1 0.719986 0.237195 0.791036
O O2 0.815960 0.087997 0.775797
O O3 0.565108 0.122208 0.718123
O O4 0.817787 0.178950 0.638113
O O5 0.461275 0.650653 0.150460
O O6 0.221915 0.605499 0.256261
O O7 0.196578 0.653549 0.100656
O O8 0.056612 0.000000 0.115031
O O9 0.221331 0.129923 0.060294
O O10 0.065418 0.500000 0.359508
O O11 0.091110 0.662069 0.404167
O O12 0.669442 0.000000 0.037425
O O13 0.500000 0.872781 0.000000
O O14 0.500000 0.702855 0.500000
O O15 0.250000 0.750000 0.500000
#
# Coordination Sequence:
#
# PCOD8108401 Si02
#       6
#     8   8   8   8   8   8
#     4  11  24  42  65  90 126 165 204 253 315 375
#     4  11  22  39  63  92 125 164 209 257 313 365
#     4  11  23  39  62  92 125 162 208 262 311 360
#     4  11  23  41  67  95 125 165 210 252 306 377
#     4  10  21  38  61  89 127 170 211 258 310 366
#     4  11  23  44  67  93 126 166 202 255 315 373
#
# _framework density 21.326476
#
# number of rings (size 3 to 8) (size 9 to 14) (size 15 to 20)
#    0.000    1.167    1.667    5.500    2.333    3.667 
#    0.000    1.667    0.000    2.500    0.000    0.000 
#    0.000    0.000    0.000    0.000    0.000    0.000 
#
# Total GULP energy -297603.474093 kJ/mol
# GULP energy per Si atom -12400.144754 kJ/mol
# Density = 2.127794 g / cm^3
# Si number density = 21.326476 Si / 1000 Ang^3
#
#
#
# Elastic Constant Matrix: (Units=GPa)
#
#
# Indices 1 2 3 4 5 6 
#
# 1 144.0543 11.8970 43.0259 0.0000 -6.5242 0.0000
# 2 11.8970 52.0201 14.0510 0.0000 -3.4556 0.0000
# 3 43.0259 14.0510 114.0412 0.0000 -5.8688 0.0000
# 4 0.0000 0.0000 0.0000 22.3779 0.0000 8.1533
# 5 -6.5242 -3.4556 -5.8688 0.0000 55.4571 0.0000
# 6 0.0000 0.0000 0.0000 8.1533 0.0000 30.3412
#
#
#
# Elastic Compliance Matrix: (Units=1/GPa)
#
#
# Indices 1 2 3 4 5 6 
#
# 1 0.007894 -0.001005 -0.002825 0.000000 0.000567 0.000000
# 2 -0.001005 0.020067 -0.002046 0.000000 0.000916 0.000000
# 3 -0.002825 -0.002046 0.010118 0.000000 0.000611 0.000000
# 4 0.000000 0.000000 0.000000 0.049537 0.000000 -0.013312
# 5 0.000567 0.000916 0.000611 0.000000 0.018220 0.000000
# 6 0.000000 0.000000 0.000000 -0.013312 0.000000 0.036536
#
#
# Mechanical properties :
#
#
# Convention : Reuss Voigt Hill
#
# Bulk Modulus (GPa) = 37.98427 49.78481 43.88454
# Shear Modulus (GPa) = 30.69356 37.71133 34.20245
#
# Velocity S-wave (km/s) = 3.79783 4.20966 4.00904
# Velocity P-wave (km/s) = 6.08940 6.85734 6.48475
#
# Compressibility (1/GPa) = 0.02632668
#
# Stress axis : x y z
#
# Youngs Moduli (GPa) = 126.67234 49.83398 98.83065
#
# Poissons Ratio (x) = 0.05006 0.27924
# Poissons Ratio (y) = 0.12725 0.20223
# Poissons Ratio (z) = 0.35791 0.10197
#
# Static dielectric constant tensor:
#      x y z
#    x 3.911280 0.000000 0.019490 
#    y 0.000000 3.371540 0.000000 
#    z 0.019490 0.000000 3.899710 
# 
# 
# High freq. dielectric constant tensor:
#      x y z
#    x 1.854970 0.000000 -0.001460 
#    y 0.000000 1.824540 0.000000 
#    z -0.001460 0.000000 1.846290 
# 
# From -- ./inp_files/195948.got.cif
#   From: 2010.06.25/outbox.cif.g09.slc.cpg/sg12_98_cif.got.tgz:195948.got - 2010.06.28 00:19:55.
