data_PCOD8108642
_publ_section_title
;
Structure prediction by ZEFSAII (Michael W. Deem and Ramdas Pophale) SiO2 
 PCOD8108642
Probable space group: C 2/M
;
_chemical_formula_sum "Si O2"
_cell_formula_units_Z 56
_cell_length_a 15.006400
_cell_length_b 13.605361
_cell_length_c 17.674970
_cell_angle_alpha 90.000000
_cell_angle_beta 51.910421
_cell_angle_gamma 90.000000
_cell_volume 2840.181352
_symmetry_space_group_name_H-M "C 2/M"
_symmetry_group_IT_number 12
_symmetry_cell_setting 'monoclinic'
loop_
_space_group_symop_operation_xyz
x,y,z
-x,y,-z
-x,-y,-z
x,-y,z
1/2+x,1/2+y,z
1/2-x,1/2+y,-z
1/2-x,1/2-y,-z
1/2+x,1/2-y,z
loop_
_atom_site_type_symbol
_atom_site_label
_atom_site_fract_x
_atom_site_fract_y
_atom_site_fract_z
Si Si1 0.847628 0.887972 0.915815
Si Si2 0.339505 0.000000 0.633690
Si Si3 0.090854 0.234247 0.254289
Si Si4 0.078870 0.500000 0.580235
Si Si5 0.017555 0.252571 0.905436
Si Si6 0.757243 0.788397 0.286426
Si Si7 0.842607 0.292582 0.395110
Si Si8 0.614986 0.111737 0.119436
O O1 0.866308 0.856818 0.818908
O O2 0.927864 0.830431 0.930684
O O3 0.881650 0.000000 0.905960
O O4 0.718903 0.869024 0.008243
O O5 0.442431 0.000000 0.640801
O O6 0.375913 0.000000 0.528009
O O7 0.265044 0.098002 0.682220
O O8 0.148203 0.235881 0.306444
O O9 0.129632 0.333507 0.191178
O O10 0.956171 0.226571 0.337764
O O11 0.123212 0.404785 0.602981
O O12 0.997038 0.347763 0.863445
O O13 0.142793 0.211927 0.827362
O O14 0.000000 0.285039 0.000000
O O15 0.788658 0.719625 0.340693
O O16 0.750000 0.250000 0.500000
O O17 0.596178 0.000000 0.150557
#
# Coordination Sequence:
#
# PCOD8108642 Si02
#       8
#     8   4   8   4   8   8   8   8
#     4  10  21  40  61  86 130 177 216 268 329 388
#     4  11  24  42  73  99 126 175 223 274 339 385
#     4  11  23  42  64  93 134 168 219 274 331 387
#     4  11  24  46  70  98 132 168 225 283 324 398
#     4  11  22  38  59  95 134 168 213 268 327 393
#     4  12  24  41  69  99 131 174 216 276 331 395
#     4  12  25  44  68  99 133 173 221 280 332 389
#     4  10  21  38  63  91 126 175 220 271 326 386
#
# _framework density 19.717051000000001
#
# number of rings (size 3 to 8) (size 9 to 14) (size 15 to 20)
#    0.000    1.000    5.714    3.429    3.000    1.143 
#    2.571    0.000    0.000    0.857    0.000    0.000 
#    0.000    0.000    0.000    0.000    0.000    0.000 
#
# Total GULP energy -347185.872142 kJ/mol
# GULP energy per Si atom -12399.495434 kJ/mol
# Density = 1.967217 g / cm^3
# Si number density = 19.717051 Si / 1000 Ang^3
#
#
#
# Elastic Constant Matrix: (Units=GPa)
#
#
# Indices 1 2 3 4 5 6 
#
# 1 131.3392 29.4616 33.8584 0.0000 13.3456 0.0000
# 2 29.4616 73.9149 19.2115 0.0000 -2.9523 0.0000
# 3 33.8584 19.2115 94.7295 0.0000 -7.1771 0.0000
# 4 0.0000 0.0000 0.0000 26.9001 0.0000 1.0282
# 5 13.3456 -2.9523 -7.1771 0.0000 35.0708 0.0000
# 6 0.0000 0.0000 0.0000 1.0282 0.0000 14.5358
#
#
#
# Elastic Compliance Matrix: (Units=1/GPa)
#
#
# Indices 1 2 3 4 5 6 
#
# 1 0.009601 -0.003196 -0.003129 0.000000 -0.004563 0.000000
# 2 -0.003196 0.015359 -0.001811 0.000000 0.002139 0.000000
# 3 -0.003129 -0.001811 0.012312 0.000000 0.003558 0.000000
# 4 0.000000 0.000000 0.000000 0.037275 0.000000 -0.002637
# 5 -0.004563 0.002139 0.003558 0.000000 0.031158 0.000000
# 6 0.000000 0.000000 0.000000 -0.002637 0.000000 0.068982
#
#
# Mechanical properties :
#
#
# Convention : Reuss Voigt Hill
#
# Bulk Modulus (GPa) = 47.61822 51.67183 49.64502
# Shear Modulus (GPa) = 25.25784 29.79816 27.52800
#
# Velocity S-wave (km/s) = 3.58301 3.89175 3.74057
# Velocity P-wave (km/s) = 6.42810 6.81600 6.62489
#
# Compressibility (1/GPa) = 0.02100036
#
# Stress axis : x y z
#
# Youngs Moduli (GPa) = 104.15500 65.10889 81.22442
#
# Poissons Ratio (x) = 0.20807 0.25417
# Poissons Ratio (y) = 0.33286 0.14706
# Poissons Ratio (z) = 0.32592 0.11788
#
# Static dielectric constant tensor:
#      x y z
#    x 3.713860 0.000000 -0.136600 
#    y 0.000000 3.609690 0.000000 
#    z -0.136600 0.000000 3.876690 
# 
# 
# High freq. dielectric constant tensor:
#      x y z
#    x 1.772120 0.000000 -0.001360 
#    y 0.000000 1.760110 0.000000 
#    z -0.001360 0.000000 1.782800 
# 
# From -- ./inp_files/270222.got.cif
#   From: 2010.06.25/outbox.cif.g09.slc.cpg/sg12_136_cif.got.tgz:270222.got - 2010.06.28 00:19:55.
