data_PCOD8108209
_publ_section_title
;
Structure prediction by ZEFSAII (Michael W. Deem and Ramdas Pophale) SiO2 
 PCOD8108209
Probable space group: C 2/M
;
_chemical_formula_sum "Si O2"
_cell_formula_units_Z 64
_cell_length_a 19.761683
_cell_length_b 8.540218
_cell_length_c 31.112303
_cell_angle_alpha 90.000000
_cell_angle_beta 38.083780
_cell_angle_gamma 90.000000
_cell_volume 3238.758876
_symmetry_space_group_name_H-M "C 2/M"
_symmetry_group_IT_number 12
_symmetry_cell_setting 'monoclinic'
loop_
_space_group_symop_operation_xyz
x,y,z
-x,y,-z
-x,-y,-z
x,-y,z
1/2+x,1/2+y,z
1/2-x,1/2+y,-z
1/2-x,1/2-y,-z
1/2+x,1/2-y,z
loop_
_atom_site_type_symbol
_atom_site_label
_atom_site_fract_x
_atom_site_fract_y
_atom_site_fract_z
Si Si1 0.734885 0.685934 0.710663
Si Si2 0.774494 0.186225 0.441062
Si Si3 0.628147 0.684871 0.436977
Si Si4 0.277412 0.314149 0.782916
Si Si5 0.875236 0.313777 0.062549
Si Si6 0.773171 0.814048 0.941883
Si Si7 0.002306 0.684391 0.702260
Si Si8 0.497434 0.684308 0.204683
O O1 0.748503 0.500000 0.701495
O O2 0.817436 0.759534 0.634741
O O3 0.751866 0.748806 0.749346
O O4 0.611333 0.743420 0.764193
O O5 0.750000 0.250000 0.500000
O O6 0.686314 0.238096 0.449198
O O7 0.892252 0.260622 0.375634
O O8 0.780279 0.000000 0.437505
O O9 0.500000 0.733380 0.500000
O O10 0.642273 0.500000 0.434036
O O11 0.280515 0.500000 0.781238
O O12 0.189306 0.254336 0.862620
O O13 0.395896 0.247068 0.732388
O O14 0.876900 0.500000 0.061576
O O15 0.813161 0.251719 0.050743
O O16 0.000000 0.247687 0.000000
O O17 0.893319 0.745769 0.871231
O O18 0.770554 0.000000 0.943598
O O19 0.750000 0.750000 0.000000
O O20 0.998251 0.500000 0.707682
O O21 0.010399 0.760828 0.743730
O O22 0.505430 0.500000 0.199880
#
# Coordination Sequence:
#
# PCOD8108209 Si02
#       8
#     8   8   8   8   8   8   8   8
#     4  11  24  41  64  93 127 165 213 263 315 375
#     4  12  26  45  69  97 131 168 212 261 316 374
#     4  11  25  45  67  95 132 170 212 259 313 374
#     4  11  23  41  65  90 126 169 212 262 321 378
#     4   9  19  37  60  87 121 163 209 258 313 375
#     4  10  21  38  60  88 124 162 206 256 314 378
#     4  12  24  41  67  95 125 161 213 266 315 378
#     4  10  21  41  64  88 124 167 207 261 322 373
#
# _framework density 19.760655
#
# number of rings (size 3 to 8) (size 9 to 14) (size 15 to 20)
#    0.000    1.250    2.500    3.375    3.500    2.000 
#    0.000    0.000    0.000    1.875    0.000    0.000 
#    0.000    0.000    0.000    0.000    0.000    0.000 
#
# Total GULP energy -396727.797404 kJ/mol
# GULP energy per Si atom -12397.743669 kJ/mol
# Density = 1.971568 g / cm^3
# Si number density = 19.760655 Si / 1000 Ang^3
#
#
#
# Elastic Constant Matrix: (Units=GPa)
#
#
# Indices 1 2 3 4 5 6 
#
# 1 207.9967 75.4685 127.7477 0.0013 3.4426 0.0583
# 2 75.4685 144.9136 86.4230 0.0369 0.2260 0.0267
# 3 127.7477 86.4230 220.3819 -0.0080 1.2431 0.0091
# 4 0.0013 0.0369 -0.0080 34.2145 -0.0002 -1.5625
# 5 3.4426 0.2260 1.2431 -0.0002 49.2392 0.0029
# 6 0.0583 0.0267 0.0091 -1.5625 0.0029 43.0978
#
#
#
# Elastic Compliance Matrix: (Units=1/GPa)
#
#
# Indices 1 2 3 4 5 6 
#
# 1 0.007813 -0.001787 -0.003826 0.000000 -0.000441 -0.000009
# 2 -0.001787 0.009416 -0.002658 -0.000011 0.000149 -0.000003
# 3 -0.003826 -0.002658 0.007797 0.000005 0.000083 0.000005
# 4 0.000000 -0.000011 0.000005 0.029276 0.000000 0.001061
# 5 -0.000441 0.000149 0.000083 0.000000 0.020337 -0.000001
# 6 -0.000009 -0.000003 0.000005 0.001061 -0.000001 0.023242
#
#
# Mechanical properties :
#
#
# Convention : Reuss Voigt Hill
#
# Bulk Modulus (GPa) = 117.84469 128.06339 122.95404
# Shear Modulus (GPa) = 42.64422 44.22051 43.43236
#
# Velocity S-wave (km/s) = 4.65051 4.73568 4.69329
# Velocity P-wave (km/s) = 9.41285 9.73910 9.57737
#
# Compressibility (1/GPa) = 0.00848575
#
# Stress axis : x y z
#
# Youngs Moduli (GPa) = 127.99022 106.20437 128.25385
#
# Poissons Ratio (x) = 0.18974 0.49068
# Poissons Ratio (y) = 0.22866 0.34085
# Poissons Ratio (z) = 0.48968 0.28225
#
# Static dielectric constant tensor:
#      x y z
#    x 3.873960 0.000020 -0.152140 
#    y 0.000020 3.612170 -0.000250 
#    z -0.152140 -0.000250 3.913800 
# 
# 
# High freq. dielectric constant tensor:
#      x y z
#    x 1.789470 0.000000 -0.002690 
#    y 0.000000 1.764190 -0.000010 
#    z -0.002690 -0.000010 1.791110 
# 
# From -- ./inp_files/377972.got.cif
#   From: 2010.06.25/outbox.cif.g09.slc.cpg/sg12_189_cif.got.tgz:377972.got - 2010.06.28 00:19:55.
