data_PCOD8108239
_publ_section_title
;
Structure prediction by ZEFSAII (Michael W. Deem and Ramdas Pophale) SiO2 
 PCOD8108239
Probable space group: C 2/M
;
_chemical_formula_sum "Si O2"
_cell_formula_units_Z 56
_cell_length_a 13.960377
_cell_length_b 15.992605
_cell_length_c 21.908880
_cell_angle_alpha 90.000000
_cell_angle_beta 30.488500
_cell_angle_gamma 90.000000
_cell_volume 2481.746350
_symmetry_space_group_name_H-M "C 2/M"
_symmetry_group_IT_number 12
_symmetry_cell_setting 'monoclinic'
loop_
_space_group_symop_operation_xyz
x,y,z
-x,y,-z
-x,-y,-z
x,-y,z
1/2+x,1/2+y,z
1/2-x,1/2+y,-z
1/2-x,1/2-y,-z
1/2+x,1/2-y,z
loop_
_atom_site_type_symbol
_atom_site_label
_atom_site_fract_x
_atom_site_fract_y
_atom_site_fract_z
Si Si1 0.840879 0.404917 0.940638
Si Si2 0.914960 0.594022 0.392804
Si Si3 0.532079 0.378366 0.205527
Si Si4 0.991806 0.909136 0.647178
Si Si5 0.156415 0.350282 0.368157
Si Si6 0.676828 0.788072 0.802137
Si Si7 0.842967 0.295196 0.825532
O O1 0.919591 0.500000 0.885065
O O2 0.767083 0.361301 0.918077
O O3 0.990933 0.345035 0.894033
O O4 0.660825 0.417297 0.082347
O O5 0.913217 0.500000 0.367079
O O6 0.705959 0.624018 0.526266
O O7 0.049856 0.594124 0.377234
O O8 0.990219 0.658832 0.302163
O O9 0.586755 0.416342 0.240772
O O10 0.312592 0.406016 0.317172
O O11 0.559332 0.278527 0.191067
O O12 0.859660 0.843759 0.686038
O O13 0.974112 0.000000 0.625604
O O14 0.300099 0.283056 0.260424
O O15 0.000000 0.312017 0.500000
O O16 0.684873 0.743599 0.865477
#
# Coordination Sequence:
#
# PCOD8108239 Si02
#       7
#     8   8   8   8   8   8   8
#     4  12  25  45  70  98 134 177 223 275 331 391
#     4  10  22  39  61  92 132 170 212 273 335 388
#     4  11  23  41  66  93 130 172 221 266 325 393
#     4  10  21  38  60  93 133 167 212 274 331 385
#     4  11  22  39  66  95 126 171 222 268 324 397
#     4  10  24  40  67  97 130 172 225 268 331 396
#     4  10  23  42  66  94 132 172 218 271 326 395
#
# _framework density 22.564755999999999
#
# number of rings (size 3 to 8) (size 9 to 14) (size 15 to 20)
#    0.000    1.429    2.857    1.714    2.000    5.429 
#    2.571    3.571    0.000    6.000    0.000    0.000 
#    0.000    0.000    0.000    0.000    0.000    0.000 
#
# Total GULP energy -346931.403972 kJ/mol
# GULP energy per Si atom -12390.407285 kJ/mol
# Density = 2.251340 g / cm^3
# Si number density = 22.564756 Si / 1000 Ang^3
#
#
#
# Elastic Constant Matrix: (Units=GPa)
#
#
# Indices 1 2 3 4 5 6 
#
# 1 79.9346 25.2671 21.6402 0.0035 -3.8764 0.0015
# 2 25.2671 106.9086 21.0089 0.0009 3.1147 -0.0001
# 3 21.6402 21.0089 103.0160 0.0062 1.4549 0.0027
# 4 0.0035 0.0009 0.0062 26.7356 -0.0075 0.6527
# 5 -3.8764 3.1147 1.4549 -0.0075 35.0731 -0.0006
# 6 0.0015 -0.0001 0.0027 0.6527 -0.0006 5.7447
#
#
#
# Elastic Compliance Matrix: (Units=1/GPa)
#
#
# Indices 1 2 3 4 5 6 
#
# 1 0.014183 -0.002935 -0.002408 -0.000001 0.001928 -0.000002
# 2 -0.002935 0.010373 -0.001482 0.000000 -0.001184 0.000002
# 3 -0.002408 -0.001482 0.010523 -0.000002 -0.000571 -0.000004
# 4 -0.000001 0.000000 -0.000002 0.037507 0.000008 -0.004262
# 5 0.001928 -0.001184 -0.000571 0.000008 0.028854 0.000002
# 6 -0.000002 0.000002 -0.000004 -0.004262 0.000002 0.174559
#
#
# Mechanical properties :
#
#
# Convention : Reuss Voigt Hill
#
# Bulk Modulus (GPa) = 46.66518 47.29908 46.98213
# Shear Modulus (GPa) = 16.84670 28.30687 22.57678
#
# Velocity S-wave (km/s) = 2.73535 3.54570 3.16655
# Velocity P-wave (km/s) = 5.54091 6.14570 5.85112
#
# Compressibility (1/GPa) = 0.02142925
#
# Stress axis : x y z
#
# Youngs Moduli (GPa) = 70.50477 96.40184 95.02598
#
# Poissons Ratio (x) = 0.28295 0.22883
# Poissons Ratio (y) = 0.20694 0.14085
# Poissons Ratio (z) = 0.16978 0.14289
#
# Static dielectric constant tensor:
#      x y z
#    x 4.016620 0.000010 0.042780 
#    y 0.000010 4.222250 0.000000 
#    z 0.042780 0.000000 3.903950 
# 
# 
# High freq. dielectric constant tensor:
#      x y z
#    x 1.886230 0.000000 -0.000520 
#    y 0.000000 1.894470 0.000000 
#    z -0.000520 0.000000 1.884410 
# 
# From -- ./inp_files/311700.got.cif
#   From: 2010.06.25/outbox.cif.g09.slc.cpg/sg12_156_cif.got.tgz:311700.got - 2010.06.28 00:19:55.
