data_PCOD8108576
_publ_section_title
;
Structure prediction by ZEFSAII (Michael W. Deem and Ramdas Pophale) SiO2 
 PCOD8108576
Probable space group: C 2/M
;
_chemical_formula_sum "Si O2"
_cell_formula_units_Z 56
_cell_length_a 20.573261
_cell_length_b 8.516566
_cell_length_c 18.419775
_cell_angle_alpha 90.000000
_cell_angle_beta 52.837149
_cell_angle_gamma 90.000000
_cell_volume 2571.980409
_symmetry_space_group_name_H-M "C 2/M"
_symmetry_group_IT_number 12
_symmetry_cell_setting 'monoclinic'
loop_
_space_group_symop_operation_xyz
x,y,z
-x,y,-z
-x,-y,-z
x,-y,z
1/2+x,1/2+y,z
1/2-x,1/2+y,-z
1/2-x,1/2-y,-z
1/2+x,1/2-y,z
loop_
_atom_site_type_symbol
_atom_site_label
_atom_site_fract_x
_atom_site_fract_y
_atom_site_fract_z
Si Si1 0.967847 0.816883 0.624359
Si Si2 0.856465 0.684809 0.814262
Si Si3 0.883372 0.683699 0.543828
Si Si4 0.397858 0.686171 0.217251
Si Si5 0.273821 0.184212 0.406021
Si Si6 0.682141 0.314067 0.876021
Si Si7 0.084357 0.185744 0.081680
O O1 0.932347 0.776376 0.726820
O O2 0.920147 0.712265 0.598057
O O3 0.062590 0.766386 0.555650
O O4 0.959029 0.000000 0.612344
O O5 0.865986 0.500000 0.796202
O O6 0.772411 0.748056 0.835410
O O7 0.859645 0.727261 0.896765
O O8 0.877336 0.500000 0.531644
O O9 0.794536 0.760285 0.604647
O O10 0.393537 0.500000 0.221214
O O11 0.359537 0.751492 0.317699
O O12 0.348633 0.753620 0.180447
O O13 0.491119 0.743051 0.150075
O O14 0.250000 0.250000 0.500000
O O15 0.279404 0.000000 0.407888
O O16 0.684756 0.500000 0.870279
O O17 0.618140 0.261431 0.980747
O O18 0.092431 0.000000 0.087669
#
# Coordination Sequence:
#
# PCOD8108576 Si02
#       7
#     8   8   8   8   8   8   8
#     4  11  22  38  61  90 123 162 207 253 305 370
#     4  11  22  36  58  88 126 166 208 256 313 371
#     4  11  22  40  63  89 121 158 204 256 312 370
#     4  10  21  40  66  92 121 160 210 263 318 375
#     4  12  26  43  63  89 124 164 209 258 312 372
#     4   9  19  38  64  91 120 162 211 259 311 374
#     4  10  21  38  62  92 125 161 207 261 319 376
#
# _framework density 21.773105999999999
#
# number of rings (size 3 to 8) (size 9 to 14) (size 15 to 20)
#    0.000    1.429    0.000    6.857    2.000    3.429 
#    0.000    2.143    0.000    1.714    0.000    0.000 
#    0.000    0.000    0.000    0.000    0.000    0.000 
#
# Total GULP energy -347304.460059 kJ/mol
# GULP energy per Si atom -12403.730716 kJ/mol
# Density = 2.172355 g / cm^3
# Si number density = 21.773106 Si / 1000 Ang^3
#
#
#
# Elastic Constant Matrix: (Units=GPa)
#
#
# Indices 1 2 3 4 5 6 
#
# 1 79.4884 24.3701 22.8228 0.0002 -1.6696 -0.0002
# 2 24.3701 57.1965 28.5141 0.0005 -11.9185 -0.0004
# 3 22.8228 28.5141 133.2782 0.0002 -7.1291 -0.0002
# 4 0.0002 0.0005 0.0002 32.0841 -0.0001 2.7260
# 5 -1.6696 -11.9185 -7.1291 -0.0001 37.2863 0.0001
# 6 -0.0002 -0.0004 -0.0002 2.7260 0.0001 29.1426
#
#
#
# Elastic Compliance Matrix: (Units=1/GPa)
#
#
# Indices 1 2 3 4 5 6 
#
# 1 0.014751 -0.005929 -0.001337 0.000000 -0.001490 0.000000
# 2 -0.005929 0.023143 -0.003591 0.000000 0.006446 0.000000
# 3 -0.001337 -0.003591 0.008523 0.000000 0.000422 0.000000
# 4 0.000000 0.000000 0.000000 0.031418 0.000000 -0.002939
# 5 -0.001490 0.006446 0.000422 0.000000 0.028894 0.000000
# 6 0.000000 0.000000 0.000000 -0.002939 0.000000 0.034589
#
#
# Mechanical properties :
#
#
# Convention : Reuss Voigt Hill
#
# Bulk Modulus (GPa) = 40.48224 46.81968 43.65096
# Shear Modulus (GPa) = 29.19430 32.65300 30.92365
#
# Velocity S-wave (km/s) = 3.66572 3.87679 3.77273
# Velocity P-wave (km/s) = 6.04565 6.44899 6.25057
#
# Compressibility (1/GPa) = 0.02470219
#
# Stress axis : x y z
#
# Youngs Moduli (GPa) = 67.79289 43.20921 117.32965
#
# Poissons Ratio (x) = 0.25618 0.15690
# Poissons Ratio (y) = 0.40194 0.42137
# Poissons Ratio (z) = 0.09065 0.15518
#
# Static dielectric constant tensor:
#      x y z
#    x 4.100180 0.000000 -0.122580 
#    y 0.000000 3.640160 0.000000 
#    z -0.122580 0.000000 3.948990 
# 
# 
# High freq. dielectric constant tensor:
#      x y z
#    x 1.859570 0.000000 -0.005890 
#    y 0.000000 1.836480 0.000000 
#    z -0.005890 0.000000 1.870230 
# 
# From -- ./inp_files/281032.got.cif
#   From: 2010.06.25/outbox.cif.g09.slc.cpg/sg12_141_cif.got.tgz:281032.got - 2010.06.28 00:19:55.
