data_PCOD8108072
_publ_section_title
;
Structure prediction by ZEFSAII (Michael W. Deem and Ramdas Pophale) SiO2 
 PCOD8108072
Probable space group: C 2/M
;
_chemical_formula_sum "Si O2"
_cell_formula_units_Z 64
_cell_length_a 15.269632
_cell_length_b 9.010213
_cell_length_c 24.127177
_cell_angle_alpha 90.000000
_cell_angle_beta 97.358044
_cell_angle_gamma 90.000000
_cell_volume 3292.145402
_symmetry_space_group_name_H-M "C 2/M"
_symmetry_group_IT_number 12
_symmetry_cell_setting 'monoclinic'
loop_
_space_group_symop_operation_xyz
x,y,z
-x,y,-z
-x,-y,-z
x,-y,z
1/2+x,1/2+y,z
1/2-x,1/2+y,-z
1/2-x,1/2-y,-z
1/2+x,1/2-y,z
loop_
_atom_site_type_symbol
_atom_site_label
_atom_site_fract_x
_atom_site_fract_y
_atom_site_fract_z
Si Si1 0.452626 0.827296 0.669555
Si Si2 0.714688 0.323153 0.941322
Si Si3 0.157991 0.176154 0.134990
Si Si4 0.334636 0.325710 0.441337
Si Si5 0.693236 0.173341 0.251685
Si Si6 0.873288 0.175175 0.322486
Si Si7 0.483789 0.675064 0.059556
Si Si8 0.634569 0.826153 0.449106
O O1 0.371858 0.791443 0.703197
O O2 0.538906 0.741509 0.698059
O O3 0.428884 0.772166 0.605595
O O4 0.474094 0.000000 0.671376
O O5 0.726602 0.500000 0.945840
O O6 0.766242 0.258571 0.893270
O O7 0.611960 0.277739 0.925085
O O8 0.750000 0.250000 0.000000
O O9 0.165076 0.224178 0.198794
O O10 0.061623 0.230004 0.106339
O O11 0.170185 0.000000 0.129698
O O12 0.348183 0.500000 0.445751
O O13 0.365143 0.262514 0.384447
O O14 0.392065 0.252540 0.495374
O O15 0.233003 0.280082 0.439776
O O16 0.790427 0.223256 0.278598
O O17 0.690304 0.000000 0.234767
O O18 0.879365 0.000000 0.324496
O O19 0.488452 0.500000 0.054620
O O20 0.500000 0.745591 0.000000
O O21 0.626602 0.000000 0.457591
#
# Coordination Sequence:
#
# PCOD8108072 Si02
#       8
#     8   8   8   8   8   8   8   8
#     4  10  21  38  60  83 112 150 193 240 290 344
#     4  11  21  37  62  91 123 159 194 232 282 338
#     4  11  23  40  62  89 118 152 196 242 284 338
#     4   9  17  32  54  80 109 146 188 232 284 349
#     4  10  22  43  62  79 113 156 193 235 291 345
#     4  10  21  38  60  82 111 152 194 234 288 353
#     4   9  18  36  60  85 119 158 187 221 278 340
#     4   9  17  32  54  80 110 146 185 233 291 345
#
# _framework density 19.440211000000001
#
# number of rings (size 3 to 8) (size 9 to 14) (size 15 to 20)
#    0.000    2.125    2.500    0.750    0.000    3.500 
#    0.000    9.375    0.000    0.000    0.000    0.000 
#    0.000    0.000    0.000    0.000    0.000    0.000 
#
# Total GULP energy -396811.083641 kJ/mol
# GULP energy per Si atom -12400.346364 kJ/mol
# Density = 1.939596 g / cm^3
# Si number density = 19.440211 Si / 1000 Ang^3
#
#
#
# Elastic Constant Matrix: (Units=GPa)
#
#
# Indices 1 2 3 4 5 6 
#
# 1 136.7769 38.8452 46.7721 0.0000 25.0001 0.0000
# 2 38.8452 44.2409 33.7972 0.0000 7.7358 0.0000
# 3 46.7721 33.7972 104.3563 0.0000 26.8800 0.0000
# 4 0.0000 0.0000 0.0000 35.9478 0.0000 -0.2785
# 5 25.0001 7.7358 26.8800 0.0000 19.5346 0.0000
# 6 0.0000 0.0000 0.0000 -0.2785 0.0000 29.3861
#
#
#
# Elastic Compliance Matrix: (Units=1/GPa)
#
#
# Indices 1 2 3 4 5 6 
#
# 1 0.011883 -0.008833 0.000853 0.000000 -0.012884 0.000000
# 2 -0.008833 0.036667 -0.010979 0.000000 0.011891 0.000000
# 3 0.000853 -0.010979 0.018460 0.000000 -0.022146 0.000000
# 4 0.000000 0.000000 0.000000 0.027820 0.000000 0.000264
# 5 -0.012884 0.011891 -0.022146 0.000000 0.093444 0.000000
# 6 0.000000 0.000000 0.000000 0.000264 0.000000 0.034032
#
#
# Mechanical properties :
#
#
# Convention : Reuss Voigt Hill
#
# Bulk Modulus (GPa) = 34.37257 58.24479 46.30868
# Shear Modulus (GPa) = 18.52390 28.03767 23.28078
#
# Velocity S-wave (km/s) = 3.09020 3.80182 3.46433
# Velocity P-wave (km/s) = 5.51833 7.02124 6.31466
#
# Compressibility (1/GPa) = 0.02909296
#
# Stress axis : x y z
#
# Youngs Moduli (GPa) = 84.15535 27.27236 54.17065
#
# Poissons Ratio (x) = 0.24089 -0.04623
# Poissons Ratio (y) = 0.74331 0.59476
# Poissons Ratio (z) = -0.07182 0.29943
#
# Static dielectric constant tensor:
#      x y z
#    x 3.750130 0.000000 0.025700 
#    y 0.000000 3.316500 0.000000 
#    z 0.025700 0.000000 3.713680 
# 
# 
# High freq. dielectric constant tensor:
#      x y z
#    x 1.765480 0.000000 0.002870 
#    y 0.000000 1.736750 0.000000 
#    z 0.002870 0.000000 1.758450 
# 
# From -- ./inp_files/338870.got.cif
#   From: 2010.06.25/outbox.cif.g09.slc.cpg/sg12_170_cif.got.tgz:338870.got - 2010.06.28 00:19:55.
