data_PCOD8108942
_publ_section_title
;
Structure prediction by ZEFSAII (Michael W. Deem and Ramdas Pophale) SiO2 
 PCOD8108942
Probable space group: C 2/M
;
_chemical_formula_sum "Si O2"
_cell_formula_units_Z 52
_cell_length_a 8.515201
_cell_length_b 19.843371
_cell_length_c 17.472699
_cell_angle_alpha 90.000000
_cell_angle_beta 119.745056
_cell_angle_gamma 90.000000
_cell_volume 2563.367988
_symmetry_space_group_name_H-M "C 2/M"
_symmetry_group_IT_number 12
_symmetry_cell_setting 'monoclinic'
loop_
_space_group_symop_operation_xyz
x,y,z
-x,y,-z
-x,-y,-z
x,-y,z
1/2+x,1/2+y,z
1/2-x,1/2+y,-z
1/2-x,1/2-y,-z
1/2+x,1/2-y,z
loop_
_atom_site_type_symbol
_atom_site_label
_atom_site_fract_x
_atom_site_fract_y
_atom_site_fract_z
Si Si1 0.817326 0.174840 0.788794
Si Si2 0.335726 0.186654 0.405289
Si Si3 0.862956 0.925161 0.122923
Si Si4 0.025573 0.693548 0.839974
Si Si5 0.971072 0.833938 0.410299
Si Si6 0.272755 0.925400 0.745329
Si Si7 0.500000 0.152643 0.000000
O O1 0.690683 0.150705 0.685454
O O2 0.713961 0.195502 0.841068
O O3 0.960548 0.119286 0.851679
O O4 0.915305 0.242466 0.781840
O O5 0.500000 0.159022 0.500000
O O6 0.364268 0.264388 0.392551
O O7 0.154262 0.178005 0.408959
O O8 0.851793 0.930529 0.210793
O O9 0.886965 0.000000 0.092579
O O10 0.678194 0.893344 0.046805
O O11 0.946308 0.620551 0.801144
O O12 0.034272 0.699937 0.934348
O O13 0.850679 0.892049 0.347093
O O14 0.000000 0.864742 0.500000
O O15 0.337844 0.000000 0.735506
#
# Coordination Sequence:
#
# PCOD8108942 Si02
#       7
#     8   8   8   8   8   8   4
#     4  12  23  40  67  93 125 165 206 256 316 361
#     4  11  22  36  60  95 124 161 206 257 304 356
#     4  10  22  42  66  90 123 165 206 252 311 377
#     4  11  24  39  65  93 124 160 209 258 308 374
#     4  11  21  35  60  89 121 161 207 255 307 367
#     4  10  21  39  60  85 122 165 205 253 310 370
#     4  10  23  44  64  94 125 160 206 258 315 362
#
# _framework density 20.285813000000001
#
# number of rings (size 3 to 8) (size 9 to 14) (size 15 to 20)
#    0.000    1.231    3.077    4.846    2.154    4.615 
#    0.000    0.769    0.000    0.923    0.000    0.000 
#    0.000    0.000    0.000    0.000    0.000    0.000 
#
# Total GULP energy -322209.104654 kJ/mol
# GULP energy per Si atom -12392.657871 kJ/mol
# Density = 2.023964 g / cm^3
# Si number density = 20.285813 Si / 1000 Ang^3
#
#
#
# Elastic Constant Matrix: (Units=GPa)
#
#
# Indices 1 2 3 4 5 6 
#
# 1 96.6599 28.1844 40.8683 0.0000 -8.2271 0.0000
# 2 28.1844 67.8084 16.6745 0.0000 9.6340 0.0000
# 3 40.8683 16.6745 123.6311 0.0000 6.2613 0.0000
# 4 0.0000 0.0000 0.0000 8.9127 0.0000 -19.6361
# 5 -8.2271 9.6340 6.2613 0.0000 23.7023 0.0000
# 6 0.0000 0.0000 0.0000 -19.6361 0.0000 -15.2153
#
#
#
# Elastic Compliance Matrix: (Units=1/GPa)
#
#
# Indices 1 2 3 4 5 6 
#
# 1 0.014859 -0.006335 -0.004509 0.000000 0.008924 0.000000
# 2 -0.006335 0.018764 0.000062 0.000000 -0.009842 0.000000
# 3 -0.004509 0.000062 0.009782 0.000000 -0.004174 0.000000
# 4 0.000000 0.000000 0.000000 0.029194 0.000000 -0.037676
# 5 0.008924 -0.009842 -0.004174 0.000000 0.050390 0.000000
# 6 0.000000 0.000000 0.000000 -0.037676 0.000000 -0.017101
#
#
# Mechanical properties :
#
#
# Convention : Reuss Voigt Hill
#
# Bulk Modulus (GPa) = 45.78793 51.06154 48.42474
# Shear Modulus (GPa) = 37.11045 16.97142 27.04093
#
# Velocity S-wave (km/s) = 4.28176 2.89557 3.65498
# Velocity P-wave (km/s) = 6.86040 6.03364 6.46026
#
# Compressibility (1/GPa) = 0.02183982
#
# Stress axis : x y z
#
# Youngs Moduli (GPa) = 67.30004 53.29449 102.22554
#
# Poissons Ratio (x) = 0.33762 0.46097
# Poissons Ratio (y) = 0.42635 -0.00633
# Poissons Ratio (z) = 0.30348 -0.00330
#
# Static dielectric constant tensor:
#      x y z
#    x 3.580290 0.000000 -0.073430 
#    y 0.000000 3.710760 0.000000 
#    z -0.073430 0.000000 4.057280 
# 
# 
# High freq. dielectric constant tensor:
#      x y z
#    x 1.791610 0.000000 0.000170 
#    y 0.000000 1.771260 0.000000 
#    z 0.000170 0.000000 1.807650 
# 
# From -- ./inp_files/257253.got.cif
#   From: 2010.06.25/outbox.cif.g09.slc.cpg/sg12_129_cif.got.tgz:257253.got - 2010.06.28 00:19:55.
