data_PCOD8108324
_publ_section_title
;
Structure prediction by ZEFSAII (Michael W. Deem and Ramdas Pophale) SiO2 
 PCOD8108324
Probable space group: C 2/M
;
_chemical_formula_sum "Si O2"
_cell_formula_units_Z 48
_cell_length_a 19.603577
_cell_length_b 9.067302
_cell_length_c 26.098225
_cell_angle_alpha 90.000000
_cell_angle_beta 31.895272
_cell_angle_gamma 90.000000
_cell_volume 2451.100447
_symmetry_space_group_name_H-M "C 2/M"
_symmetry_group_IT_number 12
_symmetry_cell_setting 'monoclinic'
loop_
_space_group_symop_operation_xyz
x,y,z
-x,y,-z
-x,-y,-z
x,-y,z
1/2+x,1/2+y,z
1/2-x,1/2+y,-z
1/2-x,1/2-y,-z
1/2+x,1/2-y,z
loop_
_atom_site_type_symbol
_atom_site_label
_atom_site_fract_x
_atom_site_fract_y
_atom_site_fract_z
Si Si1 0.654865 0.669986 0.627166
Si Si2 0.840465 0.173234 0.983150
Si Si3 0.438454 0.171264 0.409317
Si Si4 0.622529 0.671401 0.764342
Si Si5 0.355962 0.827771 0.077306
Si Si6 0.688073 0.327024 0.282774
O O1 0.623594 0.500000 0.635063
O O2 0.569228 0.767027 0.643476
O O3 0.806054 0.702966 0.523675
O O4 0.613245 0.713816 0.710692
O O5 0.988113 0.212586 0.876538
O O6 0.814720 0.000000 0.998007
O O7 0.750000 0.250000 0.000000
O O8 0.806089 0.235479 0.060845
O O9 0.548330 0.252978 0.371288
O O10 0.471949 0.000000 0.385042
O O11 0.656887 0.500000 0.749226
O O12 0.735048 0.766677 0.717621
O O13 0.263151 0.786277 0.183099
O O14 0.350873 0.000000 0.066649
O O15 0.500000 0.778443 0.000000
O O16 0.671319 0.500000 0.300144
#
# Coordination Sequence:
#
# PCOD8108324 Si02
#       6
#     8   8   8   8   8   8
#     4   9  20  40  62  84 116 154 190 234 288 343
#     4  11  24  39  59  87 119 153 192 238 285 340
#     4  10  21  38  61  88 116 149 192 238 285 344
#     4  10  22  40  60  84 115 152 192 235 286 341
#     4  10  21  40  61  82 114 155 194 234 284 339
#     4  11  23  38  60  86 116 153 192 238 288 341
#
# _framework density 19.58304
#
# number of rings (size 3 to 8) (size 9 to 14) (size 15 to 20)
#    0.000    1.833    1.667    1.500    2.333    4.333 
#    0.000    3.333    0.000    0.000    0.000    0.000 
#    0.000    0.000    0.000    0.000    0.000    0.000 
#
# Total GULP energy -297761.816395 kJ/mol
# GULP energy per Si atom -12406.742350 kJ/mol
# Density = 1.953847 g / cm^3
# Si number density = 19.583040 Si / 1000 Ang^3
#
#
#
# Elastic Constant Matrix: (Units=GPa)
#
#
# Indices 1 2 3 4 5 6 
#
# 1 79.9447 37.7673 1.0307 0.0002 -6.5045 -0.0002
# 2 37.7673 70.9871 17.3926 0.0001 -5.7252 0.0001
# 3 1.0307 17.3926 30.0691 0.0005 2.7286 -0.0001
# 4 0.0002 0.0001 0.0005 28.4744 -0.0001 -1.5103
# 5 -6.5045 -5.7252 2.7286 -0.0001 35.2316 0.0001
# 6 -0.0002 0.0001 -0.0001 -1.5103 0.0001 44.4907
#
#
#
# Elastic Compliance Matrix: (Units=1/GPa)
#
#
# Indices 1 2 3 4 5 6 
#
# 1 0.017514 -0.010553 0.005404 0.000000 0.001100 0.000000
# 2 -0.010553 0.023193 -0.013313 0.000000 0.002852 0.000000
# 3 0.005404 -0.013313 0.041167 -0.000001 -0.004354 0.000000
# 4 0.000000 0.000000 -0.000001 0.035183 0.000000 0.001194
# 5 0.001100 0.002852 -0.004354 0.000000 0.029387 0.000000
# 6 0.000000 0.000000 0.000000 0.001194 0.000000 0.022517
#
#
# Mechanical properties :
#
#
# Convention : Reuss Voigt Hill
#
# Bulk Modulus (GPa) = 22.24659 32.59800 27.42229
# Shear Modulus (GPa) = 22.63789 29.96002 26.29895
#
# Velocity S-wave (km/s) = 3.40368 3.91563 3.66860
# Velocity P-wave (km/s) = 5.17991 6.09303 5.65494
#
# Compressibility (1/GPa) = 0.04495071
#
# Stress axis : x y z
#
# Youngs Moduli (GPa) = 57.09703 43.11558 24.29141
#
# Poissons Ratio (x) = 0.45501 -0.13127
# Poissons Ratio (y) = 0.60256 0.32338
# Poissons Ratio (z) = -0.30856 0.57398
#
# Static dielectric constant tensor:
#      x y z
#    x 3.544660 0.000000 0.028270 
#    y 0.000000 3.565770 0.000000 
#    z 0.028270 0.000000 3.643110 
# 
# 
# High freq. dielectric constant tensor:
#      x y z
#    x 1.770830 0.000000 -0.001220 
#    y 0.000000 1.765650 0.000000 
#    z -0.001220 0.000000 1.764610 
# 
# From -- ./inp_files/365358.got.cif
#   From: 2010.06.25/outbox.cif.g09.slc.cpg/sg12_183_cif.got.tgz:365358.got - 2010.06.28 00:19:55.
