data_PCOD8108104
_publ_section_title
;
Structure prediction by ZEFSAII (Michael W. Deem and Ramdas Pophale) SiO2 
 PCOD8108104
Probable space group: C 2/M
;
_chemical_formula_sum "Si O2"
_cell_formula_units_Z 64
_cell_length_a 22.369222
_cell_length_b 17.729552
_cell_length_c 20.480481
_cell_angle_alpha 90.000000
_cell_angle_beta 156.388773
_cell_angle_gamma 90.000000
_cell_volume 3253.286487
_symmetry_space_group_name_H-M "C 2/M"
_symmetry_group_IT_number 12
_symmetry_cell_setting 'monoclinic'
loop_
_space_group_symop_operation_xyz
x,y,z
-x,y,-z
-x,-y,-z
x,-y,z
1/2+x,1/2+y,z
1/2-x,1/2+y,-z
1/2-x,1/2-y,-z
1/2+x,1/2-y,z
loop_
_atom_site_type_symbol
_atom_site_label
_atom_site_fract_x
_atom_site_fract_y
_atom_site_fract_z
Si Si1 0.164458 0.588389 0.422882
Si Si2 0.177711 0.834814 0.300376
Si Si3 0.330064 0.341754 0.952691
Si Si4 0.323443 0.833591 0.944047
Si Si5 0.821758 0.588629 0.076606
Si Si6 0.176466 0.586119 0.675052
Si Si7 0.669559 0.159818 0.290877
Si Si8 0.323649 0.414654 0.322761
O O1 0.191964 0.500000 0.453479
O O2 0.269848 0.626824 0.580905
O O3 0.212856 0.617797 0.400638
O O4 0.992343 0.608841 0.265528
O O5 0.267600 0.865830 0.329371
O O6 0.211868 0.746790 0.340541
O O7 0.004893 0.852345 0.115600
O O8 0.286739 0.254428 0.912379
O O9 0.287424 0.381090 0.977446
O O10 0.241226 0.381731 0.806416
O O11 0.227508 0.867588 0.790341
O O12 0.273780 0.871994 0.961560
O O13 0.495646 0.849858 0.100559
O O14 0.800201 0.500000 0.046337
O O15 0.229007 0.500000 0.719243
O O16 0.000000 0.592054 0.500000
O O17 0.764106 0.123153 0.328484
O O18 0.500000 0.413500 0.500000
O O19 0.262406 0.500000 0.256768
#
# Coordination Sequence:
#
# PCOD8108104 Si02
#       8
#     8   8   8   8   8   8   8   8
#     4  10  21  38  60  85 114 152 195 233 277 340
#     4  11  23  38  59  88 118 148 188 239 290 337
#     4  11  23  38  59  88 118 148 188 239 290 337
#     4  10  22  40  61  85 115 154 195 232 279 342
#     4  10  21  38  60  85 114 152 195 233 277 340
#     4  11  24  41  60  82 112 153 196 235 282 344
#     4  10  22  40  61  85 115 154 195 232 279 342
#     4  11  24  39  58  88 120 149 188 239 290 336
#
# _framework density 19.672415000000001
#
# number of rings (size 3 to 8) (size 9 to 14) (size 15 to 20)
#    0.000    1.500    0.000    4.500    0.000   12.500 
#    0.000    0.000    0.000    0.000    0.000    0.000 
#    0.000    0.000    0.000    0.000    0.000    0.000 
#
# Total GULP energy -397010.132658 kJ/mol
# GULP energy per Si atom -12406.566646 kJ/mol
# Density = 1.962764 g / cm^3
# Si number density = 19.672415 Si / 1000 Ang^3
#
#
#
# Elastic Constant Matrix: (Units=GPa)
#
#
# Indices 1 2 3 4 5 6 
#
# 1 125.8605 32.1824 14.8565 -0.0156 7.1343 -0.0138
# 2 32.1824 75.3047 23.2390 -0.0192 10.5626 -0.0143
# 3 14.8565 23.2390 64.9943 -0.0409 -14.9701 -0.0252
# 4 -0.0156 -0.0192 -0.0409 129.1461 0.0560 46.0932
# 5 7.1343 10.5626 -14.9701 0.0560 27.9292 0.0282
# 6 -0.0138 -0.0143 -0.0252 46.0932 0.0282 65.9222
#
#
#
# Elastic Compliance Matrix: (Units=1/GPa)
#
#
# Indices 1 2 3 4 5 6 
#
# 1 0.009022 -0.003186 -0.001342 0.000001 -0.001819 0.000001
# 2 -0.003186 0.018778 -0.008481 0.000004 -0.010834 0.000002
# 3 -0.001342 -0.008481 0.022295 -0.000001 0.015501 0.000001
# 4 0.000001 0.000004 -0.000001 0.010318 -0.000016 -0.007214
# 5 -0.001819 -0.010834 0.015501 -0.000016 0.048675 -0.000007
# 6 0.000001 0.000002 0.000001 -0.007214 -0.000007 0.020214
#
#
# Mechanical properties :
#
#
# Convention : Reuss Voigt Hill
#
# Bulk Modulus (GPa) = 41.53433 45.19060 43.36246
# Shear Modulus (GPa) = 30.61001 57.65828 44.13414
#
# Velocity S-wave (km/s) = 3.94888 5.41967 4.74165
# Velocity P-wave (km/s) = 6.47691 7.88576 7.21580
#
# Compressibility (1/GPa) = 0.02407647
#
# Stress axis : x y z
#
# Youngs Moduli (GPa) = 110.84628 53.25400 44.85238
#
# Poissons Ratio (x) = 0.16968 0.06018
# Poissons Ratio (y) = 0.35319 0.38040
# Poissons Ratio (z) = 0.14873 0.45165
#
# Static dielectric constant tensor:
#      x y z
#    x 3.669190 0.000000 -0.006530 
#    y 0.000000 3.860240 -0.000050 
#    z -0.006530 -0.000050 3.567980 
# 
# 
# High freq. dielectric constant tensor:
#      x y z
#    x 1.781270 0.000000 -0.006100 
#    y 0.000000 1.787590 0.000000 
#    z -0.006100 0.000000 1.770100 
# 
# From -- ./inp_files/326150.got.cif
#   From: 2010.06.25/outbox.cif.g09.slc.cpg/sg12_164_cif.got.tgz:326150.got - 2010.06.28 00:19:55.
