data_PCOD8108025
_publ_section_title
;
Structure prediction by ZEFSAII (Michael W. Deem and Ramdas Pophale) SiO2 
 PCOD8108025
Probable space group: C 2/M
;
_chemical_formula_sum "Si O2"
_cell_formula_units_Z 64
_cell_length_a 14.540991
_cell_length_b 8.503697
_cell_length_c 26.740676
_cell_angle_alpha 90.000000
_cell_angle_beta 73.502026
_cell_angle_gamma 90.000000
_cell_volume 3170.411814
_symmetry_space_group_name_H-M "C 2/M"
_symmetry_group_IT_number 12
_symmetry_cell_setting 'monoclinic'
loop_
_space_group_symop_operation_xyz
x,y,z
-x,y,-z
-x,-y,-z
x,-y,z
1/2+x,1/2+y,z
1/2-x,1/2+y,-z
1/2-x,1/2-y,-z
1/2+x,1/2-y,z
loop_
_atom_site_type_symbol
_atom_site_label
_atom_site_fract_x
_atom_site_fract_y
_atom_site_fract_z
Si Si1 0.008701 0.817490 0.055317
Si Si2 0.352771 0.813955 0.501222
Si Si3 0.372385 0.684589 0.694062
Si Si4 0.822481 0.679788 0.127409
Si Si5 0.523260 0.681323 0.221244
Si Si6 0.306878 0.680039 0.234906
Si Si7 0.139282 0.680766 0.114501
Si Si8 0.036595 0.185959 0.423616
O O1 0.092916 0.719274 0.068221
O O2 0.910015 0.792545 0.100081
O O3 0.035829 0.000000 0.053145
O O4 0.000000 0.756515 0.000000
O O5 0.250000 0.750000 0.500000
O O6 0.434447 0.768982 0.448464
O O7 0.382328 0.738903 0.549642
O O8 0.347149 0.000000 0.507777
O O9 0.353591 0.500000 0.695518
O O10 0.433265 0.735993 0.732958
O O11 0.270292 0.772205 0.711306
O O12 0.429111 0.739593 0.636316
O O13 0.855243 0.500000 0.116667
O O14 0.788774 0.713160 0.189044
O O15 0.733573 0.713114 0.104846
O O16 0.547999 0.500000 0.205609
O O17 0.410224 0.710249 0.242858
O O18 0.563647 0.785808 0.170143
O O19 0.293533 0.500000 0.220778
O O20 0.169911 0.500000 0.111545
O O21 0.021799 0.000000 0.430135
#
# Coordination Sequence:
#
# PCOD8108025 Si02
#       8
#     8   8   8   8   8   8   8   8
#     4  11  25  45  67  92 123 158 200 254 311 367
#     4  11  22  39  64  91 121 164 212 259 313 369
#     4  10  22  39  60  88 126 166 204 252 309 363
#     4  12  24  40  64  90 123 161 202 250 302 363
#     4  10  21  38  59  85 122 162 200 247 301 360
#     4  11  22  36  59  89 122 161 206 250 299 361
#     4  12  24  39  64  93 121 159 203 248 303 365
#     4  10  21  39  61  91 128 165 206 257 309 365
#
# _framework density 20.186651999999999
#
# number of rings (size 3 to 8) (size 9 to 14) (size 15 to 20)
#    0.000    1.125    2.500    5.250    0.000    4.000 
#    0.000    1.250    0.000    0.000    0.000    0.000 
#    0.000    0.000    0.000    0.000    0.000    0.000 
#
# Total GULP energy -397012.758385 kJ/mol
# GULP energy per Si atom -12406.648700 kJ/mol
# Density = 2.014071 g / cm^3
# Si number density = 20.186652 Si / 1000 Ang^3
#
#
#
# Elastic Constant Matrix: (Units=GPa)
#
#
# Indices 1 2 3 4 5 6 
#
# 1 94.9405 9.4889 3.1367 0.0000 0.4149 0.0000
# 2 9.4889 65.2054 14.0406 0.0000 0.3926 0.0000
# 3 3.1367 14.0406 69.7256 0.0000 7.2050 0.0000
# 4 0.0000 0.0000 0.0000 27.1265 0.0000 -3.1756
# 5 0.4149 0.3926 7.2050 0.0000 24.1880 0.0000
# 6 0.0000 0.0000 0.0000 -3.1756 0.0000 31.5810
#
#
#
# Elastic Compliance Matrix: (Units=1/GPa)
#
#
# Indices 1 2 3 4 5 6 
#
# 1 0.010691 -0.001520 -0.000164 0.000000 -0.000110 0.000000
# 2 -0.001520 0.016260 -0.003282 0.000000 0.000740 0.000000
# 3 -0.000164 -0.003282 0.015481 0.000000 -0.004555 0.000000
# 4 0.000000 0.000000 0.000000 0.037303 0.000000 0.003751
# 5 -0.000110 0.000740 -0.004555 0.000000 0.042690 0.000000
# 6 0.000000 0.000000 0.000000 0.003751 0.000000 0.032042
#
#
# Mechanical properties :
#
#
# Convention : Reuss Voigt Hill
#
# Bulk Modulus (GPa) = 30.76928 31.46713 31.11821
# Shear Modulus (GPa) = 28.53381 30.12613 29.32997
#
# Velocity S-wave (km/s) = 3.76373 3.86732 3.81588
# Velocity P-wave (km/s) = 5.84492 5.96351 5.90451
#
# Compressibility (1/GPa) = 0.03249995
#
# Stress axis : x y z
#
# Youngs Moduli (GPa) = 93.53924 61.50195 64.59549
#
# Poissons Ratio (x) = 0.09348 0.01056
# Poissons Ratio (y) = 0.14217 0.21202
# Poissons Ratio (z) = 0.01530 0.20187
#
# Static dielectric constant tensor:
#      x y z
#    x 3.824810 0.000000 0.030680 
#    y 0.000000 3.644220 0.000000 
#    z 0.030680 0.000000 3.691380 
# 
# 
# High freq. dielectric constant tensor:
#      x y z
#    x 1.800230 0.000000 0.000050 
#    y 0.000000 1.793360 0.000000 
#    z 0.000050 0.000000 1.781400 
# 
# From -- ./inp_files/359790.got.cif
#   From: 2010.06.25/outbox.cif.g09.slc.cpg/sg12_180_cif.got.tgz:359790.got - 2010.06.28 00:19:55.
