data_PCOD8108384
_publ_section_title
;
Structure prediction by ZEFSAII (Michael W. Deem and Ramdas Pophale) SiO2 
 PCOD8108384
Probable space group: C 2/M
;
_chemical_formula_sum "Si O2"
_cell_formula_units_Z 56
_cell_length_a 29.223702
_cell_length_b 16.661182
_cell_length_c 9.956669
_cell_angle_alpha 90.000000
_cell_angle_beta 144.937040
_cell_angle_gamma 90.000000
_cell_volume 2785.012617
_symmetry_space_group_name_H-M "C 2/M"
_symmetry_group_IT_number 12
_symmetry_cell_setting 'monoclinic'
loop_
_space_group_symop_operation_xyz
x,y,z
-x,y,-z
-x,-y,-z
x,-y,z
1/2+x,1/2+y,z
1/2-x,1/2+y,-z
1/2-x,1/2-y,-z
1/2+x,1/2-y,z
loop_
_atom_site_type_symbol
_atom_site_label
_atom_site_fract_x
_atom_site_fract_y
_atom_site_fract_z
Si Si1 0.699796 0.705425 0.489161
Si Si2 0.727884 0.092692 0.124654
Si Si3 0.922372 0.726641 0.603616
Si Si4 0.323423 0.686933 0.166494
Si Si5 0.575796 0.590311 0.773426
Si Si6 0.074288 0.406682 0.587323
Si Si7 0.953355 0.149714 0.010311
O O1 0.750000 0.750000 0.500000
O O2 0.759781 0.647117 0.713902
O O3 0.652751 0.766692 0.475005
O O4 0.636850 0.654949 0.253785
O O5 0.801464 0.108056 0.201073
O O6 0.722914 0.000000 0.155821
O O7 0.649644 0.121600 0.856284
O O8 0.902208 0.775321 0.419992
O O9 0.932677 0.635447 0.576135
O O10 0.003168 0.763310 0.861063
O O11 0.351762 0.653197 0.088699
O O12 0.250000 0.750000 0.000000
O O13 0.500000 0.608355 0.500000
O O14 0.607341 0.500000 0.827229
O O15 0.546621 0.597932 0.855899
O O16 0.079184 0.500000 0.565012
O O17 0.000000 0.383878 0.500000
O O18 0.000000 0.105556 0.000000
#
# Coordination Sequence:
#
# PCOD8108384 Si02
#       7
#     8   8   8   8   8   8   8
#     4  10  24  39  61  87 117 165 216 251 305 381
#     4  10  22  40  60  90 130 162 201 263 325 377
#     4  10  21  38  61  89 120 159 206 262 308 374
#     4  11  21  36  61  95 122 159 201 259 323 372
#     4  11  24  40  63  97 128 161 213 269 321 377
#     4  10  22  37  61  94 124 160 202 257 323 374
#     4  10  23  42  60  89 125 167 209 250 315 383
#
# _framework density 20.107628999999999
#
# number of rings (size 3 to 8) (size 9 to 14) (size 15 to 20)
#    0.000    1.714    2.857    0.429    8.000    0.857 
#    0.000    0.714    0.000    3.857    0.000    0.000 
#    0.000    0.000    0.000    0.000    0.000    0.000 
#
# Total GULP energy -346983.779603 kJ/mol
# GULP energy per Si atom -12392.277843 kJ/mol
# Density = 2.006186 g / cm^3
# Si number density = 20.107629 Si / 1000 Ang^3
#
#
#
# Elastic Constant Matrix: (Units=GPa)
#
#
# Indices 1 2 3 4 5 6 
#
# 1 120.1836 51.3603 18.3792 0.0000 -18.2392 0.0000
# 2 51.3603 76.6669 23.1218 0.0000 -4.0601 0.0000
# 3 18.3792 23.1218 66.1494 0.0000 -11.0714 0.0000
# 4 0.0000 0.0000 0.0000 28.8460 0.0000 -0.0086
# 5 -18.2392 -4.0601 -11.0714 0.0000 31.5407 0.0000
# 6 0.0000 0.0000 0.0000 -0.0086 0.0000 25.4412
#
#
#
# Elastic Compliance Matrix: (Units=1/GPa)
#
#
# Indices 1 2 3 4 5 6 
#
# 1 0.012818 -0.008380 0.000455 0.000000 0.006493 0.000000
# 2 -0.008380 0.020059 -0.005378 0.000000 -0.004152 0.000000
# 3 0.000455 -0.005378 0.017848 0.000000 0.005835 0.000000
# 4 0.000000 0.000000 0.000000 0.034667 0.000000 0.000012
# 5 0.006493 -0.004152 0.005835 0.000000 0.036974 0.000000
# 6 0.000000 0.000000 0.000000 0.000012 0.000000 0.039306
#
#
# Mechanical properties :
#
#
# Convention : Reuss Voigt Hill
#
# Bulk Modulus (GPa) = 41.46353 49.85807 45.66080
# Shear Modulus (GPa) = 25.46894 28.50815 26.98855
#
# Velocity S-wave (km/s) = 3.56284 3.76942 3.66759
# Velocity P-wave (km/s) = 6.13112 6.61772 6.37906
#
# Compressibility (1/GPa) = 0.02411758
#
# Stress axis : x y z
#
# Youngs Moduli (GPa) = 78.01746 49.85190 56.03023
#
# Poissons Ratio (x) = 0.41776 -0.02547
# Poissons Ratio (y) = 0.65378 0.30133
# Poissons Ratio (z) = -0.03546 0.26811
#
# Static dielectric constant tensor:
#      x y z
#    x 3.692730 0.000000 -0.096230 
#    y 0.000000 3.536700 0.000000 
#    z -0.096230 0.000000 3.762190 
# 
# 
# High freq. dielectric constant tensor:
#      x y z
#    x 1.789100 0.000000 0.001390 
#    y 0.000000 1.767690 0.000000 
#    z 0.001390 0.000000 1.787720 
# 
# From -- ./inp_files/106051.got.cif
#   From: 2010.06.25/outbox.cif.g09.slc.cpg/sg12_54_cif.got.tgz:106051.got - 2010.06.28 00:19:55.
