data_PCOD8108693
_publ_section_title
;
Structure prediction by ZEFSAII (Michael W. Deem and Ramdas Pophale) SiO2 
 PCOD8108693
Probable space group: C 2/M
;
_chemical_formula_sum "Si O2"
_cell_formula_units_Z 64
_cell_length_a 17.719195
_cell_length_b 14.243047
_cell_length_c 21.874962
_cell_angle_alpha 90.000000
_cell_angle_beta 31.288647
_cell_angle_gamma 90.000000
_cell_volume 2867.174762
_symmetry_space_group_name_H-M "C 2/M"
_symmetry_group_IT_number 12
_symmetry_cell_setting 'monoclinic'
loop_
_space_group_symop_operation_xyz
x,y,z
-x,y,-z
-x,-y,-z
x,-y,z
1/2+x,1/2+y,z
1/2-x,1/2+y,-z
1/2-x,1/2-y,-z
1/2+x,1/2-y,z
loop_
_atom_site_type_symbol
_atom_site_label
_atom_site_fract_x
_atom_site_fract_y
_atom_site_fract_z
Si Si1 0.341206 0.898160 0.744086
Si Si2 0.895731 0.395205 0.521326
Si Si3 0.370836 0.706157 0.773174
Si Si4 0.390874 0.894374 0.250771
Si Si5 0.607217 0.606797 0.372038
Si Si6 0.138087 0.277400 0.025538
Si Si7 0.668792 0.266492 0.619001
Si Si8 0.543647 0.394637 0.899539
O O1 0.505351 0.900955 0.606881
O O2 0.341411 0.818344 0.794884
O O3 0.219648 0.877429 0.775159
O O4 0.302480 0.000000 0.800542
O O5 0.846364 0.500000 0.576292
O O6 0.753848 0.333915 0.606713
O O7 0.000000 0.347968 0.500000
O O8 0.399611 0.668471 0.684930
O O9 0.513131 0.684589 0.715009
O O10 0.224044 0.673112 0.908912
O O11 0.270644 0.888309 0.281476
O O12 0.538816 0.860413 0.118408
O O13 0.346032 0.834833 0.340576
O O14 0.409786 0.000000 0.261551
O O15 0.500000 0.645103 0.500000
O O16 0.560977 0.500000 0.387432
O O17 0.039583 0.185664 0.080155
O O18 0.250000 0.250000 0.000000
O O19 0.750000 0.250000 0.500000
O O20 0.506412 0.500000 0.900628
O O21 0.500000 0.384956 0.000000
#
# Coordination Sequence:
#
# PCOD8108693 Si02
#       8
#     8   8   8   8   8   8   8   8
#     4  10  21  38  63  98 133 170 219 274 342 412
#     4  10  24  42  64  97 138 178 216 272 347 416
#     4  12  24  41  70 103 138 185 234 290 351 419
#     4  11  27  48  71  98 138 191 242 288 347 428
#     4  10  24  46  72 102 134 179 238 295 353 418
#     4  12  26  45  64 101 148 188 234 287 358 424
#     4  12  25  42  70 104 136 180 232 287 355 422
#     4  10  21  39  69 102 128 171 233 290 343 409
#
# _framework density 22.321624
#
# number of rings (size 3 to 8) (size 9 to 14) (size 15 to 20)
#    0.000    1.125    3.750    1.500    3.500    2.500 
#    0.000    1.250    0.000    0.000    0.000    0.000 
#    0.000    0.000    0.000    0.000    0.000    0.000 
#
# Total GULP energy -396689.919824 kJ/mol
# GULP energy per Si atom -12396.559995 kJ/mol
# Density = 2.227082 g / cm^3
# Si number density = 22.321624 Si / 1000 Ang^3
#
#
#
# Elastic Constant Matrix: (Units=GPa)
#
#
# Indices 1 2 3 4 5 6 
#
# 1 112.3573 63.8718 47.3827 0.0010 -11.8818 -0.0004
# 2 63.8718 121.4800 63.2179 -0.0021 -3.7316 0.0008
# 3 47.3827 63.2179 128.7771 0.0002 -10.1340 0.0013
# 4 0.0010 -0.0021 0.0002 34.3301 -0.0003 0.3567
# 5 -11.8818 -3.7316 -10.1340 -0.0003 40.8706 0.0000
# 6 -0.0004 0.0008 0.0013 0.3567 0.0000 19.6465
#
#
#
# Elastic Compliance Matrix: (Units=1/GPa)
#
#
# Indices 1 2 3 4 5 6 
#
# 1 0.013370 -0.006043 -0.001724 -0.000001 0.002908 0.000001
# 2 -0.006043 0.013793 -0.004678 0.000001 -0.001657 0.000000
# 3 -0.001724 -0.004678 0.010834 0.000000 0.001758 -0.000001
# 4 -0.000001 0.000001 0.000000 0.029134 0.000000 -0.000529
# 5 0.002908 -0.001657 0.001758 0.000000 0.025597 0.000000
# 6 0.000001 0.000000 -0.000001 -0.000529 0.000000 0.050909
#
#
# Mechanical properties :
#
#
# Convention : Reuss Voigt Hill
#
# Bulk Modulus (GPa) = 76.29423 79.06212 77.67818
# Shear Modulus (GPa) = 28.91891 31.51225 30.21558
#
# Velocity S-wave (km/s) = 3.60329 3.76138 3.68318
# Velocity P-wave (km/s) = 7.18090 7.37295 7.27756
#
# Compressibility (1/GPa) = 0.01310715
#
# Stress axis : x y z
#
# Youngs Moduli (GPa) = 74.79379 72.50241 92.29876
#
# Poissons Ratio (x) = 0.43815 0.15911
# Poissons Ratio (y) = 0.45200 0.43175
# Poissons Ratio (z) = 0.12894 0.33915
#
# Static dielectric constant tensor:
#      x y z
#    x 3.988670 0.000000 -0.234400 
#    y 0.000000 4.198750 0.000010 
#    z -0.234400 0.000010 4.417590 
# 
# 
# High freq. dielectric constant tensor:
#      x y z
#    x 1.869280 0.000000 -0.009930 
#    y 0.000000 1.873970 0.000000 
#    z -0.009930 0.000000 1.897390 
# 
# From -- ./inp_files/344038.got.cif
#   From: 2010.06.25/outbox.cif.g09.slc.cpg/sg12_173_cif.got.tgz:344038.got - 2010.06.28 00:19:55.
