data_PCOD8108915
_publ_section_title
;
Structure prediction by ZEFSAII (Michael W. Deem and Ramdas Pophale) SiO2 
 PCOD8108915
Probable space group: C 2/M
;
_chemical_formula_sum "Si O2"
_cell_formula_units_Z 48
_cell_length_a 31.584093
_cell_length_b 8.595042
_cell_length_c 15.726506
_cell_angle_alpha 90.000000
_cell_angle_beta 143.581126
_cell_angle_gamma 90.000000
_cell_volume 2534.568311
_symmetry_space_group_name_H-M "C 2/M"
_symmetry_group_IT_number 12
_symmetry_cell_setting 'monoclinic'
loop_
_space_group_symop_operation_xyz
x,y,z
-x,y,-z
-x,-y,-z
x,-y,z
1/2+x,1/2+y,z
1/2-x,1/2+y,-z
1/2-x,1/2-y,-z
1/2+x,1/2-y,z
loop_
_atom_site_type_symbol
_atom_site_label
_atom_site_fract_x
_atom_site_fract_y
_atom_site_fract_z
Si Si1 0.596782 0.180710 0.103233
Si Si2 0.885410 0.677202 0.541889
Si Si3 0.074972 0.680849 0.581889
Si Si4 0.044070 0.820238 0.185299
Si Si5 0.719690 0.317414 0.864780
Si Si6 0.770456 0.180262 0.774249
O O1 0.594597 0.273784 0.188312
O O2 0.668822 0.218299 0.170743
O O3 0.594043 0.000000 0.120552
O O4 0.529402 0.224062 0.935503
O O5 0.898040 0.500000 0.591156
O O6 0.927406 0.712781 0.522664
O O7 0.914793 0.791107 0.660862
O O8 0.801932 0.710603 0.394491
O O9 0.092359 0.500000 0.627513
O O10 0.135470 0.783288 0.724367
O O11 0.000000 0.732081 0.500000
O O12 0.024409 0.000000 0.146363
O O13 0.733661 0.500000 0.881769
O O14 0.761429 0.232910 0.856452
O O15 0.750000 0.250000 0.000000
O O16 0.792075 0.000000 0.807893
#
# Coordination Sequence:
#
# PCOD8108915 Si02
#       6
#     8   8   8   8   8   8
#     4  11  22  38  59  82 111 145 184 228 278 332
#     4   9  19  36  57  81 111 145 182 228 279 330
#     4   9  19  37  59  82 111 146 185 230 278 328
#     4  11  22  37  57  81 112 147 186 230 274 324
#     4  11  22  37  57  82 114 149 187 229 275 326
#     4  10  21  39  60  83 112 144 183 229 277 329
#
# _framework density 18.938134999999999
#
# number of rings (size 3 to 8) (size 9 to 14) (size 15 to 20)
#    0.000    1.833    0.000    7.000    0.000    5.667 
#    0.000    5.000    0.000    0.000    0.000    0.000 
#    0.000    0.000    0.000    0.000    0.000    0.000 
#
# Total GULP energy -297718.186247 kJ/mol
# GULP energy per Si atom -12404.924427 kJ/mol
# Density = 1.889503 g / cm^3
# Si number density = 18.938135 Si / 1000 Ang^3
#
#
#
# Elastic Constant Matrix: (Units=GPa)
#
#
# Indices 1 2 3 4 5 6 
#
# 1 111.0627 17.8176 57.8677 0.0000 12.4342 0.0000
# 2 17.8176 80.7609 30.3600 0.0000 -4.3346 0.0000
# 3 57.8677 30.3600 95.5873 0.0000 -16.1434 0.0000
# 4 0.0000 0.0000 0.0000 33.8558 0.0000 0.2129
# 5 12.4342 -4.3346 -16.1434 0.0000 29.1080 0.0000
# 6 0.0000 0.0000 0.0000 0.2129 0.0000 31.6078
#
#
#
# Elastic Compliance Matrix: (Units=1/GPa)
#
#
# Indices 1 2 3 4 5 6 
#
# 1 0.017447 0.000302 -0.013140 0.000000 -0.014696 0.000000
# 2 0.000302 0.014071 -0.004766 0.000000 -0.000677 0.000000
# 3 -0.013140 -0.004766 0.022904 0.000000 0.017606 0.000000
# 4 0.000000 0.000000 0.000000 0.029538 0.000000 -0.000199
# 5 -0.014696 -0.000677 0.017606 0.000000 0.050296 0.000000
# 6 0.000000 0.000000 0.000000 -0.000199 0.000000 0.031639
#
#
# Mechanical properties :
#
#
# Convention : Reuss Voigt Hill
#
# Bulk Modulus (GPa) = 52.04830 55.50018 53.77424
# Shear Modulus (GPa) = 24.09531 31.00536 27.55033
#
# Velocity S-wave (km/s) = 3.57082 4.05061 3.81826
# Velocity P-wave (km/s) = 6.67413 7.15865 6.92063
#
# Compressibility (1/GPa) = 0.01921292
#
# Stress axis : x y z
#
# Youngs Moduli (GPa) = 57.31530 71.06794 43.66085
#
# Poissons Ratio (x) = -0.02144 0.57371
# Poissons Ratio (y) = -0.01729 0.20809
# Poissons Ratio (z) = 0.75314 0.33872
#
# Static dielectric constant tensor:
#      x y z
#    x 3.512000 0.000000 0.031470 
#    y 0.000000 3.535140 0.000000 
#    z 0.031470 0.000000 3.383150 
# 
# 
# High freq. dielectric constant tensor:
#      x y z
#    x 1.740380 0.000000 -0.000890 
#    y 0.000000 1.744820 0.000000 
#    z -0.000890 0.000000 1.734420 
# 
# From -- ./inp_files/249358.got.cif
#   From: 2010.06.25/outbox.cif.g09.slc.cpg/sg12_125_cif.got.tgz:249358.got - 2010.06.28 00:19:55.
