data_PCOD8108962
_publ_section_title
;
Structure prediction by ZEFSAII (Michael W. Deem and Ramdas Pophale) SiO2 
 PCOD8108962
Probable space group: C 2/M
;
_chemical_formula_sum "Si O2"
_cell_formula_units_Z 48
_cell_length_a 13.591218
_cell_length_b 18.642059
_cell_length_c 9.619333
_cell_angle_alpha 90.000000
_cell_angle_beta 111.748129
_cell_angle_gamma 90.000000
_cell_volume 2263.755650
_symmetry_space_group_name_H-M "C 2/M"
_symmetry_group_IT_number 12
_symmetry_cell_setting 'monoclinic'
loop_
_space_group_symop_operation_xyz
x,y,z
-x,y,-z
-x,-y,-z
x,-y,z
1/2+x,1/2+y,z
1/2-x,1/2+y,-z
1/2-x,1/2-y,-z
1/2+x,1/2-y,z
loop_
_atom_site_type_symbol
_atom_site_label
_atom_site_fract_x
_atom_site_fract_y
_atom_site_fract_z
Si Si1 0.298657 0.836893 0.728934
Si Si2 0.717925 0.790595 0.845693
Si Si3 0.735892 0.581707 0.959901
Si Si4 0.594530 0.654126 0.455448
Si Si5 0.996754 0.081362 0.844942
Si Si6 0.017743 0.691996 0.363094
O O1 0.277098 0.751763 0.751214
O O2 0.305336 0.883440 0.873345
O O3 0.207158 0.867046 0.579993
O O4 0.411011 0.850091 0.711552
O O5 0.591887 0.784179 0.763005
O O6 0.750000 0.750000 0.000000
O O7 0.749623 0.874237 0.886381
O O8 0.771701 0.500000 0.007044
O O9 0.614864 0.585535 0.844500
O O10 0.500000 0.621208 0.500000
O O11 0.585661 0.622684 0.295613
O O12 0.586248 0.739512 0.445122
O O13 0.955798 0.000000 0.837059
O O14 0.000000 0.117117 0.000000
O O15 0.000000 0.648204 0.500000
#
# Coordination Sequence:
#
# PCOD8108962 Si02
#       6
#     8   8   8   8   8   8
#     4  11  22  39  63  93 122 161 206 260 312 370
#     4  10  21  39  60  92 121 159 206 255 311 364
#     4  10  22  40  60  87 124 163 209 254 308 375
#     4  11  19  37  62  91 120 160 200 252 314 371
#     4  10  22  37  57  90 129 165 203 251 312 383
#     4  11  23  38  59  91 121 154 205 264 311 365
#
# _framework density 21.203702
#
# number of rings (size 3 to 8) (size 9 to 14) (size 15 to 20)
#    0.000    1.500    5.000    1.500    2.333    3.667 
#    0.000    1.667    0.000    2.000    0.000    0.000 
#    0.000    0.000    0.000    0.000    0.000    0.000 
#
# Total GULP energy -297504.704117 kJ/mol
# GULP energy per Si atom -12396.029338 kJ/mol
# Density = 2.115544 g / cm^3
# Si number density = 21.203702 Si / 1000 Ang^3
#
#
#
# Elastic Constant Matrix: (Units=GPa)
#
#
# Indices 1 2 3 4 5 6 
#
# 1 95.1445 18.3263 36.1689 0.0000 -12.3615 0.0000
# 2 18.3263 93.7710 30.7202 0.0000 -11.3325 0.0000
# 3 36.1689 30.7202 121.8015 0.0000 -9.3841 0.0000
# 4 0.0000 0.0000 0.0000 25.1183 0.0000 -2.6849
# 5 -12.3615 -11.3325 -9.3841 0.0000 37.3006 0.0000
# 6 0.0000 0.0000 0.0000 -2.6849 0.0000 19.3282
#
#
#
# Elastic Compliance Matrix: (Units=1/GPa)
#
#
# Indices 1 2 3 4 5 6 
#
# 1 0.012295 -0.001006 -0.003168 0.000000 0.002972 0.000000
# 2 -0.001006 0.012012 -0.002524 0.000000 0.002681 0.000000
# 3 -0.003168 -0.002524 0.009838 0.000000 0.000658 0.000000
# 4 0.000000 0.000000 0.000000 0.040412 0.000000 0.005614
# 5 0.002972 0.002681 0.000658 0.000000 0.028774 0.000000
# 6 0.000000 0.000000 0.000000 0.005614 0.000000 0.052518
#
#
# Mechanical properties :
#
#
# Convention : Reuss Voigt Hill
#
# Bulk Modulus (GPa) = 48.19733 53.46085 50.82909
# Shear Modulus (GPa) = 28.38316 31.38287 29.88302
#
# Velocity S-wave (km/s) = 3.66265 3.85134 3.75818
# Velocity P-wave (km/s) = 6.37704 6.71154 6.54643
#
# Compressibility (1/GPa) = 0.02074804
#
# Stress axis : x y z
#
# Youngs Moduli (GPa) = 81.33678 83.25116 101.64372
#
# Poissons Ratio (x) = 0.08373 0.32203
# Poissons Ratio (y) = 0.08180 0.25659
# Poissons Ratio (z) = 0.25770 0.21016
#
# Static dielectric constant tensor:
#      x y z
#    x 3.837760 0.000000 -0.204220 
#    y 0.000000 3.798090 0.000000 
#    z -0.204220 0.000000 4.116870 
# 
# 
# High freq. dielectric constant tensor:
#      x y z
#    x 1.820530 0.000000 -0.007260 
#    y 0.000000 1.788780 0.000000 
#    z -0.007260 0.000000 1.843530 
# 
# From -- ./inp_files/63581.got.cif
#   From: 2010.06.25/outbox.cif.g09.slc.cpg/sg12_32_cif.got.tgz:63581.got - 2010.06.28 00:19:55.
