data_PCOD8108226
_publ_section_title
;
Structure prediction by ZEFSAII (Michael W. Deem and Ramdas Pophale) SiO2 
 PCOD8108226
Probable space group: C 2/M
;
_chemical_formula_sum "Si O2"
_cell_formula_units_Z 64
_cell_length_a 29.740429
_cell_length_b 8.899292
_cell_length_c 15.542062
_cell_angle_alpha 90.000000
_cell_angle_beta 48.877135
_cell_angle_gamma 90.000000
_cell_volume 3098.702363
_symmetry_space_group_name_H-M "C 2/M"
_symmetry_group_IT_number 12
_symmetry_cell_setting 'monoclinic'
loop_
_space_group_symop_operation_xyz
x,y,z
-x,y,-z
-x,-y,-z
x,-y,z
1/2+x,1/2+y,z
1/2-x,1/2+y,-z
1/2-x,1/2-y,-z
1/2+x,1/2-y,z
loop_
_atom_site_type_symbol
_atom_site_label
_atom_site_fract_x
_atom_site_fract_y
_atom_site_fract_z
Si Si1 0.139665 0.170521 0.963844
Si Si2 0.656686 0.332364 0.270023
Si Si3 0.997536 0.829407 0.906357
Si Si4 0.313766 0.175593 0.928932
Si Si5 0.293859 0.822750 0.513156
Si Si6 0.569006 0.177555 0.665159
Si Si7 0.955412 0.825054 0.480996
Si Si8 0.736722 0.170461 0.744038
O O1 0.070127 0.175136 0.037131
O O2 0.150162 0.258207 0.037907
O O3 0.163726 0.000000 0.939756
O O4 0.172933 0.254520 0.843497
O O5 0.641628 0.500000 0.254437
O O6 0.648124 0.213408 0.204434
O O7 0.611933 0.291819 0.403548
O O8 0.724883 0.328230 0.216739
O O9 0.036817 0.731307 0.792261
O O10 0.022419 0.000000 0.874195
O O11 0.000000 0.762903 0.000000
O O12 0.306236 0.000000 0.950556
O O13 0.250000 0.250000 0.000000
O O14 0.250000 0.750000 0.500000
O O15 0.362133 0.769372 0.414243
O O16 0.272636 0.770529 0.632484
O O17 0.288774 0.000000 0.511679
O O18 0.536450 0.243187 0.620922
O O19 0.564145 0.000000 0.664933
O O20 0.000000 0.765225 0.500000
O O21 0.967737 0.000000 0.448769
O O22 0.727588 0.000000 0.721503
#
# Coordination Sequence:
#
# PCOD8108226 Si02
#       8
#     8   8   8   8   8   8   8   8
#     4  11  24  42  65  93 127 169 219 268 318 383
#     4  10  21  38  60  89 126 165 210 260 315 380
#     4  10  25  48  71  94 123 170 223 270 322 385
#     4  12  24  38  59  89 127 168 209 257 315 378
#     4  11  25  43  66  97 130 166 210 261 324 386
#     4  11  25  44  67  99 134 168 212 269 326 382
#     4  10  22  41  66  93 125 172 218 260 314 381
#     4  11  22  39  65  95 129 166 208 263 327 383
#
# _framework density 20.653808000000001
#
# number of rings (size 3 to 8) (size 9 to 14) (size 15 to 20)
#    0.000    1.250    2.500    2.625    3.500    4.000 
#    0.000    0.000    0.000    0.000    0.000    0.000 
#    0.000    0.000    0.000    0.000    0.000    0.000 
#
# Total GULP energy -396892.712178 kJ/mol
# GULP energy per Si atom -12402.897256 kJ/mol
# Density = 2.060680 g / cm^3
# Si number density = 20.653808 Si / 1000 Ang^3
#
#
#
# Elastic Constant Matrix: (Units=GPa)
#
#
# Indices 1 2 3 4 5 6 
#
# 1 103.1765 51.7078 45.6029 0.0000 16.5480 0.0000
# 2 51.7078 85.9438 39.2962 0.0002 7.3330 -0.0001
# 3 45.6029 39.2962 125.7982 0.0000 11.7966 0.0000
# 4 0.0000 0.0002 0.0000 38.5321 0.0000 3.1312
# 5 16.5480 7.3330 11.7966 0.0000 32.7710 0.0000
# 6 0.0000 -0.0001 0.0000 3.1312 0.0000 28.8556
#
#
#
# Elastic Compliance Matrix: (Units=1/GPa)
#
#
# Indices 1 2 3 4 5 6 
#
# 1 0.015589 -0.007672 -0.002771 0.000000 -0.005158 0.000000
# 2 -0.007672 0.017428 -0.002753 0.000000 0.000965 0.000000
# 3 -0.002771 -0.002753 0.009961 0.000000 -0.001570 0.000000
# 4 0.000000 0.000000 0.000000 0.026183 0.000000 -0.002841
# 5 -0.005158 0.000965 -0.001570 0.000000 0.033468 0.000000
# 6 0.000000 0.000000 0.000000 -0.002841 0.000000 0.034964
#
#
# Mechanical properties :
#
#
# Convention : Reuss Voigt Hill
#
# Bulk Modulus (GPa) = 60.29457 65.34802 62.82129
# Shear Modulus (GPa) = 29.49599 31.91916 30.70758
#
# Velocity S-wave (km/s) = 3.78314 3.93547 3.86006
# Velocity P-wave (km/s) = 6.95264 7.23595 7.09571
#
# Compressibility (1/GPa) = 0.01658524
#
# Stress axis : x y z
#
# Youngs Moduli (GPa) = 64.14790 57.37911 100.39072
#
# Poissons Ratio (x) = 0.44022 0.27818
# Poissons Ratio (y) = 0.49215 0.27642
# Poissons Ratio (z) = 0.17775 0.15799
#
# Static dielectric constant tensor:
#      x y z
#    x 4.103700 0.000000 0.266310 
#    y 0.000000 3.895230 0.000000 
#    z 0.266310 0.000000 4.048000 
# 
# 
# High freq. dielectric constant tensor:
#      x y z
#    x 1.809310 0.000000 0.002410 
#    y 0.000000 1.807830 0.000000 
#    z 0.002410 0.000000 1.819270 
# 
# From -- ./inp_files/249781.got.cif
#   From: 2010.06.25/outbox.cif.g09.slc.cpg/sg12_125_cif.got.tgz:249781.got - 2010.06.28 00:19:55.
