data_PCOD8108121
_publ_section_title
;
Structure prediction by ZEFSAII (Michael W. Deem and Ramdas Pophale) SiO2 
 PCOD8108121
Probable space group: C 2/M
;
_chemical_formula_sum "Si O2"
_cell_formula_units_Z 56
_cell_length_a 19.848757
_cell_length_b 8.823530
_cell_length_c 19.341605
_cell_angle_alpha 90.000000
_cell_angle_beta 121.968873
_cell_angle_gamma 90.000000
_cell_volume 2873.664193
_symmetry_space_group_name_H-M "C 2/M"
_symmetry_group_IT_number 12
_symmetry_cell_setting 'monoclinic'
loop_
_space_group_symop_operation_xyz
x,y,z
-x,y,-z
-x,-y,-z
x,-y,z
1/2+x,1/2+y,z
1/2-x,1/2+y,-z
1/2-x,1/2-y,-z
1/2+x,1/2-y,z
loop_
_atom_site_type_symbol
_atom_site_label
_atom_site_fract_x
_atom_site_fract_y
_atom_site_fract_z
Si Si1 0.291128 0.178568 0.351668
Si Si2 0.624821 0.178524 0.243424
Si Si3 0.414716 0.180225 0.931587
Si Si4 0.172723 0.822140 0.491892
Si Si5 0.143857 0.176308 0.749744
Si Si6 0.764237 0.321839 0.933936
Si Si7 0.964808 0.824476 0.688494
O O1 0.201317 0.234207 0.312973
O O2 0.343085 0.253349 0.440807
O O3 0.324944 0.225540 0.296431
O O4 0.293810 0.000000 0.361450
O O5 0.605065 0.236814 0.155999
O O6 0.552014 0.221980 0.253573
O O7 0.640996 0.000000 0.253545
O O8 0.346863 0.240266 0.946765
O O9 0.417123 0.000000 0.934140
O O10 0.500000 0.247924 0.000000
O O11 0.250000 0.750000 0.500000
O O12 0.095311 0.782165 0.405331
O O13 0.186558 0.000000 0.505487
O O14 0.192203 0.223393 0.844328
O O15 0.052428 0.216000 0.710765
O O16 0.158154 0.000000 0.740169
O O17 0.768927 0.500000 0.946388
O O18 0.750000 0.250000 0.000000
O O19 0.957911 0.000000 0.705873
#
# Coordination Sequence:
#
# PCOD8108121 Si02
#       7
#     8   8   8   8   8   8   8
#     4  12  24  39  62  89 120 158 202 252 297 351
#     4  11  21  37  63  88 118 161 202 244 297 357
#     4   9  19  36  58  87 119 152 194 242 293 352
#     4  11  22  38  61  90 121 157 197 246 303 356
#     4  10  22  43  63  84 120 163 201 242 298 360
#     4  10  21  38  60  85 119 157 195 239 296 356
#     4  10  23  40  61  89 121 154 197 249 298 353
#
# _framework density 19.487314000000001
#
# number of rings (size 3 to 8) (size 9 to 14) (size 15 to 20)
#    0.000    1.571    2.857    2.143    2.000    2.286 
#    0.000    2.857    0.000    2.143    0.000    0.000 
#    0.000    0.000    0.000    0.000    0.000    0.000 
#
# Total GULP energy -347326.534855 kJ/mol
# GULP energy per Si atom -12404.519102 kJ/mol
# Density = 1.944296 g / cm^3
# Si number density = 19.487314 Si / 1000 Ang^3
#
#
#
# Elastic Constant Matrix: (Units=GPa)
#
#
# Indices 1 2 3 4 5 6 
#
# 1 97.5699 37.6861 55.4785 0.0000 13.7217 0.0000
# 2 37.6861 72.1456 45.7474 0.0000 -5.1631 0.0000
# 3 55.4785 45.7474 135.5039 0.0000 -2.4937 0.0000
# 4 0.0000 0.0000 0.0000 26.2064 0.0000 -8.9119
# 5 13.7217 -5.1631 -2.4937 0.0000 38.9218 0.0000
# 6 0.0000 0.0000 0.0000 -8.9119 0.0000 31.7585
#
#
#
# Elastic Compliance Matrix: (Units=1/GPa)
#
#
# Indices 1 2 3 4 5 6 
#
# 1 0.016202 -0.005935 -0.004755 0.000000 -0.006804 0.000000
# 2 -0.005935 0.019961 -0.004227 0.000000 0.004470 0.000000
# 3 -0.004755 -0.004227 0.010787 0.000000 0.001807 0.000000
# 4 0.000000 0.000000 0.000000 0.042184 0.000000 0.011837
# 5 -0.006804 0.004470 0.001807 0.000000 0.028800 0.000000
# 6 0.000000 0.000000 0.000000 0.011837 0.000000 0.034809
#
#
# Mechanical properties :
#
#
# Convention : Reuss Voigt Hill
#
# Bulk Modulus (GPa) = 58.42384 64.78261 61.60322
# Shear Modulus (GPa) = 26.55577 30.46451 28.51014
#
# Velocity S-wave (km/s) = 3.69551 3.95815 3.82908
# Velocity P-wave (km/s) = 6.94655 7.36240 7.15750
#
# Compressibility (1/GPa) = 0.01711630
#
# Stress axis : x y z
#
# Youngs Moduli (GPa) = 61.72061 50.09700 92.70484
#
# Poissons Ratio (x) = 0.29733 0.44081
# Poissons Ratio (y) = 0.36632 0.39185
# Poissons Ratio (z) = 0.29348 0.21175
#
# Static dielectric constant tensor:
#      x y z
#    x 3.770340 0.000000 0.075300 
#    y 0.000000 3.372000 0.000000 
#    z 0.075300 0.000000 3.816290 
# 
# 
# High freq. dielectric constant tensor:
#      x y z
#    x 1.764840 0.000000 -0.003210 
#    y 0.000000 1.742720 0.000000 
#    z -0.003210 0.000000 1.773830 
# 
# From -- ./inp_files/275553.got.cif
#   From: 2010.06.25/outbox.cif.g09.slc.cpg/sg12_138_cif.got.tgz:275553.got - 2010.06.28 00:19:55.
