data_PCOD8108106
_publ_section_title
;
Structure prediction by ZEFSAII (Michael W. Deem and Ramdas Pophale) SiO2 
 PCOD8108106
Probable space group: C 2/M
;
_chemical_formula_sum "Si O2"
_cell_formula_units_Z 56
_cell_length_a 16.104715
_cell_length_b 8.942174
_cell_length_c 23.011940
_cell_angle_alpha 90.000000
_cell_angle_beta 58.381513
_cell_angle_gamma 90.000000
_cell_volume 2822.042403
_symmetry_space_group_name_H-M "C 2/M"
_symmetry_group_IT_number 12
_symmetry_cell_setting 'monoclinic'
loop_
_space_group_symop_operation_xyz
x,y,z
-x,y,-z
-x,-y,-z
x,-y,z
1/2+x,1/2+y,z
1/2-x,1/2+y,-z
1/2-x,1/2-y,-z
1/2+x,1/2-y,z
loop_
_atom_site_type_symbol
_atom_site_label
_atom_site_fract_x
_atom_site_fract_y
_atom_site_fract_z
Si Si1 0.273280 0.663761 0.433299
Si Si2 0.463950 0.677049 0.836796
Si Si3 0.732041 0.328421 0.154605
Si Si4 0.413861 0.163908 0.570301
Si Si5 0.101775 0.171757 0.309742
Si Si6 0.064952 0.675804 0.695246
Si Si7 0.941021 0.823302 0.077343
O O1 0.322290 0.500000 0.427703
O O2 0.250000 0.750000 0.500000
O O3 0.171963 0.633270 0.441418
O O4 0.334854 0.763065 0.366444
O O5 0.471112 0.500000 0.826090
O O6 0.353057 0.727174 0.859547
O O7 0.542676 0.750796 0.765546
O O8 0.496043 0.729096 0.889536
O O9 0.756564 0.500000 0.132228
O O10 0.695521 0.306654 0.234131
O O11 0.831336 0.236983 0.112741
O O12 0.500000 0.236577 0.500000
O O13 0.376112 0.278945 0.632993
O O14 0.446037 0.000000 0.584034
O O15 0.017200 0.281654 0.320584
O O16 0.066977 0.000000 0.319905
O O17 0.071770 0.500000 0.701358
O O18 0.931782 0.000000 0.081038
O O19 0.000000 0.764522 0.000000
#
# Coordination Sequence:
#
# PCOD8108106 Si02
#       7
#     8   8   8   8   8   8   8
#     4  11  23  38  57  83 116 153 193 242 297 349
#     4   9  20  40  61  85 121 161 199 247 307 364
#     4   9  20  38  59  86 120 157 198 247 302 362
#     4  10  22  38  56  81 113 149 192 240 290 349
#     4  10  21  38  60  85 115 149 190 243 301 355
#     4  11  22  37  59  85 114 150 197 245 292 354
#     4  10  22  39  61  90 123 159 201 249 303 366
#
# _framework density 19.843782999999998
#
# number of rings (size 3 to 8) (size 9 to 14) (size 15 to 20)
#    0.000    2.000    0.000    3.857    2.000    6.857 
#    0.000    0.000    0.000    0.000    0.000    0.000 
#    0.000    0.000    0.000    0.000    0.000    0.000 
#
# Total GULP energy -347071.045130 kJ/mol
# GULP energy per Si atom -12395.394469 kJ/mol
# Density = 1.979862 g / cm^3
# Si number density = 19.843783 Si / 1000 Ang^3
#
#
#
# Elastic Constant Matrix: (Units=GPa)
#
#
# Indices 1 2 3 4 5 6 
#
# 1 108.2469 36.4254 77.5090 0.0000 2.0306 0.0000
# 2 36.4254 70.8427 52.3114 -0.0001 3.4131 0.0000
# 3 77.5090 52.3114 151.5839 0.0000 4.9183 0.0000
# 4 0.0000 -0.0001 0.0000 41.5260 0.0000 -1.0059
# 5 2.0306 3.4131 4.9183 0.0000 36.7719 0.0000
# 6 0.0000 0.0000 0.0000 -1.0059 0.0000 30.7876
#
#
#
# Elastic Compliance Matrix: (Units=1/GPa)
#
#
# Indices 1 2 3 4 5 6 
#
# 1 0.014965 -0.002754 -0.006712 0.000000 0.000327 0.000000
# 2 -0.002754 0.019479 -0.005283 0.000000 -0.000949 0.000000
# 3 -0.006712 -0.005283 0.011876 0.000000 -0.000727 0.000000
# 4 0.000000 0.000000 0.000000 0.024100 0.000000 0.000787
# 5 0.000327 -0.000949 -0.000727 0.000000 0.027362 0.000000
# 6 0.000000 0.000000 0.000000 0.000787 0.000000 0.032506
#
#
# Mechanical properties :
#
#
# Convention : Reuss Voigt Hill
#
# Bulk Modulus (GPa) = 59.44935 73.68500 66.56717
# Shear Modulus (GPa) = 30.23090 32.77894 31.50492
#
# Velocity S-wave (km/s) = 3.90737 4.06870 3.98885
# Velocity P-wave (km/s) = 7.09792 7.69972 7.40493
#
# Compressibility (1/GPa) = 0.01682104
#
# Stress axis : x y z
#
# Youngs Moduli (GPa) = 66.82298 51.33830 84.20396
#
# Poissons Ratio (x) = 0.14138 0.56519
# Poissons Ratio (y) = 0.18403 0.44486
# Poissons Ratio (z) = 0.44853 0.27122
#
# Static dielectric constant tensor:
#      x y z
#    x 3.631410 0.000000 0.117210 
#    y 0.000000 3.629990 0.000000 
#    z 0.117210 0.000000 3.777020 
# 
# 
# High freq. dielectric constant tensor:
#      x y z
#    x 1.773970 0.000000 0.000320 
#    y 0.000000 1.772850 0.000000 
#    z 0.000320 0.000000 1.775780 
# 
# From -- ./inp_files/338447.got.cif
#   From: 2010.06.25/outbox.cif.g09.slc.cpg/sg12_170_cif.got.tgz:338447.got - 2010.06.28 00:19:55.
