data_PCOD8108468
_publ_section_title
;
Structure prediction by ZEFSAII (Michael W. Deem and Ramdas Pophale) SiO2 
 PCOD8108468
Probable space group: C 2/M
;
_chemical_formula_sum "Si O2"
_cell_formula_units_Z 56
_cell_length_a 24.634793
_cell_length_b 22.465197
_cell_length_c 8.722799
_cell_angle_alpha 90.000000
_cell_angle_beta 34.610198
_cell_angle_gamma 90.000000
_cell_volume 2741.927017
_symmetry_space_group_name_H-M "C 2/M"
_symmetry_group_IT_number 12
_symmetry_cell_setting 'monoclinic'
loop_
_space_group_symop_operation_xyz
x,y,z
-x,y,-z
-x,-y,-z
x,-y,z
1/2+x,1/2+y,z
1/2-x,1/2+y,-z
1/2-x,1/2-y,-z
1/2+x,1/2-y,z
loop_
_atom_site_type_symbol
_atom_site_label
_atom_site_fract_x
_atom_site_fract_y
_atom_site_fract_z
Si Si1 0.633838 0.755102 0.942553
Si Si2 0.253141 0.067834 0.357980
Si Si3 0.764506 0.853969 0.183356
Si Si4 0.598796 0.568731 0.971216
Si Si5 0.472640 0.679755 0.236801
Si Si6 0.235374 0.165909 0.171657
Si Si7 0.889161 0.356295 0.237731
O O1 0.697697 0.695492 0.782804
O O2 0.673529 0.794251 0.991729
O O3 0.635376 0.792754 0.782351
O O4 0.527101 0.728520 0.217673
O O5 0.153911 0.077844 0.681278
O O6 0.248026 0.099299 0.204821
O O7 0.343540 0.091843 0.241558
O O8 0.272778 0.000000 0.276853
O O9 0.827749 0.913541 0.062805
O O10 0.654699 0.862031 0.488925
O O11 0.772317 0.832777 0.992131
O O12 0.566531 0.500000 0.067185
O O13 0.505703 0.611386 0.194640
O O14 0.361626 0.691099 0.527658
O O15 0.500000 0.696411 0.000000
O O16 0.000000 0.367871 0.000000
#
# Coordination Sequence:
#
# PCOD8108468 Si02
#       7
#     8   8   8   8   8   8   8
#     4  10  23  38  57  81 118 154 194 235 280 346
#     4   9  19  38  61  85 116 153 193 238 288 343
#     4  10  22  39  57  84 120 154 189 241 298 336
#     4   9  19  37  59  85 117 152 196 238 278 347
#     4  11  22  36  60  88 113 158 198 234 283 347
#     4  11  23  39  57  86 123 153 190 240 296 340
#     4  10  21  38  62  86 110 153 202 239 282 344
#
# _framework density 20.423593
#
# number of rings (size 3 to 8) (size 9 to 14) (size 15 to 20)
#    0.000    2.000    1.429    1.286    6.000    4.000 
#    2.571    2.857    0.000    0.857    0.000    0.000 
#    0.000    0.000    0.000    0.000    0.000    0.000 
#
# Total GULP energy -347028.876631 kJ/mol
# GULP energy per Si atom -12393.888451 kJ/mol
# Density = 2.037711 g / cm^3
# Si number density = 20.423593 Si / 1000 Ang^3
#
#
#
# Elastic Constant Matrix: (Units=GPa)
#
#
# Indices 1 2 3 4 5 6 
#
# 1 80.5571 32.7959 41.0400 0.0000 -8.2087 0.0000
# 2 32.7959 120.5371 16.3920 0.0000 -7.7572 0.0000
# 3 41.0400 16.3920 72.0296 0.0000 -5.9169 0.0000
# 4 0.0000 0.0000 0.0000 13.7387 0.0000 -1.9958
# 5 -8.2087 -7.7572 -5.9169 0.0000 25.0519 0.0000
# 6 0.0000 0.0000 0.0000 -1.9958 0.0000 23.1946
#
#
#
# Elastic Compliance Matrix: (Units=1/GPa)
#
#
# Indices 1 2 3 4 5 6 
#
# 1 0.019252 -0.003711 -0.009893 0.000000 0.002823 0.000000
# 2 -0.003711 0.009401 0.000117 0.000000 0.001722 0.000000
# 3 -0.009893 0.000117 0.019610 0.000000 0.001426 0.000000
# 4 0.000000 0.000000 0.000000 0.073708 0.000000 0.006342
# 5 0.002823 0.001722 0.001426 0.000000 0.041712 0.000000
# 6 0.000000 0.000000 0.000000 0.006342 0.000000 0.043659
#
#
# Mechanical properties :
#
#
# Convention : Reuss Voigt Hill
#
# Bulk Modulus (GPa) = 46.97325 50.39773 48.68549
# Shear Modulus (GPa) = 20.71136 24.59010 22.65073
#
# Velocity S-wave (km/s) = 3.18793 3.47364 3.33385
# Velocity P-wave (km/s) = 6.04979 6.38890 6.22166
#
# Compressibility (1/GPa) = 0.02128871
#
# Stress axis : x y z
#
# Youngs Moduli (GPa) = 51.94321 106.37259 50.99362
#
# Poissons Ratio (x) = 0.39476 0.50446
# Poissons Ratio (y) = 0.19277 -0.00594
# Poissons Ratio (z) = 0.51385 -0.01240
#
# Static dielectric constant tensor:
#      x y z
#    x 3.748010 0.000000 -0.244820 
#    y 0.000000 3.819520 0.000000 
#    z -0.244820 0.000000 3.411770 
# 
# 
# High freq. dielectric constant tensor:
#      x y z
#    x 1.799450 0.000000 -0.016330 
#    y 0.000000 1.800580 0.000000 
#    z -0.016330 0.000000 1.769340 
# 
# From -- ./inp_files/99620.got.cif
#   From: 2010.06.25/outbox.cif.g09.slc.cpg/sg12_50_cif.got.tgz:99620.got - 2010.06.28 00:19:55.
