data_PCOD8108866
_publ_section_title
;
Structure prediction by ZEFSAII (Michael W. Deem and Ramdas Pophale) SiO2 
 PCOD8108866
Probable space group: C 2/M
;
_chemical_formula_sum "Si O2"
_cell_formula_units_Z 44
_cell_length_a 17.746999
_cell_length_b 12.526223
_cell_length_c 12.632977
_cell_angle_alpha 90.000000
_cell_angle_beta 124.691502
_cell_angle_gamma 90.000000
_cell_volume 2309.102852
_symmetry_space_group_name_H-M "C 2/M"
_symmetry_group_IT_number 12
_symmetry_cell_setting 'monoclinic'
loop_
_space_group_symop_operation_xyz
x,y,z
-x,y,-z
-x,-y,-z
x,-y,z
1/2+x,1/2+y,z
1/2-x,1/2+y,-z
1/2-x,1/2-y,-z
1/2+x,1/2-y,z
loop_
_atom_site_type_symbol
_atom_site_label
_atom_site_fract_x
_atom_site_fract_y
_atom_site_fract_z
Si Si1 0.031870 0.875754 0.642453
Si Si2 0.010723 0.313792 0.124584
Si Si3 0.225664 0.500000 0.594664
Si Si4 0.843107 0.279934 0.131056
Si Si5 0.902064 0.884135 0.729816
Si Si6 0.938011 0.500000 0.686353
Si Si7 0.130395 0.500000 0.740936
O O1 0.118946 0.805447 0.751666
O O2 0.000000 0.838543 0.500000
O O3 0.944556 0.854513 0.648897
O O4 0.061653 0.000000 0.665152
O O5 0.911747 0.285013 0.088419
O O6 0.071810 0.206373 0.165174
O O7 0.059999 0.396186 0.240108
O O8 0.000000 0.363865 0.000000
O O9 0.291093 0.394879 0.638650
O O10 0.160803 0.500000 0.443060
O O11 0.160688 0.500000 0.644247
O O12 0.828207 0.395111 0.171739
O O13 0.750000 0.250000 0.000000
O O14 0.943255 0.000000 0.798251
O O15 0.019803 0.500000 0.665061
#
# Coordination Sequence:
#
# PCOD8108866 Si02
#       7
#     8   8   4   8   8   4   4
#     4   9  18  38  62  86 120 153 191 245 304 339
#     4  10  21  39  59  81 120 155 189 235 297 342
#     4  10  21  39  60  90 116 142 205 239 283 350
#     4  10  23  38  58  89 118 157 203 239 282 357
#     4   8  19  36  56  91 110 143 191 245 287 332
#     4  10  22  40  58  84 119 159 185 236 287 355
#     4  10  23  39  58  85 117 158 193 236 299 341
#
# _framework density 19.055019000000001
#
# number of rings (size 3 to 8) (size 9 to 14) (size 15 to 20)
#    0.545    2.000    0.000    0.545    3.818    5.455 
#    3.273    0.000    0.000    0.000    0.000    0.000 
#    0.000    0.000    0.000    0.000    0.000    0.000 
#
# Total GULP energy -272660.816032 kJ/mol
# GULP energy per Si atom -12393.673456 kJ/mol
# Density = 1.901165 g / cm^3
# Si number density = 19.055019 Si / 1000 Ang^3
#
#
#
# Elastic Constant Matrix: (Units=GPa)
#
#
# Indices 1 2 3 4 5 6 
#
# 1 74.5434 43.0215 66.3357 0.0000 4.3971 0.0000
# 2 43.0215 115.6936 62.4170 0.0000 9.8919 0.0000
# 3 66.3357 62.4170 140.7164 0.0000 12.6809 0.0000
# 4 0.0000 0.0000 0.0000 32.4175 0.0000 -7.2833
# 5 4.3971 9.8919 12.6809 0.0000 31.7718 0.0000
# 6 0.0000 0.0000 0.0000 -7.2833 0.0000 23.9671
#
#
#
# Elastic Compliance Matrix: (Units=1/GPa)
#
#
# Indices 1 2 3 4 5 6 
#
# 1 0.024387 -0.003855 -0.009948 0.000000 0.001796 0.000000
# 2 -0.003855 0.012049 -0.003358 0.000000 -0.001878 0.000000
# 3 -0.009948 -0.003358 0.013555 0.000000 -0.002988 0.000000
# 4 0.000000 0.000000 0.000000 0.033108 0.000000 0.010061
# 5 0.001796 -0.001878 -0.002988 0.000000 0.033003 0.000000
# 6 0.000000 0.000000 0.000000 0.010061 0.000000 0.044781
#
#
# Mechanical properties :
#
#
# Convention : Reuss Voigt Hill
#
# Bulk Modulus (GPa) = 63.82217 74.94464 69.38341
# Shear Modulus (GPa) = 24.94656 28.24324 26.59490
#
# Velocity S-wave (km/s) = 3.62219 3.85410 3.73995
# Velocity P-wave (km/s) = 7.14563 7.69555 7.42568
#
# Compressibility (1/GPa) = 0.01566854
#
# Stress axis : x y z
#
# Youngs Moduli (GPa) = 41.00608 82.99263 73.77323
#
# Poissons Ratio (x) = 0.31992 0.73391
# Poissons Ratio (y) = 0.15807 0.24775
# Poissons Ratio (z) = 0.40794 0.27871
#
# Static dielectric constant tensor:
#      x y z
#    x 3.425780 0.000000 -0.080420 
#    y 0.000000 8.431190 0.000000 
#    z -0.080420 0.000000 3.282610 
# 
# 
# High freq. dielectric constant tensor:
#      x y z
#    x 1.735000 0.000000 -0.006730 
#    y 0.000000 1.748270 0.000000 
#    z -0.006730 0.000000 1.730870 
# 
# From -- ./inp_files/154430.got.cif
#   From: 2010.06.25/outbox.cif.g09.slc.cpg/sg12_78_cif.got.tgz:154430.got - 2010.06.28 00:19:55.
