data_PCOD8108586
_publ_section_title
;
Structure prediction by ZEFSAII (Michael W. Deem and Ramdas Pophale) SiO2 
 PCOD8108586
Probable space group: C 2/M
;
_chemical_formula_sum "Si O2"
_cell_formula_units_Z 52
_cell_length_a 20.005162
_cell_length_b 19.584898
_cell_length_c 6.089350
_cell_angle_alpha 90.000000
_cell_angle_beta 92.672086
_cell_angle_gamma 90.000000
_cell_volume 2383.207522
_symmetry_space_group_name_H-M "C 2/M"
_symmetry_group_IT_number 12
_symmetry_cell_setting 'monoclinic'
loop_
_space_group_symop_operation_xyz
x,y,z
-x,y,-z
-x,-y,-z
x,-y,z
1/2+x,1/2+y,z
1/2-x,1/2+y,-z
1/2-x,1/2-y,-z
1/2+x,1/2-y,z
loop_
_atom_site_type_symbol
_atom_site_label
_atom_site_fract_x
_atom_site_fract_y
_atom_site_fract_z
Si Si1 0.187032 0.925578 0.292273
Si Si2 0.889791 0.421811 0.677537
Si Si3 0.779980 0.369019 0.962783
Si Si4 0.389934 0.814154 0.287132
Si Si5 0.000000 0.641261 0.000000
Si Si6 0.160642 0.170363 0.669798
Si Si7 0.428349 0.577470 0.059135
O O1 0.246843 0.922348 0.125306
O O2 0.193942 0.863704 0.462223
O O3 0.116139 0.918566 0.164141
O O4 0.192459 0.000000 0.409053
O O5 0.896407 0.500000 0.599683
O O6 0.894475 0.374322 0.464420
O O7 0.948560 0.406499 0.859832
O O8 0.817658 0.411284 0.778591
O O9 0.832251 0.322397 0.098401
O O10 0.721395 0.321405 0.852228
O O11 0.373115 0.742343 0.401265
O O12 0.460295 0.810977 0.166866
O O13 0.101849 0.122171 0.749893
O O14 0.434538 0.500000 0.148271
O O15 0.500000 0.607307 0.000000
#
# Coordination Sequence:
#
# PCOD8108586 Si02
#       7
#     8   8   8   8   4   8   8
#     4  10  21  38  62  93 124 160 208 256 306 364
#     4  11  24  44  69  95 124 162 210 265 320 378
#     4  10  23  41  64  91 125 168 206 256 309 375
#     4  11  25  42  64  93 126 164 211 255 312 376
#     4  10  25  46  64  90 127 166 210 260 315 382
#     4  11  23  39  62  91 128 168 205 255 311 369
#     4   9  20  39  60  86 121 165 211 255 301 356
#
# _framework density 21.819330999999998
#
# number of rings (size 3 to 8) (size 9 to 14) (size 15 to 20)
#    0.000    1.692    0.000    3.000    1.077   15.385 
#    2.769    2.308    0.000    0.000    0.000    0.000 
#    0.000    0.000    0.000    0.000    0.000    0.000 
#
# Total GULP energy -322435.874134 kJ/mol
# GULP energy per Si atom -12401.379774 kJ/mol
# Density = 2.176967 g / cm^3
# Si number density = 21.819331 Si / 1000 Ang^3
#
#
#
# Elastic Constant Matrix: (Units=GPa)
#
#
# Indices 1 2 3 4 5 6 
#
# 1 134.7643 36.4304 38.2245 0.0000 -24.1023 0.0000
# 2 36.4304 145.4730 55.4260 0.0000 -11.6355 0.0000
# 3 38.2245 55.4260 102.3401 0.0000 -25.3276 0.0000
# 4 0.0000 0.0000 0.0000 29.9519 0.0000 0.3582
# 5 -24.1023 -11.6355 -25.3276 0.0000 27.2300 0.0000
# 6 0.0000 0.0000 0.0000 0.3582 0.0000 15.1022
#
#
#
# Elastic Compliance Matrix: (Units=1/GPa)
#
#
# Indices 1 2 3 4 5 6 
#
# 1 0.009285 -0.001384 -0.001079 0.000000 0.006623 0.000000
# 2 -0.001384 0.008883 -0.004752 0.000000 -0.001849 0.000000
# 3 -0.001079 -0.004752 0.015600 0.000000 0.011524 0.000000
# 4 0.000000 0.000000 0.000000 0.033396 0.000000 -0.000792
# 5 0.006623 -0.001849 0.011524 0.000000 0.052516 0.000000
# 6 0.000000 0.000000 0.000000 -0.000792 0.000000 0.066234
#
#
# Mechanical properties :
#
#
# Convention : Reuss Voigt Hill
#
# Bulk Modulus (GPa) = 51.71099 71.41547 61.56323
# Shear Modulus (GPa) = 24.17893 31.28991 27.73442
#
# Velocity S-wave (km/s) = 3.33249 3.79099 3.56911
# Velocity P-wave (km/s) = 6.20954 7.20857 6.72763
#
# Compressibility (1/GPa) = 0.01933825
#
# Stress axis : x y z
#
# Youngs Moduli (GPa) = 107.69747 112.57065 64.10265
#
# Poissons Ratio (x) = 0.15584 0.06918
# Poissons Ratio (y) = 0.14909 0.30459
# Poissons Ratio (z) = 0.11622 0.53490
#
# Static dielectric constant tensor:
#      x y z
#    x 4.222220 0.000000 -0.031090 
#    y 0.000000 3.701630 0.000000 
#    z -0.031090 0.000000 3.852600 
# 
# 
# High freq. dielectric constant tensor:
#      x y z
#    x 1.875760 0.000000 -0.004540 
#    y 0.000000 1.844550 0.000000 
#    z -0.004540 0.000000 1.853420 
# 
# From -- ./inp_files/21213.got.cif
#   From: 2010.06.25/outbox.cif.g09.slc.cpg/sg12_11_cif.got.tgz:21213.got - 2010.06.28 00:19:55.
