data_PCOD8108679
_publ_section_title
;
Structure prediction by ZEFSAII (Michael W. Deem and Ramdas Pophale) SiO2 
 PCOD8108679
Probable space group: C 2/M
;
_chemical_formula_sum "Si O2"
_cell_formula_units_Z 36
_cell_length_a 14.517486
_cell_length_b 15.411066
_cell_length_c 13.008561
_cell_angle_alpha 90.000000
_cell_angle_beta 141.150306
_cell_angle_gamma 90.000000
_cell_volume 1825.637124
_symmetry_space_group_name_H-M "C 2/M"
_symmetry_group_IT_number 12
_symmetry_cell_setting 'monoclinic'
loop_
_space_group_symop_operation_xyz
x,y,z
-x,y,-z
-x,-y,-z
x,-y,z
1/2+x,1/2+y,z
1/2-x,1/2+y,-z
1/2-x,1/2-y,-z
1/2+x,1/2-y,z
loop_
_atom_site_type_symbol
_atom_site_label
_atom_site_fract_x
_atom_site_fract_y
_atom_site_fract_z
Si Si1 0.521319 0.097116 0.399523
Si Si2 0.220625 0.739316 0.856774
Si Si3 0.500000 0.661376 0.000000
Si Si4 0.654000 0.400768 0.335918
Si Si5 0.553189 0.402487 0.662072
O O1 0.500000 0.084440 0.500000
O O2 0.400293 0.163754 0.254078
O O3 0.682757 0.141316 0.523341
O O4 0.502624 0.000000 0.332564
O O5 0.367246 0.719257 0.922964
O O6 0.180974 0.832334 0.774790
O O7 0.250000 0.750000 0.000000
O O8 0.439709 0.606870 0.850668
O O9 0.689440 0.500000 0.383292
O O10 0.566830 0.366710 0.360224
O O11 0.500000 0.405587 0.500000
O O12 0.605289 0.500000 0.739891
#
# Coordination Sequence:
#
# PCOD8108679 Si02
#       5
#     8   8   4   8   8
#     4  10  21  38  63  95 127 160 201 260 322 371
#     4  12  25  40  60  95 130 168 204 256 317 372
#     4  12  23  38  61  98 128 162 208 262 318 368
#     4  10  21  39  66  96 124 162 209 261 316 370
#     4  10  23  43  65  89 124 169 213 252 304 375
#
# _framework density 19.719145000000001
#
# number of rings (size 3 to 8) (size 9 to 14) (size 15 to 20)
#    0.000    1.333    4.444    1.000    0.000    4.444 
#    0.000    0.556    0.000    0.000    0.000    0.000 
#    0.000    0.000    0.000    0.000    0.000    0.000 
#
# Total GULP energy -223029.577393 kJ/mol
# GULP energy per Si atom -12390.532077 kJ/mol
# Density = 1.967426 g / cm^3
# Si number density = 19.719145 Si / 1000 Ang^3
#
#
#
# Elastic Constant Matrix: (Units=GPa)
#
#
# Indices 1 2 3 4 5 6 
#
# 1 121.3530 13.6797 46.0290 -0.0002 6.6686 -0.0002
# 2 13.6797 95.8574 47.2869 -0.0001 12.0578 0.0000
# 3 46.0290 47.2869 110.6844 -0.0001 5.8562 -0.0001
# 4 -0.0002 -0.0001 -0.0001 60.8388 -0.0001 0.5493
# 5 6.6686 12.0578 5.8562 -0.0001 44.7014 -0.0001
# 6 -0.0002 0.0000 -0.0001 0.5493 -0.0001 22.5597
#
#
#
# Elastic Compliance Matrix: (Units=1/GPa)
#
#
# Indices 1 2 3 4 5 6 
#
# 1 0.009885 0.000926 -0.004446 0.000000 -0.001142 0.000000
# 2 0.000926 0.013674 -0.006067 0.000000 -0.003032 0.000000
# 3 -0.004446 -0.006067 0.013447 0.000000 0.000538 0.000000
# 4 0.000000 0.000000 0.000000 0.016440 0.000000 -0.000400
# 5 -0.001142 -0.003032 0.000538 0.000000 0.023288 0.000000
# 6 0.000000 0.000000 0.000000 -0.000400 0.000000 0.044337
#
#
# Mechanical properties :
#
#
# Convention : Reuss Voigt Hill
#
# Bulk Modulus (GPa) = 56.07522 60.20957 58.14239
# Shear Modulus (GPa) = 34.20228 40.34659 37.27444
#
# Velocity S-wave (km/s) = 4.16922 4.52825 4.35244
# Velocity P-wave (km/s) = 7.18854 7.61183 7.40321
#
# Compressibility (1/GPa) = 0.01783319
#
# Stress axis : x y z
#
# Youngs Moduli (GPa) = 101.16156 73.13122 74.36609
#
# Poissons Ratio (x) = -0.06774 0.33064
# Poissons Ratio (y) = -0.09370 0.45115
# Poissons Ratio (z) = 0.44978 0.44366
#
# Static dielectric constant tensor:
#      x y z
#    x 4.224170 0.000000 -0.129730 
#    y 0.000000 4.534550 0.000000 
#    z -0.129730 0.000000 3.853950 
# 
# 
# High freq. dielectric constant tensor:
#      x y z
#    x 1.782710 0.000000 0.000360 
#    y 0.000000 1.769240 0.000000 
#    z 0.000360 0.000000 1.763460 
# 
# From -- ./inp_files/58344.got.cif
#   From: 2010.06.25/outbox.cif.g09.slc.cpg/sg12_30_cif.got.tgz:58344.got - 2010.06.28 00:19:55.
