data_PCOD8108853
_publ_section_title
;
Structure prediction by ZEFSAII (Michael W. Deem and Ramdas Pophale) SiO2 
 PCOD8108853
Probable space group: C 2/M
;
_chemical_formula_sum "Si O2"
_cell_formula_units_Z 48
_cell_length_a 23.255288
_cell_length_b 9.005072
_cell_length_c 17.040447
_cell_angle_alpha 90.000000
_cell_angle_beta 47.223320
_cell_angle_gamma 90.000000
_cell_volume 2619.326930
_symmetry_space_group_name_H-M "C 2/M"
_symmetry_group_IT_number 12
_symmetry_cell_setting 'monoclinic'
loop_
_space_group_symop_operation_xyz
x,y,z
-x,y,-z
-x,-y,-z
x,-y,z
1/2+x,1/2+y,z
1/2-x,1/2+y,-z
1/2-x,1/2-y,-z
1/2+x,1/2-y,z
loop_
_atom_site_type_symbol
_atom_site_label
_atom_site_fract_x
_atom_site_fract_y
_atom_site_fract_z
Si Si1 0.519309 0.825222 0.691836
Si Si2 0.056811 0.172011 0.378985
Si Si3 0.693981 0.175590 0.489622
Si Si4 0.998654 0.829016 0.129268
Si Si5 0.627441 0.328684 0.882672
Si Si6 0.222056 0.828024 0.301320
O O1 0.457706 0.757375 0.688179
O O2 0.606010 0.770740 0.588651
O O3 0.498039 0.774491 0.798521
O O4 0.512235 0.000000 0.694082
O O5 0.146383 0.200535 0.318410
O O6 0.000000 0.234761 0.500000
O O7 0.037997 0.000000 0.382417
O O8 0.750000 0.250000 0.500000
O O9 0.718780 0.227824 0.381128
O O10 0.702914 0.000000 0.487228
O O11 0.921516 0.791507 0.150355
O O12 0.996957 0.000000 0.157374
O O13 0.075460 0.795334 0.007026
O O14 0.653829 0.500000 0.857187
O O15 0.702522 0.222310 0.818168
O O16 0.228902 0.000000 0.319098
#
# Coordination Sequence:
#
# PCOD8108853 Si02
#       6
#     8   8   8   8   8   8
#     4  11  23  36  55  84 113 143 186 235 280 322
#     4  10  21  39  59  78 107 151 192 226 275 336
#     4  11  23  36  53  81 115 147 180 225 279 333
#     4   9  19  37  60  83 112 150 188 223 274 340
#     4   9  19  37  60  85 112 148 187 227 277 331
#     4  11  22  36  57  84 111 144 187 230 277 332
#
# _framework density 18.325317999999999
#
# number of rings (size 3 to 8) (size 9 to 14) (size 15 to 20)
#    0.000    1.833    1.667    3.500    0.000    7.667 
#    0.000    2.500    0.000    0.000    0.000    0.000 
#    0.000    0.000    0.000    0.000    0.000    0.000 
#
# Total GULP energy -297721.882752 kJ/mol
# GULP energy per Si atom -12405.078448 kJ/mol
# Density = 1.828361 g / cm^3
# Si number density = 18.325318 Si / 1000 Ang^3
#
#
#
# Elastic Constant Matrix: (Units=GPa)
#
#
# Indices 1 2 3 4 5 6 
#
# 1 105.8561 51.4802 50.7746 0.0000 -8.8703 -0.0001
# 2 51.4802 64.9936 37.3648 0.0008 -7.9608 -0.0008
# 3 50.7746 37.3648 94.8995 0.0004 -11.1788 -0.0005
# 4 0.0000 0.0008 0.0004 34.5080 -0.0005 -0.1814
# 5 -8.8703 -7.9608 -11.1788 -0.0005 23.8558 0.0005
# 6 -0.0001 -0.0008 -0.0005 -0.1814 0.0005 31.4018
#
#
#
# Elastic Compliance Matrix: (Units=1/GPa)
#
#
# Indices 1 2 3 4 5 6 
#
# 1 0.016963 -0.010588 -0.004848 0.000000 0.000503 0.000000
# 2 -0.010588 0.026721 -0.004519 -0.000001 0.002863 0.000001
# 3 -0.004848 -0.004519 0.015369 0.000000 0.003891 0.000000
# 4 0.000000 -0.000001 0.000000 0.028980 0.000001 0.000167
# 5 0.000503 0.002863 0.003891 0.000001 0.044884 -0.000001
# 6 0.000000 0.000001 0.000000 0.000167 -0.000001 0.031846
#
#
# Mechanical properties :
#
#
# Convention : Reuss Voigt Hill
#
# Bulk Modulus (GPa) = 52.23576 60.55427 56.39502
# Shear Modulus (GPa) = 23.69066 26.36177 25.02622
#
# Velocity S-wave (km/s) = 3.59943 3.79693 3.69950
# Velocity P-wave (km/s) = 6.77061 7.23450 7.00639
#
# Compressibility (1/GPa) = 0.01914397
#
# Stress axis : x y z
#
# Youngs Moduli (GPa) = 58.95079 37.42391 65.06610
#
# Poissons Ratio (x) = 0.39623 0.31545
# Poissons Ratio (y) = 0.62415 0.29403
# Poissons Ratio (z) = 0.28580 0.16912
#
# Static dielectric constant tensor:
#      x y z
#    x 3.021590 0.000000 -0.160570 
#    y 0.000000 3.331850 0.000000 
#    z -0.160570 0.000000 3.366900 
# 
# 
# High freq. dielectric constant tensor:
#      x y z
#    x 1.710700 0.000000 -0.003080 
#    y 0.000000 1.713060 0.000000 
#    z -0.003080 0.000000 1.712830 
# 
# From -- ./inp_files/244763.got.cif
#   From: 2010.06.25/outbox.cif.g09.slc.cpg/sg12_123_cif.got.tgz:244763.got - 2010.06.28 00:19:55.
