data_PCOD8108662
_publ_section_title
;
Structure prediction by ZEFSAII (Michael W. Deem and Ramdas Pophale) SiO2 
 PCOD8108662
Probable space group: C 2/M
;
_chemical_formula_sum "Si O2"
_cell_formula_units_Z 48
_cell_length_a 10.406513
_cell_length_b 31.890058
_cell_length_c 12.589680
_cell_angle_alpha 90.000000
_cell_angle_beta 34.055278
_cell_angle_gamma 90.000000
_cell_volume 2339.685213
_symmetry_space_group_name_H-M "C 2/M"
_symmetry_group_IT_number 12
_symmetry_cell_setting 'monoclinic'
loop_
_space_group_symop_operation_xyz
x,y,z
-x,y,-z
-x,-y,-z
x,-y,z
1/2+x,1/2+y,z
1/2-x,1/2+y,-z
1/2-x,1/2-y,-z
1/2+x,1/2-y,z
loop_
_atom_site_type_symbol
_atom_site_label
_atom_site_fract_x
_atom_site_fract_y
_atom_site_fract_z
Si Si1 0.085571 0.162375 0.244497
Si Si2 0.498312 0.249646 0.622851
Si Si3 0.765097 0.422126 0.211563
Si Si4 0.218091 0.047860 0.477816
Si Si5 0.905693 0.622959 0.449787
Si Si6 0.769500 0.825352 0.093265
O O1 0.107605 0.203779 0.301261
O O2 0.229482 0.126424 0.205428
O O3 0.821826 0.149583 0.414208
O O4 0.188375 0.173471 0.060294
O O5 0.500000 0.233895 0.500000
O O6 0.337559 0.219102 0.800850
O O7 0.750000 0.250000 0.500000
O O8 0.554550 0.450305 0.311855
O O9 0.775581 0.427302 0.330636
O O10 0.000000 0.439281 0.000000
O O11 0.355522 0.073112 0.474198
O O12 0.302069 0.000000 0.416734
O O13 0.000000 0.633552 0.500000
O O14 0.095720 0.636660 0.234991
O O15 0.000000 0.833801 0.000000
#
# Coordination Sequence:
#
# PCOD8108662 Si02
#       6
#     8   8   8   8   8   8
#     4  11  24  39  66  95 124 172 220 259 319 382
#     4  12  26  43  66  94 136 175 218 279 325 378
#     4  10  21  38  63  93 127 164 205 260 317 379
#     4  10  23  40  64  96 128 164 206 259 330 391
#     4  11  22  42  66  89 128 167 213 267 313 385
#     4  12  23  42  66  91 126 172 220 262 327 380
#
# _framework density 20.51558
#
# number of rings (size 3 to 8) (size 9 to 14) (size 15 to 20)
#    0.000    1.000    3.333    4.000    4.667    3.667 
#    0.000    0.000    0.000    0.500    0.000    0.000 
#    0.000    0.000    0.000    0.000    0.000    0.000 
#
# Total GULP energy -297676.907515 kJ/mol
# GULP energy per Si atom -12403.204480 kJ/mol
# Density = 2.046889 g / cm^3
# Si number density = 20.515580 Si / 1000 Ang^3
#
#
#
# Elastic Constant Matrix: (Units=GPa)
#
#
# Indices 1 2 3 4 5 6 
#
# 1 56.5630 30.7476 36.2466 0.0000 -2.2922 0.0000
# 2 30.7476 141.1986 42.6539 0.0000 5.5339 0.0000
# 3 36.2466 42.6539 141.4480 0.0000 -2.2592 0.0000
# 4 0.0000 0.0000 0.0000 -31.9932 0.0000 20.8290
# 5 -2.2922 5.5339 -2.2592 0.0000 31.0728 0.0000
# 6 0.0000 0.0000 0.0000 20.8290 0.0000 13.5686
#
#
#
# Elastic Compliance Matrix: (Units=1/GPa)
#
#
# Indices 1 2 3 4 5 6 
#
# 1 0.022737 -0.003607 -0.004707 0.000000 0.001977 0.000000
# 2 -0.003607 0.008440 -0.001651 0.000000 -0.001889 0.000000
# 3 -0.004707 -0.001651 0.008783 0.000000 0.000585 0.000000
# 4 0.000000 0.000000 0.000000 -0.015633 0.000000 0.023998
# 5 0.001977 -0.001889 0.000585 0.000000 0.032707 0.000000
# 6 0.000000 0.000000 0.000000 0.023998 0.000000 0.036861
#
#
# Mechanical properties :
#
#
# Convention : Reuss Voigt Hill
#
# Bulk Modulus (GPa) = 49.92459 62.05620 55.99040
# Shear Modulus (GPa) = 41.49302 17.83374 29.66338
#
# Velocity S-wave (km/s) = 4.50211 2.95155 3.80662
# Velocity P-wave (km/s) = 7.17030 6.47530 6.83164
#
# Compressibility (1/GPa) = 0.02003021
#
# Stress axis : x y z
#
# Youngs Moduli (GPa) = 43.98200 118.47685 113.85334
#
# Poissons Ratio (x) = 0.42731 0.53593
# Poissons Ratio (y) = 0.15863 0.18799
# Poissons Ratio (z) = 0.20703 0.19563
#
# Static dielectric constant tensor:
#      x y z
#    x 3.656910 0.000000 -0.061010 
#    y 0.000000 3.718580 0.000000 
#    z -0.061010 0.000000 3.993570 
# 
# 
# High freq. dielectric constant tensor:
#      x y z
#    x 1.796270 0.000000 -0.001520 
#    y 0.000000 1.803100 0.000000 
#    z -0.001520 0.000000 1.814440 
# 
# From -- ./inp_files/209309.got.cif
#   From: 2010.06.25/outbox.cif.g09.slc.cpg/sg12_105_cif.got.tgz:209309.got - 2010.06.28 00:19:55.
