data_PCOD8108687
_publ_section_title
;
Structure prediction by ZEFSAII (Michael W. Deem and Ramdas Pophale) SiO2 
 PCOD8108687
Probable space group: C 2/M
;
_chemical_formula_sum "Si O2"
_cell_formula_units_Z 40
_cell_length_a 11.400410
_cell_length_b 18.784103
_cell_length_c 12.096009
_cell_angle_alpha 90.000000
_cell_angle_beta 137.519594
_cell_angle_gamma 90.000000
_cell_volume 1749.340061
_symmetry_space_group_name_H-M "C 2/M"
_symmetry_group_IT_number 12
_symmetry_cell_setting 'monoclinic'
loop_
_space_group_symop_operation_xyz
x,y,z
-x,y,-z
-x,-y,-z
x,-y,z
1/2+x,1/2+y,z
1/2-x,1/2+y,-z
1/2-x,1/2-y,-z
1/2+x,1/2-y,z
loop_
_atom_site_type_symbol
_atom_site_label
_atom_site_fract_x
_atom_site_fract_y
_atom_site_fract_z
Si Si1 0.027592 0.578299 0.302893
Si Si2 0.645961 0.207314 0.523407
Si Si3 0.818937 0.079626 0.334018
Si Si4 0.004725 0.795960 0.122887
Si Si5 0.815197 0.350987 0.976391
O O1 0.994438 0.500000 0.333515
O O2 0.037329 0.640063 0.401374
O O3 0.211600 0.578237 0.371126
O O4 0.877550 0.590206 0.107125
O O5 0.500000 0.247916 0.500000
O O6 0.750000 0.250000 0.500000
O O7 0.798984 0.186170 0.710703
O O8 0.706155 0.121488 0.163719
O O9 0.000000 0.115429 0.500000
O O10 0.853502 0.000000 0.311907
O O11 0.878678 0.829136 0.125486
O O12 0.954860 0.712687 0.078243
O O13 0.000000 0.832764 0.000000
#
# Coordination Sequence:
#
# PCOD8108687 Si02
#       5
#     8   8   8   8   8
#     4  11  23  43  69 101 139 184 232 289 352 414
#     4  12  27  47  73 105 142 184 235 291 350 415
#     4  10  21  38  63  96 136 181 229 283 345 412
#     4  11  24  41  64  96 136 178 229 284 347 410
#     4  11  22  39  64  98 137 179 229 285 345 412
#
# _framework density 22.865763999999999
#
# number of rings (size 3 to 8) (size 9 to 14) (size 15 to 20)
#    0.000    1.000    2.000    4.800    2.800    2.800 
#    0.000    1.000    0.000    4.200    0.000    0.000 
#    0.000    0.000    0.000    0.000    0.000    0.000 
#
# Total GULP energy -247795.392074 kJ/mol
# GULP energy per Si atom -12389.769604 kJ/mol
# Density = 2.281372 g / cm^3
# Si number density = 22.865764 Si / 1000 Ang^3
#
#
#
# Elastic Constant Matrix: (Units=GPa)
#
#
# Indices 1 2 3 4 5 6 
#
# 1 108.4450 21.4965 15.3054 0.0000 0.1717 0.0000
# 2 21.4965 83.9986 19.0272 0.0000 0.3645 0.0000
# 3 15.3054 19.0272 143.9241 0.0000 7.3389 0.0000
# 4 0.0000 0.0000 0.0000 24.5492 0.0000 -8.5805
# 5 0.1717 0.3645 7.3389 0.0000 39.5804 0.0000
# 6 0.0000 0.0000 0.0000 -8.5805 0.0000 23.5045
#
#
#
# Elastic Compliance Matrix: (Units=1/GPa)
#
#
# Indices 1 2 3 4 5 6 
#
# 1 0.009789 -0.002338 -0.000738 0.000000 0.000116 0.000000
# 2 -0.002338 0.012833 -0.001456 0.000000 0.000162 0.000000
# 3 -0.000738 -0.001456 0.007287 0.000000 -0.001335 0.000000
# 4 0.000000 0.000000 0.000000 0.046692 0.000000 0.017046
# 5 0.000116 0.000162 -0.001335 0.000000 0.025510 0.000000
# 6 0.000000 0.000000 0.000000 0.017046 0.000000 0.048768
#
#
# Mechanical properties :
#
#
# Convention : Reuss Voigt Hill
#
# Bulk Modulus (GPa) = 47.97581 49.78063 48.87822
# Shear Modulus (GPa) = 29.95961 36.22941 33.09451
#
# Velocity S-wave (km/s) = 3.62365 3.98482 3.80852
# Velocity P-wave (km/s) = 6.20764 6.55666 6.38454
#
# Compressibility (1/GPa) = 0.02084384
#
# Stress axis : x y z
#
# Youngs Moduli (GPa) = 102.15821 77.92691 137.22869
#
# Poissons Ratio (x) = 0.18223 0.10124
# Poissons Ratio (y) = 0.23889 0.19981
# Poissons Ratio (z) = 0.07536 0.11347
#
# Static dielectric constant tensor:
#      x y z
#    x 4.406500 0.000000 0.100210 
#    y 0.000000 4.140250 0.000000 
#    z 0.100210 0.000000 4.486910 
# 
# 
# High freq. dielectric constant tensor:
#      x y z
#    x 1.910390 0.000000 0.004840 
#    y 0.000000 1.877410 0.000000 
#    z 0.004840 0.000000 1.919300 
# 
# From -- ./inp_files/46946.got.cif
#   From: 2010.06.25/outbox.cif.g09.slc.cpg/sg12_24_cif.got.tgz:46946.got - 2010.06.28 00:19:55.
