data_PCOD8108499
_publ_section_title
;
Structure prediction by ZEFSAII (Michael W. Deem and Ramdas Pophale) SiO2 
 PCOD8108499
Probable space group: C 2/M
;
_chemical_formula_sum "Si O2"
_cell_formula_units_Z 48
_cell_length_a 18.766520
_cell_length_b 9.110019
_cell_length_c 14.837542
_cell_angle_alpha 90.000000
_cell_angle_beta 99.369355
_cell_angle_gamma 90.000000
_cell_volume 2502.835103
_symmetry_space_group_name_H-M "C 2/M"
_symmetry_group_IT_number 12
_symmetry_cell_setting 'monoclinic'
loop_
_space_group_symop_operation_xyz
x,y,z
-x,y,-z
-x,-y,-z
x,-y,z
1/2+x,1/2+y,z
1/2-x,1/2+y,-z
1/2-x,1/2-y,-z
1/2+x,1/2-y,z
loop_
_atom_site_type_symbol
_atom_site_label
_atom_site_fract_x
_atom_site_fract_y
_atom_site_fract_z
Si Si1 0.557846 0.165078 0.947991
Si Si2 0.192025 0.828535 0.426087
Si Si3 0.921104 0.674439 0.246881
Si Si4 0.790271 0.336222 0.931989
Si Si5 0.961066 0.327618 0.585921
Si Si6 0.760573 0.669867 0.247560
O O1 0.568776 0.240939 0.852198
O O2 0.530183 0.000000 0.922228
O O3 0.500000 0.248945 0.000000
O O4 0.627659 0.161263 0.023139
O O5 0.250000 0.750000 0.500000
O O6 0.113380 0.759746 0.423689
O O7 0.218810 0.802139 0.330799
O O8 0.188830 0.000000 0.449695
O O9 0.920967 0.500000 0.244854
O O10 0.843555 0.727220 0.269815
O O11 0.985645 0.730024 0.324241
O O12 0.758405 0.500000 0.918333
O O13 0.783761 0.258566 0.835191
O O14 0.750000 0.250000 0.000000
O O15 0.944068 0.500000 0.591886
O O16 0.000000 0.293553 0.500000
O O17 0.760320 0.500000 0.219298
#
# Coordination Sequence:
#
# PCOD8108499 Si02
#       6
#     8   8   8   8   8   8
#     4   9  18  31  51  80 110 147 194 237 277 331
#     4  11  24  41  63  89 121 155 195 249 302 360
#     4   9  17  33  56  78 110 153 192 236 284 345
#     4  11  21  35  58  85 116 154 198 245 291 347
#     4  10  21  38  62  89 117 153 198 241 293 361
#     4  10  21  39  60  84 116 154 196 242 297 352
#
# _framework density 19.178252000000001
#
# number of rings (size 3 to 8) (size 9 to 14) (size 15 to 20)
#    0.000    2.000    1.667    2.000    2.333    4.333 
#    0.000    0.833    0.000    2.000    0.000    0.000 
#    0.000    0.000    0.000    0.000    0.000    0.000 
#
# Total GULP energy -297531.756336 kJ/mol
# GULP energy per Si atom -12397.156514 kJ/mol
# Density = 1.913460 g / cm^3
# Si number density = 19.178252 Si / 1000 Ang^3
#
#
#
# Elastic Constant Matrix: (Units=GPa)
#
#
# Indices 1 2 3 4 5 6 
#
# 1 144.4781 51.3618 79.7205 0.0000 -8.4070 0.0000
# 2 51.3618 80.0692 67.8077 0.0000 -3.7590 0.0000
# 3 79.7205 67.8077 140.5639 0.0000 10.2360 0.0000
# 4 0.0000 0.0000 0.0000 26.2149 0.0000 4.1129
# 5 -8.4070 -3.7590 10.2360 0.0000 38.4600 0.0000
# 6 0.0000 0.0000 0.0000 4.1129 0.0000 27.6554
#
#
#
# Elastic Compliance Matrix: (Units=1/GPa)
#
#
# Indices 1 2 3 4 5 6 
#
# 1 0.010885 -0.002311 -0.005319 0.000000 0.003569 0.000000
# 2 -0.002311 0.022540 -0.009878 0.000000 0.004327 0.000000
# 3 -0.005319 -0.009878 0.015348 0.000000 -0.006213 0.000000
# 4 0.000000 0.000000 0.000000 0.039058 0.000000 -0.005809
# 5 0.003569 0.004327 -0.006213 0.000000 0.028858 0.000000
# 6 0.000000 0.000000 0.000000 -0.005809 0.000000 0.037023
#
#
# Mechanical properties :
#
#
# Convention : Reuss Voigt Hill
#
# Bulk Modulus (GPa) = 72.68090 84.76567 78.72329
# Shear Modulus (GPa) = 25.86489 29.54749 27.70619
#
# Velocity S-wave (km/s) = 3.67639 3.92940 3.80500
# Velocity P-wave (km/s) = 7.48338 8.05492 7.77440
#
# Compressibility (1/GPa) = 0.01375877
#
# Stress axis : x y z
#
# Youngs Moduli (GPa) = 91.86533 44.36646 65.15440
#
# Poissons Ratio (x) = 0.10252 0.34655
# Poissons Ratio (y) = 0.21228 0.64357
# Poissons Ratio (z) = 0.48862 0.43823
#
# Static dielectric constant tensor:
#      x y z
#    x 3.648120 0.000000 -0.097250 
#    y 0.000000 3.196780 0.000000 
#    z -0.097250 0.000000 3.748780 
# 
# 
# High freq. dielectric constant tensor:
#      x y z
#    x 1.759660 0.000000 -0.002230 
#    y 0.000000 1.710150 0.000000 
#    z -0.002230 0.000000 1.763740 
# 
# From -- ./inp_files/221538.got.cif
#   From: 2010.06.25/outbox.cif.g09.slc.cpg/sg12_111_cif.got.tgz:221538.got - 2010.06.28 00:19:55.
