data_PCOD8108081
_publ_section_title
;
Structure prediction by ZEFSAII (Michael W. Deem and Ramdas Pophale) SiO2 
 PCOD8108081
Probable space group: C 2/M
;
_chemical_formula_sum "Si O2"
_cell_formula_units_Z 56
_cell_length_a 18.019655
_cell_length_b 8.900375
_cell_length_c 22.309805
_cell_angle_alpha 90.000000
_cell_angle_beta 54.427978
_cell_angle_gamma 90.000000
_cell_volume 2910.359696
_symmetry_space_group_name_H-M "C 2/M"
_symmetry_group_IT_number 12
_symmetry_cell_setting 'monoclinic'
loop_
_space_group_symop_operation_xyz
x,y,z
-x,y,-z
-x,-y,-z
x,-y,z
1/2+x,1/2+y,z
1/2-x,1/2+y,-z
1/2-x,1/2-y,-z
1/2+x,1/2-y,z
loop_
_atom_site_type_symbol
_atom_site_label
_atom_site_fract_x
_atom_site_fract_y
_atom_site_fract_z
Si Si1 0.584537 0.832307 0.005486
Si Si2 0.805999 0.834415 0.136313
Si Si3 0.027263 0.167302 0.851334
Si Si4 0.854052 0.321824 0.298822
Si Si5 0.341443 0.677638 0.432335
Si Si6 0.197725 0.323502 0.297542
Si Si7 0.503756 0.172243 0.568683
O O1 0.675283 0.771738 0.929371
O O2 0.605410 0.000000 0.017035
O O3 0.500000 0.827627 0.000000
O O4 0.562882 0.735618 0.075012
O O5 0.894108 0.840135 0.136667
O O6 0.722567 0.776458 0.217300
O O7 0.784459 0.000000 0.121157
O O8 0.059486 0.271801 0.781594
O O9 0.004691 0.000000 0.838247
O O10 0.853719 0.500000 0.305064
O O11 0.867267 0.247442 0.356764
O O12 0.758375 0.268833 0.315895
O O13 0.328422 0.500000 0.432795
O O14 0.250000 0.750000 0.500000
O O15 0.422152 0.714446 0.440333
O O16 0.219072 0.500000 0.297583
O O17 0.093021 0.284362 0.357179
O O18 0.500000 0.196801 0.500000
O O19 0.529700 0.000000 0.571908
#
# Coordination Sequence:
#
# PCOD8108081 Si02
#       7
#     8   8   8   8   8   8   8
#     4   9  15  22  35  60  94 131 172 218 264 307
#     4   8  14  24  39  62  95 136 175 211 257 311
#     4   9  16  27  43  65  97 136 175 215 263 315
#     4  11  21  34  54  80 110 142 179 221 265 314
#     4  12  25  41  60  82 109 140 177 218 262 313
#     4   9  18  33  53  78 110 145 179 218 267 320
#     4  10  21  38  60  84 110 140 174 215 264 316
#
# _framework density 19.241607999999999
#
# number of rings (size 3 to 8) (size 9 to 14) (size 15 to 20)
#    0.000    2.286    0.000    5.143    0.000    7.143 
#    0.000    0.000    0.000    0.000    0.000    1.000 
#    0.000    0.000    0.000    0.000    0.000    0.000 
#
# Total GULP energy -347170.590044 kJ/mol
# GULP energy per Si atom -12398.949644 kJ/mol
# Density = 1.919781 g / cm^3
# Si number density = 19.241608 Si / 1000 Ang^3
#
#
#
# Elastic Constant Matrix: (Units=GPa)
#
#
# Indices 1 2 3 4 5 6 
#
# 1 50.5404 37.6855 43.3215 0.0000 -1.2975 0.0001
# 2 37.6855 142.0761 62.0908 -0.0002 1.3021 -0.0001
# 3 43.3215 62.0908 162.0275 0.0000 -9.5677 0.0000
# 4 0.0000 -0.0002 0.0000 34.3225 0.0000 3.2240
# 5 -1.2975 1.3021 -9.5677 0.0000 18.4091 0.0000
# 6 0.0001 -0.0001 0.0000 3.2240 0.0000 22.6424
#
#
#
# Elastic Compliance Matrix: (Units=1/GPa)
#
#
# Indices 1 2 3 4 5 6 
#
# 1 0.028416 -0.005040 -0.005702 0.000000 -0.000604 0.000000
# 2 -0.005040 0.009448 -0.002407 0.000000 -0.002275 0.000000
# 3 -0.005702 -0.002407 0.008878 0.000000 0.004382 0.000000
# 4 0.000000 0.000000 0.000000 0.029530 0.000000 -0.004205
# 5 -0.000604 -0.002275 0.004382 0.000000 0.056717 0.000000
# 6 0.000000 0.000000 0.000000 -0.004205 0.000000 0.044764
#
#
# Mechanical properties :
#
#
# Convention : Reuss Voigt Hill
#
# Bulk Modulus (GPa) = 48.91557 71.20439 60.05998
# Shear Modulus (GPa) = 23.71169 29.17787 26.44478
#
# Velocity S-wave (km/s) = 3.51424 3.89832 3.71125
# Velocity P-wave (km/s) = 6.47638 7.57286 7.04598
#
# Compressibility (1/GPa) = 0.02044339
#
# Stress axis : x y z
#
# Youngs Moduli (GPa) = 35.19121 105.83933 112.64167
#
# Poissons Ratio (x) = 0.53342 0.64228
# Poissons Ratio (y) = 0.17736 0.27118
# Poissons Ratio (z) = 0.20066 0.25481
#
# Static dielectric constant tensor:
#      x y z
#    x 3.008880 0.000000 0.029930 
#    y 0.000000 3.606750 0.000000 
#    z 0.029930 0.000000 4.039710 
# 
# 
# High freq. dielectric constant tensor:
#      x y z
#    x 1.688960 0.000000 0.001830 
#    y 0.000000 1.752930 0.000000 
#    z 0.001830 0.000000 1.774110 
# 
# From -- ./inp_files/342213.got.cif
#   From: 2010.06.25/outbox.cif.g09.slc.cpg/sg12_172_cif.got.tgz:342213.got - 2010.06.28 00:19:55.
