data_PCOD8108137
_publ_section_title
;
Structure prediction by ZEFSAII (Michael W. Deem and Ramdas Pophale) SiO2 
 PCOD8108137
Probable space group: C 2/M
;
_chemical_formula_sum "Si O2"
_cell_formula_units_Z 56
_cell_length_a 18.074145
_cell_length_b 8.854456
_cell_length_c 19.902766
_cell_angle_alpha 90.000000
_cell_angle_beta 63.051661
_cell_angle_gamma 90.000000
_cell_volume 2839.312973
_symmetry_space_group_name_H-M "C 2/M"
_symmetry_group_IT_number 12
_symmetry_cell_setting 'monoclinic'
loop_
_space_group_symop_operation_xyz
x,y,z
-x,y,-z
-x,-y,-z
x,-y,z
1/2+x,1/2+y,z
1/2-x,1/2+y,-z
1/2-x,1/2-y,-z
1/2+x,1/2-y,z
loop_
_atom_site_type_symbol
_atom_site_label
_atom_site_fract_x
_atom_site_fract_y
_atom_site_fract_z
Si Si1 0.870672 0.325652 0.583963
Si Si2 0.037209 0.325512 0.589911
Si Si3 0.776579 0.322597 0.285710
Si Si4 0.743219 0.321449 0.848778
Si Si5 0.584807 0.320664 0.995632
Si Si6 0.934420 0.174979 0.283174
Si Si7 0.394431 0.323636 0.860635
O O1 0.846603 0.500000 0.603703
O O2 0.898538 0.294893 0.496462
O O3 0.790832 0.223489 0.630675
O O4 0.944749 0.282020 0.604302
O O5 0.040351 0.500000 0.610881
O O6 0.064365 0.220386 0.639651
O O7 0.777423 0.500000 0.277083
O O8 0.749592 0.250096 0.227030
O O9 0.866965 0.268750 0.270183
O O10 0.740369 0.500000 0.841984
O O11 0.661291 0.259708 0.920016
O O12 0.822265 0.275829 0.859308
O O13 0.581835 0.500000 0.994373
O O14 0.500000 0.252666 0.000000
O O15 0.593909 0.266163 0.068238
O O16 0.022603 0.210964 0.214347
O O17 0.911187 0.000000 0.286540
O O18 0.370752 0.500000 0.867231
#
# Coordination Sequence:
#
# PCOD8108137 Si02
#       7
#     8   8   8   8   8   8   8
#     4   9  19  38  62  86 114 148 187 230 279 337
#     4   9  19  37  61  87 115 148 185 230 281 333
#     4  12  25  39  57  82 114 150 189 237 287 335
#     4  11  22  37  60  86 114 151 191 232 282 337
#     4   9  18  35  59  85 115 151 190 232 278 329
#     4  11  23  38  58  83 113 151 191 233 283 337
#     4  10  21  38  60  86 116 150 191 235 278 331
#
# _framework density 19.72308
#
# number of rings (size 3 to 8) (size 9 to 14) (size 15 to 20)
#    0.000    1.857    0.000    5.143    0.000    7.429 
#    0.000    2.143    0.000    3.000    0.000    0.000 
#    0.000    0.000    0.000    0.000    0.000    0.000 
#
# Total GULP energy -347337.703872 kJ/mol
# GULP energy per Si atom -12404.917995 kJ/mol
# Density = 1.967819 g / cm^3
# Si number density = 19.723080 Si / 1000 Ang^3
#
#
#
# Elastic Constant Matrix: (Units=GPa)
#
#
# Indices 1 2 3 4 5 6 
#
# 1 118.8353 51.7942 52.0895 0.0000 -7.0216 0.0000
# 2 51.7942 81.2054 44.2829 -0.0002 -5.9394 -0.0003
# 3 52.0895 44.2829 109.9930 0.0000 -4.0156 0.0000
# 4 0.0000 -0.0002 0.0000 17.3538 0.0000 -5.9050
# 5 -7.0216 -5.9394 -4.0156 0.0000 30.0257 0.0000
# 6 0.0000 -0.0003 0.0000 -5.9050 0.0000 22.5887
#
#
#
# Elastic Compliance Matrix: (Units=1/GPa)
#
#
# Indices 1 2 3 4 5 6 
#
# 1 0.012679 -0.006078 -0.003510 0.000000 0.001293 0.000000
# 2 -0.006078 0.018850 -0.004649 0.000000 0.001685 0.000000
# 3 -0.003510 -0.004649 0.012624 0.000000 -0.000052 0.000000
# 4 0.000000 0.000000 0.000000 0.063250 0.000000 0.016535
# 5 0.001293 0.001685 -0.000052 0.000000 0.033934 0.000000
# 6 0.000000 0.000000 0.000000 0.016535 0.000000 0.048592
#
#
# Mechanical properties :
#
#
# Convention : Reuss Voigt Hill
#
# Bulk Modulus (GPa) = 63.78426 67.37411 65.57919
# Shear Modulus (GPa) = 22.35844 24.78479 23.57162
#
# Velocity S-wave (km/s) = 3.37058 3.54876 3.46081
# Velocity P-wave (km/s) = 6.89622 7.14323 7.02081
#
# Compressibility (1/GPa) = 0.01567785
#
# Stress axis : x y z
#
# Youngs Moduli (GPa) = 78.86878 53.05145 79.21728
#
# Poissons Ratio (x) = 0.32246 0.27807
# Poissons Ratio (y) = 0.47939 0.36826
# Poissons Ratio (z) = 0.27685 0.24662
#
# Static dielectric constant tensor:
#      x y z
#    x 3.685020 0.000000 -0.037940 
#    y 0.000000 3.394120 0.000000 
#    z -0.037940 0.000000 3.754080 
# 
# 
# High freq. dielectric constant tensor:
#      x y z
#    x 1.778800 0.000000 -0.001790 
#    y 0.000000 1.752320 0.000000 
#    z -0.001790 0.000000 1.784910 
# 
# From -- ./inp_files/275027.got.cif
#   From: 2010.06.25/outbox.cif.g09.slc.cpg/sg12_138_cif.got.tgz:275027.got - 2010.06.28 00:19:55.
