data_PCOD8108318
_publ_section_title
;
Structure prediction by ZEFSAII (Michael W. Deem and Ramdas Pophale) SiO2 
 PCOD8108318
Probable space group: C 2/M
;
_chemical_formula_sum "Si O2"
_cell_formula_units_Z 56
_cell_length_a 8.801919
_cell_length_b 25.443638
_cell_length_c 14.322863
_cell_angle_alpha 90.000000
_cell_angle_beta 120.693029
_cell_angle_gamma 90.000000
_cell_volume 2758.300802
_symmetry_space_group_name_H-M "C 2/M"
_symmetry_group_IT_number 12
_symmetry_cell_setting 'monoclinic'
loop_
_space_group_symop_operation_xyz
x,y,z
-x,y,-z
-x,-y,-z
x,-y,z
1/2+x,1/2+y,z
1/2-x,1/2+y,-z
1/2-x,1/2-y,-z
1/2+x,1/2-y,z
loop_
_atom_site_type_symbol
_atom_site_label
_atom_site_fract_x
_atom_site_fract_y
_atom_site_fract_z
Si Si1 0.485739 0.560389 0.778957
Si Si2 0.234138 0.285263 0.255845
Si Si3 0.001408 0.872355 0.607058
Si Si4 0.824889 0.120041 0.888068
Si Si5 0.164499 0.273032 0.880500
Si Si6 0.662174 0.939798 0.992771
Si Si7 0.205222 0.292214 0.563702
O O1 0.421993 0.500000 0.758845
O O2 0.514305 0.578696 0.681431
O O3 0.340507 0.596090 0.788411
O O4 0.668511 0.567280 0.889510
O O5 0.326042 0.335077 0.332614
O O6 0.341958 0.274804 0.194614
O O7 0.247031 0.233254 0.322608
O O8 0.030546 0.296481 0.165625
O O9 0.000000 0.893140 0.500000
O O10 0.821370 0.842995 0.578278
O O11 0.789442 0.182207 0.874604
O O12 0.670210 0.091470 0.897720
O O13 0.000000 0.107020 0.000000
O O14 0.250000 0.250000 0.000000
O O15 0.628390 0.000000 0.955420
O O16 0.500000 0.915974 0.000000
O O17 0.250000 0.250000 0.500000
O O18 0.000000 0.308699 0.500000
#
# Coordination Sequence:
#
# PCOD8108318 Si02
#       7
#     8   8   8   8   8   8   8
#     4  10  23  43  66  90 125 168 215 272 331 381
#     4  12  23  39  61  87 131 171 207 250 309 376
#     4  12  25  41  66  96 120 165 222 276 329 382
#     4  10  21  38  61  87 127 177 217 244 307 383
#     4  12  26  38  56  93 139 175 200 247 307 384
#     4   9  19  36  62  95 125 159 211 263 305 370
#     4  12  20  40  64  92 121 159 214 266 309 374
#
# _framework density 20.302354999999999
#
# number of rings (size 3 to 8) (size 9 to 14) (size 15 to 20)
#    0.000    1.000    4.286    2.571    6.000    2.000 
#    0.000    0.000    0.000    0.429    0.000    0.000 
#    0.000    0.000    0.000    0.000    0.000    0.000 
#
# Total GULP energy -347223.168567 kJ/mol
# GULP energy per Si atom -12400.827449 kJ/mol
# Density = 2.025615 g / cm^3
# Si number density = 20.302355 Si / 1000 Ang^3
#
#
#
# Elastic Constant Matrix: (Units=GPa)
#
#
# Indices 1 2 3 4 5 6 
#
# 1 114.7882 28.0105 39.2455 0.0000 -2.3072 0.0000
# 2 28.0105 80.0654 31.5898 0.0000 -12.6058 0.0000
# 3 39.2455 31.5898 98.1850 0.0000 -19.9886 0.0000
# 4 0.0000 0.0000 0.0000 28.3876 0.0000 -9.9057
# 5 -2.3072 -12.6058 -19.9886 0.0000 42.9638 0.0000
# 6 0.0000 0.0000 0.0000 -9.9057 0.0000 35.2974
#
#
#
# Elastic Compliance Matrix: (Units=1/GPa)
#
#
# Indices 1 2 3 4 5 6 
#
# 1 0.010591 -0.002503 -0.003824 0.000000 -0.001945 0.000000
# 2 -0.002503 0.015101 -0.003296 0.000000 0.002763 0.000000
# 3 -0.003824 -0.003296 0.013846 0.000000 0.005270 0.000000
# 4 0.000000 0.000000 0.000000 0.039051 0.000000 0.010959
# 5 -0.001945 0.002763 0.005270 0.000000 0.026433 0.000000
# 6 0.000000 0.000000 0.000000 0.010959 0.000000 0.031406
#
#
# Mechanical properties :
#
#
# Convention : Reuss Voigt Hill
#
# Bulk Modulus (GPa) = 49.27692 54.52560 51.90126
# Shear Modulus (GPa) = 30.78125 34.27596 32.52860
#
# Velocity S-wave (km/s) = 3.89799 4.11332 4.00710
# Velocity P-wave (km/s) = 6.67707 7.03380 6.85776
#
# Compressibility (1/GPa) = 0.02029348
#
# Stress axis : x y z
#
# Youngs Moduli (GPa) = 94.42284 66.22255 72.22072
#
# Poissons Ratio (x) = 0.16572 0.27617
# Poissons Ratio (y) = 0.23630 0.23802
# Poissons Ratio (z) = 0.36106 0.21825
#
# Static dielectric constant tensor:
#      x y z
#    x 3.982680 0.000000 -0.033990 
#    y 0.000000 3.493370 0.000000 
#    z -0.033990 0.000000 3.241790 
# 
# 
# High freq. dielectric constant tensor:
#      x y z
#    x 1.808360 0.000000 -0.012800 
#    y 0.000000 1.773070 0.000000 
#    z -0.012800 0.000000 1.786260 
# 
# From -- ./inp_files/198758.got.cif
#   From: 2010.06.25/outbox.cif.g09.slc.cpg/sg12_100_cif.got.tgz:198758.got - 2010.06.28 00:19:55.
