data_PCOD8108447
_publ_section_title
;
Structure prediction by ZEFSAII (Michael W. Deem and Ramdas Pophale) SiO2 
 PCOD8108447
Probable space group: C 2/M
;
_chemical_formula_sum "Si O2"
_cell_formula_units_Z 40
_cell_length_a 15.513915
_cell_length_b 8.627842
_cell_length_c 14.787200
_cell_angle_alpha 90.000000
_cell_angle_beta 106.039228
_cell_angle_gamma 90.000000
_cell_volume 1902.242160
_symmetry_space_group_name_H-M "C 2/M"
_symmetry_group_IT_number 12
_symmetry_cell_setting 'monoclinic'
loop_
_space_group_symop_operation_xyz
x,y,z
-x,y,-z
-x,-y,-z
x,-y,z
1/2+x,1/2+y,z
1/2-x,1/2+y,-z
1/2-x,1/2-y,-z
1/2+x,1/2-y,z
loop_
_atom_site_type_symbol
_atom_site_label
_atom_site_fract_x
_atom_site_fract_y
_atom_site_fract_z
Si Si1 0.782545 0.818609 0.783650
Si Si2 0.018035 0.177639 0.403283
Si Si3 0.302339 0.181080 0.598882
Si Si4 0.607944 0.677474 0.795387
Si Si5 0.969377 0.679073 0.890280
O O1 0.765207 0.762544 0.677155
O O2 0.710190 0.736235 0.827715
O O3 0.882372 0.780543 0.844530
O O4 0.766664 0.000000 0.784605
O O5 0.092274 0.287294 0.380462
O O6 0.000000 0.233688 0.500000
O O7 0.928824 0.195580 0.317672
O O8 0.052733 0.000000 0.412991
O O9 0.250000 0.250000 0.500000
O O10 0.283678 0.000000 0.601695
O O11 0.604286 0.500000 0.826438
O O12 0.549860 0.778454 0.847036
O O13 0.943930 0.500000 0.869176
O O14 0.000000 0.715813 0.000000
#
# Coordination Sequence:
#
# PCOD8108447 Si02
#       5
#     8   8   8   8   8
#     4  12  25  43  68  98 135 176 223 275 332 398
#     4  10  21  38  61  92 131 172 217 268 328 393
#     4  12  24  39  62  92 132 175 223 274 328 393
#     4  11  23  41  68  99 135 176 220 275 334 396
#     4  11  25  46  71  99 133 174 223 280 339 398
#
# _framework density 21.027818
#
# number of rings (size 3 to 8) (size 9 to 14) (size 15 to 20)
#    0.000    0.800    2.000    6.000    0.000    5.200 
#    0.000    0.000    0.000    0.000    0.000    0.000 
#    0.000    0.000    0.000    0.000    0.000    0.000 
#
# Total GULP energy -248155.047340 kJ/mol
# GULP energy per Si atom -12407.752367 kJ/mol
# Density = 2.097996 g / cm^3
# Si number density = 21.027818 Si / 1000 Ang^3
#
#
#
# Elastic Constant Matrix: (Units=GPa)
#
#
# Indices 1 2 3 4 5 6 
#
# 1 116.1070 4.1631 27.0558 0.0000 -4.5960 0.0000
# 2 4.1631 72.2614 32.4553 0.0000 2.9351 0.0000
# 3 27.0558 32.4553 96.7725 0.0000 -10.2076 0.0000
# 4 0.0000 0.0000 0.0000 28.2737 0.0000 3.6950
# 5 -4.5960 2.9351 -10.2076 0.0000 25.5098 0.0000
# 6 0.0000 0.0000 0.0000 3.6950 0.0000 35.1167
#
#
#
# Elastic Compliance Matrix: (Units=1/GPa)
#
#
# Indices 1 2 3 4 5 6 
#
# 1 0.009252 0.000691 -0.002768 0.000000 0.000480 0.000000
# 2 0.000691 0.016796 -0.006282 0.000000 -0.004322 0.000000
# 3 -0.002768 -0.006282 0.013821 0.000000 0.005755 0.000000
# 4 0.000000 0.000000 0.000000 0.035862 0.000000 -0.003773
# 5 0.000480 -0.004322 0.005755 0.000000 0.042087 0.000000
# 6 0.000000 0.000000 0.000000 -0.003773 0.000000 0.028874
#
#
# Mechanical properties :
#
#
# Convention : Reuss Voigt Hill
#
# Bulk Modulus (GPa) = 43.19484 45.83215 44.51349
# Shear Modulus (GPa) = 29.21823 32.54448 30.88135
#
# Velocity S-wave (km/s) = 3.73165 3.93833 3.83638
# Velocity P-wave (km/s) = 6.25726 6.52104 6.39051
#
# Compressibility (1/GPa) = 0.02315091
#
# Stress axis : x y z
#
# Youngs Moduli (GPa) = 108.08576 59.53860 72.35320
#
# Poissons Ratio (x) = -0.04111 0.20025
# Poissons Ratio (y) = -0.07464 0.45451
# Poissons Ratio (z) = 0.29914 0.37401
#
# Static dielectric constant tensor:
#      x y z
#    x 3.153820 0.000000 -0.188820 
#    y 0.000000 3.877130 0.000000 
#    z -0.188820 0.000000 3.825090 
# 
# 
# High freq. dielectric constant tensor:
#      x y z
#    x 1.834300 0.000000 -0.000900 
#    y 0.000000 1.831620 0.000000 
#    z -0.000900 0.000000 1.824960 
# 
# From -- ./inp_files/211186.got.cif
#   From: 2010.06.25/outbox.cif.g09.slc.cpg/sg12_106_cif.got.tgz:211186.got - 2010.06.28 00:19:55.
