data_PCOD8108501
_publ_section_title
;
Structure prediction by ZEFSAII (Michael W. Deem and Ramdas Pophale) SiO2 
 PCOD8108501
Probable space group: C 2/M
;
_chemical_formula_sum "Si O2"
_cell_formula_units_Z 48
_cell_length_a 23.628754
_cell_length_b 8.741468
_cell_length_c 11.906216
_cell_angle_alpha 90.000000
_cell_angle_beta 90.858954
_cell_angle_gamma 90.000000
_cell_volume 2458.952531
_symmetry_space_group_name_H-M "C 2/M"
_symmetry_group_IT_number 12
_symmetry_cell_setting 'monoclinic'
loop_
_space_group_symop_operation_xyz
x,y,z
-x,y,-z
-x,-y,-z
x,-y,z
1/2+x,1/2+y,z
1/2-x,1/2+y,-z
1/2-x,1/2-y,-z
1/2+x,1/2-y,z
loop_
_atom_site_type_symbol
_atom_site_label
_atom_site_fract_x
_atom_site_fract_y
_atom_site_fract_z
Si Si1 0.980966 0.679913 0.661930
Si Si2 0.230834 0.677315 0.826143
Si Si3 0.664687 0.677291 0.014928
Si Si4 0.550030 0.822628 0.086167
Si Si5 0.082775 0.181493 0.539644
Si Si6 0.290460 0.320442 0.409507
O O1 0.978165 0.500000 0.639012
O O2 0.970150 0.721356 0.790333
O O3 0.933509 0.762686 0.585393
O O4 0.042789 0.741348 0.631382
O O5 0.224519 0.500000 0.796544
O O6 0.290156 0.715937 0.887136
O O7 0.230462 0.773491 0.713253
O O8 0.178793 0.726265 0.904008
O O9 0.666943 0.500000 0.982217
O O10 0.603330 0.719808 0.057561
O O11 0.567149 0.000000 0.077883
O O12 0.500000 0.781003 0.000000
O O13 0.145896 0.237698 0.567640
O O14 0.075934 0.000000 0.546594
O O15 0.287317 0.500000 0.421803
O O16 0.250000 0.250000 0.500000
#
# Coordination Sequence:
#
# PCOD8108501 Si02
#       6
#     8   8   8   8   8   8
#     4  10  21  38  62  89 117 156 201 241 295 358
#     4  10  22  41  64  89 121 159 198 246 299 354
#     4  10  22  40  63  91 120 157 201 245 298 356
#     4  10  23  40  59  89 123 157 198 246 297 353
#     4  10  22  40  61  86 119 155 196 247 298 349
#     4  11  25  41  61  91 123 158 201 246 298 355
#
# _framework density 19.520506999999998
#
# number of rings (size 3 to 8) (size 9 to 14) (size 15 to 20)
#    0.000    1.833    0.000    3.500    4.667    6.333 
#    0.000    0.000    0.000    0.000    0.000    0.000 
#    0.000    0.000    0.000    0.000    0.000    0.000 
#
# Total GULP energy -297735.736155 kJ/mol
# GULP energy per Si atom -12405.655673 kJ/mol
# Density = 1.947608 g / cm^3
# Si number density = 19.520507 Si / 1000 Ang^3
#
#
#
# Elastic Constant Matrix: (Units=GPa)
#
#
# Indices 1 2 3 4 5 6 
#
# 1 122.5021 38.0425 58.9742 0.0000 -5.9739 0.0000
# 2 38.0425 39.4973 16.8660 0.0000 0.8707 0.0000
# 3 58.9742 16.8660 125.7327 0.0000 -7.0121 0.0000
# 4 0.0000 0.0000 0.0000 33.0187 0.0000 -3.2385
# 5 -5.9739 0.8707 -7.0121 0.0000 21.7177 0.0000
# 6 0.0000 0.0000 0.0000 -3.2385 0.0000 35.1921
#
#
#
# Elastic Compliance Matrix: (Units=1/GPa)
#
#
# Indices 1 2 3 4 5 6 
#
# 1 0.014358 -0.011756 -0.005001 0.000000 0.002806 0.000000
# 2 -0.011756 0.036593 0.000349 0.000000 -0.004588 0.000000
# 3 -0.005001 0.000349 0.010361 0.000000 0.001956 0.000000
# 4 0.000000 0.000000 0.000000 0.030562 0.000000 0.002812
# 5 0.002806 -0.004588 0.001956 0.000000 0.047633 0.000000
# 6 0.000000 0.000000 0.000000 0.002812 0.000000 0.028674
#
#
# Mechanical properties :
#
#
# Convention : Reuss Voigt Hill
#
# Bulk Modulus (GPa) = 35.09080 57.27750 46.18415
# Shear Modulus (GPa) = 23.75349 29.57566 26.66458
#
# Velocity S-wave (km/s) = 3.49212 3.89666 3.69992
# Velocity P-wave (km/s) = 5.85451 7.04636 6.47790
#
# Compressibility (1/GPa) = 0.02849749
#
# Stress axis : x y z
#
# Youngs Moduli (GPa) = 69.64596 27.32777 96.51214
#
# Poissons Ratio (x) = 0.32126 0.48268
# Poissons Ratio (y) = 0.81874 -0.03373
# Poissons Ratio (z) = 0.34832 -0.00955
#
# Static dielectric constant tensor:
#      x y z
#    x 3.629180 0.000000 -0.037290 
#    y 0.000000 3.597620 0.000000 
#    z -0.037290 0.000000 3.498700 
# 
# 
# High freq. dielectric constant tensor:
#      x y z
#    x 1.766440 0.000000 -0.000840 
#    y 0.000000 1.770740 0.000000 
#    z -0.000840 0.000000 1.769940 
# 
# From -- ./inp_files/172321.got.cif
#   From: 2010.06.25/outbox.cif.g09.slc.cpg/sg12_87_cif.got.tgz:172321.got - 2010.06.28 00:19:55.
