data_PCOD8108238
_publ_section_title
;
Structure prediction by ZEFSAII (Michael W. Deem and Ramdas Pophale) SiO2 
 PCOD8108238
Probable space group: C 2/M
;
_chemical_formula_sum "Si O2"
_cell_formula_units_Z 44
_cell_length_a 9.106253
_cell_length_b 22.135933
_cell_length_c 12.120862
_cell_angle_alpha 90.000000
_cell_angle_beta 123.312892
_cell_angle_gamma 90.000000
_cell_volume 2041.799235
_symmetry_space_group_name_H-M "C 2/M"
_symmetry_group_IT_number 12
_symmetry_cell_setting 'monoclinic'
loop_
_space_group_symop_operation_xyz
x,y,z
-x,y,-z
-x,-y,-z
x,-y,z
1/2+x,1/2+y,z
1/2-x,1/2+y,-z
1/2-x,1/2-y,-z
1/2+x,1/2-y,z
loop_
_atom_site_type_symbol
_atom_site_label
_atom_site_fract_x
_atom_site_fract_y
_atom_site_fract_z
Si Si1 0.883375 0.567968 0.849051
Si Si2 0.355989 0.826020 0.689759
Si Si3 0.513882 0.431778 0.803498
Si Si4 0.295716 0.773804 0.240083
Si Si5 0.000000 0.157549 0.000000
Si Si6 0.198865 0.631673 0.568267
O O1 0.933493 0.500000 0.833830
O O2 0.934408 0.611541 0.769493
O O3 0.677534 0.573786 0.789015
O O4 0.000000 0.588222 0.000000
O O5 0.511150 0.778156 0.731471
O O6 0.233380 0.795589 0.733295
O O7 0.257421 0.843990 0.536375
O O8 0.502027 0.500000 0.845973
O O9 0.543515 0.385145 0.914895
O O10 0.337740 0.419376 0.660294
O O11 0.279243 0.811444 0.344340
O O12 0.161383 0.797791 0.092194
O O13 0.000000 0.605806 0.500000
#
# Coordination Sequence:
#
# PCOD8108238 Si02
#       6
#     8   8   8   8   4   8
#     4  10  23  42  63  89 125 164 210 259 314 374
#     4  11  23  40  63  90 126 169 207 259 312 368
#     4  10  21  39  64  92 123 166 212 261 311 370
#     4  10  23  38  61  92 126 165 206 254 319 374
#     4  10  21  38  60  92 129 158 208 258 318 382
#     4   9  21  41  58  89 129 163 211 253 310 375
#
# _framework density 21.549621999999999
#
# number of rings (size 3 to 8) (size 9 to 14) (size 15 to 20)
#    0.000    2.000    0.000    1.909    6.364    2.545 
#    0.000   10.909    0.000    0.000    0.000    0.000 
#    0.000    0.000    0.000    0.000    0.000    0.000 
#
# Total GULP energy -272825.051890 kJ/mol
# GULP energy per Si atom -12401.138722 kJ/mol
# Density = 2.150057 g / cm^3
# Si number density = 21.549622 Si / 1000 Ang^3
#
#
#
# Elastic Constant Matrix: (Units=GPa)
#
#
# Indices 1 2 3 4 5 6 
#
# 1 64.1841 26.5649 34.4231 0.0000 4.3591 0.0000
# 2 26.5649 74.3203 39.0323 0.0000 -7.0992 0.0000
# 3 34.4231 39.0323 130.4344 0.0000 9.8402 0.0000
# 4 0.0000 0.0000 0.0000 24.7581 0.0000 -2.1154
# 5 4.3591 -7.0992 9.8402 0.0000 28.4822 0.0000
# 6 0.0000 0.0000 0.0000 -2.1154 0.0000 30.7515
#
#
#
# Elastic Compliance Matrix: (Units=1/GPa)
#
#
# Indices 1 2 3 4 5 6 
#
# 1 0.019942 -0.005712 -0.003302 0.000000 -0.003335 0.000000
# 2 -0.005712 0.018585 -0.004589 0.000000 0.007092 0.000000
# 3 -0.003302 -0.004589 0.010226 0.000000 -0.004171 0.000000
# 4 0.000000 0.000000 0.000000 0.040630 0.000000 0.002795
# 5 -0.003335 0.007092 -0.004171 0.000000 0.038829 0.000000
# 6 0.000000 0.000000 0.000000 0.002795 0.000000 0.032711
#
#
# Mechanical properties :
#
#
# Convention : Reuss Voigt Hill
#
# Bulk Modulus (GPa) = 46.41207 52.10882 49.26044
# Shear Modulus (GPa) = 25.60032 28.05960 26.82996
#
# Velocity S-wave (km/s) = 3.45043 3.61237 3.53233
# Velocity P-wave (km/s) = 6.12030 6.45231 6.28849
#
# Compressibility (1/GPa) = 0.02154612
#
# Stress axis : x y z
#
# Youngs Moduli (GPa) = 50.14583 53.80811 97.79019
#
# Poissons Ratio (x) = 0.30738 0.32289
# Poissons Ratio (y) = 0.28646 0.44874
# Poissons Ratio (z) = 0.16557 0.24692
#
# Static dielectric constant tensor:
#      x y z
#    x 3.824130 0.000000 0.189130 
#    y 0.000000 3.849540 0.000000 
#    z 0.189130 0.000000 4.028270 
# 
# 
# High freq. dielectric constant tensor:
#      x y z
#    x 1.837640 0.000000 0.006330 
#    y 0.000000 1.845250 0.000000 
#    z 0.006330 0.000000 1.855000 
# 
# From -- ./inp_files/122121.got.cif
#   From: 2010.06.25/outbox.cif.g09.slc.cpg/sg12_62_cif.got.tgz:122121.got - 2010.06.28 00:19:55.
