data_PCOD8108355
_publ_section_title
;
Structure prediction by ZEFSAII (Michael W. Deem and Ramdas Pophale) SiO2 
 PCOD8108355
Probable space group: C 2/M
;
_chemical_formula_sum "Si O2"
_cell_formula_units_Z 64
_cell_length_a 14.986206
_cell_length_b 17.549967
_cell_length_c 11.654481
_cell_angle_alpha 90.000000
_cell_angle_beta 94.222987
_cell_angle_gamma 90.000000
_cell_volume 3056.892972
_symmetry_space_group_name_H-M "C 2/M"
_symmetry_group_IT_number 12
_symmetry_cell_setting 'monoclinic'
loop_
_space_group_symop_operation_xyz
x,y,z
-x,y,-z
-x,-y,-z
x,-y,z
1/2+x,1/2+y,z
1/2-x,1/2+y,-z
1/2-x,1/2-y,-z
1/2+x,1/2-y,z
loop_
_atom_site_type_symbol
_atom_site_label
_atom_site_fract_x
_atom_site_fract_y
_atom_site_fract_z
Si Si1 0.207217 0.915079 0.948676
Si Si2 0.542964 0.189550 0.831048
Si Si3 0.594703 0.651315 0.568002
Si Si4 0.262911 0.589331 0.589289
Si Si5 0.912466 0.672570 0.415424
Si Si6 0.157130 0.139641 0.172099
Si Si7 0.460346 0.634716 0.194479
Si Si8 0.136234 0.309376 0.074454
O O1 0.105358 0.890770 0.912346
O O2 0.277049 0.860186 0.890527
O O3 0.228272 0.000000 0.908544
O O4 0.213036 0.911003 0.087191
O O5 0.570724 0.147942 0.716013
O O6 0.522233 0.275930 0.797886
O O7 0.449897 0.154514 0.869928
O O8 0.619815 0.187311 0.935309
O O9 0.500000 0.642427 0.500000
O O10 0.670446 0.605648 0.508490
O O11 0.620913 0.740241 0.579369
O O12 0.584833 0.609946 0.690130
O O13 0.262505 0.500000 0.617794
O O14 0.164613 0.617660 0.542921
O O15 0.291813 0.638918 0.702435
O O16 0.000000 0.658429 0.500000
O O17 0.155062 0.224460 0.119088
O O18 0.059258 0.101152 0.181946
#
# Coordination Sequence:
#
# PCOD8108355 Si02
#       8
#     8   8   8   8   8   8   8   8
#     4  12  25  37  56  94 131 160 198 252 316 373
#     4   9  19  40  65  92 116 157 216 258 302 354
#     4  10  21  43  65  88 120 163 211 253 302 366
#     4  12  26  41  63  96 130 166 204 255 319 374
#     4  10  23  41  67  94 122 162 215 264 303 363
#     4  11  22  40  64  89 121 166 210 252 301 371
#     4  10  21  38  61  88 121 160 204 252 306 364
#     4  10  21  38  66  90 120 164 207 258 302 367
#
# _framework density 20.936292000000002
#
# number of rings (size 3 to 8) (size 9 to 14) (size 15 to 20)
#    0.000    1.500    2.500    2.250    5.250    3.500 
#    0.000    1.875    0.000    0.000    0.000    0.000 
#    0.000    0.000    0.000    0.000    0.000    0.000 
#
# Total GULP energy -396814.526832 kJ/mol
# GULP energy per Si atom -12400.453963 kJ/mol
# Density = 2.088864 g / cm^3
# Si number density = 20.936292 Si / 1000 Ang^3
#
#
#
# Elastic Constant Matrix: (Units=GPa)
#
#
# Indices 1 2 3 4 5 6 
#
# 1 108.8479 54.1429 30.5089 0.0000 -3.2333 0.0000
# 2 54.1429 76.8802 28.6289 0.0000 -6.7529 0.0000
# 3 30.5089 28.6289 100.0303 0.0000 -10.5187 0.0000
# 4 0.0000 0.0000 0.0000 2.0029 0.0000 3.1448
# 5 -3.2333 -6.7529 -10.5187 0.0000 31.3611 0.0000
# 6 0.0000 0.0000 0.0000 3.1448 0.0000 5.6190
#
#
#
# Elastic Compliance Matrix: (Units=1/GPa)
#
#
# Indices 1 2 3 4 5 6 
#
# 1 0.014426 -0.009601 -0.001775 0.000000 -0.001176 0.000000
# 2 -0.009601 0.021048 -0.002823 0.000000 0.002596 0.000000
# 3 -0.001775 -0.002823 0.011675 0.000000 0.003125 0.000000
# 4 0.000000 0.000000 0.000000 4.119509 0.000000 -2.305618
# 5 -0.001176 0.002596 0.003125 0.000000 0.033372 0.000000
# 6 0.000000 0.000000 0.000000 -2.305618 0.000000 1.468383
#
#
# Mechanical properties :
#
#
# Convention : Reuss Voigt Hill
#
# Bulk Modulus (GPa) = 53.33428 56.92440 55.12934
# Shear Modulus (GPa) = 0.87672 19.29511 10.08592
#
# Velocity S-wave (km/s) = 0.64782 3.03910 2.19725
# Velocity P-wave (km/s) = 5.10778 6.28993 5.72942
#
# Compressibility (1/GPa) = 0.01874967
#
# Stress axis : x y z
#
# Youngs Moduli (GPa) = 69.32024 47.50998 85.65346
#
# Poissons Ratio (x) = 0.45617 0.15208
# Poissons Ratio (y) = 0.66558 0.24177
# Poissons Ratio (z) = 0.12308 0.13411
#
# Static dielectric constant tensor:
#      x y z
#    x 3.851570 0.000000 -0.214630 
#    y 0.000000 3.386730 0.000000 
#    z -0.214630 0.000000 4.100920 
# 
# 
# High freq. dielectric constant tensor:
#      x y z
#    x 1.829870 0.000000 -0.007590 
#    y 0.000000 1.781770 0.000000 
#    z -0.007590 0.000000 1.827220 
# 
# From -- ./inp_files/146174.got.cif
#   From: 2010.06.25/outbox.cif.g09.slc.cpg/sg12_74_cif.got.tgz:146174.got - 2010.06.28 00:19:55.
