data_PCOD8108945
_publ_section_title
;
Structure prediction by ZEFSAII (Michael W. Deem and Ramdas Pophale) SiO2 
 PCOD8108945
Probable space group: C 2/M
;
_chemical_formula_sum "Si O2"
_cell_formula_units_Z 40
_cell_length_a 29.719928
_cell_length_b 8.902627
_cell_length_c 14.766754
_cell_angle_alpha 90.000000
_cell_angle_beta 149.327669
_cell_angle_gamma 90.000000
_cell_volume 1993.103315
_symmetry_space_group_name_H-M "C 2/M"
_symmetry_group_IT_number 12
_symmetry_cell_setting 'monoclinic'
loop_
_space_group_symop_operation_xyz
x,y,z
-x,y,-z
-x,-y,-z
x,-y,z
1/2+x,1/2+y,z
1/2-x,1/2+y,-z
1/2-x,1/2-y,-z
1/2+x,1/2-y,z
loop_
_atom_site_type_symbol
_atom_site_label
_atom_site_fract_x
_atom_site_fract_y
_atom_site_fract_z
Si Si1 0.811352 0.827191 0.032859
Si Si2 0.391116 0.677864 0.559150
Si Si3 0.975291 0.178597 0.056041
Si Si4 0.217145 0.172579 0.221949
Si Si5 0.992398 0.676835 0.382212
O O1 0.905183 0.747972 0.189341
O O2 0.824590 0.000000 0.083042
O O3 0.750000 0.750000 0.000000
O O4 0.767008 0.812596 0.858027
O O5 0.395232 0.500000 0.556581
O O6 0.451677 0.736636 0.746534
O O7 0.290788 0.730763 0.401939
O O8 0.423770 0.753307 0.522899
O O9 0.974994 0.000000 0.056292
O O10 0.878611 0.237890 0.916565
O O11 0.000000 0.242050 0.000000
O O12 0.225614 0.000000 0.267494
O O13 0.990483 0.500000 0.363599
O O14 0.000000 0.719608 0.500000
#
# Coordination Sequence:
#
# PCOD8108945 Si02
#       5
#     8   8   8   8   8
#     4  11  22  37  57  85 120 160 203 245 295 355
#     4  11  22  38  61  91 120 156 202 248 296 356
#     4   9  19  39  64  87 118 160 200 244 303 362
#     4  10  21  39  60  86 121 159 197 244 300 356
#     4  11  23  38  57  84 119 160 201 246 300 356
#
# _framework density 20.069205
#
# number of rings (size 3 to 8) (size 9 to 14) (size 15 to 20)
#    0.000    1.600    2.000    3.000    0.000    8.800 
#    0.000    0.000    0.000    4.200    0.000    0.000 
#    0.000    0.000    0.000    0.000    0.000    0.000 
#
# Total GULP energy -248084.152219 kJ/mol
# GULP energy per Si atom -12404.207611 kJ/mol
# Density = 2.002353 g / cm^3
# Si number density = 20.069205 Si / 1000 Ang^3
#
#
#
# Elastic Constant Matrix: (Units=GPa)
#
#
# Indices 1 2 3 4 5 6 
#
# 1 125.8887 38.3070 57.8339 0.0000 0.9557 0.0000
# 2 38.3070 70.5563 48.3711 0.0000 -5.6900 0.0000
# 3 57.8339 48.3711 154.0925 0.0000 11.2316 0.0000
# 4 0.0000 0.0000 0.0000 35.9976 0.0000 9.0355
# 5 0.9557 -5.6900 11.2316 0.0000 29.6755 0.0000
# 6 0.0000 0.0000 0.0000 9.0355 0.0000 18.9968
#
#
#
# Elastic Compliance Matrix: (Units=1/GPa)
#
#
# Indices 1 2 3 4 5 6 
#
# 1 0.010325 -0.003764 -0.002691 0.000000 -0.000036 0.000000
# 2 -0.003764 0.020445 -0.005450 0.000000 0.006104 0.000000
# 3 -0.002691 -0.005450 0.009544 0.000000 -0.004571 0.000000
# 4 0.000000 0.000000 0.000000 0.031546 0.000000 -0.015004
# 5 -0.000036 0.006104 -0.004571 0.000000 0.036599 0.000000
# 6 0.000000 0.000000 0.000000 -0.015004 0.000000 0.059777
#
#
# Mechanical properties :
#
#
# Convention : Reuss Voigt Hill
#
# Bulk Modulus (GPa) = 60.59196 71.06240 65.82718
# Shear Modulus (GPa) = 25.31020 30.66899 27.98960
#
# Velocity S-wave (km/s) = 3.55511 3.91341 3.73856
# Velocity P-wave (km/s) = 6.86359 7.47698 7.17684
#
# Compressibility (1/GPa) = 0.01650384
#
# Stress axis : x y z
#
# Youngs Moduli (GPa) = 96.84784 48.91073 104.78081
#
# Poissons Ratio (x) = 0.18409 0.28199
# Poissons Ratio (y) = 0.36452 0.57109
# Poissons Ratio (z) = 0.26064 0.26658
#
# Static dielectric constant tensor:
#      x y z
#    x 3.718250 0.000000 0.030700 
#    y 0.000000 3.455540 0.000000 
#    z 0.030700 0.000000 3.772940 
# 
# 
# High freq. dielectric constant tensor:
#      x y z
#    x 1.784030 0.000000 0.006770 
#    y 0.000000 1.766330 0.000000 
#    z 0.006770 0.000000 1.795750 
# 
# From -- ./inp_files/211163.got.cif
#   From: 2010.06.25/outbox.cif.g09.slc.cpg/sg12_106_cif.got.tgz:211163.got - 2010.06.28 00:19:55.
