data_PCOD8108223
_publ_section_title
;
Structure prediction by ZEFSAII (Michael W. Deem and Ramdas Pophale) SiO2 
 PCOD8108223
Probable space group: C 2/M
;
_chemical_formula_sum "Si O2"
_cell_formula_units_Z 56
_cell_length_a 9.211024
_cell_length_b 15.657668
_cell_length_c 22.003279
_cell_angle_alpha 90.000000
_cell_angle_beta 58.765766
_cell_angle_gamma 90.000000
_cell_volume 2713.415125
_symmetry_space_group_name_H-M "C 2/M"
_symmetry_group_IT_number 12
_symmetry_cell_setting 'monoclinic'
loop_
_space_group_symop_operation_xyz
x,y,z
-x,y,-z
-x,-y,-z
x,-y,z
1/2+x,1/2+y,z
1/2-x,1/2+y,-z
1/2-x,1/2-y,-z
1/2+x,1/2-y,z
loop_
_atom_site_type_symbol
_atom_site_label
_atom_site_fract_x
_atom_site_fract_y
_atom_site_fract_z
Si Si1 0.169791 0.399686 0.433092
Si Si2 0.831583 0.662827 0.296422
Si Si3 0.943310 0.752163 0.945327
Si Si4 0.504042 0.399878 0.566976
Si Si5 0.641785 0.404433 0.854242
Si Si6 0.331175 0.836789 0.702599
Si Si7 0.973743 0.595877 0.856365
O O1 0.171201 0.500000 0.442891
O O2 0.338453 0.360074 0.428597
O O3 0.163478 0.380197 0.363686
O O4 0.000000 0.359681 0.500000
O O5 0.673738 0.618025 0.362554
O O6 0.772437 0.749678 0.278265
O O7 0.897443 0.602726 0.228056
O O8 0.978647 0.679339 0.314101
O O9 0.994631 0.834130 0.893316
O O10 0.015635 0.665629 0.898812
O O11 0.750000 0.750000 0.000000
O O12 0.000000 0.764478 0.000000
O O13 0.500000 0.359591 0.500000
O O14 0.531847 0.500000 0.556017
O O15 0.565594 0.500000 0.877775
O O16 0.728257 0.398932 0.769514
O O17 0.782812 0.386592 0.875015
O O18 0.991384 0.500000 0.879394
#
# Coordination Sequence:
#
# PCOD8108223 Si02
#       7
#     8   8   8   8   8   8   8
#     4  10  21  38  60  89 125 163 210 266 318 376
#     4  11  22  38  63  89 124 167 212 264 322 378
#     4  12  24  42  69  97 133 166 208 265 320 382
#     4  10  21  38  60  89 125 164 210 263 320 378
#     4  10  22  42  68  95 127 174 218 257 318 392
#     4  11  22  38  63  90 124 165 213 266 319 380
#     4  10  22  42  67  95 130 171 216 261 320 386
#
# _framework density 20.638197999999999
#
# number of rings (size 3 to 8) (size 9 to 14) (size 15 to 20)
#    0.000    1.429    2.857    2.571    0.000    4.571 
#    2.571    2.857    0.000    0.000    0.000    0.000 
#    0.000    0.000    0.000    0.000    0.000    0.000 
#
# Total GULP energy -347127.968478 kJ/mol
# GULP energy per Si atom -12397.427446 kJ/mol
# Density = 2.059122 g / cm^3
# Si number density = 20.638198 Si / 1000 Ang^3
#
#
#
# Elastic Constant Matrix: (Units=GPa)
#
#
# Indices 1 2 3 4 5 6 
#
# 1 119.9186 20.8797 46.8678 -0.0001 -14.4915 0.0001
# 2 20.8797 95.6988 41.1775 0.0000 -9.5520 0.0000
# 3 46.8678 41.1775 127.0278 0.0000 -9.8462 0.0000
# 4 -0.0001 0.0000 0.0000 30.6269 0.0000 -0.0421
# 5 -14.4915 -9.5520 -9.8462 0.0000 36.2304 0.0000
# 6 0.0001 0.0000 0.0000 -0.0421 0.0000 30.5845
#
#
#
# Elastic Compliance Matrix: (Units=1/GPa)
#
#
# Indices 1 2 3 4 5 6 
#
# 1 0.010088 -0.000465 -0.003338 0.000000 0.003005 0.000000
# 2 -0.000465 0.012335 -0.003667 0.000000 0.002070 0.000000
# 3 -0.003338 -0.003667 0.010332 0.000000 0.000506 0.000000
# 4 0.000000 0.000000 0.000000 0.032651 0.000000 0.000045
# 5 0.003005 0.002070 0.000506 0.000000 0.029486 0.000000
# 6 0.000000 0.000000 0.000000 0.000045 0.000000 0.032696
#
#
# Mechanical properties :
#
#
# Convention : Reuss Voigt Hill
#
# Bulk Modulus (GPa) = 56.13143 62.27727 59.20435
# Shear Modulus (GPa) = 33.67764 35.06970 34.37367
#
# Velocity S-wave (km/s) = 4.04395 4.12668 4.08553
# Velocity P-wave (km/s) = 7.00440 7.27649 7.14174
#
# Compressibility (1/GPa) = 0.01781533
#
# Stress axis : x y z
#
# Youngs Moduli (GPa) = 99.12970 81.06922 96.78797
#
# Poissons Ratio (x) = 0.03766 0.32312
# Poissons Ratio (y) = 0.04605 0.35490
# Poissons Ratio (z) = 0.33094 0.29726
#
# Static dielectric constant tensor:
#      x y z
#    x 3.947810 0.000000 0.079770 
#    y 0.000000 3.642860 0.000000 
#    z 0.079770 0.000000 3.949500 
# 
# 
# High freq. dielectric constant tensor:
#      x y z
#    x 1.806940 0.000000 -0.001570 
#    y 0.000000 1.803990 0.000000 
#    z -0.001570 0.000000 1.820210 
# 
# From -- ./inp_files/332857.got.cif
#   From: 2010.06.25/outbox.cif.g09.slc.cpg/sg12_167_cif.got.tgz:332857.got - 2010.06.28 00:19:55.
