data_PCOD8108396
_publ_section_title
;
Structure prediction by ZEFSAII (Michael W. Deem and Ramdas Pophale) SiO2 
 PCOD8108396
Probable space group: C 2/M
;
_chemical_formula_sum "Si O2"
_cell_formula_units_Z 56
_cell_length_a 26.863283
_cell_length_b 9.386893
_cell_length_c 19.940203
_cell_angle_alpha 90.000000
_cell_angle_beta 149.085260
_cell_angle_gamma 90.000000
_cell_volume 2583.286021
_symmetry_space_group_name_H-M "C 2/M"
_symmetry_group_IT_number 12
_symmetry_cell_setting 'monoclinic'
loop_
_space_group_symop_operation_xyz
x,y,z
-x,y,-z
-x,-y,-z
x,-y,z
1/2+x,1/2+y,z
1/2-x,1/2+y,-z
1/2-x,1/2-y,-z
1/2+x,1/2-y,z
loop_
_atom_site_type_symbol
_atom_site_label
_atom_site_fract_x
_atom_site_fract_y
_atom_site_fract_z
Si Si1 0.897144 0.661758 0.898174
Si Si2 0.326161 0.835177 0.964253
Si Si3 0.666199 0.160753 0.438282
Si Si4 0.198492 0.277456 0.625435
Si Si5 0.474707 0.665342 0.221109
Si Si6 0.651338 0.156194 0.715137
Si Si7 0.000321 0.154020 0.597063
O O1 0.902512 0.500000 0.880437
O O2 0.809109 0.726015 0.753809
O O3 0.883324 0.676347 0.961046
O O4 0.000000 0.738011 0.000000
O O5 0.381195 0.740218 0.081880
O O6 0.316327 0.000000 0.976007
O O7 0.220667 0.767332 0.833010
O O8 0.750000 0.250000 0.500000
O O9 0.682825 0.141755 0.537349
O O10 0.568625 0.245149 0.307639
O O11 0.660925 0.000000 0.402402
O O12 0.179750 0.370804 0.670306
O O13 0.117155 0.153964 0.536164
O O14 0.484648 0.500000 0.209163
O O15 0.457954 0.675557 0.280634
O O16 0.544224 0.223960 0.599706
O O17 0.653949 0.000000 0.752387
O O18 0.031549 0.000000 0.604778
#
# Coordination Sequence:
#
# PCOD8108396 Si02
#       7
#     8   8   8   8   8   8   8
#     4   9  19  35  58  89 122 157 199 247 303 363
#     4  10  21  38  61  89 123 163 204 251 301 361
#     4  11  24  41  62  89 122 162 207 253 304 362
#     4  10  22  39  62  89 125 159 200 253 307 362
#     4  10  22  41  62  88 124 162 203 253 304 360
#     4  11  23  39  62  90 122 161 202 253 309 362
#     4  10  22  39  61  90 122 161 205 251 307 367
#
# _framework density 21.677817000000001
#
# number of rings (size 3 to 8) (size 9 to 14) (size 15 to 20)
#    0.000    1.857    0.000    3.000    2.000    8.571 
#    0.000    0.000    0.000    2.571    0.000    0.000 
#    0.000    0.000    0.000    0.000    0.000    0.000 
#
# Total GULP energy -347048.343055 kJ/mol
# GULP energy per Si atom -12394.583681 kJ/mol
# Density = 2.162848 g / cm^3
# Si number density = 21.677817 Si / 1000 Ang^3
#
#
#
# Elastic Constant Matrix: (Units=GPa)
#
#
# Indices 1 2 3 4 5 6 
#
# 1 69.0688 39.7121 29.5932 0.0000 22.1405 0.0000
# 2 39.7121 172.5434 49.9589 0.0000 11.3810 0.0000
# 3 29.5932 49.9589 126.5685 0.0000 6.9007 0.0000
# 4 0.0000 0.0000 0.0000 7.4136 0.0000 9.0289
# 5 22.1405 11.3810 6.9007 0.0000 33.1865 0.0000
# 6 0.0000 0.0000 0.0000 9.0289 0.0000 22.4310
#
#
#
# Elastic Compliance Matrix: (Units=1/GPa)
#
#
# Indices 1 2 3 4 5 6 
#
# 1 0.021782 -0.003272 -0.003105 0.000000 -0.012764 0.000000
# 2 -0.003272 0.007134 -0.002060 0.000000 0.000165 0.000000
# 3 -0.003105 -0.002060 0.009395 0.000000 0.000825 0.000000
# 4 0.000000 0.000000 0.000000 0.264602 0.000000 -0.106507
# 5 -0.012764 0.000165 0.000825 0.000000 0.038420 0.000000
# 6 0.000000 0.000000 0.000000 -0.106507 0.000000 0.087452
#
#
# Mechanical properties :
#
#
# Convention : Reuss Voigt Hill
#
# Bulk Modulus (GPa) = 46.65007 67.41214 57.03111
# Shear Modulus (GPa) = 11.04225 29.20065 20.12145
#
# Velocity S-wave (km/s) = 2.25939 3.67417 3.04995
# Velocity P-wave (km/s) = 5.32662 7.01172 6.22644
#
# Compressibility (1/GPa) = 0.02143619
#
# Stress axis : x y z
#
# Youngs Moduli (GPa) = 45.90995 140.16700 106.43878
#
# Poissons Ratio (x) = 0.45865 0.33053
# Poissons Ratio (y) = 0.15023 0.21926
# Poissons Ratio (z) = 0.14257 0.28874
#
# Static dielectric constant tensor:
#      x y z
#    x 3.853890 0.000000 0.076580 
#    y 0.000000 3.833180 0.000000 
#    z 0.076580 0.000000 3.970690 
# 
# 
# High freq. dielectric constant tensor:
#      x y z
#    x 1.846220 0.000000 0.004600 
#    y 0.000000 1.846620 0.000000 
#    z 0.004600 0.000000 1.861660 
# 
# From -- ./inp_files/329694.got.cif
#   From: 2010.06.25/outbox.cif.g09.slc.cpg/sg12_165_cif.got.tgz:329694.got - 2010.06.28 00:19:55.
