data_PCOD8108912
_publ_section_title
;
Structure prediction by ZEFSAII (Michael W. Deem and Ramdas Pophale) SiO2 
 PCOD8108912
Probable space group: C 2/M
;
_chemical_formula_sum "Si O2"
_cell_formula_units_Z 64
_cell_length_a 15.139665
_cell_length_b 8.879983
_cell_length_c 33.406760
_cell_angle_alpha 90.000000
_cell_angle_beta 134.429809
_cell_angle_gamma 90.000000
_cell_volume 3207.207091
_symmetry_space_group_name_H-M "C 2/M"
_symmetry_group_IT_number 12
_symmetry_cell_setting 'monoclinic'
loop_
_space_group_symop_operation_xyz
x,y,z
-x,y,-z
-x,-y,-z
x,-y,z
1/2+x,1/2+y,z
1/2-x,1/2+y,-z
1/2-x,1/2-y,-z
1/2+x,1/2-y,z
loop_
_atom_site_type_symbol
_atom_site_label
_atom_site_fract_x
_atom_site_fract_y
_atom_site_fract_z
Si Si1 0.379329 0.176989 0.080530
Si Si2 0.404540 0.677727 0.004747
Si Si3 0.656042 0.676602 0.500095
Si Si4 0.546011 0.178239 0.207093
Si Si5 0.771311 0.323329 0.621330
Si Si6 0.501238 0.671774 0.275145
Si Si7 0.576685 0.823736 0.610171
Si Si8 0.674353 0.328941 0.713109
O O1 0.433585 0.253215 0.057551
O O2 0.466730 0.231869 0.144104
O O3 0.387176 0.000000 0.075835
O O4 0.239089 0.223152 0.048877
O O5 0.420676 0.500000 0.012993
O O6 0.500000 0.737402 0.000000
O O7 0.652666 0.500000 0.492098
O O8 0.750000 0.750000 0.500000
O O9 0.702607 0.718449 0.558741
O O10 0.521223 0.742180 0.449607
O O11 0.488263 0.255384 0.227672
O O12 0.686521 0.233658 0.245496
O O13 0.538688 0.000000 0.210419
O O14 0.763646 0.500000 0.628113
O O15 0.911418 0.267008 0.667070
O O16 0.710432 0.226448 0.637276
O O17 0.548170 0.500000 0.286479
O O18 0.367186 0.679065 0.253778
O O19 0.576585 0.769257 0.656032
O O20 0.551563 0.000000 0.600083
O O21 0.668086 0.500000 0.695056
#
# Coordination Sequence:
#
# PCOD8108912 Si02
#       8
#     8   8   8   8   8   8   8   8
#     4   9  19  35  56  84 116 155 203 241 286 349
#     4   9  18  34  56  84 120 158 195 242 297 343
#     4  11  24  40  59  84 114 148 189 238 295 359
#     4  10  21  39  60  82 116 159 196 241 296 351
#     4  11  23  40  60  82 111 149 189 234 295 357
#     4  11  23  38  59  87 114 148 195 244 292 352
#     4  12  24  38  60  87 113 146 192 241 293 356
#     4  10  22  40  60  82 115 155 193 240 301 355
#
# _framework density 19.955057
#
# number of rings (size 3 to 8) (size 9 to 14) (size 15 to 20)
#    0.000    1.625    1.250    3.375    0.000    8.250 
#    0.000    0.000    0.000    0.000    0.000    0.000 
#    0.000    0.000    0.000    0.000    0.000    0.000 
#
# Total GULP energy -396757.234997 kJ/mol
# GULP energy per Si atom -12398.663594 kJ/mol
# Density = 1.990964 g / cm^3
# Si number density = 19.955057 Si / 1000 Ang^3
#
#
#
# Elastic Constant Matrix: (Units=GPa)
#
#
# Indices 1 2 3 4 5 6 
#
# 1 119.6913 31.4055 49.4243 0.0000 -22.0757 0.0000
# 2 31.4055 60.0497 51.2098 0.0000 -14.5626 0.0000
# 3 49.4243 51.2098 150.6659 0.0000 -14.9341 0.0000
# 4 0.0000 0.0000 0.0000 29.7624 0.0000 -4.8446
# 5 -22.0757 -14.5626 -14.9341 0.0000 23.0175 0.0000
# 6 0.0000 0.0000 0.0000 -4.8446 0.0000 29.9295
#
#
#
# Elastic Compliance Matrix: (Units=1/GPa)
#
#
# Indices 1 2 3 4 5 6 
#
# 1 0.011301 -0.002068 -0.002201 0.000000 0.008102 0.000000
# 2 -0.002068 0.026376 -0.007298 0.000000 0.009968 0.000000
# 3 -0.002201 -0.007298 0.009803 0.000000 -0.000368 0.000000
# 4 0.000000 0.000000 0.000000 0.034509 0.000000 0.005586
# 5 0.008102 0.009968 -0.000368 0.000000 0.057283 0.000000
# 6 0.000000 0.000000 0.000000 0.005586 0.000000 0.034316
#
#
# Mechanical properties :
#
#
# Convention : Reuss Voigt Hill
#
# Bulk Modulus (GPa) = 41.07707 66.05404 53.56555
# Shear Modulus (GPa) = 24.40948 29.76636 27.08792
#
# Velocity S-wave (km/s) = 3.50125 3.86640 3.68835
# Velocity P-wave (km/s) = 6.08067 7.28734 6.71118
#
# Compressibility (1/GPa) = 0.02434448
#
# Stress axis : x y z
#
# Youngs Moduli (GPa) = 88.49041 37.91323 102.00570
#
# Poissons Ratio (x) = 0.07842 0.22451
# Poissons Ratio (y) = 0.18304 0.74447
# Poissons Ratio (z) = 0.19476 0.27670
#
# Static dielectric constant tensor:
#      x y z
#    x 3.737170 0.000000 -0.017800 
#    y 0.000000 3.545940 0.000000 
#    z -0.017800 0.000000 3.412550 
# 
# 
# High freq. dielectric constant tensor:
#      x y z
#    x 1.789100 0.000000 -0.004340 
#    y 0.000000 1.774520 0.000000 
#    z -0.004340 0.000000 1.775410 
# 
# From -- ./inp_files/375582.got.cif
#   From: 2010.06.25/outbox.cif.g09.slc.cpg/sg12_188_cif.got.tgz:375582.got - 2010.06.28 00:19:55.
