data_PCOD8108443
_publ_section_title
;
Structure prediction by ZEFSAII (Michael W. Deem and Ramdas Pophale) SiO2 
 PCOD8108443
Probable space group: C 2/M
;
_chemical_formula_sum "Si O2"
_cell_formula_units_Z 56
_cell_length_a 19.795276
_cell_length_b 8.780552
_cell_length_c 18.800274
_cell_angle_alpha 90.000000
_cell_angle_beta 120.542762
_cell_angle_gamma 90.000000
_cell_volume 2814.341907
_symmetry_space_group_name_H-M "C 2/M"
_symmetry_group_IT_number 12
_symmetry_cell_setting 'monoclinic'
loop_
_space_group_symop_operation_xyz
x,y,z
-x,y,-z
-x,-y,-z
x,-y,z
1/2+x,1/2+y,z
1/2-x,1/2+y,-z
1/2-x,1/2-y,-z
1/2+x,1/2-y,z
loop_
_atom_site_type_symbol
_atom_site_label
_atom_site_fract_x
_atom_site_fract_y
_atom_site_fract_z
Si Si1 0.026255 0.822044 0.436168
Si Si2 0.097712 0.325919 0.729543
Si Si3 0.188551 0.825109 0.019444
Si Si4 0.450233 0.675901 0.154653
Si Si5 0.221495 0.824743 0.193210
Si Si6 0.884505 0.320943 0.748668
Si Si7 0.832219 0.320917 0.564201
O O1 0.957299 0.783223 0.345118
O O2 0.000000 0.770106 0.500000
O O3 0.104744 0.731197 0.459976
O O4 0.044913 0.000000 0.442339
O O5 0.068149 0.500000 0.707507
O O6 0.092587 0.275217 0.808346
O O7 0.185510 0.308876 0.748591
O O8 0.099993 0.803081 0.944179
O O9 0.213637 0.000000 0.037138
O O10 0.250000 0.750000 0.000000
O O11 0.194149 0.757986 0.102154
O O12 0.452461 0.500000 0.179540
O O13 0.537301 0.734058 0.185676
O O14 0.184311 0.721195 0.234141
O O15 0.194796 0.000000 0.188445
O O16 0.900385 0.500000 0.758667
O O17 0.859774 0.265901 0.656847
O O18 0.822988 0.500000 0.556885
O O19 0.750000 0.250000 0.500000
#
# Coordination Sequence:
#
# PCOD8108443 Si02
#       7
#     8   8   8   8   8   8   8
#     4  11  25  43  65  95 128 162 205 255 307 367
#     4  11  22  39  64  93 125 163 207 254 305 366
#     4  10  21  38  61  92 125 161 206 256 309 365
#     4  11  22  38  65  92 122 166 208 252 308 367
#     4  10  23  41  62  91 127 165 206 255 310 369
#     4  11  25  43  63  90 125 164 208 256 307 369
#     4  11  25  44  66  92 125 164 207 255 311 370
#
# _framework density 19.898078999999999
#
# number of rings (size 3 to 8) (size 9 to 14) (size 15 to 20)
#    0.000    1.286    2.857    2.143    2.000    5.714 
#    0.000    2.857    0.000    0.000    0.000    0.000 
#    0.000    0.000    0.000    0.000    0.000    0.000 
#
# Total GULP energy -347367.621641 kJ/mol
# GULP energy per Si atom -12405.986487 kJ/mol
# Density = 1.985279 g / cm^3
# Si number density = 19.898079 Si / 1000 Ang^3
#
#
#
# Elastic Constant Matrix: (Units=GPa)
#
#
# Indices 1 2 3 4 5 6 
#
# 1 124.8178 37.1387 49.9748 0.0000 -0.2381 0.0000
# 2 37.1387 52.4532 30.0631 0.0000 1.6359 0.0000
# 3 49.9748 30.0631 96.6748 0.0000 3.9886 0.0000
# 4 0.0000 0.0000 0.0000 27.5874 0.0000 -2.9117
# 5 -0.2381 1.6359 3.9886 0.0000 39.0624 0.0000
# 6 0.0000 0.0000 0.0000 -2.9117 0.0000 36.8793
#
#
#
# Elastic Compliance Matrix: (Units=1/GPa)
#
#
# Indices 1 2 3 4 5 6 
#
# 1 0.011363 -0.005700 -0.004132 0.000000 0.000730 0.000000
# 2 -0.005700 0.026061 -0.005133 0.000000 -0.000602 0.000000
# 3 -0.004132 -0.005133 0.014128 0.000000 -0.001253 0.000000
# 4 0.000000 0.000000 0.000000 0.036553 0.000000 0.002886
# 5 0.000730 -0.000602 -0.001253 0.000000 0.025758 0.000000
# 6 0.000000 0.000000 0.000000 0.002886 0.000000 0.027343
#
#
# Mechanical properties :
#
#
# Convention : Reuss Voigt Hill
#
# Bulk Modulus (GPa) = 46.24766 56.47766 51.36266
# Shear Modulus (GPa) = 28.03583 31.15712 29.59647
#
# Velocity S-wave (km/s) = 3.75770 3.96136 3.86087
# Velocity P-wave (km/s) = 6.48998 7.02625 6.76343
#
# Compressibility (1/GPa) = 0.02162272
#
# Stress axis : x y z
#
# Youngs Moduli (GPa) = 88.00163 38.37114 70.78380
#
# Poissons Ratio (x) = 0.21873 0.29245
# Poissons Ratio (y) = 0.50165 0.36331
# Poissons Ratio (z) = 0.36359 0.19695
#
# Static dielectric constant tensor:
#      x y z
#    x 3.645810 0.000000 0.021280 
#    y 0.000000 3.648030 0.000000 
#    z 0.021280 0.000000 3.868740 
# 
# 
# High freq. dielectric constant tensor:
#      x y z
#    x 1.782940 0.000000 0.005530 
#    y 0.000000 1.780630 0.000000 
#    z 0.005530 0.000000 1.785320 
# 
# From -- ./inp_files/275657.got.cif
#   From: 2010.06.25/outbox.cif.g09.slc.cpg/sg12_138_cif.got.tgz:275657.got - 2010.06.28 00:19:55.
