data_PCOD8108074
_publ_section_title
;
Structure prediction by ZEFSAII (Michael W. Deem and Ramdas Pophale) SiO2 
 PCOD8108074
Probable space group: C 2/M
;
_chemical_formula_sum "Si O2"
_cell_formula_units_Z 64
_cell_length_a 16.036031
_cell_length_b 8.771342
_cell_length_c 33.236564
_cell_angle_alpha 90.000000
_cell_angle_beta 138.117966
_cell_angle_gamma 90.000000
_cell_volume 3121.007521
_symmetry_space_group_name_H-M "C 2/M"
_symmetry_group_IT_number 12
_symmetry_cell_setting 'monoclinic'
loop_
_space_group_symop_operation_xyz
x,y,z
-x,y,-z
-x,-y,-z
x,-y,z
1/2+x,1/2+y,z
1/2-x,1/2+y,-z
1/2-x,1/2-y,-z
1/2+x,1/2-y,z
loop_
_atom_site_type_symbol
_atom_site_label
_atom_site_fract_x
_atom_site_fract_y
_atom_site_fract_z
Si Si1 0.602455 0.319078 0.068344
Si Si2 0.787632 0.325884 0.252981
Si Si3 0.162944 0.823165 0.386689
Si Si4 0.988474 0.325341 0.386849
Si Si5 0.124957 0.319263 0.857601
Si Si6 0.902656 0.834795 0.499013
Si Si7 0.051461 0.678043 0.136040
Si Si8 0.006446 0.323016 0.268787
O O1 0.608217 0.500000 0.071706
O O2 0.736637 0.251945 0.101850
O O3 0.560552 0.265496 0.097333
O O4 0.500000 0.259758 0.000000
O O5 0.740748 0.500000 0.232920
O O6 0.850505 0.294400 0.319126
O O7 0.671981 0.212578 0.206679
O O8 0.885484 0.292707 0.252724
O O9 0.306616 0.792110 0.448827
O O10 0.124390 0.776327 0.327268
O O11 0.086678 0.710525 0.387521
O O12 0.133209 0.000000 0.383668
O O13 0.002654 0.500000 0.405108
O O14 0.017464 0.219217 0.434471
O O15 0.133848 0.500000 0.858651
O O16 0.070844 0.269098 0.881913
O O17 0.028605 0.264455 0.788410
O O18 0.000000 0.864813 0.500000
O O19 0.839229 0.000000 0.486519
O O20 0.044788 0.500000 0.124468
O O21 0.045045 0.500000 0.283261
#
# Coordination Sequence:
#
# PCOD8108074 Si02
#       8
#     8   8   8   8   8   8   8   8
#     4  10  21  41  66  86 114 161 207 240 283 353
#     4   9  18  35  59  83 112 151 193 235 285 349
#     4  11  22  36  57  84 114 146 190 241 289 348
#     4  10  21  38  60  83 110 147 190 238 291 348
#     4   9  19  37  59  86 120 159 196 238 299 357
#     4  11  24  40  56  76 108 149 192 240 296 355
#     4  11  22  35  58  90 124 155 192 246 301 349
#     4   9  17  35  60  80 109 152 195 237 288 350
#
# _framework density 20.506197
#
# number of rings (size 3 to 8) (size 9 to 14) (size 15 to 20)
#    0.000    2.000    1.250    3.375    0.000    5.250 
#    0.000    6.250    0.000    0.000    0.000    0.000 
#    0.000    0.000    0.000    0.000    0.000    0.000 
#
# Total GULP energy -396674.925780 kJ/mol
# GULP energy per Si atom -12396.091431 kJ/mol
# Density = 2.045952 g / cm^3
# Si number density = 20.506197 Si / 1000 Ang^3
#
#
#
# Elastic Constant Matrix: (Units=GPa)
#
#
# Indices 1 2 3 4 5 6 
#
# 1 89.9722 14.6698 54.3630 0.0000 -12.8796 0.0000
# 2 14.6698 48.4325 30.1800 0.0000 1.6064 0.0000
# 3 54.3630 30.1800 141.4881 0.0000 -6.5467 0.0000
# 4 0.0000 0.0000 0.0000 30.7319 0.0000 -3.8100
# 5 -12.8796 1.6064 -6.5467 0.0000 14.2384 0.0000
# 6 0.0000 0.0000 0.0000 -3.8100 0.0000 22.7187
#
#
#
# Elastic Compliance Matrix: (Units=1/GPa)
#
#
# Indices 1 2 3 4 5 6 
#
# 1 0.016476 -0.002115 -0.005291 0.000000 0.012709 0.000000
# 2 -0.002115 0.024456 -0.004721 0.000000 -0.006843 0.000000
# 3 -0.005291 -0.004721 0.010126 0.000000 0.000402 0.000000
# 4 0.000000 0.000000 0.000000 0.033230 0.000000 0.005573
# 5 0.012709 -0.006843 0.000402 0.000000 0.082686 0.000000
# 6 0.000000 0.000000 0.000000 0.005573 0.000000 0.044951
#
#
# Mechanical properties :
#
#
# Convention : Reuss Voigt Hill
#
# Bulk Modulus (GPa) = 37.30635 53.14648 45.22641
# Shear Modulus (GPa) = 20.39866 25.58314 22.99090
#
# Velocity S-wave (km/s) = 3.15740 3.53594 3.35202
# Velocity P-wave (km/s) = 5.61466 6.53024 6.08968
#
# Compressibility (1/GPa) = 0.02680509
#
# Stress axis : x y z
#
# Youngs Moduli (GPa) = 60.69539 40.88903 98.75267
#
# Poissons Ratio (x) = 0.08647 0.52252
# Poissons Ratio (y) = 0.12835 0.46619
# Poissons Ratio (z) = 0.32115 0.19303
#
# Static dielectric constant tensor:
#      x y z
#    x 3.603930 0.000000 0.243550 
#    y 0.000000 3.507660 0.000000 
#    z 0.243550 0.000000 2.722370 
# 
# 
# High freq. dielectric constant tensor:
#      x y z
#    x 1.789250 0.000000 -0.004700 
#    y 0.000000 1.785290 0.000000 
#    z -0.004700 0.000000 1.810390 
# 
# From -- ./inp_files/375568.got.cif
#   From: 2010.06.25/outbox.cif.g09.slc.cpg/sg12_188_cif.got.tgz:375568.got - 2010.06.28 00:19:55.
