data_PCOD8108902
_publ_section_title
;
Structure prediction by ZEFSAII (Michael W. Deem and Ramdas Pophale) SiO2 
 PCOD8108902
Probable space group: C 2/M
;
_chemical_formula_sum "Si O2"
_cell_formula_units_Z 64
_cell_length_a 30.141438
_cell_length_b 9.037753
_cell_length_c 22.040139
_cell_angle_alpha 90.000000
_cell_angle_beta 146.468891
_cell_angle_gamma 90.000000
_cell_volume 3316.532904
_symmetry_space_group_name_H-M "C 2/M"
_symmetry_group_IT_number 12
_symmetry_cell_setting 'monoclinic'
loop_
_space_group_symop_operation_xyz
x,y,z
-x,y,-z
-x,-y,-z
x,-y,z
1/2+x,1/2+y,z
1/2-x,1/2+y,-z
1/2-x,1/2-y,-z
1/2+x,1/2-y,z
loop_
_atom_site_type_symbol
_atom_site_label
_atom_site_fract_x
_atom_site_fract_y
_atom_site_fract_z
Si Si1 0.550481 0.174639 0.946025
Si Si2 0.797936 0.324765 0.809126
Si Si3 0.695432 0.675408 0.805036
Si Si4 0.919231 0.827869 0.613454
Si Si5 0.153393 0.325374 0.950807
Si Si6 0.429517 0.175650 0.263953
Si Si7 0.258981 0.826082 0.631055
Si Si8 0.098373 0.825837 0.267663
O O1 0.610995 0.222704 0.069180
O O2 0.533450 0.000000 0.928469
O O3 0.590645 0.229447 0.929526
O O4 0.465686 0.259149 0.853381
O O5 0.793540 0.500000 0.806153
O O6 0.732079 0.267728 0.782866
O O7 0.776710 0.263459 0.718720
O O8 0.681643 0.500000 0.788882
O O9 0.610693 0.756689 0.721103
O O10 0.757205 0.725840 0.928860
O O11 0.831858 0.788276 0.488833
O O12 0.925186 0.781469 0.690625
O O13 0.980654 0.734370 0.642679
O O14 0.938934 0.000000 0.627431
O O15 0.150918 0.500000 0.947827
O O16 0.125283 0.263428 0.854086
O O17 0.431692 0.000000 0.271135
O O18 0.314860 0.742388 0.647005
O O19 0.276659 0.000000 0.646861
O O20 0.103430 0.000000 0.265164
#
# Coordination Sequence:
#
# PCOD8108902 Si02
#       8
#     8   8   8   8   8   8   8   8
#     4   9  16  32  56  80 107 140 173 213 260 312
#     4   8  17  35  59  81 103 136 183 224 256 302
#     4   9  17  32  53  77 107 138 171 215 263 309
#     4  10  22  38  55  77 107 139 178 222 264 310
#     4   8  15  28  48  75 106 138 169 206 254 308
#     4  11  20  31  51  80 109 139 176 213 261 319
#     4  10  21  39  60  78  98 137 186 226 261 307
#     4  11  22  35  53  82 112 137 169 215 273 325
#
# _framework density 19.297259
#
# number of rings (size 3 to 8) (size 9 to 14) (size 15 to 20)
#    0.000    2.500    1.250    3.000    0.000    1.500 
#    0.000    7.500    0.000    3.750    0.000    0.000 
#    0.000    0.000    0.000    0.000    0.000    0.000 
#
# Total GULP energy -396708.681442 kJ/mol
# GULP energy per Si atom -12397.146295 kJ/mol
# Density = 1.925334 g / cm^3
# Si number density = 19.297259 Si / 1000 Ang^3
#
#
#
# Elastic Constant Matrix: (Units=GPa)
#
#
# Indices 1 2 3 4 5 6 
#
# 1 58.1836 29.9507 46.5691 0.0000 16.1471 0.0000
# 2 29.9507 54.8166 40.8820 0.0000 12.1114 0.0000
# 3 46.5691 40.8820 108.4576 0.0000 9.8053 0.0000
# 4 0.0000 0.0000 0.0000 24.6504 0.0000 8.6559
# 5 16.1471 12.1114 9.8053 0.0000 30.5707 0.0000
# 6 0.0000 0.0000 0.0000 8.6559 0.0000 26.1312
#
#
#
# Elastic Compliance Matrix: (Units=1/GPa)
#
#
# Indices 1 2 3 4 5 6 
#
# 1 0.032058 -0.007805 -0.009858 0.000000 -0.010679 0.000000
# 2 -0.007805 0.028912 -0.007090 0.000000 -0.005058 0.000000
# 3 -0.009858 -0.007090 0.015860 0.000000 0.002928 0.000000
# 4 0.000000 0.000000 0.000000 0.045907 0.000000 -0.015207
# 5 -0.010679 -0.005058 0.002928 0.000000 0.039416 0.000000
# 6 0.000000 0.000000 0.000000 -0.015207 0.000000 0.043306
#
#
# Mechanical properties :
#
#
# Convention : Reuss Voigt Hill
#
# Bulk Modulus (GPa) = 36.59446 50.69571 43.64508
# Shear Modulus (GPa) = 18.93424 23.20752 21.07088
#
# Velocity S-wave (km/s) = 3.13579 3.47166 3.30799
# Velocity P-wave (km/s) = 5.66707 6.51137 6.10383
#
# Compressibility (1/GPa) = 0.02732654
#
# Stress axis : x y z
#
# Youngs Moduli (GPa) = 31.19344 34.58784 63.04987
#
# Poissons Ratio (x) = 0.26995 0.62152
# Poissons Ratio (y) = 0.24345 0.44700
# Poissons Ratio (z) = 0.30749 0.24522
#
# Static dielectric constant tensor:
#      x y z
#    x 3.631040 0.000000 -0.116110 
#    y 0.000000 3.115870 0.000000 
#    z -0.116110 0.000000 3.655740 
# 
# 
# High freq. dielectric constant tensor:
#      x y z
#    x 1.749930 0.000000 0.011480 
#    y 0.000000 1.719130 0.000000 
#    z 0.011480 0.000000 1.747640 
# 
# From -- ./inp_files/353571.got.cif
#   From: 2010.06.25/outbox.cif.g09.slc.cpg/sg12_177_cif.got.tgz:353571.got - 2010.06.28 00:19:55.
