data_PCOD8108791
_publ_section_title
;
Structure prediction by ZEFSAII (Michael W. Deem and Ramdas Pophale) SiO2 
 PCOD8108791
Probable space group: C 2/M
;
_chemical_formula_sum "Si O2"
_cell_formula_units_Z 52
_cell_length_a 23.262765
_cell_length_b 20.076744
_cell_length_c 5.246500
_cell_angle_alpha 90.000000
_cell_angle_beta 87.635042
_cell_angle_gamma 90.000000
_cell_volume 2448.241334
_symmetry_space_group_name_H-M "C 2/M"
_symmetry_group_IT_number 12
_symmetry_cell_setting 'monoclinic'
loop_
_space_group_symop_operation_xyz
x,y,z
-x,y,-z
-x,-y,-z
x,-y,z
1/2+x,1/2+y,z
1/2-x,1/2+y,-z
1/2-x,1/2-y,-z
1/2+x,1/2-y,z
loop_
_atom_site_type_symbol
_atom_site_label
_atom_site_fract_x
_atom_site_fract_y
_atom_site_fract_z
Si Si1 0.000000 0.624979 0.500000
Si Si2 0.700956 0.693936 0.316289
Si Si3 0.965006 0.076284 0.263360
Si Si4 0.368929 0.676036 0.155894
Si Si5 0.812900 0.333492 0.538257
Si Si6 0.917651 0.312255 0.176159
Si Si7 0.390216 0.924482 0.779152
O O1 0.982441 0.673538 0.267127
O O2 0.945208 0.579083 0.578774
O O3 0.672666 0.689423 0.600463
O O4 0.763822 0.659005 0.330028
O O5 0.706661 0.774076 0.261322
O O6 0.667782 0.658214 0.091252
O O7 0.905277 0.113212 0.237053
O O8 0.000000 0.105625 0.500000
O O9 0.949643 0.000000 0.322454
O O10 0.000000 0.085544 0.000000
O O11 0.411006 0.737693 0.065127
O O12 0.874790 0.311495 0.422454
O O13 0.828053 0.404369 0.668044
O O14 0.899785 0.372233 0.999724
O O15 0.385415 0.000000 0.882457
#
# Coordination Sequence:
#
# PCOD8108791 Si02
#       7
#     4   8   8   8   8   8   8
#     4  10  23  38  54  84 117 162 204 264 301 368
#     4  10  21  38  66  90 122 155 202 249 310 350
#     4  10  22  40  62  88 123 163 195 233 300 372
#     4  11  22  38  63  97 122 158 198 256 299 359
#     4   9  21  38  59  86 117 155 200 252 298 370
#     4  10  22  36  59  87 119 153 210 248 309 352
#     4  11  22  39  58  82 120 163 208 254 311 367
#
# _framework density 21.239736000000001
#
# number of rings (size 3 to 8) (size 9 to 14) (size 15 to 20)
#    0.000    1.846    1.538    1.615    3.231    6.769 
#    0.000    1.538    0.000    0.000    0.000    0.000 
#    0.000    0.000    0.000    0.000    0.000    0.000 
#
# Total GULP energy -322180.549361 kJ/mol
# GULP energy per Si atom -12391.559591 kJ/mol
# Density = 2.119139 g / cm^3
# Si number density = 21.239736 Si / 1000 Ang^3
#
#
#
# Elastic Constant Matrix: (Units=GPa)
#
#
# Indices 1 2 3 4 5 6 
#
# 1 88.0852 49.0764 31.3674 0.0000 41.4058 0.0000
# 2 49.0764 87.2660 30.1473 0.0000 20.4839 0.0000
# 3 31.3674 30.1473 112.4440 0.0000 37.8567 0.0000
# 4 0.0000 0.0000 0.0000 41.6831 0.0000 3.6146
# 5 41.4058 20.4839 37.8567 0.0000 43.1771 0.0000
# 6 0.0000 0.0000 0.0000 3.6146 0.0000 27.3746
#
#
#
# Elastic Compliance Matrix: (Units=1/GPa)
#
#
# Indices 1 2 3 4 5 6 
#
# 1 0.027759 -0.011075 0.003432 0.000000 -0.024375 0.000000
# 2 -0.011075 0.017633 -0.003401 0.000000 0.005238 0.000000
# 3 0.003432 -0.003401 0.013355 0.000000 -0.013387 0.000000
# 4 0.000000 0.000000 0.000000 0.024268 0.000000 -0.003204
# 5 -0.024375 0.005238 -0.013387 0.000000 0.055788 0.000000
# 6 0.000000 0.000000 0.000000 -0.003204 0.000000 0.036953
#
#
# Mechanical properties :
#
#
# Convention : Reuss Voigt Hill
#
# Bulk Modulus (GPa) = 27.27922 56.55306 41.91614
# Shear Modulus (GPa) = 23.80223 34.26058 29.03141
#
# Velocity S-wave (km/s) = 3.35124 4.02063 3.70110
# Velocity P-wave (km/s) = 5.27691 6.94534 6.16780
#
# Compressibility (1/GPa) = 0.03665794
#
# Stress axis : x y z
#
# Youngs Moduli (GPa) = 36.02482 56.71112 74.87931
#
# Poissons Ratio (x) = 0.62808 -0.25699
# Poissons Ratio (y) = 0.39897 0.25470
# Poissons Ratio (z) = -0.12364 0.19290
#
# Static dielectric constant tensor:
#      x y z
#    x 3.978150 0.000000 0.272960 
#    y 0.000000 3.840330 0.000000 
#    z 0.272960 0.000000 3.766530 
# 
# 
# High freq. dielectric constant tensor:
#      x y z
#    x 1.833340 0.000000 0.013640 
#    y 0.000000 1.805810 0.000000 
#    z 0.013640 0.000000 1.837040 
# 
# From -- ./inp_files/21178.got.cif
#   From: 2010.06.25/outbox.cif.g09.slc.cpg/sg12_11_cif.got.tgz:21178.got - 2010.06.28 00:19:55.
