data_PCOD8108013
_publ_section_title
;
Structure prediction by ZEFSAII (Michael W. Deem and Ramdas Pophale) SiO2 
 PCOD8108013
Probable space group: C 2/M
;
_chemical_formula_sum "Si O2"
_cell_formula_units_Z 40
_cell_length_a 10.112222
_cell_length_b 8.919227
_cell_length_c 22.187918
_cell_angle_alpha 90.000000
_cell_angle_beta 83.140181
_cell_angle_gamma 90.000000
_cell_volume 1986.873514
_symmetry_space_group_name_H-M "C 2/M"
_symmetry_group_IT_number 12
_symmetry_cell_setting 'monoclinic'
loop_
_space_group_symop_operation_xyz
x,y,z
-x,y,-z
-x,-y,-z
x,-y,z
1/2+x,1/2+y,z
1/2-x,1/2+y,-z
1/2-x,1/2-y,-z
1/2+x,1/2-y,z
loop_
_atom_site_type_symbol
_atom_site_label
_atom_site_fract_x
_atom_site_fract_y
_atom_site_fract_z
Si Si1 0.013091 0.674807 0.368249
Si Si2 0.861902 0.176103 0.033186
Si Si3 0.544376 0.324962 0.239832
Si Si4 0.230103 0.824866 0.437107
Si Si5 0.793967 0.825586 0.171537
O O1 0.046534 0.500000 0.370040
O O2 0.052134 0.733745 0.300864
O O3 0.099443 0.757322 0.413869
O O4 0.857983 0.707685 0.388426
O O5 0.849669 0.221907 0.103537
O O6 0.851871 0.000000 0.025067
O O7 0.750000 0.250000 0.000000
O O8 0.000000 0.238999 0.000000
O O9 0.558622 0.500000 0.253389
O O10 0.665150 0.274489 0.190949
O O11 0.406385 0.288537 0.214430
O O12 0.250000 0.750000 0.500000
O O13 0.207805 0.000000 0.448039
O O14 0.754147 0.000000 0.175506
#
# Coordination Sequence:
#
# PCOD8108013 Si02
#       5
#     8   8   8   8   8
#     4  11  24  41  61  88 121 155 195 242 290 344
#     4  10  21  38  59  85 117 152 193 240 289 345
#     4  11  23  39  61  87 115 152 196 240 290 347
#     4  11  24  41  63  91 121 156 197 240 289 345
#     4  10  22  39  59  85 118 154 192 239 293 346
#
# _framework density 20.132131999999999
#
# number of rings (size 3 to 8) (size 9 to 14) (size 15 to 20)
#    0.000    1.400    0.000    4.800    0.000   13.200 
#    0.000    0.000    0.000    0.000    0.000    0.000 
#    0.000    0.000    0.000    0.000    0.000    0.000 
#
# Total GULP energy -248139.799127 kJ/mol
# GULP energy per Si atom -12406.989956 kJ/mol
# Density = 2.008631 g / cm^3
# Si number density = 20.132132 Si / 1000 Ang^3
#
#
#
# Elastic Constant Matrix: (Units=GPa)
#
#
# Indices 1 2 3 4 5 6 
#
# 1 88.4482 45.8961 11.2619 0.0000 0.7315 0.0000
# 2 45.8961 82.6968 34.6029 0.0000 -1.3253 0.0000
# 3 11.2619 34.6029 100.7444 0.0000 2.8470 0.0000
# 4 0.0000 0.0000 0.0000 36.4700 0.0000 0.7279
# 5 0.7315 -1.3253 2.8470 0.0000 41.9012 0.0000
# 6 0.0000 0.0000 0.0000 0.7279 0.0000 39.2473
#
#
#
# Elastic Compliance Matrix: (Units=1/GPa)
#
#
# Indices 1 2 3 4 5 6 
#
# 1 0.016085 -0.009569 0.001508 0.000000 -0.000686 0.000000
# 2 -0.009569 0.019840 -0.005778 0.000000 0.001187 0.000000
# 3 0.001508 -0.005778 0.011771 0.000000 -0.001009 0.000000
# 4 0.000000 0.000000 0.000000 0.027430 0.000000 -0.000509
# 5 -0.000686 0.001187 -0.001009 0.000000 0.023984 0.000000
# 6 0.000000 0.000000 0.000000 -0.000509 0.000000 0.025489
#
#
# Mechanical properties :
#
#
# Convention : Reuss Voigt Hill
#
# Bulk Modulus (GPa) = 49.95754 50.60124 50.27939
# Shear Modulus (GPa) = 31.45647 35.53226 33.49437
#
# Velocity S-wave (km/s) = 3.95714 4.20569 4.08331
# Velocity P-wave (km/s) = 6.76367 6.98376 6.87460
#
# Compressibility (1/GPa) = 0.02001700
#
# Stress axis : x y z
#
# Youngs Moduli (GPa) = 62.16909 50.40321 84.95636
#
# Poissons Ratio (x) = 0.48231 -0.12811
# Poissons Ratio (y) = 0.59490 0.49091
# Poissons Ratio (z) = -0.09375 0.29125
#
# Static dielectric constant tensor:
#      x y z
#    x 3.824900 0.000000 -0.126800 
#    y 0.000000 3.680700 0.000000 
#    z -0.126800 0.000000 3.589430 
# 
# 
# High freq. dielectric constant tensor:
#      x y z
#    x 1.800780 0.000000 -0.001160 
#    y 0.000000 1.790140 0.000000 
#    z -0.001160 0.000000 1.802940 
# 
# From -- ./inp_files/260959.got.cif
#   From: 2010.06.25/outbox.cif.g09.slc.cpg/sg12_131_cif.got.tgz:260959.got - 2010.06.28 00:19:55.
