data_PCOD8108873
_publ_section_title
;
Structure prediction by ZEFSAII (Michael W. Deem and Ramdas Pophale) SiO2 
 PCOD8108873
Probable space group: C 2/M
;
_chemical_formula_sum "Si O2"
_cell_formula_units_Z 40
_cell_length_a 26.026425
_cell_length_b 18.326775
_cell_length_c 8.922039
_cell_angle_alpha 90.000000
_cell_angle_beta 150.993175
_cell_angle_gamma 90.000000
_cell_volume 2063.617617
_symmetry_space_group_name_H-M "C 2/M"
_symmetry_group_IT_number 12
_symmetry_cell_setting 'monoclinic'
loop_
_space_group_symop_operation_xyz
x,y,z
-x,y,-z
-x,-y,-z
x,-y,z
1/2+x,1/2+y,z
1/2-x,1/2+y,-z
1/2-x,1/2-y,-z
1/2+x,1/2-y,z
loop_
_atom_site_type_symbol
_atom_site_label
_atom_site_fract_x
_atom_site_fract_y
_atom_site_fract_z
Si Si1 0.520576 0.309066 0.726399
Si Si2 0.198697 0.086832 0.126367
Si Si3 0.593336 0.155986 0.857305
Si Si4 0.898389 0.415498 0.817908
Si Si5 0.212621 0.828613 0.854359
O O1 0.500000 0.299681 0.500000
O O2 0.577962 0.232131 0.910849
O O3 0.407287 0.322143 0.518801
O O4 0.595375 0.378683 0.943126
O O5 0.293915 0.116502 0.472374
O O6 0.184894 0.000000 0.087850
O O7 0.214897 0.114912 0.998260
O O8 0.500000 0.140985 0.500000
O O9 0.595414 0.094105 0.988300
O O10 0.707368 0.146741 0.070207
O O11 0.898160 0.500000 0.778849
O O12 0.000000 0.377654 0.000000
O O13 0.250000 0.750000 0.000000
#
# Coordination Sequence:
#
# PCOD8108873 Si02
#       5
#     8   8   8   8   8
#     4   9  19  34  56  85 114 149 189 239 290 345
#     4  10  21  39  59  82 119 160 195 238 296 354
#     4  11  20  35  61  83 115 150 194 250 292 342
#     4  10  23  39  56  84 120 158 196 240 298 355
#     4  11  19  36  60  88 118 146 195 248 289 345
#
# _framework density 19.383437000000001
#
# number of rings (size 3 to 8) (size 9 to 14) (size 15 to 20)
#    0.000    1.800    6.000    1.200    0.000    5.600 
#    0.000    1.000    0.000    2.400    0.000    0.000 
#    0.000    0.000    0.000    0.000    0.000    0.000 
#
# Total GULP energy -247874.241756 kJ/mol
# GULP energy per Si atom -12393.712088 kJ/mol
# Density = 1.933932 g / cm^3
# Si number density = 19.383437 Si / 1000 Ang^3
#
#
#
# Elastic Constant Matrix: (Units=GPa)
#
#
# Indices 1 2 3 4 5 6 
#
# 1 118.7199 8.3356 61.5575 0.0000 34.3822 0.0000
# 2 8.3356 52.2013 37.6980 0.0000 9.7191 0.0000
# 3 61.5575 37.6980 112.4403 0.0000 33.7148 0.0000
# 4 0.0000 0.0000 0.0000 29.0464 0.0000 3.0070
# 5 34.3822 9.7191 33.7148 0.0000 41.9091 0.0000
# 6 0.0000 0.0000 0.0000 3.0070 0.0000 14.0494
#
#
#
# Elastic Compliance Matrix: (Units=1/GPa)
#
#
# Indices 1 2 3 4 5 6 
#
# 1 0.013570 0.003956 -0.006777 0.000000 -0.006599 0.000000
# 2 0.003956 0.026480 -0.010845 0.000000 -0.000662 0.000000
# 3 -0.006777 -0.010845 0.018212 0.000000 -0.006576 0.000000
# 4 0.000000 0.000000 0.000000 0.035208 0.000000 -0.007536
# 5 -0.006599 -0.000662 -0.006576 0.000000 0.034718 0.000000
# 6 0.000000 0.000000 0.000000 -0.007536 0.000000 0.072790
#
#
# Mechanical properties :
#
#
# Convention : Reuss Voigt Hill
#
# Bulk Modulus (GPa) = 32.33203 55.39372 43.86287
# Shear Modulus (GPa) = 20.95367 28.71902 24.83635
#
# Velocity S-wave (km/s) = 3.29144 3.85337 3.58343
# Velocity P-wave (km/s) = 5.58222 6.95973 6.30868
#
# Compressibility (1/GPa) = 0.03092909
#
# Stress axis : x y z
#
# Youngs Moduli (GPa) = 73.68968 37.76394 54.90976
#
# Poissons Ratio (x) = -0.14939 0.37213
# Poissons Ratio (y) = -0.29150 0.59552
# Poissons Ratio (z) = 0.49940 0.40956
#
# Static dielectric constant tensor:
#      x y z
#    x 10.124880 0.000000 5.288610 
#    y 0.000000 3.487110 0.000000 
#    z 5.288610 0.000000 7.485110 
# 
# 
# High freq. dielectric constant tensor:
#      x y z
#    x 1.741200 0.000000 0.027650 
#    y 0.000000 1.746730 0.000000 
#    z 0.027650 0.000000 1.757110 
# 
# From -- ./inp_files/61369.got.cif
#   From: 2010.06.25/outbox.cif.g09.slc.cpg/sg12_31_cif.got.tgz:61369.got - 2010.06.28 00:19:55.
