data_PCOD8108897
_publ_section_title
;
Structure prediction by ZEFSAII (Michael W. Deem and Ramdas Pophale) SiO2 
 PCOD8108897
Probable space group: C 2/M
;
_chemical_formula_sum "Si O2"
_cell_formula_units_Z 52
_cell_length_a 20.928304
_cell_length_b 17.197361
_cell_length_c 8.897119
_cell_angle_alpha 90.000000
_cell_angle_beta 55.570383
_cell_angle_gamma 90.000000
_cell_volume 2641.223396
_symmetry_space_group_name_H-M "C 2/M"
_symmetry_group_IT_number 12
_symmetry_cell_setting 'monoclinic'
loop_
_space_group_symop_operation_xyz
x,y,z
-x,y,-z
-x,-y,-z
x,-y,z
1/2+x,1/2+y,z
1/2-x,1/2+y,-z
1/2-x,1/2-y,-z
1/2+x,1/2-y,z
loop_
_atom_site_type_symbol
_atom_site_label
_atom_site_fract_x
_atom_site_fract_y
_atom_site_fract_z
Si Si1 0.539187 0.194997 0.213688
Si Si2 0.829276 0.410026 0.061688
Si Si3 0.273693 0.678171 0.572572
Si Si4 0.638056 0.412323 0.774460
Si Si5 0.000000 0.196172 0.000000
Si Si6 0.615646 0.212891 0.418601
Si Si7 0.265947 0.912571 0.827354
O O1 0.583869 0.116383 0.102707
O O2 0.584237 0.232278 0.294575
O O3 0.450862 0.179899 0.381456
O O4 0.540720 0.253572 0.073555
O O5 0.833197 0.500000 0.108410
O O6 0.770058 0.399547 0.000831
O O7 0.798216 0.352804 0.232870
O O8 0.250000 0.750000 0.500000
O O9 0.299693 0.605278 0.438092
O O10 0.345680 0.707010 0.578144
O O11 0.608580 0.500000 0.796785
O O12 0.566020 0.356795 0.840989
O O13 0.678316 0.399042 0.884243
O O14 0.678597 0.145082 0.335771
O O15 0.293104 0.000000 0.751632
#
# Coordination Sequence:
#
# PCOD8108897 Si02
#       7
#     8   8   8   8   4   8   8
#     4  10  23  38  61  88 122 158 202 243 297 355
#     4  10  23  41  62  90 124 157 198 250 305 359
#     4  12  22  38  62  89 121 155 202 248 301 353
#     4  11  23  39  60  86 120 158 201 251 305 359
#     4  12  23  40  61  86 118 158 208 252 295 354
#     4  10  21  39  59  89 121 161 197 244 296 359
#     4   9  20  38  62  90 117 155 200 246 302 360
#
# _framework density 19.687846
#
# number of rings (size 3 to 8) (size 9 to 14) (size 15 to 20)
#    0.000    1.538    3.077    1.615    2.154    1.846 
#    0.000    3.462    0.000    0.923    0.000    0.000 
#    0.000    0.000    0.000    0.000    0.000    0.000 
#
# Total GULP energy -322371.937440 kJ/mol
# GULP energy per Si atom -12398.920671 kJ/mol
# Density = 1.964304 g / cm^3
# Si number density = 19.687846 Si / 1000 Ang^3
#
#
#
# Elastic Constant Matrix: (Units=GPa)
#
#
# Indices 1 2 3 4 5 6 
#
# 1 73.5649 44.7386 24.9742 0.0000 2.6462 0.0000
# 2 44.7386 103.8146 43.4075 0.0000 7.0675 0.0000
# 3 24.9742 43.4075 97.2046 0.0000 0.7738 0.0000
# 4 0.0000 0.0000 0.0000 23.3248 0.0000 7.5926
# 5 2.6462 7.0675 0.7738 0.0000 25.6004 0.0000
# 6 0.0000 0.0000 0.0000 7.5926 0.0000 24.6180
#
#
#
# Elastic Compliance Matrix: (Units=1/GPa)
#
#
# Indices 1 2 3 4 5 6 
#
# 1 0.018592 -0.007409 -0.001469 0.000000 0.000168 0.000000
# 2 -0.007409 0.015050 -0.004791 0.000000 -0.003244 0.000000
# 3 -0.001469 -0.004791 0.012796 0.000000 0.001088 0.000000
# 4 0.000000 0.000000 0.000000 0.047657 0.000000 -0.014698
# 5 0.000168 -0.003244 0.001088 0.000000 0.039907 0.000000
# 6 0.000000 0.000000 0.000000 -0.014698 0.000000 0.045154
#
#
# Mechanical properties :
#
#
# Convention : Reuss Voigt Hill
#
# Bulk Modulus (GPa) = 52.36102 55.64719 54.00411
# Shear Modulus (GPa) = 23.48937 25.47289 24.48113
#
# Velocity S-wave (km/s) = 3.45786 3.60090 3.53010
# Velocity P-wave (km/s) = 6.52654 6.75387 6.64118
#
# Compressibility (1/GPa) = 0.01909818
#
# Stress axis : x y z
#
# Youngs Moduli (GPa) = 53.78594 66.44645 78.14956
#
# Poissons Ratio (x) = 0.49232 0.11484
# Poissons Ratio (y) = 0.39852 0.37442
# Poissons Ratio (z) = 0.07904 0.31835
#
# Static dielectric constant tensor:
#      x y z
#    x 3.760970 0.000000 0.078560 
#    y 0.000000 3.502810 0.000000 
#    z 0.078560 0.000000 3.546630 
# 
# 
# High freq. dielectric constant tensor:
#      x y z
#    x 1.775270 0.000000 0.006320 
#    y 0.000000 1.761850 0.000000 
#    z 0.006320 0.000000 1.763790 
# 
# From -- ./inp_files/88386.got.cif
#   From: 2010.06.25/outbox.cif.g09.slc.cpg/sg12_45_cif.got.tgz:88386.got - 2010.06.28 00:19:55.
