data_PCOD8108543
_publ_section_title
;
Structure prediction by ZEFSAII (Michael W. Deem and Ramdas Pophale) SiO2 
 PCOD8108543
Probable space group: C 2/M
;
_chemical_formula_sum "Si O2"
_cell_formula_units_Z 56
_cell_length_a 30.907675
_cell_length_b 8.682165
_cell_length_c 11.873870
_cell_angle_alpha 90.000000
_cell_angle_beta 119.291705
_cell_angle_gamma 90.000000
_cell_volume 2778.900033
_symmetry_space_group_name_H-M "C 2/M"
_symmetry_group_IT_number 12
_symmetry_cell_setting 'monoclinic'
loop_
_space_group_symop_operation_xyz
x,y,z
-x,y,-z
-x,-y,-z
x,-y,z
1/2+x,1/2+y,z
1/2-x,1/2+y,-z
1/2-x,1/2-y,-z
1/2+x,1/2-y,z
loop_
_atom_site_type_symbol
_atom_site_label
_atom_site_fract_x
_atom_site_fract_y
_atom_site_fract_z
Si Si1 0.076169 0.680236 0.878262
Si Si2 0.103748 0.680704 0.363704
Si Si3 0.011891 0.317346 0.391261
Si Si4 0.327329 0.677308 0.067304
Si Si5 0.289012 0.318664 0.463690
Si Si6 0.745332 0.321117 0.823729
Si Si7 0.942515 0.821142 0.914241
O O1 0.071184 0.500000 0.897658
O O2 0.124417 0.715299 0.865085
O O3 0.028624 0.743750 0.749511
O O4 0.083618 0.773481 0.003104
O O5 0.113556 0.500000 0.381857
O O6 0.066306 0.733343 0.416426
O O7 0.155409 0.766523 0.441211
O O8 0.079671 0.719827 0.213605
O O9 0.007951 0.500000 0.392200
O O10 0.000000 0.247214 0.500000
O O11 0.342910 0.500000 0.075916
O O12 0.298828 0.711690 0.146116
O O13 0.293450 0.722682 0.917632
O O14 0.287062 0.500000 0.471330
O O15 0.250000 0.250000 0.500000
O O16 0.273241 0.262452 0.320202
O O17 0.760461 0.500000 0.842531
O O18 0.932964 0.000000 0.876578
O O19 0.000000 0.780820 0.000000
#
# Coordination Sequence:
#
# PCOD8108543 Si02
#       7
#     8   8   8   8   8   8   8
#     4  11  22  37  62  91 123 160 201 248 301 363
#     4  11  23  41  66  92 123 163 206 254 309 365
#     4   9  20  38  60  91 127 163 204 247 297 365
#     4  10  21  38  62  91 121 154 200 254 307 361
#     4  11  25  44  64  89 123 162 209 258 309 367
#     4   9  21  42  63  85 119 160 203 252 306 367
#     4  11  23  40  62  87 121 158 201 251 299 356
#
# _framework density 20.151857
#
# number of rings (size 3 to 8) (size 9 to 14) (size 15 to 20)
#    0.000    1.714    1.429    2.143    4.000    2.286 
#    0.000    0.000    0.000    3.429    0.000    0.000 
#    0.000    0.000    0.000    0.000    0.000    0.000 
#
# Total GULP energy -347312.417323 kJ/mol
# GULP energy per Si atom -12404.014904 kJ/mol
# Density = 2.010599 g / cm^3
# Si number density = 20.151857 Si / 1000 Ang^3
#
#
#
# Elastic Constant Matrix: (Units=GPa)
#
#
# Indices 1 2 3 4 5 6 
#
# 1 130.2208 27.4520 60.7088 0.0000 4.6051 0.0000
# 2 27.4520 42.6424 23.6609 0.0000 3.1140 0.0000
# 3 60.7088 23.6609 122.9479 0.0000 -9.8719 0.0000
# 4 0.0000 0.0000 0.0000 19.5029 0.0000 -0.7884
# 5 4.6051 3.1140 -9.8719 0.0000 32.7870 0.0000
# 6 0.0000 0.0000 0.0000 -0.7884 0.0000 32.1723
#
#
#
# Elastic Compliance Matrix: (Units=1/GPa)
#
#
# Indices 1 2 3 4 5 6 
#
# 1 0.010874 -0.004163 -0.004774 0.000000 -0.002569 0.000000
# 2 -0.004163 0.028401 -0.003668 0.000000 -0.003217 0.000000
# 3 -0.004774 -0.003668 0.011558 0.000000 0.004499 0.000000
# 4 0.000000 0.000000 0.000000 0.051325 0.000000 0.001258
# 5 -0.002569 -0.003217 0.004499 0.000000 0.032521 0.000000
# 6 0.000000 0.000000 0.000000 0.001258 0.000000 0.031113
#
#
# Mechanical properties :
#
#
# Convention : Reuss Voigt Hill
#
# Bulk Modulus (GPa) = 39.02993 57.71718 48.37356
# Shear Modulus (GPa) = 25.05700 29.15839 27.10770
#
# Velocity S-wave (km/s) = 3.53003 3.80798 3.67164
# Velocity P-wave (km/s) = 6.00206 6.93092 6.48315
#
# Compressibility (1/GPa) = 0.02562136
#
# Stress axis : x y z
#
# Youngs Moduli (GPa) = 91.96650 35.20942 86.51958
#
# Poissons Ratio (x) = 0.14659 0.41306
# Poissons Ratio (y) = 0.38290 0.31738
# Poissons Ratio (z) = 0.43906 0.12916
#
# Static dielectric constant tensor:
#      x y z
#    x 3.784530 0.000000 -0.058850 
#    y 0.000000 3.514920 0.000000 
#    z -0.058850 0.000000 3.774790 
# 
# 
# High freq. dielectric constant tensor:
#      x y z
#    x 1.799830 0.000000 -0.001510 
#    y 0.000000 1.778140 0.000000 
#    z -0.001510 0.000000 1.791990 
# 
# From -- ./inp_files/187710.got.cif
#   From: 2010.06.25/outbox.cif.g09.slc.cpg/sg12_94_cif.got.tgz:187710.got - 2010.06.28 00:19:55.
