data_PCOD8108496
_publ_section_title
;
Structure prediction by ZEFSAII (Michael W. Deem and Ramdas Pophale) SiO2 
 PCOD8108496
Probable space group: C 2/M
;
_chemical_formula_sum "Si O2"
_cell_formula_units_Z 64
_cell_length_a 30.627041
_cell_length_b 13.642793
_cell_length_c 21.746678
_cell_angle_alpha 90.000000
_cell_angle_beta 161.104460
_cell_angle_gamma 90.000000
_cell_volume 2942.637759
_symmetry_space_group_name_H-M "C 2/M"
_symmetry_group_IT_number 12
_symmetry_cell_setting 'monoclinic'
loop_
_space_group_symop_operation_xyz
x,y,z
-x,y,-z
-x,-y,-z
x,-y,z
1/2+x,1/2+y,z
1/2-x,1/2+y,-z
1/2-x,1/2-y,-z
1/2+x,1/2-y,z
loop_
_atom_site_type_symbol
_atom_site_label
_atom_site_fract_x
_atom_site_fract_y
_atom_site_fract_z
Si Si1 0.922434 0.115040 0.587601
Si Si2 0.293428 0.383277 0.080667
Si Si3 0.881200 0.616518 0.262632
Si Si4 0.169981 0.390348 0.167909
Si Si5 0.595797 0.728064 0.309492
Si Si6 0.320981 0.884431 0.317101
Si Si7 0.371244 0.888778 0.023279
Si Si8 0.948695 0.195766 0.994379
O O1 0.795109 0.142572 0.376347
O O2 0.912209 0.162521 0.640831
O O3 0.053796 0.153008 0.725602
O O4 0.932188 0.000000 0.612144
O O5 0.287422 0.500000 0.069094
O O6 0.201535 0.336417 0.903872
O O7 0.233264 0.346916 0.065349
O O8 0.875919 0.500000 0.253816
O O9 0.813388 0.650860 0.236136
O O10 0.036580 0.649294 0.464656
O O11 0.120166 0.500000 0.118934
O O12 0.047705 0.313532 0.013075
O O13 0.210763 0.386169 0.150091
O O14 0.750000 0.750000 0.500000
O O15 0.509031 0.826347 0.204570
O O16 0.537234 0.668471 0.172167
O O17 0.206067 0.832191 0.202590
O O18 0.300629 0.000000 0.294920
O O19 0.415900 0.000000 0.098941
O O20 0.000000 0.143340 0.000000
#
# Coordination Sequence:
#
# PCOD8108496 Si02
#       8
#     8   8   8   8   8   8   8   8
#     4  10  21  38  62  89 117 151 190 236 287 338
#     4   9  17  31  55  87 118 146 181 230 287 342
#     4   8  15  30  53  79 111 153 193 224 259 324
#     4   9  20  40  61  81 110 152 198 237 277 330
#     4  11  24  40  58  83 114 149 193 242 289 339
#     4   9  18  34  55  80 113 153 192 226 270 334
#     4   9  20  39  61  86 117 152 189 232 285 343
#     4  11  23  38  57  82 113 148 189 239 288 338
#
# _framework density 21.749193999999999
#
# number of rings (size 3 to 8) (size 9 to 14) (size 15 to 20)
#    0.000    2.500    0.000    2.250    0.000    5.500 
#    0.000   10.000    0.000    0.000    0.000    0.000 
#    0.000    0.000    0.000    0.000    0.000    0.000 
#
# Total GULP energy -396686.959417 kJ/mol
# GULP energy per Si atom -12396.467482 kJ/mol
# Density = 2.169969 g / cm^3
# Si number density = 21.749194 Si / 1000 Ang^3
#
#
#
# Elastic Constant Matrix: (Units=GPa)
#
#
# Indices 1 2 3 4 5 6 
#
# 1 156.4940 23.1349 66.3269 -0.0001 4.2904 -0.0001
# 2 23.1349 37.4362 18.0070 0.0000 -4.4082 0.0000
# 3 66.3269 18.0070 109.1405 -0.0001 -9.5759 -0.0001
# 4 -0.0001 0.0000 -0.0001 25.9197 -0.0001 -5.2612
# 5 4.2904 -4.4082 -9.5759 -0.0001 45.0380 -0.0001
# 6 -0.0001 0.0000 -0.0001 -5.2612 -0.0001 22.1797
#
#
#
# Elastic Compliance Matrix: (Units=1/GPa)
#
#
# Indices 1 2 3 4 5 6 
#
# 1 0.009169 -0.003433 -0.005209 0.000000 -0.002317 0.000000
# 2 -0.003433 0.030454 -0.002698 0.000000 0.002734 0.000000
# 3 -0.005209 -0.002698 0.013037 0.000000 0.003004 0.000000
# 4 0.000000 0.000000 0.000000 0.040532 0.000000 0.009615
# 5 -0.002317 0.002734 0.003004 0.000000 0.023331 0.000000
# 6 0.000000 0.000000 0.000000 0.009615 0.000000 0.047367
#
#
# Mechanical properties :
#
#
# Convention : Reuss Voigt Hill
#
# Bulk Modulus (GPa) = 33.35733 57.55648 45.45690
# Shear Modulus (GPa) = 25.43722 31.66761 28.55241
#
# Velocity S-wave (km/s) = 3.42361 3.81994 3.62719
# Velocity P-wave (km/s) = 5.56765 6.78064 6.20386
#
# Compressibility (1/GPa) = 0.02997842
#
# Stress axis : x y z
#
# Youngs Moduli (GPa) = 109.06557 32.83680 76.70627
#
# Poissons Ratio (x) = 0.11274 0.39955
# Poissons Ratio (y) = 0.37448 0.20696
# Poissons Ratio (z) = 0.56811 0.08859
#
# Static dielectric constant tensor:
#      x y z
#    x 4.122250 0.000000 -0.175760 
#    y 0.000000 3.833900 0.000000 
#    z -0.175760 0.000000 3.966090 
# 
# 
# High freq. dielectric constant tensor:
#      x y z
#    x 1.865220 0.000000 -0.007800 
#    y 0.000000 1.848570 0.000000 
#    z -0.007800 0.000000 1.849830 
# 
# From -- ./inp_files/330413.got.cif
#   From: 2010.06.25/outbox.cif.g09.slc.cpg/sg12_166_cif.got.tgz:330413.got - 2010.06.28 00:19:55.
