data_PCOD8108437
_publ_section_title
;
Structure prediction by ZEFSAII (Michael W. Deem and Ramdas Pophale) SiO2 
 PCOD8108437
Probable space group: C 2/M
;
_chemical_formula_sum "Si O2"
_cell_formula_units_Z 56
_cell_length_a 29.257529
_cell_length_b 7.681699
_cell_length_c 14.028425
_cell_angle_alpha 90.000000
_cell_angle_beta 123.617243
_cell_angle_gamma 90.000000
_cell_volume 2625.553770
_symmetry_space_group_name_H-M "C 2/M"
_symmetry_group_IT_number 12
_symmetry_cell_setting 'monoclinic'
loop_
_space_group_symop_operation_xyz
x,y,z
-x,y,-z
-x,-y,-z
x,-y,z
1/2+x,1/2+y,z
1/2-x,1/2+y,-z
1/2-x,1/2-y,-z
1/2+x,1/2-y,z
loop_
_atom_site_type_symbol
_atom_site_label
_atom_site_fract_x
_atom_site_fract_y
_atom_site_fract_z
Si Si1 0.674356 0.792012 0.667492
Si Si2 0.394445 0.795622 0.779223
Si Si3 0.589871 0.500000 0.598039
Si Si4 0.500219 0.500000 0.655988
Si Si5 0.269862 0.703176 0.918118
Si Si6 0.308682 0.203125 0.527458
Si Si7 0.505351 0.804997 0.809357
Si Si8 0.115719 0.197802 0.022397
O O1 0.623718 0.679242 0.647451
O O2 0.726232 0.731744 0.790164
O O3 0.685617 0.726251 0.573127
O O4 0.662219 0.000000 0.662079
O O5 0.355786 0.718976 0.650458
O O6 0.457377 0.750344 0.827132
O O7 0.377172 0.699745 0.855720
O O8 0.385257 0.000000 0.783077
O O9 0.548333 0.500000 0.636282
O O10 0.559034 0.500000 0.461453
O O11 0.506395 0.675104 0.722937
O O12 0.276068 0.500000 0.913621
O O13 0.330052 0.782277 0.964530
O O14 0.250000 0.750000 0.000000
O O15 0.250000 0.250000 0.500000
O O16 0.316954 0.000000 0.532521
O O17 0.493809 0.000000 0.757031
O O18 0.562851 0.808125 0.931439
O O19 0.106758 0.000000 0.977496
#
# Coordination Sequence:
#
# PCOD8108437 Si02
#       8
#     8   8   4   4   8   8   8   8
#     4  10  23  44  66  95 131 172 220 267 331 393
#     4  10  22  39  61  92 128 170 216 261 325 397
#     4  11  26  44  72  94 132 174 217 286 322 389
#     4  11  26  46  65 102 130 168 231 268 334 391
#     4  10  24  41  63  93 130 170 216 270 327 388
#     4  10  21  38  61  91 129 168 216 272 325 392
#     4  11  24  43  68  94 133 174 218 271 328 391
#     4  11  23  40  63  95 133 171 218 273 323 391
#
# _framework density 21.328832999999999
#
# number of rings (size 3 to 8) (size 9 to 14) (size 15 to 20)
#    0.000    1.571    0.714    2.571    5.000    6.857 
#    0.000    1.429    0.000    0.000    0.000    0.000 
#    0.000    0.000    0.000    0.000    0.000    0.000 
#
# Total GULP energy -347255.400249 kJ/mol
# GULP energy per Si atom -12401.978580 kJ/mol
# Density = 2.128029 g / cm^3
# Si number density = 21.328833 Si / 1000 Ang^3
#
#
#
# Elastic Constant Matrix: (Units=GPa)
#
#
# Indices 1 2 3 4 5 6 
#
# 1 159.2072 26.0972 79.7700 0.0000 14.5835 0.0000
# 2 26.0972 66.0879 25.2338 0.0000 1.7681 0.0000
# 3 79.7700 25.2338 135.2135 0.0000 5.0645 0.0000
# 4 0.0000 0.0000 0.0000 29.2324 0.0000 -1.9951
# 5 14.5835 1.7681 5.0645 0.0000 40.6999 0.0000
# 6 0.0000 0.0000 0.0000 -1.9951 0.0000 33.5979
#
#
#
# Elastic Compliance Matrix: (Units=1/GPa)
#
#
# Indices 1 2 3 4 5 6 
#
# 1 0.009358 -0.001674 -0.005109 0.000000 -0.002645 0.000000
# 2 -0.001674 0.016596 -0.002115 0.000000 0.000142 0.000000
# 3 -0.005109 -0.002115 0.010783 0.000000 0.000581 0.000000
# 4 0.000000 0.000000 0.000000 0.034348 0.000000 0.002040
# 5 -0.002645 0.000142 0.000581 0.000000 0.025439 0.000000
# 6 0.000000 0.000000 0.000000 0.002040 0.000000 0.029885
#
#
# Mechanical properties :
#
#
# Convention : Reuss Voigt Hill
#
# Bulk Modulus (GPa) = 52.79652 69.19009 60.99331
# Shear Modulus (GPa) = 33.21859 35.99987 34.60923
#
# Velocity S-wave (km/s) = 3.95074 4.11280 4.03258
# Velocity P-wave (km/s) = 6.75414 7.42049 7.09514
#
# Compressibility (1/GPa) = 0.01894064
#
# Stress axis : x y z
#
# Youngs Moduli (GPa) = 106.86439 60.25523 92.73941
#
# Poissons Ratio (x) = 0.10085 0.47383
# Poissons Ratio (y) = 0.17885 0.19616
# Poissons Ratio (z) = 0.54599 0.12745
#
# Static dielectric constant tensor:
#      x y z
#    x 3.923700 0.000000 0.164160 
#    y 0.000000 4.186220 0.000000 
#    z 0.164160 0.000000 4.075060 
# 
# 
# High freq. dielectric constant tensor:
#      x y z
#    x 1.846060 0.000000 0.006390 
#    y 0.000000 1.833670 0.000000 
#    z 0.006390 0.000000 1.846440 
# 
# From -- ./inp_files/187802.got.cif
#   From: 2010.06.25/outbox.cif.g09.slc.cpg/sg12_94_cif.got.tgz:187802.got - 2010.06.28 00:19:55.
