data_PCOD8108435
_publ_section_title
;
Structure prediction by ZEFSAII (Michael W. Deem and Ramdas Pophale) SiO2 
 PCOD8108435
Probable space group: C 2/M
;
_chemical_formula_sum "Si O2"
_cell_formula_units_Z 56
_cell_length_a 8.168512
_cell_length_b 19.043175
_cell_length_c 26.012629
_cell_angle_alpha 90.000000
_cell_angle_beta 44.069360
_cell_angle_gamma 90.000000
_cell_volume 2814.372577
_symmetry_space_group_name_H-M "C 2/M"
_symmetry_group_IT_number 12
_symmetry_cell_setting 'monoclinic'
loop_
_space_group_symop_operation_xyz
x,y,z
-x,y,-z
-x,-y,-z
x,-y,z
1/2+x,1/2+y,z
1/2-x,1/2+y,-z
1/2-x,1/2-y,-z
1/2+x,1/2-y,z
loop_
_atom_site_type_symbol
_atom_site_label
_atom_site_fract_x
_atom_site_fract_y
_atom_site_fract_z
Si Si1 0.131830 0.175886 0.805811
Si Si2 0.706595 0.917929 0.318841
Si Si3 0.827726 0.916770 0.582312
Si Si4 0.049984 0.918329 0.330638
Si Si5 0.227725 0.677371 0.976574
Si Si6 0.482327 0.168108 0.202638
Si Si7 0.275493 0.077200 0.935076
O O1 0.123355 0.123904 0.758766
O O2 0.395080 0.170726 0.769379
O O3 0.076541 0.254262 0.801576
O O4 0.942788 0.154159 0.891428
O O5 0.437844 0.890872 0.371407
O O6 0.800787 0.905091 0.356639
O O7 0.725189 0.000000 0.300873
O O8 0.936621 0.892117 0.612889
O O9 0.000000 0.885071 0.500000
O O10 0.829088 0.000000 0.579586
O O11 0.245616 0.876479 0.255476
O O12 0.115089 0.000000 0.314201
O O13 0.250000 0.750000 0.000000
O O14 0.149125 0.611449 0.028653
O O15 0.000000 0.699540 0.000000
O O16 0.663112 0.130408 0.124039
O O17 0.393025 0.000000 0.901387
O O18 0.000000 0.069209 0.000000
#
# Coordination Sequence:
#
# PCOD8108435 Si02
#       7
#     8   8   8   8   8   8   8
#     4  12  24  38  63  88 118 165 208 261 312 369
#     4  10  22  39  60  95 130 161 209 257 307 373
#     4   9  18  36  64  96 128 164 204 249 305 368
#     4  10  21  38  61  91 129 164 200 256 309 360
#     4  12  24  41  61  84 120 157 209 263 315 367
#     4  12  23  39  60  88 117 159 211 256 309 376
#     4  11  24  41  60  85 116 156 202 254 317 372
#
# _framework density 19.897862
#
# number of rings (size 3 to 8) (size 9 to 14) (size 15 to 20)
#    0.000    1.143    4.286    2.571    2.000    2.000 
#    0.000    2.857    0.000    0.857    0.000    0.000 
#    0.000    0.000    0.000    0.000    0.000    0.000 
#
# Total GULP energy -346959.584315 kJ/mol
# GULP energy per Si atom -12391.413726 kJ/mol
# Density = 1.985257 g / cm^3
# Si number density = 19.897862 Si / 1000 Ang^3
#
#
#
# Elastic Constant Matrix: (Units=GPa)
#
#
# Indices 1 2 3 4 5 6 
#
# 1 158.6150 44.3247 44.7240 0.0064 9.2340 0.0004
# 2 44.3247 94.9880 37.2981 -0.0230 6.0261 0.0069
# 3 44.7240 37.2981 99.7089 -0.0681 10.3847 0.0145
# 4 0.0064 -0.0230 -0.0681 26.9589 0.0125 1.1530
# 5 9.2340 6.0261 10.3847 0.0125 28.1530 0.0014
# 6 0.0004 0.0069 0.0145 1.1530 0.0014 25.4216
#
#
#
# Elastic Compliance Matrix: (Units=1/GPa)
#
#
# Indices 1 2 3 4 5 6 
#
# 1 0.007775 -0.002618 -0.002393 -0.000010 -0.001107 0.000002
# 2 -0.002618 0.013248 -0.003718 0.000003 -0.000605 -0.000002
# 3 -0.002393 -0.003718 0.012821 0.000032 -0.003149 -0.000008
# 4 -0.000010 0.000003 0.000032 0.037166 -0.000025 -0.001686
# 5 -0.001107 -0.000605 -0.003149 -0.000025 0.037174 0.000001
# 6 0.000002 -0.000002 -0.000008 -0.001686 0.000001 0.039413
#
#
# Mechanical properties :
#
#
# Convention : Reuss Voigt Hill
#
# Bulk Modulus (GPa) = 61.02845 67.33394 64.18119
# Shear Modulus (GPa) = 29.32234 31.23772 30.28003
#
# Velocity S-wave (km/s) = 3.84297 3.96650 3.90522
# Velocity P-wave (km/s) = 7.10131 7.40883 7.25670
#
# Compressibility (1/GPa) = 0.01638580
#
# Stress axis : x y z
#
# Youngs Moduli (GPa) = 128.60968 75.48390 77.99538
#
# Poissons Ratio (x) = 0.19765 0.18663
# Poissons Ratio (y) = 0.33676 0.28999
# Poissons Ratio (z) = 0.30774 0.28065
#
# Static dielectric constant tensor:
#      x y z
#    x 3.622770 0.000400 0.127020 
#    y 0.000400 3.085300 -0.000720 
#    z 0.127020 -0.000720 3.655940 
# 
# 
# High freq. dielectric constant tensor:
#      x y z
#    x 1.796630 0.000000 0.004370 
#    y 0.000000 1.763260 0.000000 
#    z 0.004370 0.000000 1.760770 
# 
# From -- ./inp_files/356672.got.cif
#   From: 2010.06.25/outbox.cif.g09.slc.cpg/sg12_179_cif.got.tgz:356672.got - 2010.06.28 00:19:55.
