data_PCOD8108144
_publ_section_title
;
Structure prediction by ZEFSAII (Michael W. Deem and Ramdas Pophale) SiO2 
 PCOD8108144
Probable space group: C 2/M
;
_chemical_formula_sum "Si O2"
_cell_formula_units_Z 56
_cell_length_a 15.060313
_cell_length_b 8.769472
_cell_length_c 21.649185
_cell_angle_alpha 90.000000
_cell_angle_beta 100.695097
_cell_angle_gamma 90.000000
_cell_volume 2809.560779
_symmetry_space_group_name_H-M "C 2/M"
_symmetry_group_IT_number 12
_symmetry_cell_setting 'monoclinic'
loop_
_space_group_symop_operation_xyz
x,y,z
-x,y,-z
-x,-y,-z
x,-y,z
1/2+x,1/2+y,z
1/2-x,1/2+y,-z
1/2-x,1/2-y,-z
1/2+x,1/2-y,z
loop_
_atom_site_type_symbol
_atom_site_label
_atom_site_fract_x
_atom_site_fract_y
_atom_site_fract_z
Si Si1 0.278782 0.178576 0.090157
Si Si2 0.938463 0.827117 0.435504
Si Si3 0.742686 0.178135 0.566040
Si Si4 0.158884 0.679762 0.309648
Si Si5 0.398741 0.680290 0.004763
Si Si6 0.203526 0.679710 0.765545
Si Si7 0.978673 0.174472 0.303411
O O1 0.178559 0.231097 0.054583
O O2 0.286764 0.225759 0.162092
O O3 0.290170 0.000000 0.081079
O O4 0.362832 0.257362 0.065717
O O5 0.855392 0.712095 0.418708
O O6 0.000000 0.771840 0.500000
O O7 0.993591 0.818653 0.379172
O O8 0.903434 0.000000 0.442881
O O9 0.750000 0.250000 0.500000
O O10 0.815654 0.249235 0.621188
O O11 0.760941 0.000000 0.564112
O O12 0.166347 0.500000 0.315669
O O13 0.218051 0.737533 0.261066
O O14 0.058386 0.734135 0.280576
O O15 0.405501 0.500000 0.010485
O O16 0.500000 0.743777 0.000000
O O17 0.211123 0.500000 0.755897
O O18 0.110848 0.740103 0.727144
O O19 0.976284 0.000000 0.280074
#
# Coordination Sequence:
#
# PCOD8108144 Si02
#       7
#     8   8   8   8   8   8   8
#     4   9  20  37  58  88 124 162 203 252 305 358
#     4  10  21  38  60  86 117 150 194 251 314 376
#     4  12  24  39  61  87 119 155 200 254 313 374
#     4  12  25  42  63  89 122 160 207 256 311 376
#     4   9  18  35  60  90 124 162 206 252 298 354
#     4  11  23  41  62  88 127 168 210 257 309 371
#     4  11  23  40  63  89 120 158 203 256 314 374
#
# _framework density 19.931940000000001
#
# number of rings (size 3 to 8) (size 9 to 14) (size 15 to 20)
#    0.000    1.429    1.429    4.286    0.000    4.571 
#    0.000    1.429    0.000    0.000    0.000    0.000 
#    0.000    0.000    0.000    0.000    0.000    0.000 
#
# Total GULP energy -347244.722484 kJ/mol
# GULP energy per Si atom -12401.597232 kJ/mol
# Density = 1.988657 g / cm^3
# Si number density = 19.931940 Si / 1000 Ang^3
#
#
#
# Elastic Constant Matrix: (Units=GPa)
#
#
# Indices 1 2 3 4 5 6 
#
# 1 140.0453 33.8200 41.1724 0.0000 -23.4959 0.0000
# 2 33.8200 106.0233 41.5623 0.0000 -16.8650 0.0000
# 3 41.1724 41.5623 114.0622 0.0000 -13.6758 0.0000
# 4 0.0000 0.0000 0.0000 30.5404 0.0000 -4.9587
# 5 -23.4959 -16.8650 -13.6758 0.0000 22.9336 0.0000
# 6 0.0000 0.0000 0.0000 -4.9587 0.0000 32.8567
#
#
#
# Elastic Compliance Matrix: (Units=1/GPa)
#
#
# Indices 1 2 3 4 5 6 
#
# 1 0.009246 -0.000929 -0.002095 0.000000 0.007540 0.000000
# 2 -0.000929 0.011963 -0.003321 0.000000 0.005866 0.000000
# 3 -0.002095 -0.003321 0.010967 0.000000 0.001952 0.000000
# 4 0.000000 0.000000 0.000000 0.033566 0.000000 0.005066
# 5 0.007540 0.005866 0.001952 0.000000 0.056807 0.000000
# 6 0.000000 0.000000 0.000000 0.005066 0.000000 0.031200
#
#
# Mechanical properties :
#
#
# Convention : Reuss Voigt Hill
#
# Bulk Modulus (GPa) = 51.31448 65.91559 58.61503
# Shear Modulus (GPa) = 28.91302 33.50457 31.20879
#
# Velocity S-wave (km/s) = 3.81279 4.10439 3.96127
# Velocity P-wave (km/s) = 6.72190 7.45677 7.09885
#
# Compressibility (1/GPa) = 0.01948768
#
# Stress axis : x y z
#
# Youngs Moduli (GPa) = 108.15763 83.59199 91.17985
#
# Poissons Ratio (x) = 0.07762 0.19102
# Poissons Ratio (y) = 0.10044 0.30277
# Poissons Ratio (z) = 0.22659 0.27757
#
# Static dielectric constant tensor:
#      x y z
#    x 3.656850 0.000000 0.135440 
#    y 0.000000 3.701260 0.000000 
#    z 0.135440 0.000000 3.574040 
# 
# 
# High freq. dielectric constant tensor:
#      x y z
#    x 1.788330 0.000000 -0.002780 
#    y 0.000000 1.779460 0.000000 
#    z -0.002780 0.000000 1.776340 
# 
# From -- ./inp_files/308934.got.cif
#   From: 2010.06.25/outbox.cif.g09.slc.cpg/sg12_155_cif.got.tgz:308934.got - 2010.06.28 00:19:55.
