data_PCOD8108189
_publ_section_title
;
Structure prediction by ZEFSAII (Michael W. Deem and Ramdas Pophale) SiO2 
 PCOD8108189
Probable space group: C 2/M
;
_chemical_formula_sum "Si O2"
_cell_formula_units_Z 64
_cell_length_a 18.676802
_cell_length_b 14.090859
_cell_length_c 19.659690
_cell_angle_alpha 90.000000
_cell_angle_beta 41.730133
_cell_angle_gamma 90.000000
_cell_volume 3443.855549
_symmetry_space_group_name_H-M "C 2/M"
_symmetry_group_IT_number 12
_symmetry_cell_setting 'monoclinic'
loop_
_space_group_symop_operation_xyz
x,y,z
-x,y,-z
-x,-y,-z
x,-y,z
1/2+x,1/2+y,z
1/2-x,1/2+y,-z
1/2-x,1/2-y,-z
1/2+x,1/2-y,z
loop_
_atom_site_type_symbol
_atom_site_label
_atom_site_fract_x
_atom_site_fract_y
_atom_site_fract_z
Si Si1 0.481890 0.890786 0.709455
Si Si2 0.554413 0.109148 0.811805
Si Si3 0.355163 0.248034 0.471143
Si Si4 0.070261 0.752918 0.015712
Si Si5 0.726706 0.736364 0.693724
Si Si6 0.525702 0.391169 0.812317
Si Si7 0.199462 0.258249 0.209206
Si Si8 0.526553 0.391458 0.306326
O O1 0.509802 0.876581 0.768121
O O2 0.573169 0.842466 0.598953
O O3 0.367093 0.842894 0.778026
O O4 0.475736 0.000000 0.692776
O O5 0.469209 0.153517 0.924699
O O6 0.668604 0.161506 0.737828
O O7 0.571859 0.000000 0.818483
O O8 0.250000 0.250000 0.500000
O O9 0.324825 0.239546 0.571573
O O10 0.420429 0.345129 0.414165
O O11 0.055558 0.838303 0.079432
O O12 0.194334 0.741821 0.910052
O O13 0.000000 0.778919 0.000000
O O14 0.643118 0.655646 0.730389
O O15 0.773650 0.710155 0.733570
O O16 0.536247 0.500000 0.827333
O O17 0.476675 0.381131 0.772390
O O18 0.133004 0.160504 0.257790
O O19 0.530735 0.500000 0.327147
#
# Coordination Sequence:
#
# PCOD8108189 Si02
#       8
#     8   8   8   8   8   8   8   8
#     4  10  23  40  59  89 121 153 193 240 293 350
#     4  10  21  38  60  88 117 148 198 244 285 347
#     4  11  19  37  67  87 115 155 198 241 287 342
#     4  11  21  39  60  88 116 155 196 239 295 344
#     4  11  21  38  59  91 116 154 194 243 293 336
#     4  10  21  38  60  88 117 148 198 244 285 347
#     4  11  23  40  58  82 125 156 187 244 297 349
#     4  10  23  40  59  89 121 153 193 240 293 350
#
# _framework density 18.583822999999999
#
# number of rings (size 3 to 8) (size 9 to 14) (size 15 to 20)
#    0.000    1.500    5.000    2.250    0.000    8.000 
#    0.000    3.750    0.000    0.000    0.000    0.000 
#    0.000    0.000    0.000    0.000    0.000    0.000 
#
# Total GULP energy -396943.659174 kJ/mol
# GULP energy per Si atom -12404.489349 kJ/mol
# Density = 1.854153 g / cm^3
# Si number density = 18.583823 Si / 1000 Ang^3
#
#
#
# Elastic Constant Matrix: (Units=GPa)
#
#
# Indices 1 2 3 4 5 6 
#
# 1 52.7945 9.7929 19.0367 0.0000 -10.2334 0.0000
# 2 9.7929 107.3965 25.6852 0.0000 -8.1772 0.0000
# 3 19.0367 25.6852 132.4475 0.0000 -7.6428 0.0000
# 4 0.0000 0.0000 0.0000 15.4463 0.0000 1.3781
# 5 -10.2334 -8.1772 -7.6428 0.0000 35.1594 0.0000
# 6 0.0000 0.0000 0.0000 1.3781 0.0000 12.0204
#
#
#
# Elastic Compliance Matrix: (Units=1/GPa)
#
#
# Indices 1 2 3 4 5 6 
#
# 1 0.021067 -0.000904 -0.002543 0.000000 0.005369 0.000000
# 2 -0.000904 0.009928 -0.001699 0.000000 0.001677 0.000000
# 3 -0.002543 -0.001699 0.008283 0.000000 0.000665 0.000000
# 4 0.000000 0.000000 0.000000 0.065409 0.000000 -0.007499
# 5 0.005369 0.001677 0.000665 0.000000 0.030539 0.000000
# 6 0.000000 0.000000 0.000000 -0.007499 0.000000 0.084052
#
#
# Mechanical properties :
#
#
# Convention : Reuss Voigt Hill
#
# Bulk Modulus (GPa) = 34.49843 44.62978 39.56411
# Shear Modulus (GPa) = 20.90031 28.40013 24.65022
#
# Velocity S-wave (km/s) = 3.35722 3.91348 3.64598
# Velocity P-wave (km/s) = 5.79930 6.66993 6.24980
#
# Compressibility (1/GPa) = 0.02898683
#
# Stress axis : x y z
#
# Youngs Moduli (GPa) = 47.46860 100.72914 120.72294
#
# Poissons Ratio (x) = 0.09106 0.30697
# Poissons Ratio (y) = 0.04291 0.20505
# Poissons Ratio (z) = 0.12070 0.17109
#
# Static dielectric constant tensor:
#      x y z
#    x 3.437760 0.000000 0.025970 
#    y 0.000000 4.007300 0.000000 
#    z 0.025970 0.000000 3.579170 
# 
# 
# High freq. dielectric constant tensor:
#      x y z
#    x 1.724310 0.000000 0.003660 
#    y 0.000000 1.723780 0.000000 
#    z 0.003660 0.000000 1.728300 
# 
# From -- ./inp_files/270670.got.cif
#   From: 2010.06.25/outbox.cif.g09.slc.cpg/sg12_136_cif.got.tgz:270670.got - 2010.06.28 00:19:55.
