data_PCOD8108022
_publ_section_title
;
Structure prediction by ZEFSAII (Michael W. Deem and Ramdas Pophale) SiO2 
 PCOD8108022
Probable space group: C 2/M
;
_chemical_formula_sum "Si O2"
_cell_formula_units_Z 48
_cell_length_a 15.702962
_cell_length_b 8.956994
_cell_length_c 16.789977
_cell_angle_alpha 90.000000
_cell_angle_beta 90.473234
_cell_angle_gamma 90.000000
_cell_volume 2361.452153
_symmetry_space_group_name_H-M "C 2/M"
_symmetry_group_IT_number 12
_symmetry_cell_setting 'monoclinic'
loop_
_space_group_symop_operation_xyz
x,y,z
-x,y,-z
-x,-y,-z
x,-y,z
1/2+x,1/2+y,z
1/2-x,1/2+y,-z
1/2-x,1/2-y,-z
1/2+x,1/2-y,z
loop_
_atom_site_type_symbol
_atom_site_label
_atom_site_fract_x
_atom_site_fract_y
_atom_site_fract_z
Si Si1 0.098189 0.667714 0.653777
Si Si2 0.596194 0.169324 0.347889
Si Si3 0.838676 0.328231 0.175805
Si Si4 0.149763 0.174359 0.194958
Si Si5 0.341142 0.675859 0.498393
Si Si6 0.991264 0.823082 0.089349
O O1 0.120930 0.500000 0.624095
O O2 0.153638 0.712083 0.730770
O O3 0.114216 0.785310 0.584305
O O4 0.000933 0.675766 0.681054
O O5 0.652802 0.240473 0.278915
O O6 0.602985 0.261481 0.429165
O O7 0.627050 0.000000 0.363101
O O8 0.863680 0.500000 0.161825
O O9 0.740145 0.296902 0.151247
O O10 0.901390 0.229376 0.123698
O O11 0.072671 0.236182 0.139896
O O12 0.137804 0.000000 0.213360
O O13 0.333050 0.500000 0.506975
O O14 0.250000 0.750000 0.500000
O O15 0.991073 0.000000 0.089698
O O16 0.000000 0.760511 0.000000
#
# Coordination Sequence:
#
# PCOD8108022 Si02
#       6
#     8   8   8   8   8   8
#     4  10  21  38  59  85 120 157 199 253 308 360
#     4  11  22  38  61  88 119 157 202 251 305 362
#     4  10  21  39  62  89 119 158 203 250 303 363
#     4  10  21  38  62  89 122 163 206 250 304 367
#     4  12  25  39  57  84 119 160 207 253 301 356
#     4  10  22  40  61  89 125 160 198 250 307 365
#
# _framework density 20.326477000000001
#
# number of rings (size 3 to 8) (size 9 to 14) (size 15 to 20)
#    0.000    1.500    1.667    3.500    0.000    7.000 
#    0.000    0.000    0.000    0.000    0.000    0.000 
#    0.000    0.000    0.000    0.000    0.000    0.000 
#
# Total GULP energy -297688.149580 kJ/mol
# GULP energy per Si atom -12403.672899 kJ/mol
# Density = 2.028021 g / cm^3
# Si number density = 20.326477 Si / 1000 Ang^3
#
#
#
# Elastic Constant Matrix: (Units=GPa)
#
#
# Indices 1 2 3 4 5 6 
#
# 1 106.9105 28.8981 39.1092 0.0000 -9.1535 0.0000
# 2 28.8981 88.4070 38.0720 0.0000 -4.0386 0.0000
# 3 39.1092 38.0720 105.3121 0.0000 -6.6960 0.0000
# 4 0.0000 0.0000 0.0000 29.1828 0.0000 -7.4122
# 5 -9.1535 -4.0386 -6.6960 0.0000 22.1278 0.0000
# 6 0.0000 0.0000 0.0000 -7.4122 0.0000 32.9452
#
#
#
# Elastic Compliance Matrix: (Units=1/GPa)
#
#
# Indices 1 2 3 4 5 6 
#
# 1 0.011414 -0.002185 -0.003237 0.000000 0.003344 0.000000
# 2 -0.002185 0.013837 -0.004168 0.000000 0.000360 0.000000
# 3 -0.003237 -0.004168 0.012308 0.000000 0.001625 0.000000
# 4 0.000000 0.000000 0.000000 0.036344 0.000000 0.008177
# 5 0.003344 0.000360 0.001625 0.000000 0.047133 0.000000
# 6 0.000000 0.000000 0.000000 0.008177 0.000000 0.032193
#
#
# Mechanical properties :
#
#
# Convention : Reuss Voigt Hill
#
# Bulk Modulus (GPa) = 54.40537 56.97647 55.69092
# Shear Modulus (GPa) = 28.00600 29.82118 28.91359
#
# Velocity S-wave (km/s) = 3.71591 3.83444 3.77564
# Velocity P-wave (km/s) = 6.72566 6.90619 6.81652
#
# Compressibility (1/GPa) = 0.01838054
#
# Stress axis : x y z
#
# Youngs Moduli (GPa) = 87.60910 72.27097 81.25033
#
# Poissons Ratio (x) = 0.15788 0.26297
# Poissons Ratio (y) = 0.19139 0.33866
# Poissons Ratio (z) = 0.28355 0.30123
#
# Static dielectric constant tensor:
#      x y z
#    x 3.803450 0.000000 0.119370 
#    y 0.000000 3.665320 0.000000 
#    z 0.119370 0.000000 3.744600 
# 
# 
# High freq. dielectric constant tensor:
#      x y z
#    x 1.807670 0.000000 0.003590 
#    y 0.000000 1.786560 0.000000 
#    z 0.003590 0.000000 1.788350 
# 
# From -- ./inp_files/267683.got.cif
#   From: 2010.06.25/outbox.cif.g09.slc.cpg/sg12_134_cif.got.tgz:267683.got - 2010.06.28 00:19:55.
