data_PCOD8108807
_publ_section_title
;
Structure prediction by ZEFSAII (Michael W. Deem and Ramdas Pophale) SiO2 
 PCOD8108807
Probable space group: C 2/M
;
_chemical_formula_sum "Si O2"
_cell_formula_units_Z 64
_cell_length_a 24.847085
_cell_length_b 26.568518
_cell_length_c 9.230890
_cell_angle_alpha 90.000000
_cell_angle_beta 33.000803
_cell_angle_gamma 90.000000
_cell_volume 3318.978877
_symmetry_space_group_name_H-M "C 2/M"
_symmetry_group_IT_number 12
_symmetry_cell_setting 'monoclinic'
loop_
_space_group_symop_operation_xyz
x,y,z
-x,y,-z
-x,-y,-z
x,-y,z
1/2+x,1/2+y,z
1/2-x,1/2+y,-z
1/2-x,1/2-y,-z
1/2+x,1/2-y,z
loop_
_atom_site_type_symbol
_atom_site_label
_atom_site_fract_x
_atom_site_fract_y
_atom_site_fract_z
Si Si1 0.901915 0.058728 0.130556
Si Si2 0.726353 0.812858 0.937901
Si Si3 0.408607 0.887299 0.607542
Si Si4 0.758365 0.403935 0.305035
Si Si5 0.733202 0.445129 0.071157
Si Si6 0.523905 0.941892 0.112983
Si Si7 0.591258 0.609303 0.190622
Si Si8 0.390061 0.282875 0.776727
O O1 0.812284 0.092335 0.396271
O O2 0.871779 0.000000 0.196452
O O3 0.921692 0.077559 0.924495
O O4 0.000000 0.068268 0.000000
O O5 0.664439 0.838940 0.210711
O O6 0.672894 0.761551 0.007540
O O7 0.732267 0.847603 0.781468
O O8 0.836101 0.800212 0.749014
O O9 0.500000 0.874287 0.500000
O O10 0.351304 0.935925 0.801115
O O11 0.447041 0.902990 0.362092
O O12 0.702607 0.437133 0.307369
O O13 0.864630 0.425320 0.107385
O O14 0.702549 0.500000 0.088035
O O15 0.688637 0.406002 0.058612
O O16 0.509118 0.000000 0.197139
O O17 0.500000 0.936524 0.000000
O O18 0.500000 0.596476 0.500000
O O19 0.600077 0.668966 0.138334
O O20 0.500000 0.262174 0.500000
#
# Coordination Sequence:
#
# PCOD8108807 Si02
#       8
#     8   8   8   8   8   8   8   8
#     4  11  25  41  62  89 129 172 203 243 307 377
#     4  10  21  40  64  97 120 159 207 260 316 370
#     4  11  20  36  58  86 117 158 210 254 300 360
#     4  11  22  40  60  89 127 161 207 253 308 373
#     4  11  21  34  58  87 119 156 206 257 302 361
#     4  11  24  37  55  84 128 173 207 249 305 367
#     4  11  23  41  63  93 120 158 209 260 309 367
#     4  10  21  38  67  95 122 155 206 266 321 362
#
# _framework density 19.283038999999999
#
# number of rings (size 3 to 8) (size 9 to 14) (size 15 to 20)
#    0.000    1.250    5.000    3.000    3.500    2.500 
#    0.000    0.625    0.000    0.750    0.000    0.000 
#    0.000    0.000    0.000    0.000    0.000    0.000 
#
# Total GULP energy -396594.198314 kJ/mol
# GULP energy per Si atom -12393.568697 kJ/mol
# Density = 1.923915 g / cm^3
# Si number density = 19.283039 Si / 1000 Ang^3
#
#
#
# Elastic Constant Matrix: (Units=GPa)
#
#
# Indices 1 2 3 4 5 6 
#
# 1 101.7331 35.7827 40.2580 0.0000 -2.4510 0.0000
# 2 35.7827 103.7813 41.1999 0.0000 1.9419 0.0000
# 3 40.2580 41.1999 105.6756 0.0001 4.4879 0.0000
# 4 0.0000 0.0000 0.0001 41.9336 -0.0001 12.1496
# 5 -2.4510 1.9419 4.4879 -0.0001 30.9403 0.0000
# 6 0.0000 0.0000 0.0000 12.1496 0.0000 31.5416
#
#
#
# Elastic Compliance Matrix: (Units=1/GPa)
#
#
# Indices 1 2 3 4 5 6 
#
# 1 0.012312 -0.002823 -0.003661 0.000000 0.001684 0.000000
# 2 -0.002823 0.012048 -0.003602 0.000000 -0.000457 0.000000
# 3 -0.003661 -0.003602 0.012341 0.000000 -0.001854 0.000000
# 4 0.000000 0.000000 0.000000 0.026843 0.000000 -0.010340
# 5 0.001684 -0.000457 -0.001854 0.000000 0.032751 0.000000
# 6 0.000000 0.000000 0.000000 -0.010340 0.000000 0.035687
#
#
# Mechanical properties :
#
#
# Convention : Reuss Voigt Hill
#
# Bulk Modulus (GPa) = 60.50510 60.63014 60.56762
# Shear Modulus (GPa) = 31.71309 33.81306 32.76307
#
# Velocity S-wave (km/s) = 4.05978 4.19204 4.12644
# Velocity P-wave (km/s) = 7.30898 7.41225 7.36080
#
# Compressibility (1/GPa) = 0.01652753
#
# Stress axis : x y z
#
# Youngs Moduli (GPa) = 81.22167 83.00424 81.03213
#
# Poissons Ratio (x) = 0.23433 0.29668
# Poissons Ratio (y) = 0.22930 0.29189
# Poissons Ratio (z) = 0.29737 0.29899
#
# Static dielectric constant tensor:
#      x y z
#    x 4.948360 0.000000 -2.852430 
#    y 0.000000 3.621020 0.000000 
#    z -2.852430 0.000000 8.607840 
# 
# 
# High freq. dielectric constant tensor:
#      x y z
#    x 1.743400 0.000000 -0.025820 
#    y 0.000000 1.751600 0.000000 
#    z -0.025820 0.000000 1.747630 
# 
# From -- ./inp_files/100209.got.cif
#   From: 2010.06.25/outbox.cif.g09.slc.cpg/sg12_51_cif.got.tgz:100209.got - 2010.06.28 00:19:55.
