data_PCOD8108502
_publ_section_title
;
Structure prediction by ZEFSAII (Michael W. Deem and Ramdas Pophale) SiO2 
 PCOD8108502
Probable space group: C 2/M
;
_chemical_formula_sum "Si O2"
_cell_formula_units_Z 48
_cell_length_a 24.837987
_cell_length_b 8.371728
_cell_length_c 11.127112
_cell_angle_alpha 90.000000
_cell_angle_beta 79.085306
_cell_angle_gamma 90.000000
_cell_volume 2271.881784
_symmetry_space_group_name_H-M "C 2/M"
_symmetry_group_IT_number 12
_symmetry_cell_setting 'monoclinic'
loop_
_space_group_symop_operation_xyz
x,y,z
-x,y,-z
-x,-y,-z
x,-y,z
1/2+x,1/2+y,z
1/2-x,1/2+y,-z
1/2-x,1/2-y,-z
1/2+x,1/2-y,z
loop_
_atom_site_type_symbol
_atom_site_label
_atom_site_fract_x
_atom_site_fract_y
_atom_site_fract_z
Si Si1 0.856131 0.183110 0.677969
Si Si2 0.347606 0.684540 0.217446
Si Si3 0.517909 0.314606 0.360976
Si Si4 0.760281 0.690241 0.865004
Si Si5 0.032506 0.808947 0.868482
Si Si6 0.189524 0.317695 0.533914
O O1 0.918171 0.216125 0.689929
O O2 0.816270 0.222695 0.804664
O O3 0.840248 0.304638 0.580071
O O4 0.848423 0.000000 0.639702
O O5 0.346477 0.500000 0.187763
O O6 0.291812 0.759316 0.187530
O O7 0.404784 0.752688 0.140682
O O8 0.347151 0.715627 0.359523
O O9 0.500000 0.239725 0.500000
O O10 0.502641 0.500000 0.373412
O O11 0.488915 0.241815 0.252706
O O12 0.766447 0.500000 0.850564
O O13 0.750000 0.750000 0.000000
O O14 0.028596 0.000000 0.866467
O O15 0.000000 0.743778 0.000000
O O16 0.192070 0.500000 0.574787
O O17 0.250000 0.250000 0.500000
#
# Coordination Sequence:
#
# PCOD8108502 Si02
#       6
#     8   8   8   8   8   8
#     4  11  22  37  62  91 121 154 195 246 300 358
#     4  10  21  38  62  89 118 152 197 249 301 353
#     4   9  18  33  56  87 120 154 196 247 301 354
#     4  11  24  39  58  86 121 160 201 246 299 361
#     4   9  18  33  58  89 117 149 197 255 301 346
#     4  12  23  37  59  87 120 156 195 239 297 357
#
# _framework density 21.127859000000001
#
# number of rings (size 3 to 8) (size 9 to 14) (size 15 to 20)
#    0.000    1.667    1.667    3.500    2.333    3.333 
#    0.000    0.000    0.000    9.500    0.000    0.000 
#    0.000    0.000    0.000    0.000    0.000    0.000 
#
# Total GULP energy -297469.423178 kJ/mol
# GULP energy per Si atom -12394.559299 kJ/mol
# Density = 2.107977 g / cm^3
# Si number density = 21.127859 Si / 1000 Ang^3
#
#
#
# Elastic Constant Matrix: (Units=GPa)
#
#
# Indices 1 2 3 4 5 6 
#
# 1 128.5577 31.7633 62.5613 0.0000 -23.1556 0.0000
# 2 31.7633 25.8391 0.9375 0.0000 -1.7784 0.0000
# 3 62.5613 0.9375 159.4920 0.0000 -16.5650 0.0000
# 4 0.0000 0.0000 0.0000 25.2770 0.0000 -2.2651
# 5 -23.1556 -1.7784 -16.5650 0.0000 44.6209 0.0000
# 6 0.0000 0.0000 0.0000 -2.2651 0.0000 20.7347
#
#
#
# Elastic Compliance Matrix: (Units=1/GPa)
#
#
# Indices 1 2 3 4 5 6 
#
# 1 0.016428 -0.019600 -0.005746 0.000000 0.005611 0.000000
# 2 -0.019600 0.062193 0.006785 0.000000 -0.005174 0.000000
# 3 -0.005746 0.006785 0.008531 0.000000 0.000456 0.000000
# 4 0.000000 0.000000 0.000000 0.039953 0.000000 0.004365
# 5 0.005611 -0.005174 0.000456 0.000000 0.025286 0.000000
# 6 0.000000 0.000000 0.000000 0.004365 0.000000 0.048705
#
#
# Mechanical properties :
#
#
# Convention : Reuss Voigt Hill
#
# Bulk Modulus (GPa) = 19.98778 56.04589 38.01683
# Shear Modulus (GPa) = 19.61594 32.70162 26.15878
#
# Velocity S-wave (km/s) = 3.05034 3.93847 3.52251
# Velocity P-wave (km/s) = 4.67835 6.87508 5.88021
#
# Compressibility (1/GPa) = 0.05003058
#
# Stress axis : x y z
#
# Youngs Moduli (GPa) = 60.87093 16.07901 117.21590
#
# Poissons Ratio (x) = 0.31515 0.67353
# Poissons Ratio (y) = 1.19308 -0.79535
# Poissons Ratio (z) = 0.34977 -0.10910
#
# Static dielectric constant tensor:
#      x y z
#    x 4.509760 0.000000 0.017470 
#    y 0.000000 2.120160 0.000000 
#    z 0.017470 0.000000 4.022930 
# 
# 
# High freq. dielectric constant tensor:
#      x y z
#    x 1.841020 0.000000 -0.007700 
#    y 0.000000 1.783550 0.000000 
#    z -0.007700 0.000000 1.839990 
# 
# From -- ./inp_files/172900.got.cif
#   From: 2010.06.25/outbox.cif.g09.slc.cpg/sg12_87_cif.got.tgz:172900.got - 2010.06.28 00:19:55.
