data_PCOD8108143
_publ_section_title
;
Structure prediction by ZEFSAII (Michael W. Deem and Ramdas Pophale) SiO2 
 PCOD8108143
Probable space group: C 2/M
;
_chemical_formula_sum "Si O2"
_cell_formula_units_Z 56
_cell_length_a 20.484627
_cell_length_b 8.831096
_cell_length_c 17.163551
_cell_angle_alpha 90.000000
_cell_angle_beta 74.087766
_cell_angle_gamma 90.000000
_cell_volume 2985.943980
_symmetry_space_group_name_H-M "C 2/M"
_symmetry_group_IT_number 12
_symmetry_cell_setting 'monoclinic'
loop_
_space_group_symop_operation_xyz
x,y,z
-x,y,-z
-x,-y,-z
x,-y,z
1/2+x,1/2+y,z
1/2-x,1/2+y,-z
1/2-x,1/2-y,-z
1/2+x,1/2-y,z
loop_
_atom_site_type_symbol
_atom_site_label
_atom_site_fract_x
_atom_site_fract_y
_atom_site_fract_z
Si Si1 0.829487 0.678527 0.166899
Si Si2 0.306079 0.823840 0.735063
Si Si3 0.905148 0.677133 0.845362
Si Si4 0.098852 0.822474 0.413379
Si Si5 0.945602 0.322209 0.247402
Si Si6 0.952086 0.823541 0.404492
Si Si7 0.179729 0.821110 0.995961
O O1 0.829042 0.500000 0.150668
O O2 0.760792 0.724899 0.232471
O O3 0.892004 0.729190 0.200292
O O4 0.838770 0.767377 0.083916
O O5 0.356714 0.787101 0.788899
O O6 0.340391 0.774520 0.642931
O O7 0.286910 0.000000 0.738346
O O8 0.905010 0.500000 0.866452
O O9 0.880558 0.770635 0.927807
O O10 0.980116 0.737829 0.800942
O O11 0.096442 0.786703 0.506330
O O12 0.028432 0.768294 0.397602
O O13 0.110879 0.000000 0.394435
O O14 0.947487 0.500000 0.255786
O O15 0.922756 0.257760 0.338195
O O16 0.953087 0.000000 0.387681
O O17 0.188223 0.000000 0.994070
O O18 0.250000 0.750000 0.000000
#
# Coordination Sequence:
#
# PCOD8108143 Si02
#       7
#     8   8   8   8   8   8   8
#     4  11  24  41  61  83 116 156 190 232 289 345
#     4  11  21  35  59  88 116 149 192 240 285 337
#     4  10  21  38  60  86 117 149 189 237 286 338
#     4   9  18  33  55  86 119 151 191 235 286 339
#     4  10  22  40  60  85 117 154 191 233 287 344
#     4   9  18  33  56  85 118 153 188 236 287 337
#     4  12  24  39  61  88 116 149 192 238 285 336
#
# _framework density 18.754536999999999
#
# number of rings (size 3 to 8) (size 9 to 14) (size 15 to 20)
#    0.000    1.714    2.857    3.000    0.000    3.429 
#    0.000    5.000    0.000    0.000    0.000    0.000 
#    0.000    0.000    0.000    0.000    0.000    0.000 
#
# Total GULP energy -347309.008083 kJ/mol
# GULP energy per Si atom -12403.893146 kJ/mol
# Density = 1.871185 g / cm^3
# Si number density = 18.754537 Si / 1000 Ang^3
#
#
#
# Elastic Constant Matrix: (Units=GPa)
#
#
# Indices 1 2 3 4 5 6 
#
# 1 105.2237 41.4726 54.2385 0.0000 4.2432 0.0000
# 2 41.4726 66.0148 47.5798 0.0000 6.6319 0.0000
# 3 54.2385 47.5798 143.1321 0.0000 3.8173 0.0000
# 4 0.0000 0.0000 0.0000 37.9538 0.0000 1.0604
# 5 4.2432 6.6319 3.8173 0.0000 29.0087 0.0000
# 6 0.0000 0.0000 0.0000 1.0604 0.0000 24.8581
#
#
#
# Elastic Compliance Matrix: (Units=1/GPa)
#
#
# Indices 1 2 3 4 5 6 
#
# 1 0.013565 -0.006320 -0.003036 0.000000 -0.000140 0.000000
# 2 -0.006320 0.023268 -0.005241 0.000000 -0.003705 0.000000
# 3 -0.003036 -0.005241 0.009870 0.000000 0.000343 0.000000
# 4 0.000000 0.000000 0.000000 0.026379 0.000000 -0.001125
# 5 -0.000140 -0.003705 0.000343 0.000000 0.035295 0.000000
# 6 0.000000 0.000000 0.000000 -0.001125 0.000000 0.040276
#
#
# Mechanical properties :
#
#
# Convention : Reuss Voigt Hill
#
# Bulk Modulus (GPa) = 57.11120 66.77251 61.94185
# Shear Modulus (GPa) = 27.22074 29.76943 28.49509
#
# Velocity S-wave (km/s) = 3.81389 3.98844 3.90214
# Velocity P-wave (km/s) = 7.06487 7.54260 7.30764
#
# Compressibility (1/GPa) = 0.01750970
#
# Stress axis : x y z
#
# Youngs Moduli (GPa) = 73.71978 42.97707 101.31722
#
# Poissons Ratio (x) = 0.27161 0.30757
# Poissons Ratio (y) = 0.46590 0.53102
# Poissons Ratio (z) = 0.22379 0.22525
#
# Static dielectric constant tensor:
#      x y z
#    x 3.476340 0.000000 -0.022740 
#    y 0.000000 3.366200 0.000000 
#    z -0.022740 0.000000 3.609710 
# 
# 
# High freq. dielectric constant tensor:
#      x y z
#    x 1.712980 0.000000 -0.004060 
#    y 0.000000 1.727410 0.000000 
#    z -0.004060 0.000000 1.743160 
# 
# From -- ./inp_files/275323.got.cif
#   From: 2010.06.25/outbox.cif.g09.slc.cpg/sg12_138_cif.got.tgz:275323.got - 2010.06.28 00:19:55.
