data_PCOD8108947
_publ_section_title
;
Structure prediction by ZEFSAII (Michael W. Deem and Ramdas Pophale) SiO2 
 PCOD8108947
Probable space group: C 2/M
;
_chemical_formula_sum "Si O2"
_cell_formula_units_Z 40
_cell_length_a 9.783967
_cell_length_b 16.349912
_cell_length_c 21.685145
_cell_angle_alpha 90.000000
_cell_angle_beta 143.472706
_cell_angle_gamma 90.000000
_cell_volume 2064.713399
_symmetry_space_group_name_H-M "C 2/M"
_symmetry_group_IT_number 12
_symmetry_cell_setting 'monoclinic'
loop_
_space_group_symop_operation_xyz
x,y,z
-x,y,-z
-x,-y,-z
x,-y,z
1/2+x,1/2+y,z
1/2-x,1/2+y,-z
1/2-x,1/2-y,-z
1/2+x,1/2-y,z
loop_
_atom_site_type_symbol
_atom_site_label
_atom_site_fract_x
_atom_site_fract_y
_atom_site_fract_z
Si Si1 0.963437 0.406622 0.394804
Si Si2 0.931356 0.686297 0.261217
Si Si3 0.145108 0.593936 0.223834
Si Si4 0.507792 0.213852 0.931425
Si Si5 0.142221 0.851657 0.380602
O O1 0.045577 0.500000 0.424349
O O2 0.169983 0.351781 0.496860
O O3 0.899903 0.380317 0.303039
O O4 0.737608 0.397619 0.354868
O O5 0.681557 0.717760 0.151743
O O6 0.051901 0.645449 0.247024
O O7 0.090779 0.758627 0.344082
O O8 0.068175 0.500000 0.201617
O O9 0.040980 0.630732 0.123385
O O10 0.419414 0.600407 0.323193
O O11 0.500000 0.190139 0.000000
O O12 0.750000 0.250000 0.000000
#
# Coordination Sequence:
#
# PCOD8108947 Si02
#       5
#     8   8   8   8   8
#     4  11  22  38  59  89 125 160 199 247 297 349
#     4  11  23  39  63  88 120 158 202 243 301 361
#     4  11  23  40  62  93 123 152 198 255 300 349
#     4  11  23  44  66  87 118 159 202 245 301 364
#     4  10  21  39  60  86 122 165 201 237 290 361
#
# _framework density 19.373148
#
# number of rings (size 3 to 8) (size 9 to 14) (size 15 to 20)
#    0.000    1.200    2.000    6.000    2.800    2.800 
#    0.000    5.000    0.000    0.000    0.000    0.000 
#    0.000    0.000    0.000    0.000    0.000    0.000 
#
# Total GULP energy -248110.021405 kJ/mol
# GULP energy per Si atom -12405.501070 kJ/mol
# Density = 1.932905 g / cm^3
# Si number density = 19.373148 Si / 1000 Ang^3
#
#
#
# Elastic Constant Matrix: (Units=GPa)
#
#
# Indices 1 2 3 4 5 6 
#
# 1 119.9713 54.2846 72.5484 0.0000 -8.5699 0.0000
# 2 54.2846 118.2765 41.2443 0.0001 5.6360 0.0000
# 3 72.5484 41.2443 101.7758 0.0007 5.2825 0.0000
# 4 0.0000 0.0001 0.0007 16.1901 0.0002 3.4353
# 5 -8.5699 5.6360 5.2825 0.0002 42.3596 -0.0001
# 6 0.0000 0.0000 0.0000 3.4353 -0.0001 16.5418
#
#
#
# Elastic Compliance Matrix: (Units=1/GPa)
#
#
# Indices 1 2 3 4 5 6 
#
# 1 0.017238 -0.004410 -0.010781 0.000000 0.005419 0.000000
# 2 -0.004410 0.011003 -0.001201 0.000000 -0.002206 0.000000
# 3 -0.010781 -0.001201 0.018220 -0.000001 -0.004294 0.000000
# 4 0.000000 0.000000 -0.000001 0.064614 0.000000 -0.013419
# 5 0.005419 -0.002206 -0.004294 0.000000 0.025533 0.000000
# 6 0.000000 0.000000 0.000000 -0.013419 0.000000 0.063240
#
#
# Mechanical properties :
#
#
# Convention : Reuss Voigt Hill
#
# Bulk Modulus (GPa) = 73.12028 75.13091 74.12559
# Shear Modulus (GPa) = 21.08020 26.48137 23.78079
#
# Velocity S-wave (km/s) = 3.30224 3.70119 3.50739
# Velocity P-wave (km/s) = 7.23635 7.55845 7.39915
#
# Compressibility (1/GPa) = 0.01367610
#
# Stress axis : x y z
#
# Youngs Moduli (GPa) = 58.01299 90.88743 54.88399
#
# Poissons Ratio (x) = 0.40081 0.59173
# Poissons Ratio (y) = 0.25584 0.06590
# Poissons Ratio (z) = 0.62546 0.10913
#
# Static dielectric constant tensor:
#      x y z
#    x 3.723520 0.000000 -0.041530 
#    y 0.000000 3.557940 0.000000 
#    z -0.041530 0.000000 3.565080 
# 
# 
# High freq. dielectric constant tensor:
#      x y z
#    x 1.771900 0.000000 -0.001650 
#    y 0.000000 1.753140 0.000000 
#    z -0.001650 0.000000 1.756440 
# 
# From -- ./inp_files/119137.got.cif
#   From: 2010.06.25/outbox.cif.g09.slc.cpg/sg12_60_cif.got.tgz:119137.got - 2010.06.28 00:19:55.
