data_PCOD8108975
_publ_section_title
;
Structure prediction by ZEFSAII (Michael W. Deem and Ramdas Pophale) SiO2 
 PCOD8108975
Probable space group: C 2/M
;
_chemical_formula_sum "Si O2"
_cell_formula_units_Z 64
_cell_length_a 31.783978
_cell_length_b 8.770605
_cell_length_c 15.525631
_cell_angle_alpha 90.000000
_cell_angle_beta 134.027423
_cell_angle_gamma 90.000000
_cell_volume 3111.861982
_symmetry_space_group_name_H-M "C 2/M"
_symmetry_group_IT_number 12
_symmetry_cell_setting 'monoclinic'
loop_
_space_group_symop_operation_xyz
x,y,z
-x,y,-z
-x,-y,-z
x,-y,z
1/2+x,1/2+y,z
1/2-x,1/2+y,-z
1/2-x,1/2-y,-z
1/2+x,1/2-y,z
loop_
_atom_site_type_symbol
_atom_site_label
_atom_site_fract_x
_atom_site_fract_y
_atom_site_fract_z
Si Si1 0.222275 0.680142 0.197608
Si Si2 0.916501 0.829612 0.818901
Si Si3 0.469959 0.323490 0.586265
Si Si4 0.092200 0.822864 0.674172
Si Si5 0.213411 0.679932 0.870098
Si Si6 0.098471 0.175762 0.008691
Si Si7 0.490126 0.824369 0.784378
Si Si8 0.720690 0.325135 0.376539
O O1 0.229235 0.500000 0.204937
O O2 0.266033 0.753011 0.191441
O O3 0.156241 0.724464 0.079122
O O4 0.240102 0.739296 0.317396
O O5 0.930774 0.799529 0.939278
O O6 0.848004 0.810726 0.707163
O O7 0.949736 0.706613 0.809217
O O8 0.937068 0.000000 0.821825
O O9 0.466533 0.500000 0.606447
O O10 0.534776 0.281117 0.646532
O O11 0.421591 0.285451 0.445356
O O12 0.454994 0.223330 0.648716
O O13 0.145181 0.720870 0.784485
O O14 0.108541 0.000000 0.708269
O O15 0.221984 0.500000 0.883597
O O16 0.250000 0.750000 0.000000
O O17 0.116109 0.000000 0.019355
O O18 0.050346 0.228247 0.871543
O O19 0.506665 0.000000 0.806459
O O20 0.740377 0.500000 0.396097
O O21 0.750000 0.250000 0.500000
#
# Coordination Sequence:
#
# PCOD8108975 Si02
#       8
#     8   8   8   8   8   8   8   8
#     4  11  23  41  63  90 122 158 204 255 308 370
#     4   9  20  38  57  80 113 154 198 241 294 353
#     4   9  20  40  65  88 117 158 200 246 306 367
#     4   9  20  42  67  90 117 154 201 253 307 365
#     4  12  26  43  65  93 127 166 207 259 314 371
#     4  10  21  39  61  83 116 158 197 244 301 361
#     4  12  24  34  54  88 121 154 198 245 293 352
#     4  10  21  39  63  90 121 161 204 249 304 366
#
# _framework density 20.566464
#
# number of rings (size 3 to 8) (size 9 to 14) (size 15 to 20)
#    0.000    1.750    0.000    6.000    1.750    6.500 
#    0.000    2.500    0.000    0.000    0.000    0.000 
#    0.000    0.000    0.000    0.000    0.000    0.000 
#
# Total GULP energy -396937.935103 kJ/mol
# GULP energy per Si atom -12404.310472 kJ/mol
# Density = 2.051965 g / cm^3
# Si number density = 20.566464 Si / 1000 Ang^3
#
#
#
# Elastic Constant Matrix: (Units=GPa)
#
#
# Indices 1 2 3 4 5 6 
#
# 1 55.1980 34.3822 22.0167 0.0000 -1.0548 0.0000
# 2 34.3822 137.9315 48.9122 0.0000 -0.5675 0.0000
# 3 22.0167 48.9122 108.4042 0.0000 -4.8040 0.0000
# 4 0.0000 0.0000 0.0000 32.9717 0.0000 1.6047
# 5 -1.0548 -0.5675 -4.8040 0.0000 18.0007 0.0000
# 6 0.0000 0.0000 0.0000 1.6047 0.0000 35.1024
#
#
#
# Elastic Compliance Matrix: (Units=1/GPa)
#
#
# Indices 1 2 3 4 5 6 
#
# 1 0.021950 -0.004639 -0.002342 0.000000 0.000515 0.000000
# 2 -0.004639 0.009622 -0.003439 0.000000 -0.000886 0.000000
# 3 -0.002342 -0.003439 0.011376 0.000000 0.002790 0.000000
# 4 0.000000 0.000000 0.000000 0.030397 0.000000 -0.001390
# 5 0.000515 -0.000886 0.002790 0.000000 0.056300 0.000000
# 6 0.000000 0.000000 0.000000 -0.001390 0.000000 0.028552
#
#
# Mechanical properties :
#
#
# Convention : Reuss Voigt Hill
#
# Bulk Modulus (GPa) = 45.23140 56.90620 51.06880
# Shear Modulus (GPa) = 26.82329 30.29644 28.55987
#
# Velocity S-wave (km/s) = 3.61532 3.84226 3.73052
# Velocity P-wave (km/s) = 6.28235 6.88574 6.59096
#
# Compressibility (1/GPa) = 0.02210854
#
# Stress axis : x y z
#
# Youngs Moduli (GPa) = 45.55781 103.92818 87.90759
#
# Poissons Ratio (x) = 0.48211 0.20589
# Poissons Ratio (y) = 0.21134 0.30228
# Poissons Ratio (z) = 0.10670 0.35737
#
# Static dielectric constant tensor:
#      x y z
#    x 3.647200 0.000000 -0.065120 
#    y 0.000000 3.679110 0.000000 
#    z -0.065120 0.000000 3.823180 
# 
# 
# High freq. dielectric constant tensor:
#      x y z
#    x 1.800340 0.000000 -0.005170 
#    y 0.000000 1.803640 0.000000 
#    z -0.005170 0.000000 1.813980 
# 
# From -- ./inp_files/250099.got.cif
#   From: 2010.06.25/outbox.cif.g09.slc.cpg/sg12_126_cif.got.tgz:250099.got - 2010.06.28 00:19:55.
