data_PCOD8108098
_publ_section_title
;
Structure prediction by ZEFSAII (Michael W. Deem and Ramdas Pophale) SiO2 
 PCOD8108098
Probable space group: C 2/M
;
_chemical_formula_sum "Si O2"
_cell_formula_units_Z 40
_cell_length_a 27.206275
_cell_length_b 8.804431
_cell_length_c 13.769545
_cell_angle_alpha 90.000000
_cell_angle_beta 141.336778
_cell_angle_gamma 90.000000
_cell_volume 2060.584237
_symmetry_space_group_name_H-M "C 2/M"
_symmetry_group_IT_number 12
_symmetry_cell_setting 'monoclinic'
loop_
_space_group_symop_operation_xyz
x,y,z
-x,y,-z
-x,-y,-z
x,-y,z
1/2+x,1/2+y,z
1/2-x,1/2+y,-z
1/2-x,1/2-y,-z
1/2+x,1/2-y,z
loop_
_atom_site_type_symbol
_atom_site_label
_atom_site_fract_x
_atom_site_fract_y
_atom_site_fract_z
Si Si1 0.590095 0.167110 0.669033
Si Si2 0.922430 0.674588 0.942732
Si Si3 0.364679 0.322224 0.447015
Si Si4 0.731815 0.678357 0.368828
Si Si5 0.523998 0.821354 0.762434
O O1 0.500000 0.156249 0.500000
O O2 0.634877 0.283551 0.667546
O O3 0.589032 0.221366 0.780098
O O4 0.629238 0.000000 0.719552
O O5 0.893944 0.500000 0.894533
O O6 0.856630 0.783025 0.797753
O O7 0.939253 0.725688 0.078656
O O8 0.000000 0.698529 0.000000
O O9 0.355017 0.500000 0.445625
O O10 0.290118 0.240657 0.377594
O O11 0.443370 0.268967 0.622456
O O12 0.742531 0.500000 0.394251
O O13 0.750000 0.750000 0.500000
O O14 0.503431 0.000000 0.726200
#
# Coordination Sequence:
#
# PCOD8108098 Si02
#       5
#     8   8   8   8   8
#     4   8  15  30  52  79 112 150 189 227 273 326
#     4  10  21  38  60  85 113 145 182 226 278 334
#     4  11  21  34  56  85 115 147 188 233 275 324
#     4  12  25  41  60  82 111 145 184 228 276 331
#     4   9  18  34  57  84 116 152 187 228 278 330
#
# _framework density 19.41197
#
# number of rings (size 3 to 8) (size 9 to 14) (size 15 to 20)
#    0.000    2.000    0.000    6.000    0.000    6.400 
#    0.000    1.000    0.000    0.000    0.000    0.000 
#    0.000    0.000    0.000    0.000    0.000    0.000 
#
# Total GULP energy -248001.520739 kJ/mol
# GULP energy per Si atom -12400.076037 kJ/mol
# Density = 1.936779 g / cm^3
# Si number density = 19.411970 Si / 1000 Ang^3
#
#
#
# Elastic Constant Matrix: (Units=GPa)
#
#
# Indices 1 2 3 4 5 6 
#
# 1 136.8830 52.8531 58.8080 0.0000 -21.4993 0.0000
# 2 52.8531 127.1961 44.9725 0.0000 0.4970 0.0000
# 3 58.8080 44.9725 90.4271 0.0000 -17.1048 0.0000
# 4 0.0000 0.0000 0.0000 45.1285 0.0000 7.6212
# 5 -21.4993 0.4970 -17.1048 0.0000 35.6624 0.0000
# 6 0.0000 0.0000 0.0000 7.6212 0.0000 33.7117
#
#
#
# Elastic Compliance Matrix: (Units=1/GPa)
#
#
# Indices 1 2 3 4 5 6 
#
# 1 0.011304 -0.002926 -0.005059 0.000000 0.004429 0.000000
# 2 -0.002926 0.010530 -0.004064 0.000000 -0.003860 0.000000
# 3 -0.005059 -0.004064 0.017380 0.000000 0.005343 0.000000
# 4 0.000000 0.000000 0.000000 0.023038 0.000000 -0.005208
# 5 0.004429 -0.003860 0.005343 0.000000 0.033328 0.000000
# 6 0.000000 0.000000 0.000000 -0.005208 0.000000 0.030841
#
#
# Mechanical properties :
#
#
# Convention : Reuss Voigt Hill
#
# Bulk Modulus (GPa) = 66.15018 74.19705 70.17362
# Shear Modulus (GPa) = 32.14256 36.09203 34.11729
#
# Velocity S-wave (km/s) = 4.07358 4.31660 4.19685
# Velocity P-wave (km/s) = 7.50176 7.94666 7.72741
#
# Compressibility (1/GPa) = 0.01511712
#
# Stress axis : x y z
#
# Youngs Moduli (GPa) = 88.46252 94.96971 57.53651
#
# Poissons Ratio (x) = 0.27788 0.29105
# Poissons Ratio (y) = 0.25884 0.23383
# Poissons Ratio (z) = 0.44749 0.38596
#
# Static dielectric constant tensor:
#      x y z
#    x 4.086690 0.000000 -0.354850 
#    y 0.000000 3.507820 0.000000 
#    z -0.354850 0.000000 3.395850 
# 
# 
# High freq. dielectric constant tensor:
#      x y z
#    x 1.776780 0.000000 -0.016200 
#    y 0.000000 1.750350 0.000000 
#    z -0.016200 0.000000 1.732030 
# 
# From -- ./inp_files/221228.got.cif
#   From: 2010.06.25/outbox.cif.g09.slc.cpg/sg12_111_cif.got.tgz:221228.got - 2010.06.28 00:19:55.
