data_PCOD8108162
_publ_section_title
;
Structure prediction by ZEFSAII (Michael W. Deem and Ramdas Pophale) SiO2 
 PCOD8108162
Probable space group: C 2/M
;
_chemical_formula_sum "Si O2"
_cell_formula_units_Z 56
_cell_length_a 32.136869
_cell_length_b 8.848002
_cell_length_c 21.014361
_cell_angle_alpha 90.000000
_cell_angle_beta 152.090965
_cell_angle_gamma 90.000000
_cell_volume 2796.887512
_symmetry_space_group_name_H-M "C 2/M"
_symmetry_group_IT_number 12
_symmetry_cell_setting 'monoclinic'
loop_
_space_group_symop_operation_xyz
x,y,z
-x,y,-z
-x,-y,-z
x,-y,z
1/2+x,1/2+y,z
1/2-x,1/2+y,-z
1/2-x,1/2-y,-z
1/2+x,1/2-y,z
loop_
_atom_site_type_symbol
_atom_site_label
_atom_site_fract_x
_atom_site_fract_y
_atom_site_fract_z
Si Si1 0.425425 0.177333 0.586376
Si Si2 0.612870 0.323509 0.836196
Si Si3 0.669646 0.322536 0.429689
Si Si4 0.789918 0.322394 0.147135
Si Si5 0.548255 0.323514 0.153967
Si Si6 0.192459 0.322208 0.686715
Si Si7 0.366200 0.319975 0.855997
O O1 0.520607 0.247146 0.731396
O O2 0.347764 0.244991 0.526156
O O3 0.396511 0.214016 0.474233
O O4 0.429345 0.000000 0.603764
O O5 0.595378 0.500000 0.807363
O O6 0.643349 0.263052 0.809191
O O7 0.687448 0.286439 0.990238
O O8 0.686887 0.500000 0.461638
O O9 0.750000 0.250000 0.500000
O O10 0.581289 0.287802 0.269108
O O11 0.809117 0.500000 0.166485
O O12 0.811704 0.258537 0.247023
O O13 0.544031 0.500000 0.134568
O O14 0.616772 0.259093 0.192978
O O15 0.448605 0.260741 0.010547
O O16 0.206951 0.500000 0.712299
O O17 0.276516 0.248443 0.763609
O O18 0.357163 0.500000 0.845069
#
# Coordination Sequence:
#
# PCOD8108162 Si02
#       7
#     8   8   8   8   8   8   8
#     4  11  23  38  57  84 117 151 190 235 281 335
#     4  10  21  38  60  87 116 146 183 231 289 348
#     4  11  22  36  55  81 113 153 194 233 283 335
#     4   9  19  37  62  86 110 146 191 239 282 331
#     4   8  15  26  46  75 104 136 178 230 277 318
#     4   9  18  32  54  81 109 145 191 238 277 324
#     4   8  13  25  46  75 105 132 176 234 277 310
#
# _framework density 20.022257
#
# number of rings (size 3 to 8) (size 9 to 14) (size 15 to 20)
#    0.000    2.571    0.000    3.000    2.000    3.429 
#    0.000    4.286    0.000    0.000    0.000    5.000 
#    0.000    0.000    0.000    0.000    0.000    0.000 
#
# Total GULP energy -347058.512534 kJ/mol
# GULP energy per Si atom -12394.946876 kJ/mol
# Density = 1.997669 g / cm^3
# Si number density = 20.022257 Si / 1000 Ang^3
#
#
#
# Elastic Constant Matrix: (Units=GPa)
#
#
# Indices 1 2 3 4 5 6 
#
# 1 105.0430 40.5307 44.7950 0.0000 -7.6219 0.0000
# 2 40.5307 64.1158 36.8333 0.0000 0.8811 0.0000
# 3 44.7950 36.8333 76.9736 0.0000 0.0079 0.0000
# 4 0.0000 0.0000 0.0000 22.9706 0.0000 5.2527
# 5 -7.6219 0.8811 0.0079 0.0000 38.3290 0.0000
# 6 0.0000 0.0000 0.0000 5.2527 0.0000 27.3919
#
#
#
# Elastic Compliance Matrix: (Units=1/GPa)
#
#
# Indices 1 2 3 4 5 6 
#
# 1 0.014395 -0.005969 -0.005521 0.000000 0.003001 0.000000
# 2 -0.005969 0.023995 -0.008008 0.000000 -0.001737 0.000000
# 3 -0.005521 -0.008008 0.020037 0.000000 -0.000918 0.000000
# 4 0.000000 0.000000 0.000000 0.045530 0.000000 -0.008731
# 5 0.003001 -0.001737 -0.000918 0.000000 0.026727 0.000000
# 6 0.000000 0.000000 0.000000 -0.008731 0.000000 0.038181
#
#
# Mechanical properties :
#
#
# Convention : Reuss Voigt Hill
#
# Bulk Modulus (GPa) = 51.46784 54.49449 52.98117
# Shear Modulus (GPa) = 23.32758 26.00321 24.66540
#
# Velocity S-wave (km/s) = 3.41703 3.60768 3.51365
# Velocity P-wave (km/s) = 6.42878 6.68056 6.55588
#
# Compressibility (1/GPa) = 0.01942961
#
# Stress axis : x y z
#
# Youngs Moduli (GPa) = 69.46622 41.67619 49.90885
#
# Poissons Ratio (x) = 0.24878 0.27556
# Poissons Ratio (y) = 0.41468 0.39966
# Poissons Ratio (z) = 0.38354 0.33373
#
# Static dielectric constant tensor:
#      x y z
#    x 3.750540 0.000000 -0.164620 
#    y 0.000000 3.213220 0.000000 
#    z -0.164620 0.000000 4.067180 
# 
# 
# High freq. dielectric constant tensor:
#      x y z
#    x 1.784330 0.000000 -0.004230 
#    y 0.000000 1.734820 0.000000 
#    z -0.004230 0.000000 1.791660 
# 
# From -- ./inp_files/329630.got.cif
#   From: 2010.06.25/outbox.cif.g09.slc.cpg/sg12_165_cif.got.tgz:329630.got - 2010.06.28 00:19:55.
