data_PCOD8108287
_publ_section_title
;
Structure prediction by ZEFSAII (Michael W. Deem and Ramdas Pophale) SiO2 
 PCOD8108287
Probable space group: C 2/M
;
_chemical_formula_sum "Si O2"
_cell_formula_units_Z 48
_cell_length_a 27.239073
_cell_length_b 8.420190
_cell_length_c 15.469039
_cell_angle_alpha 90.000000
_cell_angle_beta 139.040521
_cell_angle_gamma 90.000000
_cell_volume 2325.770647
_symmetry_space_group_name_H-M "C 2/M"
_symmetry_group_IT_number 12
_symmetry_cell_setting 'monoclinic'
loop_
_space_group_symop_operation_xyz
x,y,z
-x,y,-z
-x,-y,-z
x,-y,z
1/2+x,1/2+y,z
1/2-x,1/2+y,-z
1/2-x,1/2-y,-z
1/2+x,1/2-y,z
loop_
_atom_site_type_symbol
_atom_site_label
_atom_site_fract_x
_atom_site_fract_y
_atom_site_fract_z
Si Si1 0.549011 0.315419 0.647374
Si Si2 0.452617 0.811495 0.016926
Si Si3 0.287933 0.185282 0.136385
Si Si4 0.533534 0.188952 0.298151
Si Si5 0.297510 0.184685 0.484719
Si Si6 0.283373 0.185814 0.787536
O O1 0.500000 0.264053 0.500000
O O2 0.571365 0.500000 0.672487
O O3 0.623327 0.209940 0.748828
O O4 0.500703 0.281673 0.667364
O O5 0.367964 0.747904 0.899355
O O6 0.453288 0.000000 0.013401
O O7 0.500000 0.740358 0.000000
O O8 0.488799 0.754427 0.154276
O O9 0.253556 0.282423 0.169622
O O10 0.270188 0.000000 0.123580
O O11 0.250000 0.250000 0.000000
O O12 0.618204 0.250878 0.399752
O O13 0.528331 0.000000 0.306257
O O14 0.250000 0.250000 0.500000
O O15 0.262251 0.223779 0.345993
O O16 0.301340 0.000000 0.503224
O O17 0.281311 0.000000 0.764249
#
# Coordination Sequence:
#
# PCOD8108287 Si02
#       6
#     8   8   8   8   8   8
#     4  11  24  41  62  89 121 158 201 251 308 366
#     4   9  18  35  59  85 113 149 193 238 287 348
#     4  12  25  42  64  90 123 162 206 254 306 366
#     4  10  21  38  61  87 115 154 202 248 298 356
#     4  11  23  39  61  89 122 161 204 251 303 361
#     4  11  22  38  62  90 121 157 198 249 307 365
#
# _framework density 20.638321999999999
#
# number of rings (size 3 to 8) (size 9 to 14) (size 15 to 20)
#    0.000    1.333    0.000    6.000    0.000    9.333 
#    0.000    0.833    0.000    3.500    0.000    0.000 
#    0.000    0.000    0.000    0.000    0.000    0.000 
#
# Total GULP energy -297736.788116 kJ/mol
# GULP energy per Si atom -12405.699505 kJ/mol
# Density = 2.059135 g / cm^3
# Si number density = 20.638322 Si / 1000 Ang^3
#
#
#
# Elastic Constant Matrix: (Units=GPa)
#
#
# Indices 1 2 3 4 5 6 
#
# 1 110.0922 21.6800 18.4467 0.0000 1.2413 0.0000
# 2 21.6800 20.6505 24.3002 0.0000 7.9878 0.0000
# 3 18.4467 24.3002 117.9969 0.0000 2.7404 0.0000
# 4 0.0000 0.0000 0.0000 25.2589 0.0000 5.2183
# 5 1.2413 7.9878 2.7404 0.0000 48.7555 0.0000
# 6 0.0000 0.0000 0.0000 5.2183 0.0000 27.8827
#
#
#
# Elastic Compliance Matrix: (Units=1/GPa)
#
#
# Indices 1 2 3 4 5 6 
#
# 1 0.011700 -0.014314 0.001073 0.000000 0.001987 0.000000
# 2 -0.014314 0.086409 -0.015257 0.000000 -0.012935 0.000000
# 3 0.001073 -0.015257 0.011407 0.000000 0.001831 0.000000
# 4 0.000000 0.000000 0.000000 0.041182 0.000000 -0.007707
# 5 0.001987 -0.012935 0.001831 0.000000 0.022476 0.000000
# 6 0.000000 0.000000 0.000000 -0.007707 0.000000 0.037307
#
#
# Mechanical properties :
#
#
# Convention : Reuss Voigt Hill
#
# Bulk Modulus (GPa) = 19.04071 41.95482 30.49777
# Shear Modulus (GPa) = 17.54489 32.66694 25.10591
#
# Velocity S-wave (km/s) = 2.91883 3.98279 3.49158
# Velocity P-wave (km/s) = 4.53931 6.44383 5.57352
#
# Compressibility (1/GPa) = 0.05251904
#
# Stress axis : x y z
#
# Youngs Moduli (GPa) = 85.47056 11.57290 87.66874
#
# Poissons Ratio (x) = 0.16565 -0.09403
# Poissons Ratio (y) = 1.22341 1.33755
# Poissons Ratio (z) = -0.09167 0.17657
#
# Static dielectric constant tensor:
#      x y z
#    x 3.887280 0.000000 0.013370 
#    y 0.000000 3.539970 0.000000 
#    z 0.013370 0.000000 3.908720 
# 
# 
# High freq. dielectric constant tensor:
#      x y z
#    x 1.826880 0.000000 0.000850 
#    y 0.000000 1.793430 0.000000 
#    z 0.000850 0.000000 1.828230 
# 
# From -- ./inp_files/244864.got.cif
#   From: 2010.06.25/outbox.cif.g09.slc.cpg/sg12_123_cif.got.tgz:244864.got - 2010.06.28 00:19:55.
