data_PCOD8108350
_publ_section_title
;
Structure prediction by ZEFSAII (Michael W. Deem and Ramdas Pophale) SiO2 
 PCOD8108350
Probable space group: C 2/M
;
_chemical_formula_sum "Si O2"
_cell_formula_units_Z 48
_cell_length_a 30.569534
_cell_length_b 8.424391
_cell_length_c 17.634296
_cell_angle_alpha 90.000000
_cell_angle_beta 30.047527
_cell_angle_gamma 90.000000
_cell_volume 2273.939135
_symmetry_space_group_name_H-M "C 2/M"
_symmetry_group_IT_number 12
_symmetry_cell_setting 'monoclinic'
loop_
_space_group_symop_operation_xyz
x,y,z
-x,y,-z
-x,-y,-z
x,-y,z
1/2+x,1/2+y,z
1/2-x,1/2+y,-z
1/2-x,1/2-y,-z
1/2+x,1/2-y,z
loop_
_atom_site_type_symbol
_atom_site_label
_atom_site_fract_x
_atom_site_fract_y
_atom_site_fract_z
Si Si1 0.915744 0.316581 0.672674
Si Si2 0.251582 0.818054 0.151162
Si Si3 0.595498 0.315095 0.650963
Si Si4 0.256378 0.815259 0.673694
Si Si5 0.579207 0.681003 0.173876
Si Si6 0.589568 0.311339 0.831358
O O1 0.896770 0.500000 0.683005
O O2 0.832967 0.213347 0.772969
O O3 0.932580 0.294756 0.736476
O O4 0.000000 0.256677 0.500000
O O5 0.228841 0.782035 0.272050
O O6 0.279024 0.000000 0.100359
O O7 0.330387 0.709173 0.004903
O O8 0.621074 0.500000 0.606120
O O9 0.660685 0.210443 0.503887
O O10 0.497370 0.283814 0.770573
O O11 0.602116 0.251265 0.726817
O O12 0.169911 0.750345 0.761546
O O13 0.247368 0.000000 0.707107
O O14 0.576193 0.500000 0.206853
O O15 0.585459 0.500000 0.837537
O O16 0.500000 0.240523 0.000000
#
# Coordination Sequence:
#
# PCOD8108350 Si02
#       6
#     8   8   8   8   8   8
#     4  11  24  42  64  90 121 155 194 241 292 348
#     4  12  25  41  62  87 119 156 197 245 295 350
#     4  10  21  38  61  88 120 158 198 241 291 350
#     4  11  22  37  60  88 120 157 198 245 295 348
#     4  11  23  40  63  89 119 156 198 242 292 350
#     4   9  18  35  59  86 117 156 200 243 290 346
#
# _framework density 21.108744000000002
#
# number of rings (size 3 to 8) (size 9 to 14) (size 15 to 20)
#    0.000    1.333    0.000    6.000    0.000    8.000 
#    0.000    0.833    0.000    3.500    0.000    0.000 
#    0.000    0.000    0.000    0.000    0.000    0.000 
#
# Total GULP energy -297792.683502 kJ/mol
# GULP energy per Si atom -12408.028479 kJ/mol
# Density = 2.106070 g / cm^3
# Si number density = 21.108744 Si / 1000 Ang^3
#
#
#
# Elastic Constant Matrix: (Units=GPa)
#
#
# Indices 1 2 3 4 5 6 
#
# 1 85.9974 23.5421 3.9115 -0.0017 1.4367 0.0040
# 2 23.5421 48.6038 14.7992 0.0033 -7.2140 0.0063
# 3 3.9115 14.7992 103.4574 -0.0032 -1.9714 0.0063
# 4 -0.0017 0.0033 -0.0032 30.2977 0.0023 -0.2072
# 5 1.4367 -7.2140 -1.9714 0.0023 45.1342 -0.0034
# 6 0.0040 0.0063 0.0063 -0.2072 -0.0034 18.2019
#
#
#
# Elastic Compliance Matrix: (Units=1/GPa)
#
#
# Indices 1 2 3 4 5 6 
#
# 1 0.013526 -0.006913 0.000449 0.000002 -0.001516 -0.000001
# 2 -0.006913 0.025549 -0.003314 -0.000004 0.004159 -0.000006
# 3 0.000449 -0.003314 0.010121 0.000001 -0.000102 -0.000002
# 4 0.000002 -0.000004 0.000001 0.033008 -0.000002 0.000376
# 5 -0.001516 0.004159 -0.000102 -0.000002 0.022865 0.000003
# 6 -0.000001 -0.000006 -0.000002 0.000376 0.000003 0.054944
#
#
# Mechanical properties :
#
#
# Convention : Reuss Voigt Hill
#
# Bulk Modulus (GPa) = 33.73933 35.84046 34.78990
# Shear Modulus (GPa) = 26.39229 31.78048 29.08638
#
# Velocity S-wave (km/s) = 3.53980 3.88436 3.71608
# Velocity P-wave (km/s) = 5.72059 6.09373 5.91011
#
# Compressibility (1/GPa) = 0.02963900
#
# Stress axis : x y z
#
# Youngs Moduli (GPa) = 73.93369 39.13995 98.80459
#
# Poissons Ratio (x) = 0.27057 -0.04433
# Poissons Ratio (y) = 0.51110 0.32745
# Poissons Ratio (z) = -0.03317 0.12971
#
# Static dielectric constant tensor:
#      x y z
#    x 3.961700 -0.000010 -0.036360 
#    y -0.000010 3.546060 0.000000 
#    z -0.036360 0.000000 3.848160 
# 
# 
# High freq. dielectric constant tensor:
#      x y z
#    x 1.842840 0.000000 -0.000360 
#    y 0.000000 1.810020 0.000000 
#    z -0.000360 0.000000 1.840410 
# 
# From -- ./inp_files/274595.got.cif
#   From: 2010.06.25/outbox.cif.g09.slc.cpg/sg12_138_cif.got.tgz:274595.got - 2010.06.28 00:19:55.
