data_PCOD8108780
_publ_section_title
;
Structure prediction by ZEFSAII (Michael W. Deem and Ramdas Pophale) SiO2 
 PCOD8108780
Probable space group: C 2/M
;
_chemical_formula_sum "Si O2"
_cell_formula_units_Z 48
_cell_length_a 20.451901
_cell_length_b 14.941833
_cell_length_c 11.417212
_cell_angle_alpha 90.000000
_cell_angle_beta 39.249090
_cell_angle_gamma 90.000000
_cell_volume 2207.448981
_symmetry_space_group_name_H-M "C 2/M"
_symmetry_group_IT_number 12
_symmetry_cell_setting 'monoclinic'
loop_
_space_group_symop_operation_xyz
x,y,z
-x,y,-z
-x,-y,-z
x,-y,z
1/2+x,1/2+y,z
1/2-x,1/2+y,-z
1/2-x,1/2-y,-z
1/2+x,1/2-y,z
loop_
_atom_site_type_symbol
_atom_site_label
_atom_site_fract_x
_atom_site_fract_y
_atom_site_fract_z
Si Si1 0.106571 0.597723 0.289146
Si Si2 0.494990 0.102307 0.800001
Si Si3 0.733060 0.730988 0.887069
Si Si4 0.302826 0.097854 0.199082
Si Si5 0.279529 0.849568 0.485275
Si Si6 0.609315 0.397144 0.909296
O O1 0.160627 0.500000 0.203893
O O2 0.176069 0.661908 0.271905
O O3 0.000000 0.585776 0.500000
O O4 0.086120 0.637757 0.186728
O O5 0.600461 0.156476 0.644388
O O6 0.525158 0.000000 0.731696
O O7 0.427721 0.112968 0.012570
O O8 0.756064 0.821486 0.783633
O O9 0.629792 0.676427 0.985751
O O10 0.750000 0.750000 0.000000
O O11 0.273098 0.092714 0.375941
O O12 0.273678 0.000000 0.185192
O O13 0.250000 0.750000 0.500000
O O14 0.203107 0.891503 0.686322
O O15 0.604729 0.500000 0.963055
O O16 0.500000 0.372146 0.000000
#
# Coordination Sequence:
#
# PCOD8108780 Si02
#       6
#     8   8   8   8   8   8
#     4  10  21  38  65  97 130 168 219 274 329 393
#     4  10  21  39  64  96 130 167 215 277 339 391
#     4  12  24  42  68  99 136 177 221 278 338 409
#     4  11  24  42  65  96 135 175 221 278 338 398
#     4  12  24  39  69 100 132 174 221 280 336 403
#     4  11  26  47  70  98 137 182 228 279 338 411
#
# _framework density 21.744557
#
# number of rings (size 3 to 8) (size 9 to 14) (size 15 to 20)
#    0.000    1.000    3.333    3.500    2.333    3.333 
#    0.000    0.000    0.000    0.500    0.000    0.000 
#    0.000    0.000    0.000    0.000    0.000    0.000 
#
# Total GULP energy -297363.465091 kJ/mol
# GULP energy per Si atom -12390.144379 kJ/mol
# Density = 2.169507 g / cm^3
# Si number density = 21.744557 Si / 1000 Ang^3
#
#
#
# Elastic Constant Matrix: (Units=GPa)
#
#
# Indices 1 2 3 4 5 6 
#
# 1 126.3023 71.5006 34.0012 0.0000 -8.3059 0.0000
# 2 71.5006 147.2977 13.1717 0.0000 -15.0775 0.0000
# 3 34.0012 13.1717 88.4961 0.0000 -0.0244 0.0000
# 4 0.0000 0.0000 0.0000 0.1503 0.0000 1.1444
# 5 -8.3059 -15.0775 -0.0244 0.0000 37.8887 0.0000
# 6 0.0000 0.0000 0.0000 1.1444 0.0000 39.9851
#
#
#
# Elastic Compliance Matrix: (Units=1/GPa)
#
#
# Indices 1 2 3 4 5 6 
#
# 1 0.012076 -0.005472 -0.003825 0.000000 0.000467 0.000000
# 2 -0.005472 0.009656 0.000666 0.000000 0.002643 0.000000
# 3 -0.003825 0.000666 0.012670 0.000000 -0.000565 0.000000
# 4 0.000000 0.000000 0.000000 8.504777 0.000000 -0.243404
# 5 0.000467 0.002643 -0.000565 0.000000 0.027547 0.000000
# 6 0.000000 0.000000 0.000000 -0.243404 0.000000 0.031975
#
#
# Mechanical properties :
#
#
# Convention : Reuss Voigt Hill
#
# Bulk Modulus (GPa) = 58.34296 66.60478 62.47387
# Shear Modulus (GPa) = 0.57993 31.83300 16.20647
#
# Velocity S-wave (km/s) = 0.51699 3.83031 2.73300
# Velocity P-wave (km/s) = 5.21974 7.08934 6.22513
#
# Compressibility (1/GPa) = 0.01714003
#
# Stress axis : x y z
#
# Youngs Moduli (GPa) = 82.81174 103.56128 78.92478
#
# Poissons Ratio (x) = 0.56667 0.30189
# Poissons Ratio (y) = 0.45313 -0.05255
# Poissons Ratio (z) = 0.31676 -0.06896
#
# Static dielectric constant tensor:
#      x y z
#    x 4.416410 0.000000 0.295980 
#    y 0.000000 4.341940 0.000000 
#    z 0.295980 0.000000 4.698220 
# 
# 
# High freq. dielectric constant tensor:
#      x y z
#    x 1.852810 0.000000 0.009490 
#    y 0.000000 1.869400 0.000000 
#    z 0.009490 0.000000 1.841470 
# 
# From -- ./inp_files/167526.got.cif
#   From: 2010.06.25/outbox.cif.g09.slc.cpg/sg12_84_cif.got.tgz:167526.got - 2010.06.28 00:19:55.
