data_PCOD8108246
_publ_section_title
;
Structure prediction by ZEFSAII (Michael W. Deem and Ramdas Pophale) SiO2 
 PCOD8108246
Probable space group: C 2/M
;
_chemical_formula_sum "Si O2"
_cell_formula_units_Z 40
_cell_length_a 12.530604
_cell_length_b 14.048033
_cell_length_c 17.013039
_cell_angle_alpha 90.000000
_cell_angle_beta 41.970584
_cell_angle_gamma 90.000000
_cell_volume 2002.776820
_symmetry_space_group_name_H-M "C 2/M"
_symmetry_group_IT_number 12
_symmetry_cell_setting 'monoclinic'
loop_
_space_group_symop_operation_xyz
x,y,z
-x,y,-z
-x,-y,-z
x,-y,z
1/2+x,1/2+y,z
1/2-x,1/2+y,-z
1/2-x,1/2-y,-z
1/2+x,1/2-y,z
loop_
_atom_site_type_symbol
_atom_site_label
_atom_site_fract_x
_atom_site_fract_y
_atom_site_fract_z
Si Si1 0.104174 0.891854 0.279542
Si Si2 0.901306 0.766877 0.863750
Si Si3 0.754997 0.651486 0.538593
Si Si4 0.242334 0.215979 0.720784
Si Si5 0.050438 0.396091 0.280463
O O1 0.147987 0.850443 0.169580
O O2 0.179228 0.821095 0.304936
O O3 0.912345 0.899817 0.387368
O O4 0.171709 0.000000 0.253266
O O5 0.971956 0.675041 0.779706
O O6 0.051554 0.789841 0.836648
O O7 0.750000 0.750000 0.000000
O O8 0.750000 0.750000 0.500000
O O9 0.791622 0.673779 0.609408
O O10 0.897408 0.592956 0.421193
O O11 0.300215 0.140832 0.752539
O O12 0.089672 0.500000 0.224717
#
# Coordination Sequence:
#
# PCOD8108246 Si02
#       5
#     8   8   8   8   8
#     4  10  22  38  60  90 119 153 194 235 286 348
#     4  10  23  43  62  80 116 157 194 244 294 336
#     4  11  19  38  59  86 124 156 182 231 289 348
#     4  10  21  38  61  83 119 152 195 235 291 341
#     4  11  23  37  60  91 118 150 196 237 285 345
#
# _framework density 19.972270000000002
#
# number of rings (size 3 to 8) (size 9 to 14) (size 15 to 20)
#    0.000    1.600    6.000    1.200    0.000    9.600 
#    0.000    3.000    0.000    0.000    0.000    0.000 
#    0.000    0.000    0.000    0.000    0.000    0.000 
#
# Total GULP energy -247820.437532 kJ/mol
# GULP energy per Si atom -12391.021877 kJ/mol
# Density = 1.992681 g / cm^3
# Si number density = 19.972270 Si / 1000 Ang^3
#
#
#
# Elastic Constant Matrix: (Units=GPa)
#
#
# Indices 1 2 3 4 5 6 
#
# 1 57.9259 -10.6294 24.2514 -0.0001 -10.4930 0.0000
# 2 -10.6294 102.2254 9.4609 -0.0001 1.7762 0.0000
# 3 24.2514 9.4609 138.2021 -0.0004 -10.8771 0.0002
# 4 -0.0001 -0.0001 -0.0004 14.1122 0.0001 -3.5755
# 5 -10.4930 1.7762 -10.8771 0.0001 20.2859 -0.0001
# 6 0.0000 0.0000 0.0002 -3.5755 -0.0001 8.4559
#
#
#
# Elastic Compliance Matrix: (Units=1/GPa)
#
#
# Indices 1 2 3 4 5 6 
#
# 1 0.020557 0.002269 -0.003071 0.000000 0.008788 0.000000
# 2 0.002269 0.010127 -0.001116 0.000000 -0.000311 0.000000
# 3 -0.003071 -0.001116 0.008074 0.000000 0.002839 0.000000
# 4 0.000000 0.000000 0.000000 0.079363 0.000000 0.033558
# 5 0.008788 -0.000311 0.002839 0.000000 0.055390 0.000000
# 6 0.000000 0.000000 0.000000 0.033558 0.000000 0.132450
#
#
# Mechanical properties :
#
#
# Convention : Reuss Voigt Hill
#
# Bulk Modulus (GPa) = 28.63436 38.27991 33.45714
# Shear Modulus (GPa) = 15.55505 26.92217 21.23861
#
# Velocity S-wave (km/s) = 2.79378 3.67546 3.26453
# Velocity P-wave (km/s) = 4.97747 6.10084 5.56756
#
# Compressibility (1/GPa) = 0.03492308
#
# Stress axis : x y z
#
# Youngs Moduli (GPa) = 48.64416 98.74660 123.84681
#
# Poissons Ratio (x) = -0.22406 0.38034
# Poissons Ratio (y) = -0.11038 0.13821
# Poissons Ratio (z) = 0.14939 0.11020
#
# Static dielectric constant tensor:
#      x y z
#    x 3.663290 0.000000 -0.169000 
#    y 0.000000 3.592800 0.000000 
#    z -0.169000 0.000000 2.793440 
# 
# 
# High freq. dielectric constant tensor:
#      x y z
#    x 1.786420 0.000000 -0.008220 
#    y 0.000000 1.778670 0.000000 
#    z -0.008220 0.000000 1.761720 
# 
# From -- ./inp_files/129112.got.cif
#   From: 2010.06.25/outbox.cif.g09.slc.cpg/sg12_65_cif.got.tgz:129112.got - 2010.06.28 00:19:55.
