data_PCOD8108836
_publ_section_title
;
Structure prediction by ZEFSAII (Michael W. Deem and Ramdas Pophale) SiO2 
 PCOD8108836
Probable space group: C 2/M
;
_chemical_formula_sum "Si O2"
_cell_formula_units_Z 64
_cell_length_a 21.749017
_cell_length_b 22.589010
_cell_length_c 7.895483
_cell_angle_alpha 90.000000
_cell_angle_beta 124.824921
_cell_angle_gamma 90.000000
_cell_volume 3184.243447
_symmetry_space_group_name_H-M "C 2/M"
_symmetry_group_IT_number 12
_symmetry_cell_setting 'monoclinic'
loop_
_space_group_symop_operation_xyz
x,y,z
-x,y,-z
-x,-y,-z
x,-y,z
1/2+x,1/2+y,z
1/2-x,1/2+y,-z
1/2-x,1/2-y,-z
1/2+x,1/2-y,z
loop_
_atom_site_type_symbol
_atom_site_label
_atom_site_fract_x
_atom_site_fract_y
_atom_site_fract_z
Si Si1 0.091177 0.660989 0.484014
Si Si2 0.332693 0.754585 0.899383
Si Si3 0.790633 0.848475 0.289330
Si Si4 0.402470 0.064603 0.260603
Si Si5 0.270881 0.434192 0.953253
Si Si6 0.244954 0.147482 0.385145
Si Si7 0.087056 0.223362 0.652672
Si Si8 0.048242 0.653026 0.930084
O O1 0.063266 0.598941 0.523338
O O2 0.164748 0.653093 0.484489
O O3 0.107451 0.707315 0.658999
O O4 0.017045 0.686684 0.278043
O O5 0.269618 0.799783 0.871974
O O6 0.294049 0.711551 0.701969
O O7 0.373352 0.712953 0.103052
O O8 0.396006 0.796360 0.912533
O O9 0.798858 0.901325 0.166612
O O10 0.772145 0.872986 0.449003
O O11 0.871782 0.816878 0.422597
O O12 0.407867 0.101445 0.096267
O O13 0.440179 0.000000 0.300570
O O14 0.316570 0.057988 0.168355
O O15 0.308060 0.500000 0.000706
O O16 0.287688 0.398399 0.805055
O O17 0.000000 0.207278 0.500000
O O18 0.000000 0.620877 0.000000
#
# Coordination Sequence:
#
# PCOD8108836 Si02
#       8
#     8   8   8   8   8   8   8   8
#     4  11  21  38  55  84 119 159 206 246 304 357
#     4  12  21  38  58  89 128 161 203 253 306 369
#     4  12  23  39  66  93 122 163 205 252 310 372
#     4  10  21  39  58  77 111 164 216 253 291 341
#     4  10  22  42  66  90 120 161 210 259 302 358
#     4  11  24  39  63  95 123 162 206 255 308 369
#     4  12  22  37  60  90 125 161 197 250 317 380
#     4  12  24  34  54  85 125 163 200 251 301 354
#
# _framework density 20.098966000000001
#
# number of rings (size 3 to 8) (size 9 to 14) (size 15 to 20)
#    0.000    0.750    6.250    2.625    1.750    1.750 
#    0.000    0.000    0.000    0.375    0.000    0.875 
#    0.000    0.000    0.000    0.000    0.000    0.000 
#
# Total GULP energy -396550.640171 kJ/mol
# GULP energy per Si atom -12392.207505 kJ/mol
# Density = 2.005322 g / cm^3
# Si number density = 20.098966 Si / 1000 Ang^3
#
#
#
# Elastic Constant Matrix: (Units=GPa)
#
#
# Indices 1 2 3 4 5 6 
#
# 1 107.1984 41.9946 35.4722 0.0000 -5.2712 0.0000
# 2 41.9946 114.9880 40.4123 0.0000 -1.8039 0.0000
# 3 35.4722 40.4123 79.7568 0.0000 -11.5885 0.0000
# 4 0.0000 0.0000 0.0000 16.1786 0.0000 -0.4447
# 5 -5.2712 -1.8039 -11.5885 0.0000 30.8830 0.0000
# 6 0.0000 0.0000 0.0000 -0.4447 0.0000 13.3695
#
#
#
# Elastic Compliance Matrix: (Units=1/GPa)
#
#
# Indices 1 2 3 4 5 6 
#
# 1 0.011727 -0.003001 -0.003628 0.000000 0.000465 0.000000
# 2 -0.003001 0.011412 -0.004681 0.000000 -0.001602 0.000000
# 3 -0.003628 -0.004681 0.017339 0.000000 0.005614 0.000000
# 4 0.000000 0.000000 0.000000 0.061867 0.000000 0.002058
# 5 0.000465 -0.001602 0.005614 0.000000 0.034472 0.000000
# 6 0.000000 0.000000 0.000000 0.002058 0.000000 0.074866
#
#
# Mechanical properties :
#
#
# Convention : Reuss Voigt Hill
#
# Bulk Modulus (GPa) = 55.99039 59.74456 57.86748
# Shear Modulus (GPa) = 20.81121 24.35717 22.58419
#
# Velocity S-wave (km/s) = 3.22131 3.48496 3.35572
# Velocity P-wave (km/s) = 6.46170 6.78107 6.62331
#
# Compressibility (1/GPa) = 0.01786021
#
# Stress axis : x y z
#
# Youngs Moduli (GPa) = 85.27112 87.62450 57.67356
#
# Poissons Ratio (x) = 0.26293 0.20923
# Poissons Ratio (y) = 0.25587 0.26996
# Poissons Ratio (z) = 0.30935 0.41015
#
# Static dielectric constant tensor:
#      x y z
#    x 3.735750 0.000000 -0.024610 
#    y 0.000000 3.876000 0.000000 
#    z -0.024610 0.000000 3.618010 
# 
# 
# High freq. dielectric constant tensor:
#      x y z
#    x 1.781740 0.000000 -0.001180 
#    y 0.000000 1.759140 0.000000 
#    z -0.001180 0.000000 1.784540 
# 
# From -- ./inp_files/90429.got.cif
#   From: 2010.06.25/outbox.cif.g09.slc.cpg/sg12_46_cif.got.tgz:90429.got - 2010.06.28 00:19:55.
