data_PCOD8108459
_publ_section_title
;
Structure prediction by ZEFSAII (Michael W. Deem and Ramdas Pophale) SiO2 
 PCOD8108459
Probable space group: C 2/M
;
_chemical_formula_sum "Si O2"
_cell_formula_units_Z 36
_cell_length_a 10.189778
_cell_length_b 15.641817
_cell_length_c 9.051077
_cell_angle_alpha 90.000000
_cell_angle_beta 103.878508
_cell_angle_gamma 90.000000
_cell_volume 1400.505662
_symmetry_space_group_name_H-M "C 2/M"
_symmetry_group_IT_number 12
_symmetry_cell_setting 'monoclinic'
loop_
_space_group_symop_operation_xyz
x,y,z
-x,y,-z
-x,-y,-z
x,-y,z
1/2+x,1/2+y,z
1/2-x,1/2+y,-z
1/2-x,1/2-y,-z
1/2+x,1/2-y,z
loop_
_atom_site_type_symbol
_atom_site_label
_atom_site_fract_x
_atom_site_fract_y
_atom_site_fract_z
Si Si1 0.143846 0.809502 0.116721
Si Si2 0.500000 0.342569 0.500000
Si Si3 0.379954 0.902646 0.081337
Si Si4 0.747144 0.594745 0.420442
Si Si5 0.443967 0.192315 0.671762
O O1 0.264298 0.828459 0.026847
O O2 0.182541 0.884719 0.243791
O O3 0.144660 0.718752 0.205807
O O4 0.000000 0.825071 0.000000
O O5 0.369582 0.401931 0.485712
O O6 0.517708 0.281086 0.648718
O O7 0.448452 0.882408 0.260245
O O8 0.325143 0.000000 0.059137
O O9 0.500000 0.887248 0.000000
O O10 0.808385 0.500000 0.435317
O O11 0.858928 0.662855 0.506057
#
# Coordination Sequence:
#
# PCOD8108459 Si02
#       5
#     8   4   8   8   8
#     4  11  25  44  69  98 135 179 223 269 329 400
#     4  10  21  38  61  94 130 164 210 264 325 394
#     4  11  25  43  65  97 135 176 224 277 332 390
#     4  11  23  40  66  98 132 169 215 273 331 388
#     4  11  22  42  69  95 129 172 223 274 325 391
#
# _framework density 25.705000999999999
#
# number of rings (size 3 to 8) (size 9 to 14) (size 15 to 20)
#    0.000    1.111    0.000    7.667    0.000    8.889 
#    0.000    5.556    0.000    0.000    0.000    0.000 
#    0.000    0.889    0.000    0.000    0.000    0.000 
#
# Total GULP energy -222998.788602 kJ/mol
# GULP energy per Si atom -12388.821589 kJ/mol
# Density = 2.564650 g / cm^3
# Si number density = 25.705001 Si / 1000 Ang^3
#
#
#
# Elastic Constant Matrix: (Units=GPa)
#
#
# Indices 1 2 3 4 5 6 
#
# 1 64.1525 -14.1603 21.6264 0.0000 25.6930 0.0000
# 2 -14.1603 112.5181 13.3291 0.0000 22.1708 0.0000
# 3 21.6264 13.3291 113.5938 0.0000 25.8768 0.0000
# 4 0.0000 0.0000 0.0000 46.2650 0.0000 -10.3295
# 5 25.6930 22.1708 25.8768 0.0000 39.0684 0.0000
# 6 0.0000 0.0000 0.0000 -10.3295 0.0000 49.4952
#
#
#
# Elastic Compliance Matrix: (Units=1/GPa)
#
#
# Indices 1 2 3 4 5 6 
#
# 1 0.025769 0.007396 -0.001127 0.000000 -0.020397 0.000000
# 2 0.007396 0.012131 -0.000183 0.000000 -0.011627 0.000000
# 3 -0.001127 -0.000183 0.010419 0.000000 -0.006056 0.000000
# 4 0.000000 0.000000 0.000000 0.022671 0.000000 0.004731
# 5 -0.020397 -0.011627 -0.006056 0.000000 0.049619 0.000000
# 6 0.000000 0.000000 0.000000 0.004731 0.000000 0.021191
#
#
# Mechanical properties :
#
#
# Convention : Reuss Voigt Hill
#
# Bulk Modulus (GPa) = 16.53161 36.87275 26.70218
# Shear Modulus (GPa) = 33.37934 44.93031 39.15483
#
# Velocity S-wave (km/s) = 3.60746 4.18535 3.90710
# Velocity P-wave (km/s) = 4.87821 6.14263 5.54657
#
# Compressibility (1/GPa) = 0.06049018
#
# Stress axis : x y z
#
# Youngs Moduli (GPa) = 38.80559 82.43466 95.97947
#
# Poissons Ratio (x) = -0.60967 0.10820
# Poissons Ratio (y) = -0.28700 0.01755
# Poissons Ratio (z) = 0.04375 0.01508
#
# Static dielectric constant tensor:
#      x y z
#    x 5.185880 0.000000 -0.627110 
#    y 0.000000 4.435560 0.000000 
#    z -0.627110 0.000000 4.868060 
# 
# 
# High freq. dielectric constant tensor:
#      x y z
#    x 2.040600 0.000000 -0.036440 
#    y 0.000000 2.015320 0.000000 
#    z -0.036440 0.000000 2.037430 
# 
# From -- ./inp_files/46638.got.cif
#   From: 2010.06.25/outbox.cif.g09.slc.cpg/sg12_24_cif.got.tgz:46638.got - 2010.06.28 00:19:55.
