data_PCOD8108014
_publ_section_title
;
Structure prediction by ZEFSAII (Michael W. Deem and Ramdas Pophale) SiO2 
 PCOD8108014
Probable space group: C 2/M
;
_chemical_formula_sum "Si O2"
_cell_formula_units_Z 48
_cell_length_a 10.088689
_cell_length_b 8.931903
_cell_length_c 26.487065
_cell_angle_alpha 90.000000
_cell_angle_beta 90.146367
_cell_angle_gamma 90.000000
_cell_volume 2386.773200
_symmetry_space_group_name_H-M "C 2/M"
_symmetry_group_IT_number 12
_symmetry_cell_setting 'monoclinic'
loop_
_space_group_symop_operation_xyz
x,y,z
-x,y,-z
-x,-y,-z
x,-y,z
1/2+x,1/2+y,z
1/2-x,1/2+y,-z
1/2-x,1/2-y,-z
1/2+x,1/2-y,z
loop_
_atom_site_type_symbol
_atom_site_label
_atom_site_fract_x
_atom_site_fract_y
_atom_site_fract_z
Si Si1 0.370373 0.176655 0.528277
Si Si2 0.343691 0.673781 0.864284
Si Si3 0.847836 0.672877 0.299000
Si Si4 0.615471 0.173030 0.356463
Si Si5 0.365717 0.172417 0.969530
Si Si6 0.609387 0.326410 0.806473
O O1 0.500000 0.235381 0.500000
O O2 0.250000 0.250000 0.500000
O O3 0.374573 0.229416 0.586175
O O4 0.357591 0.000000 0.524394
O O5 0.321723 0.500000 0.875726
O O6 0.386110 0.753270 0.915521
O O7 0.458803 0.700751 0.823576
O O8 0.206967 0.739443 0.843706
O O9 0.833115 0.500000 0.283336
O O10 0.710480 0.726480 0.322579
O O11 0.879761 0.767854 0.249914
O O12 0.964381 0.697170 0.339374
O O13 0.657781 0.000000 0.351008
O O14 0.328290 0.000000 0.961863
O O15 0.500000 0.193578 0.000000
O O16 0.250000 0.250000 0.000000
O O17 0.648315 0.500000 0.808061
#
# Coordination Sequence:
#
# PCOD8108014 Si02
#       6
#     8   8   8   8   8   8
#     4  10  21  38  59  85 117 152 193 240 290 346
#     4  11  24  41  63  91 121 156 199 244 292 349
#     4  11  23  39  61  87 116 153 196 241 290 347
#     4  10  22  39  59  85 118 154 192 239 293 347
#     4  11  24  41  63  91 123 160 200 244 295 349
#     4  11  24  41  62  89 121 156 195 242 295 350
#
# _framework density 20.110835000000002
#
# number of rings (size 3 to 8) (size 9 to 14) (size 15 to 20)
#    0.000    1.333    0.000    5.000    0.000   13.000 
#    0.000    0.000    0.000    0.000    0.000    0.000 
#    0.000    0.000    0.000    0.000    0.000    0.000 
#
# Total GULP energy -297772.825946 kJ/mol
# GULP energy per Si atom -12407.201081 kJ/mol
# Density = 2.006506 g / cm^3
# Si number density = 20.110835 Si / 1000 Ang^3
#
#
#
# Elastic Constant Matrix: (Units=GPa)
#
#
# Indices 1 2 3 4 5 6 
#
# 1 82.7448 49.6762 13.1389 0.0000 -6.5992 0.0000
# 2 49.6762 98.6400 41.9487 0.0000 -3.5537 0.0000
# 3 13.1389 41.9487 112.6881 0.0000 -4.3894 0.0000
# 4 0.0000 0.0000 0.0000 33.6278 0.0000 4.5736
# 5 -6.5992 -3.5537 -4.3894 0.0000 40.8652 0.0000
# 6 0.0000 0.0000 0.0000 4.5736 0.0000 34.8880
#
#
#
# Elastic Compliance Matrix: (Units=1/GPa)
#
#
# Indices 1 2 3 4 5 6 
#
# 1 0.017722 -0.009509 0.001559 0.000000 0.002202 0.000000
# 2 -0.009509 0.017160 -0.005303 0.000000 -0.000613 0.000000
# 3 0.001559 -0.005303 0.010703 0.000000 0.000940 0.000000
# 4 0.000000 0.000000 0.000000 0.030277 0.000000 -0.003969
# 5 0.002202 -0.000613 0.000940 0.000000 0.024874 0.000000
# 6 0.000000 0.000000 0.000000 -0.003969 0.000000 0.029184
#
#
# Mechanical properties :
#
#
# Convention : Reuss Voigt Hill
#
# Bulk Modulus (GPa) = 52.41210 55.95563 54.18386
# Shear Modulus (GPa) = 30.71546 34.49679 32.60612
#
# Velocity S-wave (km/s) = 3.91232 4.14615 4.03093
# Velocity P-wave (km/s) = 6.82104 7.12775 6.97608
#
# Compressibility (1/GPa) = 0.01907956
#
# Stress axis : x y z
#
# Youngs Moduli (GPa) = 56.42690 58.27602 93.43216
#
# Poissons Ratio (x) = 0.55413 -0.14568
# Poissons Ratio (y) = 0.53655 0.49547
# Poissons Ratio (z) = -0.08798 0.30904
#
# Static dielectric constant tensor:
#      x y z
#    x 3.709990 0.000000 0.008670 
#    y 0.000000 3.837330 0.000000 
#    z 0.008670 0.000000 3.362950 
# 
# 
# High freq. dielectric constant tensor:
#      x y z
#    x 1.799220 0.000000 0.000640 
#    y 0.000000 1.793040 0.000000 
#    z 0.000640 0.000000 1.802920 
# 
# From -- ./inp_files/334639.got.cif
#   From: 2010.06.25/outbox.cif.g09.slc.cpg/sg12_168_cif.got.tgz:334639.got - 2010.06.28 00:19:55.
