data_PCOD8108380
_publ_section_title
;
Structure prediction by ZEFSAII (Michael W. Deem and Ramdas Pophale) SiO2 
 PCOD8108380
Probable space group: C 2/M
;
_chemical_formula_sum "Si O2"
_cell_formula_units_Z 40
_cell_length_a 11.854514
_cell_length_b 25.934902
_cell_length_c 8.556204
_cell_angle_alpha 90.000000
_cell_angle_beta 48.577970
_cell_angle_gamma 90.000000
_cell_volume 1972.548983
_symmetry_space_group_name_H-M "C 2/M"
_symmetry_group_IT_number 12
_symmetry_cell_setting 'monoclinic'
loop_
_space_group_symop_operation_xyz
x,y,z
-x,y,-z
-x,-y,-z
x,-y,z
1/2+x,1/2+y,z
1/2-x,1/2+y,-z
1/2-x,1/2-y,-z
1/2+x,1/2-y,z
loop_
_atom_site_type_symbol
_atom_site_label
_atom_site_fract_x
_atom_site_fract_y
_atom_site_fract_z
Si Si1 0.165090 0.559520 0.909175
Si Si2 0.334554 0.348672 0.601552
Si Si3 0.661180 0.057349 0.273937
Si Si4 0.841309 0.149808 0.229699
Si Si5 0.678650 0.752000 0.888935
O O1 0.211149 0.500000 0.837719
O O2 0.283165 0.595296 0.709853
O O3 0.159876 0.574202 0.095220
O O4 0.000000 0.571282 0.000000
O O5 0.500000 0.335447 0.500000
O O6 0.346618 0.344962 0.407573
O O7 0.226250 0.304864 0.766398
O O8 0.500000 0.059147 0.500000
O O9 0.761842 0.096140 0.275275
O O10 0.729281 0.000000 0.227498
O O11 0.750235 0.199767 0.249254
O O12 0.000000 0.145691 0.000000
O O13 0.500000 0.748266 0.000000
O O14 0.750000 0.750000 0.000000
#
# Coordination Sequence:
#
# PCOD8108380 Si02
#       5
#     8   8   8   8   8
#     4  10  21  39  62  89 122 161 207 257 311 373
#     4  12  24  40  64  92 124 163 209 259 316 374
#     4  10  21  38  61  89 120 157 201 249 304 367
#     4  11  24  41  60  88 123 160 203 253 309 369
#     4  11  24  44  67  94 128 164 209 261 317 378
#
# _framework density 20.278331999999999
#
# number of rings (size 3 to 8) (size 9 to 14) (size 15 to 20)
#    0.000    1.200    0.000    7.200    0.000    5.600 
#    0.000    0.000    0.000    0.000    0.000    0.000 
#    0.000    0.000    0.000    0.000    0.000    0.000 
#
# Total GULP energy -247765.603874 kJ/mol
# GULP energy per Si atom -12388.280194 kJ/mol
# Density = 2.023218 g / cm^3
# Si number density = 20.278332 Si / 1000 Ang^3
#
#
#
# Elastic Constant Matrix: (Units=GPa)
#
#
# Indices 1 2 3 4 5 6 
#
# 1 140.4671 51.8369 41.5305 0.0000 27.9653 0.0000
# 2 51.8369 124.1501 42.1088 0.0000 8.9602 0.0000
# 3 41.5305 42.1088 98.8705 0.0000 28.9595 0.0000
# 4 0.0000 0.0000 0.0000 -153.5253 0.0000 149.0183
# 5 27.9653 8.9602 28.9595 0.0000 43.5444 0.0000
# 6 0.0000 0.0000 0.0000 149.0183 0.0000 -75.4904
#
#
#
# Elastic Compliance Matrix: (Units=1/GPa)
#
#
# Indices 1 2 3 4 5 6 
#
# 1 0.009626 -0.003242 -0.001300 0.000000 -0.004650 0.000000
# 2 -0.003242 0.010536 -0.003850 0.000000 0.002475 0.000000
# 3 -0.001300 -0.003850 0.014684 0.000000 -0.008138 0.000000
# 4 0.000000 0.000000 0.000000 0.007110 0.000000 0.014036
# 5 -0.004650 0.002475 -0.008138 0.000000 0.030855 0.000000
# 6 0.000000 0.000000 0.000000 0.014036 0.000000 0.014461
#
#
# Mechanical properties :
#
#
# Convention : Reuss Voigt Hill
#
# Bulk Modulus (GPa) = 55.37191 70.49336 62.93264
# Shear Modulus (GPa) = 45.42260 -21.89348 11.76456
#
# Velocity S-wave (km/s) = 4.73795 -3.28937 2.41125
# Velocity P-wave (km/s) = 7.56942 4.51794 6.23330
#
# Compressibility (1/GPa) = 0.01805970
#
# Stress axis : x y z
#
# Youngs Moduli (GPa) = 103.88624 94.91389 68.10143
#
# Poissons Ratio (x) = 0.30776 0.08856
# Poissons Ratio (y) = 0.33685 0.26220
# Poissons Ratio (z) = 0.13509 0.36543
#
# Static dielectric constant tensor:
#      x y z
#    x 3.776130 0.000000 0.066370 
#    y 0.000000 4.276050 0.000000 
#    z 0.066370 0.000000 3.677930 
# 
# 
# High freq. dielectric constant tensor:
#      x y z
#    x 1.800630 0.000000 0.016980 
#    y 0.000000 1.820120 0.000000 
#    z 0.016980 0.000000 1.794070 
# 
# From -- ./inp_files/52316.got.cif
#   From: 2010.06.25/outbox.cif.g09.slc.cpg/sg12_27_cif.got.tgz:52316.got - 2010.06.28 00:19:55.
