data_PCOD8108546
_publ_section_title
;
Structure prediction by ZEFSAII (Michael W. Deem and Ramdas Pophale) SiO2 
 PCOD8108546
Probable space group: C 2/M
;
_chemical_formula_sum "Si O2"
_cell_formula_units_Z 64
_cell_length_a 18.579121
_cell_length_b 8.729152
_cell_length_c 31.734318
_cell_angle_alpha 90.000000
_cell_angle_beta 140.950158
_cell_angle_gamma 90.000000
_cell_volume 3242.383022
_symmetry_space_group_name_H-M "C 2/M"
_symmetry_group_IT_number 12
_symmetry_cell_setting 'monoclinic'
loop_
_space_group_symop_operation_xyz
x,y,z
-x,y,-z
-x,-y,-z
x,-y,z
1/2+x,1/2+y,z
1/2-x,1/2+y,-z
1/2-x,1/2-y,-z
1/2+x,1/2-y,z
loop_
_atom_site_type_symbol
_atom_site_label
_atom_site_fract_x
_atom_site_fract_y
_atom_site_fract_z
Si Si1 0.466932 0.676199 0.774539
Si Si2 0.258999 0.820025 0.632293
Si Si3 0.413630 0.675876 0.842006
Si Si4 0.044043 0.178343 0.590795
Si Si5 0.836039 0.325431 0.183119
Si Si6 0.347036 0.173220 0.283700
Si Si7 0.092602 0.677806 0.076711
Si Si8 0.699848 0.819524 0.520127
O O1 0.433474 0.500000 0.751404
O O2 0.368297 0.781013 0.710284
O O3 0.485176 0.708363 0.832501
O O4 0.589660 0.713320 0.811355
O O5 0.143738 0.767659 0.604206
O O6 0.272341 0.736024 0.593455
O O7 0.256830 0.000000 0.623088
O O8 0.420817 0.500000 0.860329
O O9 0.284396 0.718952 0.771409
O O10 0.458743 0.782051 0.900535
O O11 0.079938 0.210299 0.655213
O O12 0.929749 0.270936 0.529264
O O13 0.017268 0.000000 0.573042
O O14 0.847422 0.500000 0.172678
O O15 0.884430 0.309641 0.252380
O O16 0.704690 0.277911 0.119851
O O17 0.368261 0.000000 0.309482
O O18 0.124404 0.500000 0.088691
O O19 0.000000 0.724100 0.000000
O O20 0.750000 0.750000 0.500000
O O21 0.708862 0.000000 0.519963
#
# Coordination Sequence:
#
# PCOD8108546 Si02
#       8
#     8   8   8   8   8   8   8   8
#     4  11  22  38  61  90 124 158 198 247 298 351
#     4  11  24  42  63  89 121 156 198 245 298 363
#     4   9  19  36  59  88 121 156 197 242 290 348
#     4  11  23  39  62  89 118 154 197 243 298 361
#     4  10  22  38  58  87 123 160 199 244 296 350
#     4   9  18  35  57  83 115 153 196 242 290 346
#     4  10  21  38  62  91 122 158 202 247 293 351
#     4  12  27  45  64  85 116 156 200 253 307 361
#
# _framework density 19.738568999999998
#
# number of rings (size 3 to 8) (size 9 to 14) (size 15 to 20)
#    0.000    1.625    1.250    4.125    1.750    7.500 
#    0.000    0.625    0.000    0.000    0.000    0.000 
#    0.000    0.000    0.000    0.000    0.000    0.000 
#
# Total GULP energy -396909.963495 kJ/mol
# GULP energy per Si atom -12403.436359 kJ/mol
# Density = 1.969364 g / cm^3
# Si number density = 19.738569 Si / 1000 Ang^3
#
#
#
# Elastic Constant Matrix: (Units=GPa)
#
#
# Indices 1 2 3 4 5 6 
#
# 1 106.1227 35.3785 36.6967 -0.0001 -7.9865 0.0003
# 2 35.3785 84.7735 37.1213 -0.0001 -7.9331 0.0003
# 3 36.6967 37.1213 90.9892 0.0000 -17.2387 0.0000
# 4 -0.0001 -0.0001 0.0000 33.0866 0.0000 -1.2261
# 5 -7.9865 -7.9331 -17.2387 0.0000 21.7203 -0.0001
# 6 0.0003 0.0003 0.0000 -1.2261 -0.0001 32.2456
#
#
#
# Elastic Compliance Matrix: (Units=1/GPa)
#
#
# Indices 1 2 3 4 5 6 
#
# 1 0.011722 -0.003429 -0.003236 0.000000 0.000490 0.000000
# 2 -0.003429 0.015374 -0.004784 0.000000 0.000558 0.000000
# 3 -0.003236 -0.004784 0.016113 0.000000 0.009852 0.000000
# 4 0.000000 0.000000 0.000000 0.030266 0.000000 0.001151
# 5 0.000490 0.000558 0.009852 0.000000 0.054243 0.000000
# 6 0.000000 0.000000 0.000000 0.001151 0.000000 0.031056
#
#
# Mechanical properties :
#
#
# Convention : Reuss Voigt Hill
#
# Bulk Modulus (GPa) = 49.23097 55.58649 52.40873
# Shear Modulus (GPa) = 26.53332 28.92309 27.72820
#
# Velocity S-wave (km/s) = 3.67036 3.83209 3.75210
# Velocity P-wave (km/s) = 6.55421 6.91392 6.73647
#
# Compressibility (1/GPa) = 0.02031242
#
# Stress axis : x y z
#
# Youngs Moduli (GPa) = 85.30946 65.04443 62.06000
#
# Poissons Ratio (x) = 0.22305 0.20082
# Poissons Ratio (y) = 0.29254 0.29687
# Poissons Ratio (z) = 0.27605 0.31114
#
# Static dielectric constant tensor:
#      x y z
#    x 3.766620 0.000000 -0.185910 
#    y 0.000000 3.599640 0.000000 
#    z -0.185910 0.000000 3.464050 
# 
# 
# High freq. dielectric constant tensor:
#      x y z
#    x 1.774490 0.000000 -0.011370 
#    y 0.000000 1.775090 0.000000 
#    z -0.011370 0.000000 1.757230 
# 
# From -- ./inp_files/378532.got.cif
#   From: 2010.06.25/outbox.cif.g09.slc.cpg/sg12_190_cif.got.tgz:378532.got - 2010.06.28 00:19:55.
