data_PCOD8108758
_publ_section_title
;
Structure prediction by ZEFSAII (Michael W. Deem and Ramdas Pophale) SiO2 
 PCOD8108758
Probable space group: C 2/M
;
_chemical_formula_sum "Si O2"
_cell_formula_units_Z 52
_cell_length_a 20.253440
_cell_length_b 17.117166
_cell_length_c 14.635925
_cell_angle_alpha 90.000000
_cell_angle_beta 31.795697
_cell_angle_gamma 90.000000
_cell_volume 2673.452128
_symmetry_space_group_name_H-M "C 2/M"
_symmetry_group_IT_number 12
_symmetry_cell_setting 'monoclinic'
loop_
_space_group_symop_operation_xyz
x,y,z
-x,y,-z
-x,-y,-z
x,-y,z
1/2+x,1/2+y,z
1/2-x,1/2+y,-z
1/2-x,1/2-y,-z
1/2+x,1/2-y,z
loop_
_atom_site_type_symbol
_atom_site_label
_atom_site_fract_x
_atom_site_fract_y
_atom_site_fract_z
Si Si1 0.207071 0.130085 0.053452
Si Si2 0.500000 0.195175 0.000000
Si Si3 0.085859 0.275473 0.098906
Si Si4 0.253955 0.823091 0.374963
Si Si5 0.663557 0.000000 0.214456
Si Si6 0.526721 0.413709 0.567127
Si Si7 0.666049 0.160461 0.522405
Si Si8 0.868806 0.500000 0.541009
O O1 0.134991 0.194706 0.080013
O O2 0.102005 0.079346 0.226249
O O3 0.299655 0.163351 0.023483
O O4 0.282696 0.077798 0.893514
O O5 0.459587 0.239479 0.952896
O O6 0.625043 0.146687 0.825617
O O7 0.973776 0.308241 0.293768
O O8 0.124305 0.855763 0.494932
O O9 0.265031 0.855172 0.463743
O O10 0.244939 0.728359 0.377638
O O11 0.516551 0.000000 0.373160
O O12 0.695948 0.000000 0.283710
O O13 0.500000 0.377761 0.500000
O O14 0.585891 0.500000 0.490061
O O15 0.673329 0.079327 0.459716
#
# Coordination Sequence:
#
# PCOD8108758 Si02
#       8
#     8   4   8   8   4   8   8   4
#     4  11  21  40  62  93 124 167 202 254 316 374
#     4  10  22  40  63  89 118 152 212 264 304 373
#     4  10  21  38  65  90 120 163 209 257 309 368
#     4  10  22  41  62  91 118 165 203 266 310 377
#     4  11  24  40  62  91 137 162 209 255 313 377
#     4  11  23  39  61  91 124 160 206 258 317 377
#     4  10  21  41  64  88 125 162 214 250 316 371
#     4  11  24  42  61  95 126 175 206 261 308 373
#
# _framework density 19.450507000000002
#
# number of rings (size 3 to 8) (size 9 to 14) (size 15 to 20)
#    0.000    1.538    3.846    0.923    3.231    0.000 
#    2.769    0.385    0.000    1.846    0.000    0.000 
#    0.000    0.000    0.000    0.000    0.000    0.000 
#
# Total GULP energy -322185.646680 kJ/mol
# GULP energy per Si atom -12391.755642 kJ/mol
# Density = 1.940624 g / cm^3
# Si number density = 19.450507 Si / 1000 Ang^3
#
#
#
# Elastic Constant Matrix: (Units=GPa)
#
#
# Indices 1 2 3 4 5 6 
#
# 1 134.0652 58.2453 44.3699 0.0000 2.4119 0.0000
# 2 58.2453 99.8613 31.8141 0.0000 7.7277 0.0000
# 3 44.3699 31.8141 106.3750 0.0000 5.0403 0.0000
# 4 0.0000 0.0000 0.0000 20.5299 0.0000 -7.6236
# 5 2.4119 7.7277 5.0403 0.0000 26.5372 0.0000
# 6 0.0000 0.0000 0.0000 -7.6236 0.0000 16.6051
#
#
#
# Elastic Compliance Matrix: (Units=1/GPa)
#
#
# Indices 1 2 3 4 5 6 
#
# 1 0.010768 -0.005440 -0.002919 0.000000 0.001160 0.000000
# 2 -0.005440 0.014000 -0.001764 0.000000 -0.003247 0.000000
# 3 -0.002919 -0.001764 0.011210 0.000000 -0.001350 0.000000
# 4 0.000000 0.000000 0.000000 0.058720 0.000000 0.026959
# 5 0.001160 -0.003247 -0.001350 0.000000 0.038780 0.000000
# 6 0.000000 0.000000 0.000000 0.026959 0.000000 0.072599
#
#
# Mechanical properties :
#
#
# Convention : Reuss Voigt Hill
#
# Bulk Modulus (GPa) = 63.56937 67.68445 65.62691
# Shear Modulus (GPa) = 21.59189 26.45927 24.02558
#
# Velocity S-wave (km/s) = 3.33542 3.69228 3.51838
# Velocity P-wave (km/s) = 6.89833 7.28362 7.09359
#
# Compressibility (1/GPa) = 0.01573085
#
# Stress axis : x y z
#
# Youngs Moduli (GPa) = 92.86873 71.42715 89.20654
#
# Poissons Ratio (x) = 0.38858 0.26042
# Poissons Ratio (y) = 0.50523 0.15737
# Poissons Ratio (z) = 0.27111 0.12600
#
# Static dielectric constant tensor:
#      x y z
#    x 3.839740 0.000000 -0.055550 
#    y 0.000000 3.334940 0.000000 
#    z -0.055550 0.000000 3.731190 
# 
# 
# High freq. dielectric constant tensor:
#      x y z
#    x 1.770090 0.000000 -0.006840 
#    y 0.000000 1.740560 0.000000 
#    z -0.006840 0.000000 1.768120 
# 
# From -- ./inp_files/234455.got.cif
#   From: 2010.06.25/outbox.cif.g09.slc.cpg/sg12_118_cif.got.tgz:234455.got - 2010.06.28 00:19:55.
