data_PCOD8108241
_publ_section_title
;
Structure prediction by ZEFSAII (Michael W. Deem and Ramdas Pophale) SiO2 
 PCOD8108241
Probable space group: C 2/M
;
_chemical_formula_sum "Si O2"
_cell_formula_units_Z 64
_cell_length_a 24.350307
_cell_length_b 19.214447
_cell_length_c 15.651375
_cell_angle_alpha 90.000000
_cell_angle_beta 25.694206
_cell_angle_gamma 90.000000
_cell_volume 3174.987431
_symmetry_space_group_name_H-M "C 2/M"
_symmetry_group_IT_number 12
_symmetry_cell_setting 'monoclinic'
loop_
_space_group_symop_operation_xyz
x,y,z
-x,y,-z
-x,-y,-z
x,-y,z
1/2+x,1/2+y,z
1/2-x,1/2+y,-z
1/2-x,1/2-y,-z
1/2+x,1/2-y,z
loop_
_atom_site_type_symbol
_atom_site_label
_atom_site_fract_x
_atom_site_fract_y
_atom_site_fract_z
Si Si1 0.178937 0.078443 0.118831
Si Si2 0.721470 0.713846 0.846612
Si Si3 0.232902 0.079805 0.394410
Si Si4 0.395542 0.806856 0.449972
Si Si5 0.999968 0.840289 0.251748
Si Si6 0.700429 0.127473 0.879771
Si Si7 0.080745 0.579205 0.718745
Si Si8 0.405731 0.866635 0.701227
O O1 0.073833 0.132836 0.232896
O O2 0.208585 0.096647 0.175253
O O3 0.125442 0.000000 0.188877
O O4 0.305631 0.080185 0.882395
O O5 0.769233 0.702197 0.683595
O O6 0.676015 0.791545 0.931259
O O7 0.835052 0.696438 0.752378
O O8 0.600212 0.664343 0.033396
O O9 0.234113 0.121692 0.304047
O O10 0.357980 0.093959 0.274752
O O11 0.108994 0.104852 0.620510
O O12 0.219230 0.000000 0.389993
O O13 0.431988 0.733317 0.359546
O O14 0.360965 0.864773 0.428040
O O15 0.516887 0.833916 0.330246
O O16 0.569456 0.085931 0.062170
O O17 0.112562 0.500000 0.644215
O O18 0.500000 0.904024 0.500000
#
# Coordination Sequence:
#
# PCOD8108241 Si02
#       8
#     8   8   8   8   8   8   8   8
#     4  11  22  35  59  94 128 163 203 250 303 370
#     4  10  21  38  60  98 123 158 201 254 311 364
#     4  11  25  43  61  87 126 170 205 249 312 366
#     4  11  20  39  65  91 121 162 211 251 303 365
#     4  11  22  41  62  88 128 164 202 252 306 370
#     4  12  21  39  65  93 127 159 205 256 308 362
#     4  11  24  42  64  90 122 161 211 261 304 357
#     4   9  19  34  58  86 127 162 200 248 307 361
#
# _framework density 20.15756
#
# number of rings (size 3 to 8) (size 9 to 14) (size 15 to 20)
#    0.000    1.250    3.750    2.625    0.000    4.250 
#    0.000    7.500    0.000    1.500    0.000    0.000 
#    0.000    0.000    0.000    0.000    0.000    0.000 
#
# Total GULP energy -396826.466770 kJ/mol
# GULP energy per Si atom -12400.827087 kJ/mol
# Density = 2.011168 g / cm^3
# Si number density = 20.157560 Si / 1000 Ang^3
#
#
#
# Elastic Constant Matrix: (Units=GPa)
#
#
# Indices 1 2 3 4 5 6 
#
# 1 71.9740 46.3221 33.6004 0.0004 2.4657 -0.0003
# 2 46.3221 89.1492 27.3141 0.0004 6.7998 -0.0002
# 3 33.6004 27.3141 83.4970 0.0007 5.0250 -0.0004
# 4 0.0004 0.0004 0.0007 23.8569 -0.0003 3.3119
# 5 2.4657 6.7998 5.0250 -0.0003 27.6363 0.0004
# 6 -0.0003 -0.0002 -0.0004 3.3119 0.0004 25.1144
#
#
#
# Elastic Compliance Matrix: (Units=1/GPa)
#
#
# Indices 1 2 3 4 5 6 
#
# 1 0.023382 -0.010400 -0.006102 0.000000 0.001582 0.000000
# 2 -0.010400 0.017246 -0.001271 0.000000 -0.003084 0.000000
# 3 -0.006102 -0.001271 0.014960 0.000000 -0.001863 0.000000
# 4 0.000000 0.000000 0.000000 0.042698 0.000001 -0.005631
# 5 0.001582 -0.003084 -0.001863 0.000001 0.037141 -0.000001
# 6 0.000000 0.000000 0.000000 -0.005631 -0.000001 0.040560
#
#
# Mechanical properties :
#
#
# Convention : Reuss Voigt Hill
#
# Bulk Modulus (GPa) = 49.89746 51.01037 50.45391
# Shear Modulus (GPa) = 22.91324 24.48042 23.69683
#
# Velocity S-wave (km/s) = 3.37517 3.48868 3.43239
# Velocity P-wave (km/s) = 6.32427 6.44892 6.38690
#
# Compressibility (1/GPa) = 0.02004110
#
# Stress axis : x y z
#
# Youngs Moduli (GPa) = 42.76766 57.98508 66.84529
#
# Poissons Ratio (x) = 0.60307 0.40791
# Poissons Ratio (y) = 0.44480 0.08494
# Poissons Ratio (z) = 0.26098 0.07368
#
# Static dielectric constant tensor:
#      x y z
#    x 3.538660 0.000000 0.052530 
#    y 0.000000 3.664830 0.000000 
#    z 0.052530 0.000000 3.842260 
# 
# 
# High freq. dielectric constant tensor:
#      x y z
#    x 1.773290 0.000000 -0.000570 
#    y 0.000000 1.786820 0.000000 
#    z -0.000570 0.000000 1.792850 
# 
# From -- ./inp_files/241446.got.cif
#   From: 2010.06.25/outbox.cif.g09.slc.cpg/sg12_121_cif.got.tgz:241446.got - 2010.06.28 00:19:55.
