data_PCOD8108705
_publ_section_title
;
Structure prediction by ZEFSAII (Michael W. Deem and Ramdas Pophale) SiO2 
 PCOD8108705
Probable space group: C 2/M
;
_chemical_formula_sum "Si O2"
_cell_formula_units_Z 28
_cell_length_a 13.416729
_cell_length_b 18.251727
_cell_length_c 5.074167
_cell_angle_alpha 90.000000
_cell_angle_beta 87.713783
_cell_angle_gamma 90.000000
_cell_volume 1241.565229
_symmetry_space_group_name_H-M "C 2/M"
_symmetry_group_IT_number 12
_symmetry_cell_setting 'monoclinic'
loop_
_space_group_symop_operation_xyz
x,y,z
-x,y,-z
-x,-y,-z
x,-y,z
1/2+x,1/2+y,z
1/2-x,1/2+y,-z
1/2-x,1/2-y,-z
1/2+x,1/2-y,z
loop_
_atom_site_type_symbol
_atom_site_label
_atom_site_fract_x
_atom_site_fract_y
_atom_site_fract_z
Si Si1 0.604484 0.918723 0.633274
Si Si2 0.904120 0.173730 0.880432
Si Si3 0.279826 0.669134 0.409193
Si Si4 0.000000 0.313082 0.000000
O O1 0.500000 0.923238 0.500000
O O2 0.688698 0.887888 0.429587
O O3 0.634598 0.000000 0.731726
O O4 0.588411 0.862548 0.873209
O O5 0.816767 0.170777 0.106315
O O6 0.939906 0.257927 0.809527
O O7 0.864894 0.140740 0.608838
O O8 0.000000 0.131268 0.000000
O O9 0.250000 0.750000 0.500000
#
# Coordination Sequence:
#
# PCOD8108705 Si02
#       4
#     8   8   8   4
#     4  11  25  40  60  91 134 171 204 253 318 389
#     4  10  23  37  66  94 121 154 212 266 312 354
#     4  12  21  39  64  92 124 166 209 261 306 371
#     4  10  21  38  64  90 127 162 200 264 319 362
#
# _framework density 22.552181000000001
#
# number of rings (size 3 to 8) (size 9 to 14) (size 15 to 20)
#    0.857    0.286    2.857    3.857    4.000    0.000 
#    0.000    0.000    0.000    5.143    0.000    0.000 
#    0.000    0.000    0.000    0.000    0.000    0.000 
#
# Total GULP energy -173450.082610 kJ/mol
# GULP energy per Si atom -12389.291615 kJ/mol
# Density = 2.250085 g / cm^3
# Si number density = 22.552181 Si / 1000 Ang^3
#
#
#
# Elastic Constant Matrix: (Units=GPa)
#
#
# Indices 1 2 3 4 5 6 
#
# 1 101.4535 46.2543 5.0609 0.0000 -7.4686 0.0000
# 2 46.2543 87.0302 6.8858 0.0000 -8.4449 0.0000
# 3 5.0609 6.8858 61.8370 0.0000 2.2930 0.0000
# 4 0.0000 0.0000 0.0000 19.0287 0.0000 -10.3622
# 5 -7.4686 -8.4449 2.2930 0.0000 42.1273 0.0000
# 6 0.0000 0.0000 0.0000 -10.3622 0.0000 40.2614
#
#
#
# Elastic Compliance Matrix: (Units=1/GPa)
#
#
# Indices 1 2 3 4 5 6 
#
# 1 0.013053 -0.006816 -0.000345 0.000000 0.000966 0.000000
# 2 -0.006816 0.015399 -0.001229 0.000000 0.001945 0.000000
# 3 -0.000345 -0.001229 0.016381 0.000000 -0.001199 0.000000
# 4 0.000000 0.000000 0.000000 0.061118 0.000000 0.015730
# 5 0.000966 0.001945 -0.001199 0.000000 0.024364 0.000000
# 6 0.000000 0.000000 0.000000 0.015730 0.000000 0.028886
#
#
# Mechanical properties :
#
#
# Convention : Reuss Voigt Hill
#
# Bulk Modulus (GPa) = 35.64778 40.74696 38.19737
# Shear Modulus (GPa) = 26.97857 33.09145 30.03501
#
# Velocity S-wave (km/s) = 3.46247 3.83473 3.65334
# Velocity P-wave (km/s) = 5.64146 6.14117 5.89661
#
# Compressibility (1/GPa) = 0.02805224
#
# Stress axis : x y z
#
# Youngs Moduli (GPa) = 76.61278 64.93999 61.04592
#
# Poissons Ratio (x) = 0.44263 0.02107
# Poissons Ratio (y) = 0.52220 0.07503
# Poissons Ratio (z) = 0.02644 0.07981
#
# Static dielectric constant tensor:
#      x y z
#    x 4.383210 0.000000 0.175320 
#    y 0.000000 3.924860 0.000000 
#    z 0.175320 0.000000 5.411600 
# 
# 
# High freq. dielectric constant tensor:
#      x y z
#    x 1.907360 0.000000 0.003410 
#    y 0.000000 1.840480 0.000000 
#    z 0.003410 0.000000 1.879440 
# 
# From -- ./inp_files/9781.got.cif
#   From: 2010.06.25/outbox.cif.g09.slc.cpg/sg12_5_cif.got.tgz:9781.got - 2010.06.28 00:19:55.
