data_PCOD8108899
_publ_section_title
;
Structure prediction by ZEFSAII (Michael W. Deem and Ramdas Pophale) SiO2 
 PCOD8108899
Probable space group: C 2/M
;
_chemical_formula_sum "Si O2"
_cell_formula_units_Z 36
_cell_length_a 14.067612
_cell_length_b 22.187888
_cell_length_c 10.972037
_cell_angle_alpha 90.000000
_cell_angle_beta 149.244485
_cell_angle_gamma 90.000000
_cell_volume 1751.313062
_symmetry_space_group_name_H-M "C 2/M"
_symmetry_group_IT_number 12
_symmetry_cell_setting 'monoclinic'
loop_
_space_group_symop_operation_xyz
x,y,z
-x,y,-z
-x,-y,-z
x,-y,z
1/2+x,1/2+y,z
1/2-x,1/2+y,-z
1/2-x,1/2-y,-z
1/2+x,1/2-y,z
loop_
_atom_site_type_symbol
_atom_site_label
_atom_site_fract_x
_atom_site_fract_y
_atom_site_fract_z
Si Si1 0.565783 0.878154 0.206252
Si Si2 0.000000 0.349499 0.500000
Si Si3 0.506576 0.641795 0.362126
Si Si4 0.442710 0.230977 0.658957
Si Si5 0.688783 0.068588 0.890348
O O1 0.787711 0.874543 0.458229
O O2 0.467652 0.814602 0.141837
O O3 0.490068 0.928420 0.216453
O O4 0.500000 0.894946 0.000000
O O5 0.903250 0.306855 0.492841
O O6 0.842758 0.391645 0.265535
O O7 0.500000 0.641719 0.500000
O O8 0.440852 0.708109 0.240197
O O9 0.370515 0.591395 0.161128
O O10 0.250000 0.250000 0.500000
O O11 0.720532 0.000000 0.885151
#
# Coordination Sequence:
#
# PCOD8108899 Si02
#       5
#     8   4   8   8   8
#     4  10  21  39  59  92 127 162 207 259 313 371
#     4  10  21  42  66  90 123 166 208 258 312 370
#     4  11  21  38  62  96 124 159 204 257 319 370
#     4   9  20  36  63  96 128 157 201 259 321 377
#     4  11  25  42  63  88 125 172 213 255 303 366
#
# _framework density 20.556006
#
# number of rings (size 3 to 8) (size 9 to 14) (size 15 to 20)
#    0.000    1.778    3.333    0.333    0.000    8.889 
#    0.000    8.889    0.000   13.333    0.000    0.000 
#    0.000    0.000    0.000    0.000    0.000    0.000 
#
# Total GULP energy -223102.049406 kJ/mol
# GULP energy per Si atom -12394.558300 kJ/mol
# Density = 2.050922 g / cm^3
# Si number density = 20.556006 Si / 1000 Ang^3
#
#
#
# Elastic Constant Matrix: (Units=GPa)
#
#
# Indices 1 2 3 4 5 6 
#
# 1 95.2485 37.5305 22.4045 0.0000 -0.0413 0.0000
# 2 37.5305 122.8651 23.6946 0.0000 4.4667 0.0000
# 3 22.4045 23.6946 49.6193 0.0000 5.7780 0.0000
# 4 0.0000 0.0000 0.0000 29.1216 0.0000 -3.8111
# 5 -0.0413 4.4667 5.7780 0.0000 30.9421 0.0000
# 6 0.0000 0.0000 0.0000 -3.8111 0.0000 18.3782
#
#
#
# Elastic Compliance Matrix: (Units=1/GPa)
#
#
# Indices 1 2 3 4 5 6 
#
# 1 0.012760 -0.003089 -0.004437 0.000000 0.001291 0.000000
# 2 -0.003089 0.009720 -0.003151 0.000000 -0.000819 0.000000
# 3 -0.004437 -0.003151 0.024134 0.000000 -0.004058 0.000000
# 4 0.000000 0.000000 0.000000 0.035297 0.000000 0.007319
# 5 0.001291 -0.000819 -0.004058 0.000000 0.033196 0.000000
# 6 0.000000 0.000000 0.000000 0.007319 0.000000 0.055930
#
#
# Mechanical properties :
#
#
# Convention : Reuss Voigt Hill
#
# Bulk Modulus (GPa) = 39.58862 48.33244 43.96053
# Shear Modulus (GPa) = 24.89888 27.96193 26.43041
#
# Velocity S-wave (km/s) = 3.48411 3.69220 3.58966
# Velocity P-wave (km/s) = 5.95702 6.46065 6.21394
#
# Compressibility (1/GPa) = 0.02525978
#
# Stress axis : x y z
#
# Youngs Moduli (GPa) = 78.36851 102.87936 41.43487
#
# Poissons Ratio (x) = 0.31780 0.18384
# Poissons Ratio (y) = 0.24208 0.13058
# Poissons Ratio (z) = 0.34771 0.32422
#
# Static dielectric constant tensor:
#      x y z
#    x 3.998650 0.000000 -0.037900 
#    y 0.000000 4.170030 0.000000 
#    z -0.037900 0.000000 3.351320 
# 
# 
# High freq. dielectric constant tensor:
#      x y z
#    x 1.818000 0.000000 -0.003970 
#    y 0.000000 1.803760 0.000000 
#    z -0.003970 0.000000 1.782950 
# 
# From -- ./inp_files/147437.got.cif
#   From: 2010.06.25/outbox.cif.g09.slc.cpg/sg12_74_cif.got.tgz:147437.got - 2010.06.28 00:19:55.
