data_PCOD8108613
_publ_section_title
;
Structure prediction by ZEFSAII (Michael W. Deem and Ramdas Pophale) SiO2 
 PCOD8108613
Probable space group: C 2/M
;
_chemical_formula_sum "Si O2"
_cell_formula_units_Z 40
_cell_length_a 18.827568
_cell_length_b 9.342684
_cell_length_c 24.314195
_cell_angle_alpha 90.000000
_cell_angle_beta 28.905426
_cell_angle_gamma 90.000000
_cell_volume 2067.289220
_symmetry_space_group_name_H-M "C 2/M"
_symmetry_group_IT_number 12
_symmetry_cell_setting 'monoclinic'
loop_
_space_group_symop_operation_xyz
x,y,z
-x,y,-z
-x,-y,-z
x,-y,z
1/2+x,1/2+y,z
1/2-x,1/2+y,-z
1/2-x,1/2-y,-z
1/2+x,1/2-y,z
loop_
_atom_site_type_symbol
_atom_site_label
_atom_site_fract_x
_atom_site_fract_y
_atom_site_fract_z
Si Si1 0.659692 0.838948 0.902977
Si Si2 0.657219 0.665718 0.730526
Si Si3 0.199164 0.332536 0.480457
Si Si4 0.869191 0.338037 0.951563
Si Si5 0.868037 0.334561 0.685494
O O1 0.784998 0.748842 0.789396
O O2 0.662542 0.000000 0.876682
O O3 0.500000 0.769510 0.000000
O O4 0.690700 0.839145 0.946267
O O5 0.609235 0.500000 0.767814
O O6 0.693710 0.705210 0.642855
O O7 0.527586 0.765195 0.840059
O O8 0.799886 0.695942 0.671611
O O9 0.204358 0.500000 0.490325
O O10 0.250000 0.250000 0.500000
O O11 0.036662 0.284385 0.572089
O O12 0.880990 0.500000 0.920824
O O13 0.750000 0.250000 0.000000
O O14 0.854893 0.500000 0.709526
#
# Coordination Sequence:
#
# PCOD8108613 Si02
#       5
#     8   8   8   8   8
#     4  10  21  39  60  86 120 154 190 239 294 345
#     4  10  21  40  63  86 117 156 198 242 292 346
#     4  10  23  41  60  87 119 153 194 244 297 347
#     4  11  24  40  60  87 122 158 195 241 293 349
#     4  10  21  38  63  89 115 153 199 243 286 345
#
# _framework density 19.349008999999999
#
# number of rings (size 3 to 8) (size 9 to 14) (size 15 to 20)
#    0.000    1.800    2.000    1.200    2.800    6.000 
#    0.000    0.000    0.000    3.600    0.000    0.000 
#    0.000    0.000    0.000    0.000    0.000    0.000 
#
# Total GULP energy -248051.435007 kJ/mol
# GULP energy per Si atom -12402.571750 kJ/mol
# Density = 1.930497 g / cm^3
# Si number density = 19.349009 Si / 1000 Ang^3
#
#
#
# Elastic Constant Matrix: (Units=GPa)
#
#
# Indices 1 2 3 4 5 6 
#
# 1 112.2975 48.7476 30.1746 -0.0007 -0.1905 0.0001
# 2 48.7476 82.7193 45.7853 -0.0008 0.6592 0.0001
# 3 30.1746 45.7853 83.3550 -0.0039 6.4915 0.0008
# 4 -0.0007 -0.0008 -0.0039 27.1839 0.0001 1.9796
# 5 -0.1905 0.6592 6.4915 0.0001 35.7510 0.0000
# 6 0.0001 0.0001 0.0008 1.9796 0.0000 35.0889
#
#
#
# Elastic Compliance Matrix: (Units=1/GPa)
#
#
# Indices 1 2 3 4 5 6 
#
# 1 0.011995 -0.006687 -0.000693 0.000000 0.000313 0.000000
# 2 -0.006687 0.021171 -0.009306 -0.000001 0.001264 0.000000
# 3 -0.000693 -0.009306 0.017595 0.000002 -0.003027 0.000000
# 4 0.000000 -0.000001 0.000002 0.036938 -0.000001 -0.002084
# 5 0.000313 0.001264 -0.003027 -0.000001 0.028499 0.000000
# 6 0.000000 0.000000 0.000000 -0.002084 0.000000 0.028617
#
#
# Mechanical properties :
#
#
# Convention : Reuss Voigt Hill
#
# Bulk Modulus (GPa) = 57.51405 58.64297 58.07851
# Shear Modulus (GPa) = 27.17611 29.84906 28.51259
#
# Velocity S-wave (km/s) = 3.75176 3.93194 3.84291
# Velocity P-wave (km/s) = 6.96826 7.14054 7.05493
#
# Compressibility (1/GPa) = 0.01738705
#
# Stress axis : x y z
#
# Youngs Moduli (GPa) = 83.37030 47.23414 56.83298
#
# Poissons Ratio (x) = 0.31587 0.03940
# Poissons Ratio (y) = 0.55753 0.52891
# Poissons Ratio (z) = 0.05779 0.43958
#
# Static dielectric constant tensor:
#      x y z
#    x 3.589400 0.000010 0.101090 
#    y 0.000010 3.617690 -0.000080 
#    z 0.101090 -0.000080 2.594270 
# 
# 
# High freq. dielectric constant tensor:
#      x y z
#    x 1.764610 0.000000 -0.001310 
#    y 0.000000 1.748940 0.000000 
#    z -0.001310 0.000000 1.756920 
# 
# From -- ./inp_files/151632.got.cif
#   From: 2010.06.25/outbox.cif.g09.slc.cpg/sg12_76_cif.got.tgz:151632.got - 2010.06.28 00:19:55.
