data_PCOD8108961
_publ_section_title
;
Structure prediction by ZEFSAII (Michael W. Deem and Ramdas Pophale) SiO2 
 PCOD8108961
Probable space group: C 2/M
;
_chemical_formula_sum "Si O2"
_cell_formula_units_Z 64
_cell_length_a 18.063772
_cell_length_b 16.544542
_cell_length_c 14.323946
_cell_angle_alpha 90.000000
_cell_angle_beta 131.089087
_cell_angle_gamma 90.000000
_cell_volume 3226.397009
_symmetry_space_group_name_H-M "C 2/M"
_symmetry_group_IT_number 12
_symmetry_cell_setting 'monoclinic'
loop_
_space_group_symop_operation_xyz
x,y,z
-x,y,-z
-x,-y,-z
x,-y,z
1/2+x,1/2+y,z
1/2-x,1/2+y,-z
1/2-x,1/2-y,-z
1/2+x,1/2-y,z
loop_
_atom_site_type_symbol
_atom_site_label
_atom_site_fract_x
_atom_site_fract_y
_atom_site_fract_z
Si Si1 0.348086 0.711449 0.917407
Si Si2 0.954985 0.591793 0.178571
Si Si3 0.226262 0.092944 0.009664
Si Si4 0.508461 0.821526 0.611058
Si Si5 0.353688 0.284535 0.556579
Si Si6 0.954829 0.249123 0.824515
Si Si7 0.669860 0.684106 0.791113
Si Si8 0.610929 0.594395 0.568702
O O1 0.366201 0.730146 0.823111
O O2 0.278342 0.781672 0.895784
O O3 0.293186 0.627844 0.901379
O O4 0.448934 0.707881 0.056724
O O5 0.984154 0.500000 0.174179
O O6 0.979714 0.604093 0.308467
O O7 0.020311 0.655076 0.171280
O O8 0.838738 0.605567 0.070039
O O9 0.152644 0.136967 0.874429
O O10 0.197363 0.000000 0.988719
O O11 0.500000 0.856427 0.500000
O O12 0.401510 0.781699 0.529584
O O13 0.591244 0.754281 0.704244
O O14 0.250000 0.250000 0.500000
O O15 0.424290 0.295466 0.704393
O O16 0.347922 0.367434 0.493380
O O17 0.675459 0.621133 0.710327
O O18 0.500000 0.622491 0.500000
O O19 0.619011 0.500000 0.560180
#
# Coordination Sequence:
#
# PCOD8108961 Si02
#       8
#     8   8   8   8   8   8   8   8
#     4  11  22  39  63  90 119 162 207 247 292 369
#     4  10  21  39  60  91 127 156 196 254 307 354
#     4  11  22  36  61  94 124 154 196 254 309 352
#     4  11  21  37  62  89 119 162 211 245 292 365
#     4  11  21  39  60  87 118 163 201 243 298 359
#     4  10  23  40  60  89 121 164 207 238 301 367
#     4  12  19  38  63  93 120 158 203 248 302 361
#     4  11  23  39  61  94 125 154 201 256 306 355
#
# _framework density 19.836369000000001
#
# number of rings (size 3 to 8) (size 9 to 14) (size 15 to 20)
#    0.000    1.125    5.000    3.000    0.000    0.250 
#    0.000    9.375    0.000    0.000    0.000    0.000 
#    0.000    0.000    0.000    0.000    0.000    0.000 
#
# Total GULP energy -396524.325250 kJ/mol
# GULP energy per Si atom -12391.385164 kJ/mol
# Density = 1.979122 g / cm^3
# Si number density = 19.836369 Si / 1000 Ang^3
#
#
#
# Elastic Constant Matrix: (Units=GPa)
#
#
# Indices 1 2 3 4 5 6 
#
# 1 103.0743 47.9458 19.4357 0.0000 -12.2145 0.0000
# 2 47.9458 89.1580 21.5898 0.0000 -13.4664 0.0000
# 3 19.4357 21.5898 59.0405 0.0000 -13.8907 0.0000
# 4 0.0000 0.0000 0.0000 22.1858 0.0000 -5.8095
# 5 -12.2145 -13.4664 -13.8907 0.0000 35.9542 0.0000
# 6 0.0000 0.0000 0.0000 -5.8095 0.0000 27.9797
#
#
#
# Elastic Compliance Matrix: (Units=1/GPa)
#
#
# Indices 1 2 3 4 5 6 
#
# 1 0.013195 -0.006485 -0.001638 0.000000 0.001421 0.000000
# 2 -0.006485 0.015827 -0.003054 0.000000 0.002545 0.000000
# 3 -0.001638 -0.003054 0.020013 0.000000 0.006031 0.000000
# 4 0.000000 0.000000 0.000000 0.047666 0.000000 0.009897
# 5 0.001421 0.002545 0.006031 0.000000 0.031579 0.000000
# 6 0.000000 0.000000 0.000000 0.009897 0.000000 0.037795
#
#
# Mechanical properties :
#
#
# Convention : Reuss Voigt Hill
#
# Bulk Modulus (GPa) = 37.47947 47.69059 42.58503
# Shear Modulus (GPa) = 25.33913 28.04403 26.69158
#
# Velocity S-wave (km/s) = 3.57796 3.76409 3.67221
# Velocity P-wave (km/s) = 6.00037 6.55632 6.28450
#
# Compressibility (1/GPa) = 0.02668127
#
# Stress axis : x y z
#
# Youngs Moduli (GPa) = 75.78370 63.18222 49.96830
#
# Poissons Ratio (x) = 0.40972 0.08186
# Poissons Ratio (y) = 0.49143 0.15261
# Poissons Ratio (z) = 0.12415 0.19297
#
# Static dielectric constant tensor:
#      x y z
#    x 4.260750 0.000000 -0.280600 
#    y 0.000000 3.432980 0.000000 
#    z -0.280600 0.000000 3.832420 
# 
# 
# High freq. dielectric constant tensor:
#      x y z
#    x 1.770650 0.000000 -0.003190 
#    y 0.000000 1.752340 0.000000 
#    z -0.003190 0.000000 1.783860 
# 
# From -- ./inp_files/225745.got.cif
#   From: 2010.06.25/outbox.cif.g09.slc.cpg/sg12_113_cif.got.tgz:225745.got - 2010.06.28 00:19:55.
