data_PCOD8108308
_publ_section_title
;
Structure prediction by ZEFSAII (Michael W. Deem and Ramdas Pophale) SiO2 
 PCOD8108308
Probable space group: C 2/M
;
_chemical_formula_sum "Si O2"
_cell_formula_units_Z 48
_cell_length_a 23.176441
_cell_length_b 8.882800
_cell_length_c 12.218318
_cell_angle_alpha 90.000000
_cell_angle_beta 69.229193
_cell_angle_gamma 90.000000
_cell_volume 2351.920719
_symmetry_space_group_name_H-M "C 2/M"
_symmetry_group_IT_number 12
_symmetry_cell_setting 'monoclinic'
loop_
_space_group_symop_operation_xyz
x,y,z
-x,y,-z
-x,-y,-z
x,-y,z
1/2+x,1/2+y,z
1/2-x,1/2+y,-z
1/2-x,1/2-y,-z
1/2+x,1/2-y,z
loop_
_atom_site_type_symbol
_atom_site_label
_atom_site_fract_x
_atom_site_fract_y
_atom_site_fract_z
Si Si1 0.576841 0.675064 0.264760
Si Si2 0.343124 0.672597 0.192598
Si Si3 0.558147 0.671475 0.698956
Si Si4 0.737910 0.323193 0.392166
Si Si5 0.316525 0.324829 0.965712
Si Si6 0.888650 0.322770 0.547739
O O1 0.585683 0.500000 0.287366
O O2 0.514634 0.700490 0.235964
O O3 0.635373 0.737487 0.156930
O O4 0.567282 0.767913 0.383500
O O5 0.322136 0.500000 0.227055
O O6 0.408580 0.704454 0.207645
O O7 0.292944 0.786182 0.273527
O O8 0.348726 0.707188 0.060551
O O9 0.570600 0.500000 0.652875
O O10 0.585622 0.778748 0.587648
O O11 0.731533 0.500000 0.411641
O O12 0.750000 0.250000 0.500000
O O13 0.675965 0.256994 0.382783
O O14 0.305850 0.500000 0.954299
O O15 0.250000 0.250000 0.000000
O O16 0.880275 0.500000 0.556811
#
# Coordination Sequence:
#
# PCOD8108308 Si02
#       6
#     8   8   8   8   8   8
#     4  10  22  40  61  87 119 160 204 247 298 356
#     4  10  21  38  61  90 122 157 198 246 298 356
#     4  10  21  38  61  87 120 159 199 247 303 359
#     4  12  23  37  59  88 120 155 195 243 297 353
#     4  10  22  40  62  88 118 154 201 249 297 355
#     4  12  24  38  59  88 122 160 202 250 300 354
#
# _framework density 20.408852
#
# number of rings (size 3 to 8) (size 9 to 14) (size 15 to 20)
#    0.000    1.333    1.667    4.500    0.000    7.333 
#    0.000    3.333    0.000    0.000    0.000    4.667 
#    0.000    0.000    0.000    0.000    0.000    0.000 
#
# Total GULP energy -297672.138817 kJ/mol
# GULP energy per Si atom -12403.005784 kJ/mol
# Density = 2.036240 g / cm^3
# Si number density = 20.408852 Si / 1000 Ang^3
#
#
#
# Elastic Constant Matrix: (Units=GPa)
#
#
# Indices 1 2 3 4 5 6 
#
# 1 135.5942 44.4880 46.7818 0.0000 7.3380 0.0000
# 2 44.4880 110.8966 36.9115 0.0000 3.6885 0.0000
# 3 46.7818 36.9115 98.2919 0.0000 12.9882 0.0000
# 4 0.0000 0.0000 0.0000 25.9957 0.0000 -2.1038
# 5 7.3380 3.6885 12.9882 0.0000 36.0255 0.0000
# 6 0.0000 0.0000 0.0000 -2.1038 0.0000 27.0084
#
#
#
# Elastic Compliance Matrix: (Units=1/GPa)
#
#
# Indices 1 2 3 4 5 6 
#
# 1 0.009452 -0.002627 -0.003458 0.000000 -0.000410 0.000000
# 2 -0.002627 0.011040 -0.002958 0.000000 0.000471 0.000000
# 3 -0.003458 -0.002958 0.013437 0.000000 -0.003837 0.000000
# 4 0.000000 0.000000 0.000000 0.038712 0.000000 0.003015
# 5 -0.000410 0.000471 -0.003837 0.000000 0.029177 0.000000
# 6 0.000000 0.000000 0.000000 0.003015 0.000000 0.037260
#
#
# Mechanical properties :
#
#
# Convention : Reuss Voigt Hill
#
# Bulk Modulus (GPa) = 63.11640 66.79391 64.95516
# Shear Modulus (GPa) = 30.77945 32.24602 31.51274
#
# Velocity S-wave (km/s) = 3.88769 3.97924 3.93373
# Velocity P-wave (km/s) = 7.15160 7.34244 7.24765
#
# Compressibility (1/GPa) = 0.01584374
#
# Stress axis : x y z
#
# Youngs Moduli (GPa) = 105.79575 90.57816 74.41929
#
# Poissons Ratio (x) = 0.23798 0.25734
# Poissons Ratio (y) = 0.27796 0.22011
# Poissons Ratio (z) = 0.36584 0.26790
#
# Static dielectric constant tensor:
#      x y z
#    x 4.195970 0.000000 -0.212080 
#    y 0.000000 3.764690 0.000000 
#    z -0.212080 0.000000 4.016850 
# 
# 
# High freq. dielectric constant tensor:
#      x y z
#    x 1.814100 0.000000 0.008840 
#    y 0.000000 1.787270 0.000000 
#    z 0.008840 0.000000 1.791740 
# 
# From -- ./inp_files/172027.got.cif
#   From: 2010.06.25/outbox.cif.g09.slc.cpg/sg12_87_cif.got.tgz:172027.got - 2010.06.28 00:19:55.
