data_PCOD8108755
_publ_section_title
;
Structure prediction by ZEFSAII (Michael W. Deem and Ramdas Pophale) SiO2 
 PCOD8108755
Probable space group: C 2/M
;
_chemical_formula_sum "Si O2"
_cell_formula_units_Z 48
_cell_length_a 21.922012
_cell_length_b 15.285441
_cell_length_c 9.215749
_cell_angle_alpha 90.000000
_cell_angle_beta 129.242794
_cell_angle_gamma 90.000000
_cell_volume 2391.634789
_symmetry_space_group_name_H-M "C 2/M"
_symmetry_group_IT_number 12
_symmetry_cell_setting 'monoclinic'
loop_
_space_group_symop_operation_xyz
x,y,z
-x,y,-z
-x,-y,-z
x,-y,z
1/2+x,1/2+y,z
1/2-x,1/2+y,-z
1/2-x,1/2-y,-z
1/2+x,1/2-y,z
loop_
_atom_site_type_symbol
_atom_site_label
_atom_site_fract_x
_atom_site_fract_y
_atom_site_fract_z
Si Si1 0.947178 0.236842 0.789095
Si Si2 0.796697 0.838482 0.097548
Si Si3 0.830159 0.901735 0.468201
Si Si4 0.300620 0.164471 0.550616
Si Si5 0.058468 0.262199 0.708029
Si Si6 0.168034 0.402193 0.722165
O O1 0.899069 0.156813 0.643503
O O2 0.886662 0.313725 0.748347
O O3 0.007346 0.285224 0.771206
O O4 0.000000 0.200263 0.000000
O O5 0.802414 0.861375 0.274808
O O6 0.883968 0.819220 0.167780
O O7 0.750000 0.750000 0.000000
O O8 0.749862 0.911579 0.936195
O O9 0.750062 0.910002 0.445168
O O10 0.863188 0.000000 0.497929
O O11 0.250000 0.250000 0.500000
O O12 0.312743 0.145008 0.399627
O O13 0.103368 0.348170 0.715846
O O14 0.000000 0.224814 0.500000
O O15 0.135526 0.500000 0.646147
#
# Coordination Sequence:
#
# PCOD8108755 Si02
#       6
#     8   8   8   8   8   8
#     4  11  24  39  63  89 118 164 214 242 301 378
#     4  10  21  38  65  88 118 164 207 242 296 373
#     4  11  23  41  62  91 128 158 201 262 307 349
#     4  10  21  40  62  86 119 167 208 244 293 371
#     4  11  20  41  62  88 119 162 207 247 299 373
#     4  11  23  39  64  95 123 156 205 261 308 352
#
# _framework density 20.069952000000001
#
# number of rings (size 3 to 8) (size 9 to 14) (size 15 to 20)
#    0.000    1.333    3.333    4.000    9.333    0.667 
#    0.000    2.500    0.000    2.500    0.000    0.000 
#    0.000    0.000    0.000    0.000    0.000    0.000 
#
# Total GULP energy -297353.126299 kJ/mol
# GULP energy per Si atom -12389.713596 kJ/mol
# Density = 2.002427 g / cm^3
# Si number density = 20.069952 Si / 1000 Ang^3
#
#
#
# Elastic Constant Matrix: (Units=GPa)
#
#
# Indices 1 2 3 4 5 6 
#
# 1 137.3234 44.8418 39.4240 0.0000 9.0485 0.0000
# 2 44.8418 98.4548 38.2597 0.0000 -2.8032 0.0000
# 3 39.4240 38.2597 149.5729 0.0000 6.6871 0.0000
# 4 0.0000 0.0000 0.0000 16.2191 0.0000 -5.8526
# 5 9.0485 -2.8032 6.6871 0.0000 32.5823 0.0000
# 6 0.0000 0.0000 0.0000 -5.8526 0.0000 14.4754
#
#
#
# Elastic Compliance Matrix: (Units=1/GPa)
#
#
# Indices 1 2 3 4 5 6 
#
# 1 0.009029 -0.003669 -0.001327 0.000000 -0.002551 0.000000
# 2 -0.003669 0.012850 -0.002437 0.000000 0.002625 0.000000
# 3 -0.001327 -0.002437 0.007723 0.000000 -0.001426 0.000000
# 4 0.000000 0.000000 0.000000 0.072187 0.000000 0.029186
# 5 -0.002551 0.002625 -0.001426 0.000000 0.031918 0.000000
# 6 0.000000 0.000000 0.000000 0.029186 0.000000 0.080883
#
#
# Mechanical properties :
#
#
# Convention : Reuss Voigt Hill
#
# Bulk Modulus (GPa) = 67.86773 70.04468 68.95620
# Shear Modulus (GPa) = 21.33377 30.17707 25.75542
#
# Velocity S-wave (km/s) = 3.26386 3.88183 3.58618
# Velocity P-wave (km/s) = 6.93489 7.42075 7.18193
#
# Compressibility (1/GPa) = 0.01473454
#
# Stress axis : x y z
#
# Youngs Moduli (GPa) = 110.74933 77.82129 129.48822
#
# Poissons Ratio (x) = 0.28555 0.17187
# Poissons Ratio (y) = 0.40637 0.31558
# Poissons Ratio (z) = 0.14700 0.18966
#
# Static dielectric constant tensor:
#      x y z
#    x -3.850540 0.000000 2.402240 
#    y 0.000000 3.144430 0.000000 
#    z 2.402240 0.000000 3.532970 
# 
# 
# High freq. dielectric constant tensor:
#      x y z
#    x 1.794420 0.000000 0.006470 
#    y 0.000000 1.760790 0.000000 
#    z 0.006470 0.000000 1.791110 
# 
# From -- ./inp_files/88168.got.cif
#   From: 2010.06.25/outbox.cif.g09.slc.cpg/sg12_45_cif.got.tgz:88168.got - 2010.06.28 00:19:55.
