data_PCOD8108288
_publ_section_title
;
Structure prediction by ZEFSAII (Michael W. Deem and Ramdas Pophale) SiO2 
 PCOD8108288
Probable space group: C 2/M
;
_chemical_formula_sum "Si O2"
_cell_formula_units_Z 48
_cell_length_a 30.288162
_cell_length_b 8.652082
_cell_length_c 12.016489
_cell_angle_alpha 90.000000
_cell_angle_beta 128.855084
_cell_angle_gamma 90.000000
_cell_volume 2452.228524
_symmetry_space_group_name_H-M "C 2/M"
_symmetry_group_IT_number 12
_symmetry_cell_setting 'monoclinic'
loop_
_space_group_symop_operation_xyz
x,y,z
-x,y,-z
-x,-y,-z
x,-y,z
1/2+x,1/2+y,z
1/2-x,1/2+y,-z
1/2-x,1/2-y,-z
1/2+x,1/2-y,z
loop_
_atom_site_type_symbol
_atom_site_label
_atom_site_fract_x
_atom_site_fract_y
_atom_site_fract_z
Si Si1 0.489518 0.681133 0.150168
Si Si2 0.040219 0.320867 0.665882
Si Si3 0.082633 0.679702 0.151826
Si Si4 0.339627 0.320596 0.169277
Si Si5 0.244531 0.180163 0.159397
Si Si6 0.713190 0.819072 0.343891
O O1 0.489820 0.500000 0.133372
O O2 0.480889 0.719981 0.264658
O O3 0.549518 0.747124 0.203431
O O4 0.437671 0.749042 0.996872
O O5 0.036125 0.500000 0.691615
O O6 0.104183 0.280767 0.734168
O O7 0.000000 0.278671 0.500000
O O8 0.068843 0.500000 0.126549
O O9 0.148410 0.713819 0.272971
O O10 0.355735 0.500000 0.202595
O O11 0.299497 0.275900 0.208694
O O12 0.308314 0.281212 0.004096
O O13 0.228330 0.229052 0.256637
O O14 0.259767 0.000000 0.178874
O O15 0.750000 0.750000 0.500000
O O16 0.725224 0.000000 0.346940
#
# Coordination Sequence:
#
# PCOD8108288 Si02
#       6
#     8   8   8   8   8   8
#     4  11  22  37  61  89 115 147 189 238 287 334
#     4  11  24  40  58  82 116 156 193 232 283 341
#     4  10  21  39  62  86 114 150 191 234 283 339
#     4  10  21  38  62  89 115 147 190 238 284 333
#     4  10  21  38  61  87 116 150 189 234 284 339
#     4  11  24  39  58  84 116 154 192 234 285 339
#
# _framework density 19.574031999999999
#
# number of rings (size 3 to 8) (size 9 to 14) (size 15 to 20)
#    0.000    1.500    0.000    6.000    0.000   10.000 
#    0.000    1.667    0.000    0.000    0.000    0.000 
#    0.000    0.000    0.000    0.000    0.000    0.000 
#
# Total GULP energy -297751.483561 kJ/mol
# GULP energy per Si atom -12406.311815 kJ/mol
# Density = 1.952948 g / cm^3
# Si number density = 19.574032 Si / 1000 Ang^3
#
#
#
# Elastic Constant Matrix: (Units=GPa)
#
#
# Indices 1 2 3 4 5 6 
#
# 1 97.8658 46.6639 54.3889 0.0000 20.8374 0.0000
# 2 46.6639 94.0438 57.2098 0.0000 -3.3463 0.0000
# 3 54.3889 57.2098 92.6752 0.0000 32.7582 0.0000
# 4 0.0000 0.0000 0.0000 30.4562 0.0000 -3.3169
# 5 20.8374 -3.3463 32.7582 0.0000 -5.2396 0.0000
# 6 0.0000 0.0000 0.0000 -3.3169 0.0000 38.2299
#
#
#
# Elastic Compliance Matrix: (Units=1/GPa)
#
#
# Indices 1 2 3 4 5 6 
#
# 1 0.015427 -0.001821 -0.009354 0.000000 0.004030 0.000000
# 2 -0.001821 0.011114 -0.000225 0.000000 -0.015748 0.000000
# 3 -0.009354 -0.000225 0.009196 0.000000 0.020436 0.000000
# 4 0.000000 0.000000 0.000000 0.033147 0.000000 0.002876
# 5 0.004030 -0.015748 0.020436 0.000000 -0.037003 0.000000
# 6 0.000000 0.000000 0.000000 0.002876 0.000000 0.026407
#
#
# Mechanical properties :
#
#
# Convention : Reuss Voigt Hill
#
# Bulk Modulus (GPa) = 77.30813 66.78999 72.04906
# Shear Modulus (GPa) = 58.54786 21.11079 39.82932
#
# Velocity S-wave (km/s) = 5.47503 3.28763 4.51577
# Velocity P-wave (km/s) = 8.91902 6.97188 8.00487
#
# Compressibility (1/GPa) = 0.01293525
#
# Stress axis : x y z
#
# Youngs Moduli (GPa) = 64.82267 89.98000 108.74495
#
# Poissons Ratio (x) = 0.16383 1.01723
# Poissons Ratio (y) = 0.11802 0.02452
# Poissons Ratio (z) = 0.60637 0.02029
#
# Static dielectric constant tensor:
#      x y z
#    x 3.627690 0.000000 0.056780 
#    y 0.000000 3.710320 0.000000 
#    z 0.056780 0.000000 3.516630 
# 
# 
# High freq. dielectric constant tensor:
#      x y z
#    x 1.775060 0.000000 0.000440 
#    y 0.000000 1.780560 0.000000 
#    z 0.000440 0.000000 1.758550 
# 
# From -- ./inp_files/180265.got.cif
#   From: 2010.06.25/outbox.cif.g09.slc.cpg/sg12_91_cif.got.tgz:180265.got - 2010.06.28 00:19:55.
