data_PCOD8108808
_publ_section_title
;
Structure prediction by ZEFSAII (Michael W. Deem and Ramdas Pophale) SiO2 
 PCOD8108808
Probable space group: C 2/M
;
_chemical_formula_sum "Si O2"
_cell_formula_units_Z 56
_cell_length_a 13.741107
_cell_length_b 22.802790
_cell_length_c 8.970878
_cell_angle_alpha 90.000000
_cell_angle_beta 64.712228
_cell_angle_gamma 90.000000
_cell_volume 2541.537646
_symmetry_space_group_name_H-M "C 2/M"
_symmetry_group_IT_number 12
_symmetry_cell_setting 'monoclinic'
loop_
_space_group_symop_operation_xyz
x,y,z
-x,y,-z
-x,-y,-z
x,-y,z
1/2+x,1/2+y,z
1/2-x,1/2+y,-z
1/2-x,1/2-y,-z
1/2+x,1/2-y,z
loop_
_atom_site_type_symbol
_atom_site_label
_atom_site_fract_x
_atom_site_fract_y
_atom_site_fract_z
Si Si1 0.226340 0.158724 0.711753
Si Si2 0.951869 0.500000 0.229399
Si Si3 0.932474 0.610076 0.419181
Si Si4 0.985075 0.281041 0.776959
Si Si5 0.322853 0.780892 0.129878
Si Si6 0.696978 0.382411 0.062856
Si Si7 0.324603 0.000000 0.015714
Si Si8 0.485112 0.654730 0.339330
O O1 0.327892 0.143151 0.545944
O O2 0.238121 0.227094 0.750667
O O3 0.127997 0.141845 0.667139
O O4 0.217136 0.124954 0.873905
O O5 0.899680 0.559977 0.325630
O O6 0.909255 0.500000 0.092071
O O7 0.082635 0.500000 0.173621
O O8 0.023009 0.658622 0.308839
O O9 0.000000 0.575607 0.500000
O O10 0.081300 0.299112 0.824684
O O11 0.006181 0.225179 0.660894
O O12 0.875601 0.263193 0.936178
O O13 0.245802 0.835178 0.147168
O O14 0.746766 0.444698 0.069359
O O15 0.570078 0.379333 0.178961
O O16 0.500000 0.631939 0.500000
#
# Coordination Sequence:
#
# PCOD8108808 Si02
#       8
#     8   4   8   8   8   8   4   8
#     4  11  25  43  67 104 141 182 226 287 356 417
#     4  11  25  48  67 102 144 179 232 293 333 406
#     4  12  25  39  69 102 142 181 233 280 351 411
#     4  10  21  39  62 100 139 176 228 280 349 411
#     4  10  21  38  67  97 137 182 222 287 348 410
#     4  12  24  44  71  98 137 184 239 282 343 412
#     4  11  26  46  77  99 132 188 239 279 346 407
#     4  11  26  41  67  97 142 179 230 291 347 406
#
# _framework density 22.033905000000001
#
# number of rings (size 3 to 8) (size 9 to 14) (size 15 to 20)
#    0.000    1.000    1.429    4.929    8.000    4.000 
#    0.000    2.500    0.000    0.000    0.000    0.000 
#    0.000    0.000    0.000    0.000    0.000    0.000 
#
# Total GULP energy -346976.507091 kJ/mol
# GULP energy per Si atom -12392.018110 kJ/mol
# Density = 2.198375 g / cm^3
# Si number density = 22.033905 Si / 1000 Ang^3
#
#
#
# Elastic Constant Matrix: (Units=GPa)
#
#
# Indices 1 2 3 4 5 6 
#
# 1 90.2632 51.4026 23.3482 0.0000 1.0541 0.0000
# 2 51.4026 128.4950 43.5711 0.0000 -11.8866 0.0000
# 3 23.3482 43.5711 94.7899 0.0000 -11.3623 0.0000
# 4 0.0000 0.0000 0.0000 15.4375 0.0000 17.7204
# 5 1.0541 -11.8866 -11.3623 0.0000 35.4389 0.0000
# 6 0.0000 0.0000 0.0000 17.7204 0.0000 12.8889
#
#
#
# Elastic Compliance Matrix: (Units=1/GPa)
#
#
# Indices 1 2 3 4 5 6 
#
# 1 0.014692 -0.005679 -0.001341 0.000000 -0.002772 0.000000
# 2 -0.005679 0.011527 -0.003552 0.000000 0.002896 0.000000
# 3 -0.001341 -0.003552 0.012869 0.000000 0.002974 0.000000
# 4 0.000000 0.000000 0.000000 -0.112039 0.000000 0.154037
# 5 -0.002772 0.002896 0.002974 0.000000 0.030225 0.000000
# 6 0.000000 0.000000 0.000000 0.154037 0.000000 -0.134193
#
#
# Mechanical properties :
#
#
# Convention : Reuss Voigt Hill
#
# Bulk Modulus (GPa) = 55.72965 61.13242 58.43104
# Shear Modulus (GPa) = -33.37930 25.76814 -3.80558
#
# Velocity S-wave (km/s) = -3.89640 3.42347 -1.31564
# Velocity P-wave (km/s) = 2.25942 6.59028 4.92630
#
# Compressibility (1/GPa) = 0.01794377
#
# Stress axis : x y z
#
# Youngs Moduli (GPa) = 68.06436 86.75480 77.70439
#
# Poissons Ratio (x) = 0.49269 0.10417
# Poissons Ratio (y) = 0.38655 0.27603
# Poissons Ratio (z) = 0.09125 0.30818
#
# Static dielectric constant tensor:
#      x y z
#    x 4.194180 0.000000 0.082530 
#    y 0.000000 3.649710 0.000000 
#    z 0.082530 0.000000 4.088960 
# 
# 
# High freq. dielectric constant tensor:
#      x y z
#    x 1.885920 0.000000 0.006820 
#    y 0.000000 1.841510 0.000000 
#    z 0.006820 0.000000 1.875070 
# 
# From -- ./inp_files/65804.got.cif
#   From: 2010.06.25/outbox.cif.g09.slc.cpg/sg12_33_cif.got.tgz:65804.got - 2010.06.28 00:19:55.
