data_PCOD8108860
_publ_section_title
;
Structure prediction by ZEFSAII (Michael W. Deem and Ramdas Pophale) SiO2 
 PCOD8108860
Probable space group: C 2/M
;
_chemical_formula_sum "Si O2"
_cell_formula_units_Z 64
_cell_length_a 24.402186
_cell_length_b 8.824492
_cell_length_c 15.106200
_cell_angle_alpha 90.000000
_cell_angle_beta 87.100674
_cell_angle_gamma 90.000000
_cell_volume 3248.758310
_symmetry_space_group_name_H-M "C 2/M"
_symmetry_group_IT_number 12
_symmetry_cell_setting 'monoclinic'
loop_
_space_group_symop_operation_xyz
x,y,z
-x,y,-z
-x,-y,-z
x,-y,z
1/2+x,1/2+y,z
1/2-x,1/2+y,-z
1/2-x,1/2-y,-z
1/2+x,1/2-y,z
loop_
_atom_site_type_symbol
_atom_site_label
_atom_site_fract_x
_atom_site_fract_y
_atom_site_fract_z
Si Si1 0.795218 0.179430 0.433504
Si Si2 0.585672 0.680082 0.522944
Si Si3 0.482343 0.677705 0.833292
Si Si4 0.702900 0.176060 0.752708
Si Si5 0.775602 0.178433 0.910989
Si Si6 0.385230 0.825905 0.938890
Si Si7 0.018469 0.179822 0.364421
Si Si8 0.406228 0.828046 0.137982
O O1 0.750000 0.250000 0.500000
O O2 0.854590 0.245728 0.458374
O O3 0.783026 0.226049 0.334151
O O4 0.793211 0.000000 0.442517
O O5 0.587379 0.500000 0.527025
O O6 0.567371 0.733423 0.425799
O O7 0.540388 0.742262 0.596306
O O8 0.471088 0.500000 0.843471
O O9 0.444509 0.767343 0.904429
O O10 0.469813 0.738854 0.735270
O O11 0.545241 0.709594 0.851897
O O12 0.742902 0.233009 0.827176
O O13 0.640130 0.205456 0.785672
O O14 0.713192 0.000000 0.730821
O O15 0.838445 0.229280 0.893959
O O16 0.771422 0.000000 0.921743
O O17 0.750000 0.250000 0.000000
O O18 0.378418 0.000000 0.912254
O O19 0.379187 0.804143 0.044330
O O20 0.014986 0.000000 0.364376
O O21 0.428566 0.000000 0.144618
#
# Coordination Sequence:
#
# PCOD8108860 Si02
#       8
#     8   8   8   8   8   8   8   8
#     4  11  23  38  58  87 119 154 196 243 295 353
#     4   8  15  31  55  79 106 143 184 230 285 340
#     4  11  22  34  53  87 120 150 194 244 294 354
#     4  10  22  41  63  87 116 155 198 242 302 363
#     4  11  22  40  64  89 117 152 197 248 299 356
#     4  11  23  40  58  81 115 158 199 241 297 356
#     4   8  15  30  53  80 109 139 179 234 290 341
#     4  10  21  39  59  80 113 156 195 239 299 358
#
# _framework density 19.699835
#
# number of rings (size 3 to 8) (size 9 to 14) (size 15 to 20)
#    0.000    2.000    1.250    3.375    0.000    6.000 
#    0.000    2.500    0.000    2.250    0.000    8.750 
#    0.000    0.000    0.000    0.000    0.000    0.000 
#
# Total GULP energy -396864.228612 kJ/mol
# GULP energy per Si atom -12402.007144 kJ/mol
# Density = 1.965500 g / cm^3
# Si number density = 19.699835 Si / 1000 Ang^3
#
#
#
# Elastic Constant Matrix: (Units=GPa)
#
#
# Indices 1 2 3 4 5 6 
#
# 1 105.2009 29.7769 57.1328 0.0000 8.7581 0.0000
# 2 29.7769 51.8358 42.7352 0.0000 2.4768 0.0000
# 3 57.1328 42.7352 114.1991 0.0000 -2.1344 0.0000
# 4 0.0000 0.0000 0.0000 27.6532 0.0000 -0.8951
# 5 8.7581 2.4768 -2.1344 0.0000 32.7764 0.0000
# 6 0.0000 0.0000 0.0000 -0.8951 0.0000 32.6976
#
#
#
# Elastic Compliance Matrix: (Units=1/GPa)
#
#
# Indices 1 2 3 4 5 6 
#
# 1 0.013866 -0.002894 -0.005926 0.000000 -0.003872 0.000000
# 2 -0.002894 0.028761 -0.009352 0.000000 -0.002009 0.000000
# 3 -0.005926 -0.009352 0.015283 0.000000 0.003285 0.000000
# 4 0.000000 0.000000 0.000000 0.036194 0.000000 0.000991
# 5 -0.003872 -0.002009 0.003285 0.000000 0.031910 0.000000
# 6 0.000000 0.000000 0.000000 0.000991 0.000000 0.030610
#
#
# Mechanical properties :
#
#
# Convention : Reuss Voigt Hill
#
# Bulk Modulus (GPa) = 46.37478 58.94728 52.66103
# Shear Modulus (GPa) = 24.98042 28.06484 26.52263
#
# Velocity S-wave (km/s) = 3.56484 3.77851 3.67323
# Velocity P-wave (km/s) = 6.36678 7.00171 6.69178
#
# Compressibility (1/GPa) = 0.02156345
#
# Stress axis : x y z
#
# Youngs Moduli (GPa) = 72.12108 34.76975 65.43405
#
# Poissons Ratio (x) = 0.10064 0.38777
# Poissons Ratio (y) = 0.20874 0.61195
# Poissons Ratio (z) = 0.42740 0.32517
#
# Static dielectric constant tensor:
#      x y z
#    x 3.730340 0.000000 0.114720 
#    y 0.000000 3.327150 0.000000 
#    z 0.114720 0.000000 3.782070 
# 
# 
# High freq. dielectric constant tensor:
#      x y z
#    x 1.774460 0.000000 0.003620 
#    y 0.000000 1.743930 0.000000 
#    z 0.003620 0.000000 1.774950 
# 
# From -- ./inp_files/238807.got.cif
#   From: 2010.06.25/outbox.cif.g09.slc.cpg/sg12_120_cif.got.tgz:238807.got - 2010.06.28 00:19:55.
