data_PCOD8108845
_publ_section_title
;
Structure prediction by ZEFSAII (Michael W. Deem and Ramdas Pophale) SiO2 
 PCOD8108845
Probable space group: C 2/M
;
_chemical_formula_sum "Si O2"
_cell_formula_units_Z 56
_cell_length_a 29.967219
_cell_length_b 8.980842
_cell_length_c 15.186109
_cell_angle_alpha 90.000000
_cell_angle_beta 130.727638
_cell_angle_gamma 90.000000
_cell_volume 3097.247399
_symmetry_space_group_name_H-M "C 2/M"
_symmetry_group_IT_number 12
_symmetry_cell_setting 'monoclinic'
loop_
_space_group_symop_operation_xyz
x,y,z
-x,y,-z
-x,-y,-z
x,-y,z
1/2+x,1/2+y,z
1/2-x,1/2+y,-z
1/2-x,1/2-y,-z
1/2+x,1/2-y,z
loop_
_atom_site_type_symbol
_atom_site_label
_atom_site_fract_x
_atom_site_fract_y
_atom_site_fract_z
Si Si1 0.052935 0.675834 0.787114
Si Si2 0.122591 0.674645 0.207800
Si Si3 0.110601 0.832102 0.023236
Si Si4 0.724609 0.332079 0.263891
Si Si5 0.562565 0.325898 0.619007
Si Si6 0.079474 0.673716 0.344079
Si Si7 0.846241 0.174846 0.414730
O O1 0.059078 0.500000 0.799411
O O2 0.076591 0.734537 0.724755
O O3 0.985636 0.727275 0.713756
O O4 0.093448 0.744710 0.914265
O O5 0.128224 0.500000 0.198597
O O6 0.085841 0.748064 0.079171
O O7 0.188615 0.746280 0.295377
O O8 0.088653 0.711492 0.253636
O O9 0.182173 0.833840 0.122850
O O10 0.085371 0.000000 0.987729
O O11 0.738970 0.500000 0.313860
O O12 0.783681 0.247649 0.314853
O O13 0.500000 0.274893 0.500000
O O14 0.562413 0.500000 0.641669
O O15 0.611866 0.282335 0.612154
O O16 0.088631 0.500000 0.375292
O O17 0.127049 0.764380 0.460508
O O18 0.838399 0.000000 0.413976
#
# Coordination Sequence:
#
# PCOD8108845 Si02
#       7
#     8   8   8   8   8   8   8
#     4  11  22  36  59  86 114 150 188 231 281 334
#     4   9  18  36  58  81 113 150 190 230 275 331
#     4   9  20  38  58  81 112 151 188 233 280 327
#     4   9  20  38  58  81 113 150 187 233 281 328
#     4  10  21  39  58  83 115 147 183 230 281 333
#     4  10  22  36  54  85 118 150 187 231 281 333
#     4  11  22  36  60  85 111 149 189 231 281 335
#
# _framework density 18.080572
#
# number of rings (size 3 to 8) (size 9 to 14) (size 15 to 20)
#    0.857    1.286    1.429    1.714    0.000    4.286 
#    0.000    3.571    0.000    0.000    0.000    0.000 
#    0.000    0.000    0.000    0.000    0.000    0.000 
#
# Total GULP energy -347137.493556 kJ/mol
# GULP energy per Si atom -12397.767627 kJ/mol
# Density = 1.803942 g / cm^3
# Si number density = 18.080572 Si / 1000 Ang^3
#
#
#
# Elastic Constant Matrix: (Units=GPa)
#
#
# Indices 1 2 3 4 5 6 
#
# 1 53.2941 36.2555 24.6737 0.0000 -12.6103 0.0000
# 2 36.2555 87.0356 43.5226 0.0000 -13.7692 0.0000
# 3 24.6737 43.5226 94.7113 0.0000 -17.3526 0.0000
# 4 0.0000 0.0000 0.0000 33.2170 0.0000 -3.1126
# 5 -12.6103 -13.7692 -17.3526 0.0000 29.0436 0.0000
# 6 0.0000 0.0000 0.0000 -3.1126 0.0000 22.0277
#
#
#
# Elastic Compliance Matrix: (Units=1/GPa)
#
#
# Indices 1 2 3 4 5 6 
#
# 1 0.027613 -0.009705 -0.001550 0.000000 0.006462 0.000000
# 2 -0.009705 0.018623 -0.005821 0.000000 0.001137 0.000000
# 3 -0.001550 -0.005821 0.014607 0.000000 0.005295 0.000000
# 4 0.000000 0.000000 0.000000 0.030509 0.000000 0.004311
# 5 0.006462 0.001137 0.005295 0.000000 0.040939 0.000000
# 6 0.000000 0.000000 0.000000 0.004311 0.000000 0.046006
#
#
# Mechanical properties :
#
#
# Convention : Reuss Voigt Hill
#
# Bulk Modulus (GPa) = 37.46600 49.32718 43.39659
# Shear Modulus (GPa) = 22.58901 25.56361 24.07631
#
# Velocity S-wave (km/s) = 3.53845 3.76423 3.65309
# Velocity P-wave (km/s) = 6.12053 6.79953 6.46895
#
# Compressibility (1/GPa) = 0.02669086
#
# Stress axis : x y z
#
# Youngs Moduli (GPa) = 36.21546 53.69683 68.45915
#
# Poissons Ratio (x) = 0.52112 0.10610
# Poissons Ratio (y) = 0.35147 0.39852
# Poissons Ratio (z) = 0.05613 0.31258
#
# Static dielectric constant tensor:
#      x y z
#    x 3.250410 0.000000 0.002980 
#    y 0.000000 3.413510 0.000000 
#    z 0.002980 0.000000 3.184480 
# 
# 
# High freq. dielectric constant tensor:
#      x y z
#    x 1.690150 0.000000 -0.001890 
#    y 0.000000 1.714120 0.000000 
#    z -0.001890 0.000000 1.692730 
# 
# From -- ./inp_files/244318.got.cif
#   From: 2010.06.25/outbox.cif.g09.slc.cpg/sg12_123_cif.got.tgz:244318.got - 2010.06.28 00:19:55.
