data_PCOD8108651
_publ_section_title
;
Structure prediction by ZEFSAII (Michael W. Deem and Ramdas Pophale) SiO2 
 PCOD8108651
Probable space group: C 2/M
;
_chemical_formula_sum "Si O2"
_cell_formula_units_Z 48
_cell_length_a 21.874349
_cell_length_b 13.417390
_cell_length_c 19.987402
_cell_angle_alpha 90.000000
_cell_angle_beta 23.740115
_cell_angle_gamma 90.000000
_cell_volume 2361.680714
_symmetry_space_group_name_H-M "C 2/M"
_symmetry_group_IT_number 12
_symmetry_cell_setting 'monoclinic'
loop_
_space_group_symop_operation_xyz
x,y,z
-x,y,-z
-x,-y,-z
x,-y,z
1/2+x,1/2+y,z
1/2-x,1/2+y,-z
1/2-x,1/2-y,-z
1/2+x,1/2-y,z
loop_
_atom_site_type_symbol
_atom_site_label
_atom_site_fract_x
_atom_site_fract_y
_atom_site_fract_z
Si Si1 0.444605 0.189165 0.375499
Si Si2 0.923405 0.762727 0.010369
Si Si3 0.905203 0.614449 0.906116
Si Si4 0.621906 0.388292 0.723686
Si Si5 0.940947 0.890645 0.770898
Si Si6 0.879689 0.613913 0.677665
O O1 0.265678 0.180274 0.564606
O O2 0.484322 0.305312 0.349583
O O3 0.539226 0.121402 0.331614
O O4 0.480659 0.158658 0.263171
O O5 0.035379 0.851191 0.875787
O O6 0.917518 0.674703 0.962409
O O7 0.757998 0.808602 0.190090
O O8 0.000000 0.716805 0.000000
O O9 0.947507 0.500000 0.878601
O O10 0.737962 0.625972 0.043560
O O11 0.680884 0.500000 0.677116
O O12 0.501327 0.382501 0.785225
O O13 0.978150 0.000000 0.702601
O O14 0.822608 0.500000 0.726134
O O15 0.000000 0.642841 0.500000
#
# Coordination Sequence:
#
# PCOD8108651 Si02
#       6
#     8   8   8   8   8   8
#     4  12  21  41  65  96 128 164 205 254 312 369
#     4  12  25  42  62  88 127 172 207 258 314 365
#     4  11  23  41  65  92 123 165 213 259 307 366
#     4  11  23  38  62  97 130 161 201 254 316 375
#     4  10  21  38  63  92 125 159 201 257 312 363
#     4  11  24  42  66  94 125 162 206 256 313 378
#
# _framework density 20.324508000000002
#
# number of rings (size 3 to 8) (size 9 to 14) (size 15 to 20)
#    0.000    0.833    3.333    5.000    0.000    4.333 
#    0.000    0.000    0.000    4.000    0.000    0.000 
#    0.000    0.000    0.000    0.000    0.000    0.000 
#
# Total GULP energy -297701.202750 kJ/mol
# GULP energy per Si atom -12404.216781 kJ/mol
# Density = 2.027825 g / cm^3
# Si number density = 20.324508 Si / 1000 Ang^3
#
#
#
# Elastic Constant Matrix: (Units=GPa)
#
#
# Indices 1 2 3 4 5 6 
#
# 1 112.1646 29.8960 43.3087 0.0010 -4.0087 -0.0004
# 2 29.8960 120.8485 53.0405 0.0026 10.7796 -0.0014
# 3 43.3087 53.0405 129.2691 0.0053 2.5305 -0.0029
# 4 0.0010 0.0026 0.0053 27.8332 -0.0036 -0.8254
# 5 -4.0087 10.7796 2.5305 -0.0036 26.4974 0.0016
# 6 -0.0004 -0.0014 -0.0029 -0.8254 0.0016 27.8510
#
#
#
# Elastic Compliance Matrix: (Units=1/GPa)
#
#
# Indices 1 2 3 4 5 6 
#
# 1 0.010556 -0.001538 -0.002954 0.000001 0.002505 0.000000
# 2 -0.001538 0.010696 -0.003791 -0.000001 -0.004222 0.000000
# 3 -0.002954 -0.003791 0.010279 -0.000001 0.000113 0.000001
# 4 0.000001 -0.000001 -0.000001 0.035960 0.000005 0.001066
# 5 0.002505 -0.004222 0.000113 0.000005 0.039825 -0.000002
# 6 0.000000 0.000000 0.000001 0.001066 -0.000002 0.035937
#
#
# Mechanical properties :
#
#
# Convention : Reuss Voigt Hill
#
# Bulk Modulus (GPa) = 66.82742 68.30806 67.56774
# Shear Modulus (GPa) = 30.33870 32.17212 31.25541
#
# Velocity S-wave (km/s) = 3.86776 3.98291 3.92576
# Velocity P-wave (km/s) = 7.27308 7.40494 7.33931
#
# Compressibility (1/GPa) = 0.01496392
#
# Stress axis : x y z
#
# Youngs Moduli (GPa) = 94.73571 93.49656 97.28854
#
# Poissons Ratio (x) = 0.14380 0.28743
# Poissons Ratio (y) = 0.14571 0.36878
# Poissons Ratio (z) = 0.27989 0.35441
#
# Static dielectric constant tensor:
#      x y z
#    x 3.635450 0.000000 -0.066980 
#    y 0.000000 4.003300 0.000000 
#    z -0.066980 0.000000 3.655600 
# 
# 
# High freq. dielectric constant tensor:
#      x y z
#    x 1.789950 0.000000 -0.012880 
#    y 0.000000 1.801770 0.000000 
#    z -0.012880 0.000000 1.796690 
# 
# From -- ./inp_files/85963.got.cif
#   From: 2010.06.25/outbox.cif.g09.slc.cpg/sg12_43_cif.got.tgz:85963.got - 2010.06.28 00:19:55.
