data_PCOD8108472
_publ_section_title
;
Structure prediction by ZEFSAII (Michael W. Deem and Ramdas Pophale) SiO2 
 PCOD8108472
Probable space group: C 2/M
;
_chemical_formula_sum "Si O2"
_cell_formula_units_Z 56
_cell_length_a 25.475341
_cell_length_b 9.288148
_cell_length_c 16.035342
_cell_angle_alpha 90.000000
_cell_angle_beta 47.497788
_cell_angle_gamma 90.000000
_cell_volume 2797.324698
_symmetry_space_group_name_H-M "C 2/M"
_symmetry_group_IT_number 12
_symmetry_cell_setting 'monoclinic'
loop_
_space_group_symop_operation_xyz
x,y,z
-x,y,-z
-x,-y,-z
x,-y,z
1/2+x,1/2+y,z
1/2-x,1/2+y,-z
1/2-x,1/2-y,-z
1/2+x,1/2-y,z
loop_
_atom_site_type_symbol
_atom_site_label
_atom_site_fract_x
_atom_site_fract_y
_atom_site_fract_z
Si Si1 0.409311 0.165237 0.288979
Si Si2 0.919351 0.832615 0.607779
Si Si3 0.139371 0.660230 0.474817
Si Si4 0.674241 0.167483 0.170174
Si Si5 0.183741 0.668030 0.965246
Si Si6 0.215295 0.839696 0.610121
Si Si7 0.461249 0.831965 0.959257
O O1 0.397236 0.206496 0.398421
O O2 0.357315 0.259334 0.285077
O O3 0.489816 0.197210 0.174485
O O4 0.388430 0.000000 0.296481
O O5 0.876117 0.783875 0.573731
O O6 0.894433 0.741413 0.714392
O O7 0.000000 0.796280 0.500000
O O8 0.906210 0.000000 0.639813
O O9 0.111140 0.500000 0.480235
O O10 0.225335 0.654428 0.382147
O O11 0.664390 0.191127 0.082688
O O12 0.676810 0.000000 0.191399
O O13 0.745684 0.240918 0.130490
O O14 0.199040 0.500000 0.931068
O O15 0.117801 0.727260 0.978915
O O16 0.250000 0.750000 0.500000
O O17 0.195935 0.000000 0.600197
O O18 0.452331 0.000000 0.985637
O O19 0.500000 0.763092 0.000000
#
# Coordination Sequence:
#
# PCOD8108472 Si02
#       7
#     8   8   8   8   8   8   8
#     4   9  18  32  53  81 113 148 187 228 272 334
#     4  11  25  40  55  82 116 146 186 241 295 349
#     4   9  19  34  53  77 108 149 191 230 277 339
#     4  10  21  38  62  87 114 153 195 239 288 342
#     4   9  19  37  62  88 116 153 196 238 283 338
#     4   9  17  31  51  76 106 140 182 224 265 325
#     4   9  18  33  55  85 115 144 184 231 281 335
#
# _framework density 20.019127999999998
#
# number of rings (size 3 to 8) (size 9 to 14) (size 15 to 20)
#    0.000    2.571    0.000    2.143    2.000    5.714 
#    0.000    2.143    0.000    0.857    0.000    0.000 
#    0.000    0.000    0.000    0.000    0.000    0.000 
#
# Total GULP energy -347008.362247 kJ/mol
# GULP energy per Si atom -12393.155795 kJ/mol
# Density = 1.997356 g / cm^3
# Si number density = 20.019128 Si / 1000 Ang^3
#
#
#
# Elastic Constant Matrix: (Units=GPa)
#
#
# Indices 1 2 3 4 5 6 
#
# 1 91.4602 32.7464 21.7072 -0.0016 -13.2568 0.0003
# 2 32.7464 94.1223 40.1559 -0.0090 -11.5546 0.0016
# 3 21.7072 40.1559 75.2271 -0.0036 -6.5969 0.0014
# 4 -0.0016 -0.0090 -0.0036 27.8344 0.0004 -2.6500
# 5 -13.2568 -11.5546 -6.5969 0.0004 26.7459 0.0003
# 6 0.0003 0.0016 0.0014 -2.6500 0.0003 27.0306
#
#
#
# Elastic Compliance Matrix: (Units=1/GPa)
#
#
# Indices 1 2 3 4 5 6 
#
# 1 0.013189 -0.003319 -0.001621 -0.000001 0.004703 0.000000
# 2 -0.003319 0.015076 -0.006810 0.000004 0.003188 0.000000
# 3 -0.001621 -0.006810 0.017445 0.000000 0.000557 -0.000001
# 4 -0.000001 0.000004 0.000000 0.036265 0.000001 0.003555
# 5 0.004703 0.003188 0.000557 0.000001 0.041235 -0.000001
# 6 0.000000 0.000000 -0.000001 0.003555 -0.000001 0.037344
#
#
# Mechanical properties :
#
#
# Convention : Reuss Voigt Hill
#
# Bulk Modulus (GPa) = 45.02883 50.00318 47.51601
# Shear Modulus (GPa) = 26.11535 27.40218 26.75876
#
# Velocity S-wave (km/s) = 3.61573 3.70374 3.66000
# Velocity P-wave (km/s) = 6.32243 6.58196 6.45350
#
# Compressibility (1/GPa) = 0.02220799
#
# Stress axis : x y z
#
# Youngs Moduli (GPa) = 75.82233 66.32971 57.32288
#
# Poissons Ratio (x) = 0.22018 0.09294
# Poissons Ratio (y) = 0.25169 0.39038
# Poissons Ratio (z) = 0.12293 0.45172
#
# Static dielectric constant tensor:
#      x y z
#    x 4.024840 -0.000010 -0.545090 
#    y -0.000010 3.722040 0.000020 
#    z -0.545090 0.000020 4.151850 
# 
# 
# High freq. dielectric constant tensor:
#      x y z
#    x 1.774340 0.000000 -0.011480 
#    y 0.000000 1.766650 0.000000 
#    z -0.011480 0.000000 1.778400 
# 
# From -- ./inp_files/292448.got.cif
#   From: 2010.06.25/outbox.cif.g09.slc.cpg/sg12_147_cif.got.tgz:292448.got - 2010.06.28 00:19:55.
