data_PCOD8108967
_publ_section_title
;
Structure prediction by ZEFSAII (Michael W. Deem and Ramdas Pophale) SiO2 
 PCOD8108967
Probable space group: C 2/M
;
_chemical_formula_sum "Si O2"
_cell_formula_units_Z 48
_cell_length_a 23.999074
_cell_length_b 8.950216
_cell_length_c 15.020611
_cell_angle_alpha 90.000000
_cell_angle_beta 50.714668
_cell_angle_gamma 90.000000
_cell_volume 2497.226127
_symmetry_space_group_name_H-M "C 2/M"
_symmetry_group_IT_number 12
_symmetry_cell_setting 'monoclinic'
loop_
_space_group_symop_operation_xyz
x,y,z
-x,y,-z
-x,-y,-z
x,-y,z
1/2+x,1/2+y,z
1/2-x,1/2+y,-z
1/2-x,1/2-y,-z
1/2+x,1/2-y,z
loop_
_atom_site_type_symbol
_atom_site_label
_atom_site_fract_x
_atom_site_fract_y
_atom_site_fract_z
Si Si1 0.911144 0.323761 0.931713
Si Si2 0.572950 0.329247 0.575971
Si Si3 0.665376 0.172087 0.338490
Si Si4 0.559789 0.326397 0.791589
Si Si5 0.831073 0.172163 0.166233
Si Si6 0.407524 0.326758 0.749542
O O1 0.913288 0.500000 0.923553
O O2 0.889579 0.260441 0.857636
O O3 0.988300 0.265243 0.887228
O O4 0.850504 0.273261 0.062398
O O5 0.594021 0.500000 0.532799
O O6 0.621218 0.218975 0.469898
O O7 0.587294 0.290667 0.664558
O O8 0.489675 0.300424 0.636452
O O9 0.748704 0.199616 0.275548
O O10 0.644254 0.269885 0.275148
O O11 0.648824 0.000000 0.333950
O O12 0.538974 0.500000 0.820432
O O13 0.622066 0.278433 0.796143
O O14 0.845854 0.000000 0.126723
O O15 0.392672 0.500000 0.782743
#
# Coordination Sequence:
#
# PCOD8108967 Si02
#       6
#     8   8   8   8   8   8
#     4  11  22  36  58  87 112 137 180 236 281 318
#     4   9  19  36  58  82 107 142 187 227 270 327
#     4  11  23  36  54  83 115 146 183 229 275 319
#     4   9  19  38  61  81 108 149 188 221 266 329
#     4  10  22  39  56  78 113 154 187 217 268 334
#     4  10  21  39  61  81 107 147 187 223 272 334
#
# _framework density 19.221326999999999
#
# number of rings (size 3 to 8) (size 9 to 14) (size 15 to 20)
#    0.000    2.000    0.000    4.500    0.000   10.667 
#    0.000    0.000    0.000    0.000    0.000    0.000 
#    0.000    0.000    0.000    0.000    0.000    0.000 
#
# Total GULP energy -297730.975519 kJ/mol
# GULP energy per Si atom -12405.457313 kJ/mol
# Density = 1.917758 g / cm^3
# Si number density = 19.221327 Si / 1000 Ang^3
#
#
#
# Elastic Constant Matrix: (Units=GPa)
#
#
# Indices 1 2 3 4 5 6 
#
# 1 68.7866 27.9903 41.8330 -0.0003 3.6416 0.0001
# 2 27.9903 95.7226 41.8916 -0.0004 -0.5341 0.0002
# 3 41.8330 41.8916 59.6292 0.0000 7.1721 0.0000
# 4 -0.0003 -0.0004 0.0000 35.1957 0.0000 -0.7464
# 5 3.6416 -0.5341 7.1721 0.0000 19.2849 0.0000
# 6 0.0001 0.0002 0.0000 -0.7464 0.0000 24.5446
#
#
#
# Elastic Compliance Matrix: (Units=1/GPa)
#
#
# Indices 1 2 3 4 5 6 
#
# 1 0.025457 0.000717 -0.018620 0.000000 0.002138 0.000000
# 2 0.000717 0.015499 -0.011962 0.000000 0.004742 0.000000
# 3 -0.018620 -0.011962 0.039626 0.000000 -0.011552 0.000000
# 4 0.000000 0.000000 0.000000 0.028431 0.000000 0.000865
# 5 0.002138 0.004742 -0.011552 0.000000 0.055878 0.000000
# 6 0.000000 0.000000 0.000000 0.000865 0.000000 0.040769
#
#
# Mechanical properties :
#
#
# Convention : Reuss Voigt Hill
#
# Bulk Modulus (GPa) = 47.95706 49.72982 48.84344
# Shear Modulus (GPa) = 18.35946 23.29991 20.82968
#
# Velocity S-wave (km/s) = 3.09392 3.48543 3.29549
# Velocity P-wave (km/s) = 6.14550 6.49045 6.32033
#
# Compressibility (1/GPa) = 0.02085199
#
# Stress axis : x y z
#
# Youngs Moduli (GPa) = 39.28236 64.52227 25.23585
#
# Poissons Ratio (x) = -0.04626 0.46989
# Poissons Ratio (y) = -0.02816 0.30186
# Poissons Ratio (z) = 0.73144 0.77179
#
# Static dielectric constant tensor:
#      x y z
#    x 3.603990 0.000000 0.093240 
#    y 0.000000 3.501090 0.000000 
#    z 0.093240 0.000000 3.445590 
# 
# 
# High freq. dielectric constant tensor:
#      x y z
#    x 1.751250 0.000000 0.008770 
#    y 0.000000 1.748140 0.000000 
#    z 0.008770 0.000000 1.748910 
# 
# From -- ./inp_files/230435.got.cif
#   From: 2010.06.25/outbox.cif.g09.slc.cpg/sg12_116_cif.got.tgz:230435.got - 2010.06.28 00:19:55.
