data_PCOD8108202
_publ_section_title
;
Structure prediction by ZEFSAII (Michael W. Deem and Ramdas Pophale) SiO2 
 PCOD8108202
Probable space group: C 2/M
;
_chemical_formula_sum "Si O2"
_cell_formula_units_Z 56
_cell_length_a 30.155553
_cell_length_b 8.552753
_cell_length_c 18.806883
_cell_angle_alpha 90.000000
_cell_angle_beta 34.060999
_cell_angle_gamma 90.000000
_cell_volume 2716.666943
_symmetry_space_group_name_H-M "C 2/M"
_symmetry_group_IT_number 12
_symmetry_cell_setting 'monoclinic'
loop_
_space_group_symop_operation_xyz
x,y,z
-x,y,-z
-x,-y,-z
x,-y,z
1/2+x,1/2+y,z
1/2-x,1/2+y,-z
1/2-x,1/2-y,-z
1/2+x,1/2-y,z
loop_
_atom_site_type_symbol
_atom_site_label
_atom_site_fract_x
_atom_site_fract_y
_atom_site_fract_z
Si Si1 0.795363 0.179820 0.340690
Si Si2 0.361095 0.678775 0.405916
Si Si3 0.773120 0.815992 0.892474
Si Si4 0.582386 0.816993 0.925370
Si Si5 0.629642 0.318277 0.007959
Si Si6 0.512080 0.820884 0.268198
Si Si7 0.044910 0.182954 0.369210
O O1 0.717453 0.286466 0.444421
O O2 0.847064 0.214117 0.341808
O O3 0.846123 0.222654 0.204796
O O4 0.768980 0.000000 0.372635
O O5 0.386658 0.500000 0.385026
O O6 0.429570 0.794665 0.338490
O O7 0.862442 0.772255 0.751847
O O8 0.759320 0.000000 0.912259
O O9 0.750000 0.750000 0.000000
O O10 0.718753 0.740786 0.903083
O O11 0.594545 0.000000 0.896640
O O12 0.500000 0.760728 0.000000
O O13 0.585137 0.776760 0.004937
O O14 0.630396 0.500000 0.987564
O O15 0.580405 0.288872 0.145210
O O16 0.501915 0.777321 0.363878
O O17 0.537740 0.000000 0.225119
O O18 0.000000 0.236169 0.500000
O O19 0.033255 0.000000 0.371005
#
# Coordination Sequence:
#
# PCOD8108202 Si02
#       7
#     8   8   8   8   8   8   8
#     4  10  21  38  60  88 121 161 207 256 312 372
#     4  10  21  38  62  88 121 163 206 252 308 375
#     4  11  22  40  67  95 127 166 212 264 319 382
#     4  11  24  41  62  90 126 165 209 263 320 377
#     4  12  25  41  64  92 125 167 215 263 317 383
#     4  12  24  39  62  91 124 159 206 259 312 379
#     4  10  23  43  66  92 125 165 207 255 318 384
#
# _framework density 20.613495
#
# number of rings (size 3 to 8) (size 9 to 14) (size 15 to 20)
#    0.000    1.143    1.429    5.143    0.000    7.143 
#    0.000    4.286    0.000    0.000    0.000    0.000 
#    0.000    0.000    0.000    0.000    0.000    0.000 
#
# Total GULP energy -347410.735160 kJ/mol
# GULP energy per Si atom -12407.526256 kJ/mol
# Density = 2.056658 g / cm^3
# Si number density = 20.613495 Si / 1000 Ang^3
#
#
#
# Elastic Constant Matrix: (Units=GPa)
#
#
# Indices 1 2 3 4 5 6 
#
# 1 95.2523 32.2642 34.1004 -0.0146 -6.4088 0.0033
# 2 32.2642 73.7631 24.5556 -0.0063 -4.7967 -0.0169
# 3 34.1004 24.5556 113.1881 -0.0197 4.2162 -0.0097
# 4 -0.0146 -0.0063 -0.0197 30.9949 0.0030 -1.1236
# 5 -6.4088 -4.7967 4.2162 0.0030 29.9858 0.0012
# 6 0.0033 -0.0169 -0.0097 -1.1236 0.0012 30.2755
#
#
#
# Elastic Compliance Matrix: (Units=1/GPa)
#
#
# Indices 1 2 3 4 5 6 
#
# 1 0.013356 -0.004640 -0.003112 0.000003 0.002550 -0.000005
# 2 -0.004640 0.016462 -0.002246 0.000000 0.001957 0.000009
# 3 -0.003112 -0.002246 0.010352 0.000005 -0.002480 0.000003
# 4 0.000003 0.000000 0.000005 0.032307 -0.000003 0.001199
# 5 0.002550 0.001957 -0.002480 -0.000003 0.034556 -0.000002
# 6 -0.000005 0.000009 0.000003 0.001199 -0.000002 0.033074
#
#
# Mechanical properties :
#
#
# Convention : Reuss Voigt Hill
#
# Bulk Modulus (GPa) = 49.57185 51.56042 50.56613
# Shear Modulus (GPa) = 29.97105 31.00348 30.48727
#
# Velocity S-wave (km/s) = 3.81721 3.88240 3.84994
# Velocity P-wave (km/s) = 6.59762 6.72046 6.65932
#
# Compressibility (1/GPa) = 0.02017274
#
# Stress axis : x y z
#
# Youngs Moduli (GPa) = 74.87377 60.74757 96.59857
#
# Poissons Ratio (x) = 0.28187 0.30062
# Poissons Ratio (y) = 0.34742 0.21698
# Poissons Ratio (z) = 0.23301 0.13645
#
# Static dielectric constant tensor:
#      x y z
#    x 3.740820 -0.000030 -0.087450 
#    y -0.000030 3.663910 0.000010 
#    z -0.087450 0.000010 3.757400 
# 
# 
# High freq. dielectric constant tensor:
#      x y z
#    x 1.810340 0.000000 -0.005170 
#    y 0.000000 1.812700 0.000000 
#    z -0.005170 0.000000 1.807940 
# 
# From -- ./inp_files/292435.got.cif
#   From: 2010.06.25/outbox.cif.g09.slc.cpg/sg12_147_cif.got.tgz:292435.got - 2010.06.28 00:19:55.
