data_PCOD8108639
_publ_section_title
;
Structure prediction by ZEFSAII (Michael W. Deem and Ramdas Pophale) SiO2 
 PCOD8108639
Probable space group: C 2/M
;
_chemical_formula_sum "Si O2"
_cell_formula_units_Z 56
_cell_length_a 29.858574
_cell_length_b 14.327668
_cell_length_c 11.900826
_cell_angle_alpha 90.000000
_cell_angle_beta 32.085651
_cell_angle_gamma 90.000000
_cell_volume 2704.385724
_symmetry_space_group_name_H-M "C 2/M"
_symmetry_group_IT_number 12
_symmetry_cell_setting 'monoclinic'
loop_
_space_group_symop_operation_xyz
x,y,z
-x,y,-z
-x,-y,-z
x,-y,z
1/2+x,1/2+y,z
1/2-x,1/2+y,-z
1/2-x,1/2-y,-z
1/2+x,1/2-y,z
loop_
_atom_site_type_symbol
_atom_site_label
_atom_site_fract_x
_atom_site_fract_y
_atom_site_fract_z
Si Si1 0.429264 0.896267 0.742743
Si Si2 0.804848 0.894153 0.549825
Si Si3 0.081120 0.106750 0.480007
Si Si4 0.109526 0.604388 0.933092
Si Si5 0.107958 0.108793 0.043758
Si Si6 0.591542 0.708723 0.849249
Si Si7 0.666549 0.276778 0.115053
O O1 0.500000 0.876849 0.500000
O O2 0.356755 0.825075 0.874288
O O3 0.392652 0.000000 0.803753
O O4 0.453339 0.883802 0.824683
O O5 0.848882 0.874317 0.574849
O O6 0.704957 0.881744 0.774660
O O7 0.839470 0.816266 0.390857
O O8 0.827645 0.000000 0.461554
O O9 0.098355 0.174567 0.339995
O O10 0.988151 0.131711 0.719831
O O11 0.085071 0.000000 0.429069
O O12 0.098378 0.500000 0.905234
O O13 0.088833 0.680329 0.881466
O O14 0.173897 0.156834 0.989813
O O15 0.128167 0.000000 0.997532
O O16 0.121870 0.151427 0.892323
O O17 0.500000 0.676159 0.000000
O O18 0.750000 0.250000 0.000000
#
# Coordination Sequence:
#
# PCOD8108639 Si02
#       7
#     8   8   8   8   8   8   8
#     4  10  21  39  64  87 116 160 209 255 300 362
#     4  10  21  39  64  92 126 166 211 258 312 380
#     4  10  21  38  63  91 122 163 207 254 313 381
#     4  10  22  41  62  89 124 166 212 259 312 367
#     4  11  23  40  62  92 126 160 205 261 315 371
#     4  12  23  38  65  96 126 169 210 259 312 374
#     4  12  24  38  61  90 125 161 203 254 320 381
#
# _framework density 20.707106
#
# number of rings (size 3 to 8) (size 9 to 14) (size 15 to 20)
#    0.000    1.286    2.857    3.429    0.000    4.286 
#    0.000    0.000    0.000    0.857    0.000    0.000 
#    0.000    0.000    0.000    0.000    0.000    0.000 
#
# Total GULP energy -347081.977216 kJ/mol
# GULP energy per Si atom -12395.784901 kJ/mol
# Density = 2.065998 g / cm^3
# Si number density = 20.707106 Si / 1000 Ang^3
#
#
#
# Elastic Constant Matrix: (Units=GPa)
#
#
# Indices 1 2 3 4 5 6 
#
# 1 83.4574 34.6696 2.8645 0.0000 5.6744 0.0000
# 2 34.6696 116.9090 16.2268 0.0000 12.9461 0.0000
# 3 2.8645 16.2268 49.1311 0.0000 17.7621 0.0000
# 4 0.0000 0.0000 0.0000 19.6256 0.0000 15.3387
# 5 5.6744 12.9461 17.7621 0.0000 29.8086 0.0000
# 6 0.0000 0.0000 0.0000 15.3387 0.0000 30.1888
#
#
#
# Elastic Compliance Matrix: (Units=1/GPa)
#
#
# Indices 1 2 3 4 5 6 
#
# 1 0.013732 -0.004056 0.001080 0.000000 -0.001496 0.000000
# 2 -0.004056 0.010339 -0.002337 0.000000 -0.002325 0.000000
# 3 0.001080 -0.002337 0.026473 0.000000 -0.014965 0.000000
# 4 0.000000 0.000000 0.000000 0.084516 0.000000 -0.042942
# 5 -0.001496 -0.002325 -0.014965 0.000000 0.043759 0.000000
# 6 0.000000 0.000000 0.000000 -0.042942 0.000000 0.054943
#
#
# Mechanical properties :
#
#
# Convention : Reuss Voigt Hill
#
# Bulk Modulus (GPa) = 25.05308 39.66881 32.36095
# Shear Modulus (GPa) = 19.40281 28.97369 24.18825
#
# Velocity S-wave (km/s) = 3.06439 3.74467 3.42148
# Velocity P-wave (km/s) = 4.96444 6.15592 5.59201
#
# Compressibility (1/GPa) = 0.03991524
#
# Stress axis : x y z
#
# Youngs Moduli (GPa) = 72.82295 96.72544 37.77441
#
# Poissons Ratio (x) = 0.39237 -0.04079
# Poissons Ratio (y) = 0.29541 0.08830
# Poissons Ratio (z) = -0.07864 0.22609
#
# Static dielectric constant tensor:
#      x y z
#    x 3.423920 0.000000 0.047710 
#    y 0.000000 3.863210 0.000000 
#    z 0.047710 0.000000 3.595460 
# 
# 
# High freq. dielectric constant tensor:
#      x y z
#    x 1.806010 0.000000 0.015120 
#    y 0.000000 1.827930 0.000000 
#    z 0.015120 0.000000 1.796170 
# 
# From -- ./inp_files/143722.got.cif
#   From: 2010.06.25/outbox.cif.g09.slc.cpg/sg12_72_cif.got.tgz:143722.got - 2010.06.28 00:19:55.
