data_PCOD8108188
_publ_section_title
;
Structure prediction by ZEFSAII (Michael W. Deem and Ramdas Pophale) SiO2 
 PCOD8108188
Probable space group: C 2/M
;
_chemical_formula_sum "Si O2"
_cell_formula_units_Z 60
_cell_length_a 19.378083
_cell_length_b 18.095881
_cell_length_c 15.161652
_cell_angle_alpha 90.000000
_cell_angle_beta 35.644759
_cell_angle_gamma 90.000000
_cell_volume 3098.313055
_symmetry_space_group_name_H-M "C 2/M"
_symmetry_group_IT_number 12
_symmetry_cell_setting 'monoclinic'
loop_
_space_group_symop_operation_xyz
x,y,z
-x,y,-z
-x,-y,-z
x,-y,z
1/2+x,1/2+y,z
1/2-x,1/2+y,-z
1/2-x,1/2-y,-z
1/2+x,1/2-y,z
loop_
_atom_site_type_symbol
_atom_site_label
_atom_site_fract_x
_atom_site_fract_y
_atom_site_fract_z
Si Si1 0.766516 0.177604 0.683337
Si Si2 0.500000 0.674777 0.000000
Si Si3 0.705002 0.418591 0.850553
Si Si4 0.017185 0.786742 0.667644
Si Si5 0.968032 0.703026 0.173316
Si Si6 0.127386 0.080222 0.129161
Si Si7 0.377026 0.795030 0.676993
Si Si8 0.320800 0.913357 0.070276
O O1 0.884823 0.183345 0.502254
O O2 0.655259 0.173373 0.735234
O O3 0.770604 0.251461 0.738528
O O4 0.755951 0.108694 0.762512
O O5 0.383948 0.622946 0.123842
O O6 0.511093 0.725659 0.074922
O O7 0.729719 0.500000 0.785454
O O8 0.830579 0.377998 0.733550
O O9 0.649922 0.424846 0.003228
O O10 0.058841 0.727714 0.698084
O O11 0.976422 0.861630 0.754538
O O12 0.904511 0.746848 0.739477
O O13 0.062059 0.636889 0.062861
O O14 0.243643 0.102549 0.063565
O O15 0.083571 0.000000 0.209170
O O16 0.500000 0.798025 0.500000
O O17 0.356437 0.000000 0.040739
#
# Coordination Sequence:
#
# PCOD8108188 Si02
#       8
#     8   4   8   8   8   8   8   8
#     4  11  22  39  59  90 119 156 201 245 296 357
#     4  12  21  36  61  88 112 152 208 248 285 354
#     4  11  22  38  59  85 120 154 192 248 302 348
#     4  11  23  38  63  86 120 160 197 247 301 353
#     4  12  22  39  62  88 120 159 204 248 294 358
#     4  10  22  37  58  89 118 151 197 246 299 355
#     4  10  21  38  60  88 115 149 201 242 290 358
#     4  11  23  39  62  92 125 159 200 250 307 364
#
# _framework density 19.365378
#
# number of rings (size 3 to 8) (size 9 to 14) (size 15 to 20)
#    0.000    1.067    5.333    1.400    0.000    2.933 
#    0.000    1.333    0.000    0.800    0.000    0.000 
#    0.000    0.000    0.000    0.000    0.000    0.000 
#
# Total GULP energy -371798.666261 kJ/mol
# GULP energy per Si atom -12393.288875 kJ/mol
# Density = 1.932130 g / cm^3
# Si number density = 19.365378 Si / 1000 Ang^3
#
#
#
# Elastic Constant Matrix: (Units=GPa)
#
#
# Indices 1 2 3 4 5 6 
#
# 1 76.1374 33.9414 22.8291 0.0000 -3.8436 0.0001
# 2 33.9414 126.6850 36.7353 0.0000 -8.6913 0.0000
# 3 22.8291 36.7353 53.4482 0.0002 -0.6930 -0.0001
# 4 0.0000 0.0000 0.0002 14.7125 -0.0001 8.7724
# 5 -3.8436 -8.6913 -0.6930 -0.0001 27.2233 0.0000
# 6 0.0001 0.0000 -0.0001 8.7724 0.0000 18.6505
#
#
#
# Elastic Compliance Matrix: (Units=1/GPa)
#
#
# Indices 1 2 3 4 5 6 
#
# 1 0.015888 -0.002758 -0.004874 0.000000 0.001238 0.000000
# 2 -0.002758 0.010584 -0.006060 0.000000 0.002835 0.000000
# 3 -0.004874 -0.006060 0.024931 -0.000001 -0.001988 0.000000
# 4 0.000000 0.000000 -0.000001 0.094461 0.000000 -0.044431
# 5 0.001238 0.002835 -0.001988 0.000000 0.037763 0.000000
# 6 0.000000 0.000000 0.000000 -0.044431 0.000000 0.074516
#
#
# Mechanical properties :
#
#
# Convention : Reuss Voigt Hill
#
# Bulk Modulus (GPa) = 41.63496 49.25357 45.44426
# Shear Modulus (GPa) = 17.03383 22.96825 20.00104
#
# Velocity S-wave (km/s) = 2.96903 3.44764 3.21725
# Velocity P-wave (km/s) = 5.77060 6.42941 6.10889
#
# Compressibility (1/GPa) = 0.02401828
#
# Stress axis : x y z
#
# Youngs Moduli (GPa) = 62.94143 94.47957 40.11112
#
# Poissons Ratio (x) = 0.26060 0.19551
# Poissons Ratio (y) = 0.17361 0.24306
# Poissons Ratio (z) = 0.30679 0.57252
#
# Static dielectric constant tensor:
#      x y z
#    x 3.712060 0.000000 0.068420 
#    y 0.000000 3.856530 0.000000 
#    z 0.068420 0.000000 3.367410 
# 
# 
# High freq. dielectric constant tensor:
#      x y z
#    x 1.768250 0.000000 -0.001050 
#    y 0.000000 1.758060 0.000000 
#    z -0.001050 0.000000 1.736760 
# 
# From -- ./inp_files/226857.got.cif
#   From: 2010.06.25/outbox.cif.g09.slc.cpg/sg12_114_cif.got.tgz:226857.got - 2010.06.28 00:19:55.
