data_PCOD8108291
_publ_section_title
;
Structure prediction by ZEFSAII (Michael W. Deem and Ramdas Pophale) SiO2 
 PCOD8108291
Probable space group: C 2/M
;
_chemical_formula_sum "Si O2"
_cell_formula_units_Z 56
_cell_length_a 21.626229
_cell_length_b 8.616192
_cell_length_c 18.339051
_cell_angle_alpha 90.000000
_cell_angle_beta 59.280350
_cell_angle_gamma 90.000000
_cell_volume 2937.706441
_symmetry_space_group_name_H-M "C 2/M"
_symmetry_group_IT_number 12
_symmetry_cell_setting 'monoclinic'
loop_
_space_group_symop_operation_xyz
x,y,z
-x,y,-z
-x,-y,-z
x,-y,z
1/2+x,1/2+y,z
1/2-x,1/2+y,-z
1/2-x,1/2-y,-z
1/2+x,1/2-y,z
loop_
_atom_site_type_symbol
_atom_site_label
_atom_site_fract_x
_atom_site_fract_y
_atom_site_fract_z
Si Si1 0.417309 0.183012 0.559022
Si Si2 0.302725 0.826493 0.261717
Si Si3 0.836718 0.177120 0.742991
Si Si4 0.209666 0.819054 0.455044
Si Si5 0.076789 0.318093 0.033382
Si Si6 0.574590 0.321386 0.886082
Si Si7 0.819346 0.183589 0.917165
O O1 0.500000 0.241337 0.500000
O O2 0.389143 0.231256 0.656297
O O3 0.367605 0.248397 0.522622
O O4 0.413710 0.000000 0.555084
O O5 0.245249 0.812273 0.232428
O O6 0.266259 0.781430 0.358583
O O7 0.366228 0.703273 0.211673
O O8 0.335085 0.000000 0.244367
O O9 0.833644 0.247284 0.826560
O O10 0.864316 0.000000 0.725948
O O11 0.250000 0.750000 0.500000
O O12 0.196198 0.000000 0.474789
O O13 0.094617 0.500000 0.019925
O O14 0.110480 0.237228 0.082814
O O15 0.992055 0.289862 0.090376
O O16 0.108513 0.234149 0.942424
O O17 0.550197 0.500000 0.903854
O O18 0.810855 0.000000 0.919893
O O19 0.750000 0.250000 0.000000
#
# Coordination Sequence:
#
# PCOD8108291 Si02
#       7
#     8   8   8   8   8   8   8
#     4  10  21  38  61  88 118 155 196 240 292 352
#     4   9  18  35  57  82 110 144 182 223 278 339
#     4   9  20  37  58  83 113 148 188 233 278 335
#     4  10  21  38  61  87 117 150 190 240 290 346
#     4  11  22  37  55  76 109 150 186 228 280 331
#     4  11  21  35  56  81 107 141 186 233 279 333
#     4  11  22  37  57  84 115 148 189 234 281 332
#
# _framework density 19.06249
#
# number of rings (size 3 to 8) (size 9 to 14) (size 15 to 20)
#    0.000    1.857    0.000    6.429    0.000    6.286 
#    2.571    0.000    0.000    0.000    0.000    0.000 
#    0.000    0.000    0.000    0.000    0.000    0.000 
#
# Total GULP energy -347100.861342 kJ/mol
# GULP energy per Si atom -12396.459334 kJ/mol
# Density = 1.901910 g / cm^3
# Si number density = 19.062490 Si / 1000 Ang^3
#
#
#
# Elastic Constant Matrix: (Units=GPa)
#
#
# Indices 1 2 3 4 5 6 
#
# 1 108.5020 30.1225 72.9126 0.0000 16.1745 0.0000
# 2 30.1225 65.7403 35.3814 0.0001 -1.9386 -0.0003
# 3 72.9126 35.3814 104.9067 0.0001 2.3288 0.0000
# 4 0.0000 0.0001 0.0001 30.8753 0.0000 -1.0325
# 5 16.1745 -1.9386 2.3288 0.0000 38.7966 0.0000
# 6 0.0000 -0.0003 0.0000 -1.0325 0.0000 32.8541
#
#
#
# Elastic Compliance Matrix: (Units=1/GPa)
#
#
# Indices 1 2 3 4 5 6 
#
# 1 0.019396 -0.002371 -0.012516 0.000000 -0.007454 0.000000
# 2 -0.002371 0.018941 -0.004789 0.000000 0.002223 0.000000
# 3 -0.012516 -0.004789 0.019762 0.000000 0.003792 0.000000
# 4 0.000000 0.000000 0.000000 0.032422 0.000000 0.001019
# 5 -0.007454 0.002223 0.003792 0.000000 0.028766 0.000000
# 6 0.000000 0.000000 0.000000 0.001019 0.000000 0.030470
#
#
# Mechanical properties :
#
#
# Convention : Reuss Voigt Hill
#
# Bulk Modulus (GPa) = 53.34267 61.77580 57.55923
# Shear Modulus (GPa) = 25.59383 29.88737 27.74060
#
# Velocity S-wave (km/s) = 3.66816 3.96392 3.81891
# Velocity P-wave (km/s) = 6.78118 7.30942 7.05025
#
# Compressibility (1/GPa) = 0.01874672
#
# Stress axis : x y z
#
# Youngs Moduli (GPa) = 51.55617 52.79514 50.60196
#
# Poissons Ratio (x) = 0.12520 0.63332
# Poissons Ratio (y) = 0.12226 0.24235
# Poissons Ratio (z) = 0.64526 0.25286
#
# Static dielectric constant tensor:
#      x y z
#    x 3.556500 0.000000 0.323080 
#    y 0.000000 3.520210 0.000000 
#    z 0.323080 0.000000 3.784010 
# 
# 
# High freq. dielectric constant tensor:
#      x y z
#    x 1.740030 0.000000 0.000630 
#    y 0.000000 1.746470 0.000000 
#    z 0.000630 0.000000 1.742660 
# 
# From -- ./inp_files/280919.got.cif
#   From: 2010.06.25/outbox.cif.g09.slc.cpg/sg12_141_cif.got.tgz:280919.got - 2010.06.28 00:19:55.
