data_PCOD8108759
_publ_section_title
;
Structure prediction by ZEFSAII (Michael W. Deem and Ramdas Pophale) SiO2 
 PCOD8108759
Probable space group: C 2/M
;
_chemical_formula_sum "Si O2"
_cell_formula_units_Z 28
_cell_length_a 30.748288
_cell_length_b 9.653014
_cell_length_c 5.279435
_cell_angle_alpha 90.000000
_cell_angle_beta 116.876458
_cell_angle_gamma 90.000000
_cell_volume 1397.745404
_symmetry_space_group_name_H-M "C 2/M"
_symmetry_group_IT_number 12
_symmetry_cell_setting 'monoclinic'
loop_
_space_group_symop_operation_xyz
x,y,z
-x,y,-z
-x,-y,-z
x,-y,z
1/2+x,1/2+y,z
1/2-x,1/2+y,-z
1/2-x,1/2-y,-z
1/2+x,1/2-y,z
loop_
_atom_site_type_symbol
_atom_site_label
_atom_site_fract_x
_atom_site_fract_y
_atom_site_fract_z
Si Si1 0.291409 0.156101 0.486843
Si Si2 0.388036 0.768905 0.951858
Si Si3 0.855629 0.845240 0.374611
Si Si4 0.967824 0.500000 0.165287
O O1 0.250000 0.250000 0.500000
O O2 0.310406 0.236259 0.282778
O O3 0.272552 0.000000 0.374720
O O4 0.337420 0.144331 0.799694
O O5 0.387349 0.682229 0.208816
O O6 0.434854 0.864704 0.078711
O O7 0.391095 0.668748 0.713633
O O8 0.833965 0.000000 0.306104
O O9 0.000000 0.500000 0.500000
O O10 0.000000 0.500000 0.000000
#
# Coordination Sequence:
#
# PCOD8108759 Si02
#       4
#     8   8   8   4
#     4  10  22  38  64  94 136 173 223 265 325 388
#     4  10  22  40  63  95 131 160 218 277 314 389
#     4  10  21  38  65  90 134 178 210 260 334 381
#     4  12  24  42  74 100 128 170 226 278 344 381
#
# _framework density 20.032259
#
# number of rings (size 3 to 8) (size 9 to 14) (size 15 to 20)
#    1.714    0.000    1.429    3.429    2.000    1.143 
#    0.000    0.000    0.000   17.143    0.000    0.000 
#    0.000    0.000    0.000    0.000    0.000    0.000 
#
# Total GULP energy -173436.048347 kJ/mol
# GULP energy per Si atom -12388.289168 kJ/mol
# Density = 1.998666 g / cm^3
# Si number density = 20.032259 Si / 1000 Ang^3
#
#
#
# Elastic Constant Matrix: (Units=GPa)
#
#
# Indices 1 2 3 4 5 6 
#
# 1 117.1724 61.5046 59.5222 0.0000 -8.8332 0.0000
# 2 61.5046 170.8348 25.5324 0.0000 -10.5436 0.0000
# 3 59.5222 25.5324 90.9748 0.0000 -25.0409 0.0000
# 4 0.0000 0.0000 0.0000 18.4921 0.0000 2.9450
# 5 -8.8332 -10.5436 -25.0409 0.0000 47.2516 0.0000
# 6 0.0000 0.0000 0.0000 2.9450 0.0000 45.3174
#
#
#
# Elastic Compliance Matrix: (Units=1/GPa)
#
#
# Indices 1 2 3 4 5 6 
#
# 1 0.015584 -0.004336 -0.009886 0.000000 -0.003293 0.000000
# 2 -0.004336 0.007328 0.001180 0.000000 0.001450 0.000000
# 3 -0.009886 0.001180 0.019544 0.000000 0.008772 0.000000
# 4 0.000000 0.000000 0.000000 0.054643 0.000000 -0.003551
# 5 -0.003293 0.001450 0.008772 0.000000 0.025520 0.000000
# 6 0.000000 0.000000 0.000000 -0.003551 0.000000 0.022297
#
#
# Mechanical properties :
#
#
# Convention : Reuss Voigt Hill
#
# Bulk Modulus (GPa) = 61.08531 74.67782 67.88156
# Shear Modulus (GPa) = 28.33537 37.70708 33.02123
#
# Velocity S-wave (km/s) = 3.76505 4.34328 4.06446
# Velocity P-wave (km/s) = 7.03281 7.90644 7.48239
#
# Compressibility (1/GPa) = 0.01637055
#
# Stress axis : x y z
#
# Youngs Moduli (GPa) = 64.16722 136.46271 51.16781
#
# Poissons Ratio (x) = 0.59177 0.50583
# Poissons Ratio (y) = 0.27826 -0.06036
# Poissons Ratio (z) = 0.63434 -0.16097
#
# Static dielectric constant tensor:
#      x y z
#    x 3.460670 0.000000 -0.149800 
#    y 0.000000 3.326640 0.000000 
#    z -0.149800 0.000000 3.562160 
# 
# 
# High freq. dielectric constant tensor:
#      x y z
#    x 1.769090 0.000000 -0.019030 
#    y 0.000000 1.781020 0.000000 
#    z -0.019030 0.000000 1.771970 
# 
# From -- ./inp_files/30140.got.cif
#   From: 2010.06.25/outbox.cif.g09.slc.cpg/sg12_16_cif.got.tgz:30140.got - 2010.06.28 00:19:55.
