data_PCOD8108778
_publ_section_title
;
Structure prediction by ZEFSAII (Michael W. Deem and Ramdas Pophale) SiO2 
 PCOD8108778
Probable space group: C 2/M
;
_chemical_formula_sum "Si O2"
_cell_formula_units_Z 48
_cell_length_a 14.910014
_cell_length_b 10.404650
_cell_length_c 20.400664
_cell_angle_alpha 90.000000
_cell_angle_beta 44.671321
_cell_angle_gamma 90.000000
_cell_volume 2224.995525
_symmetry_space_group_name_H-M "C 2/M"
_symmetry_group_IT_number 12
_symmetry_cell_setting 'monoclinic'
loop_
_space_group_symop_operation_xyz
x,y,z
-x,y,-z
-x,-y,-z
x,-y,z
1/2+x,1/2+y,z
1/2-x,1/2+y,-z
1/2-x,1/2-y,-z
1/2+x,1/2-y,z
loop_
_atom_site_type_symbol
_atom_site_label
_atom_site_fract_x
_atom_site_fract_y
_atom_site_fract_z
Si Si1 0.570061 0.643148 0.101145
Si Si2 0.726689 0.642406 0.228724
Si Si3 0.620412 0.852746 0.476764
Si Si4 0.513202 0.143193 0.323026
Si Si5 0.357979 0.230892 0.286230
Si Si6 0.668948 0.855889 0.961337
O O1 0.575151 0.500000 0.067644
O O2 0.438648 0.656012 0.209626
O O3 0.686380 0.665435 0.090360
O O4 0.575852 0.750169 0.041147
O O5 0.664264 0.500000 0.252402
O O6 0.621423 0.752439 0.279479
O O7 0.797061 0.642710 0.261828
O O8 0.831026 0.663897 0.117058
O O9 0.500000 0.792870 0.500000
O O10 0.598319 0.834745 0.565723
O O11 0.749973 0.783952 0.389950
O O12 0.635522 0.000000 0.448156
O O13 0.454443 0.149398 0.281018
O O14 0.572539 0.000000 0.301217
O O15 0.620682 0.000000 0.004785
#
# Coordination Sequence:
#
# PCOD8108778 Si02
#       6
#     8   8   8   8   8   8
#     4  10  21  38  65  97 126 167 217 262 318 382
#     4  11  24  43  66  96 132 170 215 265 323 383
#     4  10  21  40  65  94 132 174 214 261 322 383
#     4  11  24  43  66  96 131 170 217 267 321 379
#     4  12  23  40  67  99 130 167 216 269 319 382
#     4   9  20  41  63  89 128 171 211 261 321 381
#
# _framework density 21.573077999999999
#
# number of rings (size 3 to 8) (size 9 to 14) (size 15 to 20)
#    0.000    1.500    3.333    1.500    0.000    4.000 
#    0.000    5.000    0.000    0.000    0.000    0.000 
#    0.000    0.000    0.000    0.000    0.000    0.000 
#
# Total GULP energy -297584.157925 kJ/mol
# GULP energy per Si atom -12399.339914 kJ/mol
# Density = 2.152398 g / cm^3
# Si number density = 21.573078 Si / 1000 Ang^3
#
#
#
# Elastic Constant Matrix: (Units=GPa)
#
#
# Indices 1 2 3 4 5 6 
#
# 1 105.2682 43.0077 32.8311 0.0000 16.9628 0.0000
# 2 43.0077 148.1828 66.3254 0.0000 8.5024 0.0000
# 3 32.8311 66.3254 97.1456 0.0000 15.0554 0.0000
# 4 0.0000 0.0000 0.0000 34.6178 0.0000 1.9272
# 5 16.9628 8.5024 15.0554 0.0000 34.4947 0.0000
# 6 0.0000 0.0000 0.0000 1.9272 0.0000 17.0746
#
#
#
# Elastic Compliance Matrix: (Units=1/GPa)
#
#
# Indices 1 2 3 4 5 6 
#
# 1 0.011710 -0.002420 -0.001614 0.000000 -0.004457 0.000000
# 2 -0.002420 0.010228 -0.006391 0.000000 0.001459 0.000000
# 3 -0.001614 -0.006391 0.015912 0.000000 -0.004576 0.000000
# 4 0.000000 0.000000 0.000000 0.029069 0.000000 -0.003281
# 5 -0.004457 0.001459 -0.004576 0.000000 0.032819 0.000000
# 6 0.000000 0.000000 0.000000 -0.003281 0.000000 0.058937
#
#
# Mechanical properties :
#
#
# Convention : Reuss Voigt Hill
#
# Bulk Modulus (GPa) = 58.82857 70.54722 64.68790
# Shear Modulus (GPa) = 26.99886 31.13292 29.06589
#
# Velocity S-wave (km/s) = 3.54150 3.80299 3.67457
# Velocity P-wave (km/s) = 6.63714 7.21499 6.93209
#
# Compressibility (1/GPa) = 0.01699854
#
# Stress axis : x y z
#
# Youngs Moduli (GPa) = 85.39634 97.77304 62.84602
#
# Poissons Ratio (x) = 0.23665 0.10145
# Poissons Ratio (y) = 0.20669 0.40165
# Poissons Ratio (z) = 0.13785 0.62487
#
# Static dielectric constant tensor:
#      x y z
#    x 3.912020 0.000000 0.186730 
#    y 0.000000 3.823740 0.000000 
#    z 0.186730 0.000000 3.871780 
# 
# 
# High freq. dielectric constant tensor:
#      x y z
#    x 1.847460 0.000000 0.011250 
#    y 0.000000 1.842170 0.000000 
#    z 0.011250 0.000000 1.848330 
# 
# From -- ./inp_files/310190.got.cif
#   From: 2010.06.25/outbox.cif.g09.slc.cpg/sg12_156_cif.got.tgz:310190.got - 2010.06.28 00:19:55.
