data_PCOD8108485
_publ_section_title
;
Structure prediction by ZEFSAII (Michael W. Deem and Ramdas Pophale) SiO2 
 PCOD8108485
Probable space group: C 2/M
;
_chemical_formula_sum "Si O2"
_cell_formula_units_Z 52
_cell_length_a 19.785589
_cell_length_b 9.057224
_cell_length_c 23.277349
_cell_angle_alpha 90.000000
_cell_angle_beta 139.493019
_cell_angle_gamma 90.000000
_cell_volume 2709.467675
_symmetry_space_group_name_H-M "C 2/M"
_symmetry_group_IT_number 12
_symmetry_cell_setting 'monoclinic'
loop_
_space_group_symop_operation_xyz
x,y,z
-x,y,-z
-x,-y,-z
x,-y,z
1/2+x,1/2+y,z
1/2-x,1/2+y,-z
1/2-x,1/2-y,-z
1/2+x,1/2-y,z
loop_
_atom_site_type_symbol
_atom_site_label
_atom_site_fract_x
_atom_site_fract_y
_atom_site_fract_z
Si Si1 0.954096 0.171004 0.033251
Si Si2 0.208652 0.337055 0.677065
Si Si3 0.757387 0.330783 0.944647
Si Si4 0.474783 0.332507 0.244972
Si Si5 0.571131 0.336398 0.661746
Si Si6 0.587716 0.824985 0.217694
Si Si7 0.500000 0.753889 0.500000
O O1 0.842405 0.249032 0.960633
O O2 0.942222 0.000000 0.043307
O O3 0.000000 0.189252 0.000000
O O4 0.028881 0.248841 0.127180
O O5 0.256010 0.500000 0.717273
O O6 0.169967 0.270784 0.713426
O O7 0.293557 0.229707 0.704137
O O8 0.107058 0.348826 0.569713
O O9 0.791300 0.500000 0.976596
O O10 0.648316 0.319370 0.842476
O O11 0.750000 0.250000 0.000000
O O12 0.512917 0.500000 0.256674
O O13 0.494110 0.286269 0.324135
O O14 0.535468 0.219136 0.244077
O O15 0.615211 0.500000 0.702423
O O16 0.497230 0.341486 0.557253
O O17 0.583999 0.000000 0.208190
#
# Coordination Sequence:
#
# PCOD8108485 Si02
#       7
#     8   8   8   8   8   8   4
#     4  11  25  42  60  86 120 158 201 248 299 354
#     4  10  21  38  62  88 119 154 192 242 297 355
#     4  11  22  38  62  87 118 160 203 248 296 350
#     4  10  22  40  60  87 123 161 198 244 302 354
#     4   9  19  36  62  92 120 152 195 244 293 354
#     4  12  25  40  60  87 119 157 200 248 300 351
#     4   8  20  36  66  92 118 156 194 242 296 358
#
# _framework density 19.191963000000001
#
# number of rings (size 3 to 8) (size 9 to 14) (size 15 to 20)
#    0.923    0.769    1.538    3.231    2.154    2.462 
#    0.000    0.769    0.000    0.000    0.000    0.000 
#    0.000    0.000    0.000    0.000    0.000    0.000 
#
# Total GULP energy -322233.572916 kJ/mol
# GULP energy per Si atom -12393.598958 kJ/mol
# Density = 1.914828 g / cm^3
# Si number density = 19.191963 Si / 1000 Ang^3
#
#
#
# Elastic Constant Matrix: (Units=GPa)
#
#
# Indices 1 2 3 4 5 6 
#
# 1 127.6111 73.3867 44.5380 0.0000 -6.5026 0.0000
# 2 73.3867 150.4115 28.8964 0.0000 -3.5819 0.0000
# 3 44.5380 28.8964 67.5667 0.0000 -11.2177 0.0000
# 4 0.0000 0.0000 0.0000 20.5922 0.0000 5.4462
# 5 -6.5026 -3.5819 -11.2177 0.0000 38.6882 0.0000
# 6 0.0000 0.0000 0.0000 5.4462 0.0000 31.3782
#
#
#
# Elastic Compliance Matrix: (Units=1/GPa)
#
#
# Indices 1 2 3 4 5 6 
#
# 1 0.013011 -0.005120 -0.006411 0.000000 -0.000146 0.000000
# 2 -0.005120 0.009260 -0.000616 0.000000 -0.000182 0.000000
# 3 -0.006411 -0.000616 0.020067 0.000000 0.004684 0.000000
# 4 0.000000 0.000000 0.000000 0.050899 0.000000 -0.008834
# 5 -0.000146 -0.000182 0.004684 0.000000 0.027164 0.000000
# 6 0.000000 0.000000 0.000000 -0.008834 0.000000 0.033403
#
#
# Mechanical properties :
#
#
# Convention : Reuss Voigt Hill
#
# Bulk Modulus (GPa) = 55.41646 71.02573 63.22109
# Shear Modulus (GPa) = 27.15741 31.38293 29.27017
#
# Velocity S-wave (km/s) = 3.76578 4.04816 3.90952
# Velocity P-wave (km/s) = 6.91706 7.67715 7.30699
#
# Compressibility (1/GPa) = 0.01804518
#
# Stress axis : x y z
#
# Youngs Moduli (GPa) = 76.85992 107.98674 49.83292
#
# Poissons Ratio (x) = 0.55287 0.31947
# Poissons Ratio (y) = 0.39351 0.03068
# Poissons Ratio (z) = 0.49274 0.06649
#
# Static dielectric constant tensor:
#      x y z
#    x 3.586810 0.000000 -0.049130 
#    y 0.000000 4.055010 0.000000 
#    z -0.049130 0.000000 2.652610 
# 
# 
# High freq. dielectric constant tensor:
#      x y z
#    x 1.749580 0.000000 -0.004840 
#    y 0.000000 1.753590 0.000000 
#    z -0.004840 0.000000 1.731750 
# 
# From -- ./inp_files/346325.got.cif
#   From: 2010.06.25/outbox.cif.g09.slc.cpg/sg12_174_cif.got.tgz:346325.got - 2010.06.28 00:19:55.
