data_PCOD8108725
_publ_section_title
;
Structure prediction by ZEFSAII (Michael W. Deem and Ramdas Pophale) SiO2 
 PCOD8108725
Probable space group: C 2/M
;
_chemical_formula_sum "Si O2"
_cell_formula_units_Z 64
_cell_length_a 18.885810
_cell_length_b 8.824380
_cell_length_c 29.029359
_cell_angle_alpha 90.000000
_cell_angle_beta 41.658706
_cell_angle_gamma 90.000000
_cell_volume 3215.716545
_symmetry_space_group_name_H-M "C 2/M"
_symmetry_group_IT_number 12
_symmetry_cell_setting 'monoclinic'
loop_
_space_group_symop_operation_xyz
x,y,z
-x,y,-z
-x,-y,-z
x,-y,z
1/2+x,1/2+y,z
1/2-x,1/2+y,-z
1/2-x,1/2-y,-z
1/2+x,1/2-y,z
loop_
_atom_site_type_symbol
_atom_site_label
_atom_site_fract_x
_atom_site_fract_y
_atom_site_fract_z
Si Si1 0.208572 0.322322 0.685143
Si Si2 0.088095 0.676037 0.585241
Si Si3 0.246818 0.823719 0.574277
Si Si4 0.636645 0.676334 0.306826
Si Si5 0.135427 0.677176 0.051540
Si Si6 0.610453 0.668738 0.971611
Si Si7 0.797650 0.824583 0.827587
Si Si8 0.982340 0.823111 0.807831
O O1 0.184607 0.500000 0.695567
O O2 0.270427 0.270474 0.609135
O O3 0.278356 0.278684 0.695584
O O4 0.099275 0.230882 0.738486
O O5 0.092907 0.500000 0.596004
O O6 0.136896 0.769748 0.604041
O O7 0.154148 0.710309 0.507004
O O8 0.968167 0.725592 0.633860
O O9 0.235193 0.000000 0.591909
O O10 0.605720 0.500000 0.324526
O O11 0.687130 0.717399 0.233091
O O12 0.146015 0.500000 0.052183
O O13 0.054986 0.737654 0.128567
O O14 0.250000 0.750000 0.000000
O O15 0.091626 0.717383 0.022754
O O16 0.642010 0.500000 0.973626
O O17 0.701872 0.724826 0.893051
O O18 0.500000 0.663052 0.000000
O O19 0.905393 0.784340 0.802572
O O20 0.767678 0.000000 0.848711
O O21 0.982881 0.000000 0.818445
#
# Coordination Sequence:
#
# PCOD8108725 Si02
#       8
#     8   8   8   8   8   8   8   8
#     4  11  24  40  60  91 126 165 207 249 298 359
#     4  10  21  38  64  94 121 157 205 253 305 363
#     4  10  21  39  63  91 124 161 203 252 303 361
#     4  10  23  41  60  88 126 163 203 248 304 364
#     4  12  24  41  65  92 123 160 204 254 306 365
#     4  11  25  42  62  92 124 158 203 253 307 366
#     4  10  22  41  63  86 116 161 205 247 305 366
#     4  11  23  40  64  91 121 160 204 255 308 361
#
# _framework density 19.902251
#
# number of rings (size 3 to 8) (size 9 to 14) (size 15 to 20)
#    0.000    1.375    1.250    3.750    1.750    6.000 
#    0.000    2.500    0.000    0.000    0.000    0.000 
#    0.000    0.000    0.000    0.000    0.000    0.000 
#
# Total GULP energy -396992.152071 kJ/mol
# GULP energy per Si atom -12406.004752 kJ/mol
# Density = 1.985695 g / cm^3
# Si number density = 19.902251 Si / 1000 Ang^3
#
#
#
# Elastic Constant Matrix: (Units=GPa)
#
#
# Indices 1 2 3 4 5 6 
#
# 1 126.6704 51.1494 59.2600 0.0005 11.9792 -0.0012
# 2 51.1494 99.8942 49.4293 0.0018 -0.3387 -0.0017
# 3 59.2600 49.4293 80.9962 -0.0001 14.2920 0.0015
# 4 0.0005 0.0018 -0.0001 41.6447 0.0003 2.0809
# 5 11.9792 -0.3387 14.2920 0.0003 32.9485 -0.0001
# 6 -0.0012 -0.0017 0.0015 2.0809 -0.0001 32.4799
#
#
#
# Elastic Compliance Matrix: (Units=1/GPa)
#
#
# Indices 1 2 3 4 5 6 
#
# 1 0.012550 -0.002890 -0.007155 0.000000 -0.001489 0.000001
# 2 -0.002890 0.015584 -0.008240 -0.000001 0.004785 0.000001
# 3 -0.007155 -0.008240 0.024003 0.000001 -0.007895 -0.000002
# 4 0.000000 -0.000001 0.000001 0.024090 0.000000 -0.001543
# 5 -0.001489 0.004785 -0.007895 0.000000 0.034365 0.000001
# 6 0.000001 0.000001 -0.000002 -0.001543 0.000001 0.030887
#
#
# Mechanical properties :
#
#
# Convention : Reuss Voigt Hill
#
# Bulk Modulus (GPa) = 64.24520 69.69314 66.96917
# Shear Modulus (GPa) = 27.28659 31.26277 29.27468
#
# Velocity S-wave (km/s) = 3.70676 3.96765 3.83942
# Velocity P-wave (km/s) = 7.11832 7.48889 7.30595
#
# Compressibility (1/GPa) = 0.01556537
#
# Stress axis : x y z
#
# Youngs Moduli (GPa) = 79.68162 64.16753 41.66109
#
# Poissons Ratio (x) = 0.18547 0.29810
# Poissons Ratio (y) = 0.23032 0.34329
# Poissons Ratio (z) = 0.57015 0.52875
#
# Static dielectric constant tensor:
#      x y z
#    x 3.764010 0.000000 0.156560 
#    y 0.000000 3.874470 0.000000 
#    z 0.156560 0.000000 3.656190 
# 
# 
# High freq. dielectric constant tensor:
#      x y z
#    x 1.781710 0.000000 0.006400 
#    y 0.000000 1.786890 0.000000 
#    z 0.006400 0.000000 1.785480 
# 
# From -- ./inp_files/378060.got.cif
#   From: 2010.06.25/outbox.cif.g09.slc.cpg/sg12_190_cif.got.tgz:378060.got - 2010.06.28 00:19:55.
