data_PCOD8108451
_publ_section_title
;
Structure prediction by ZEFSAII (Michael W. Deem and Ramdas Pophale) SiO2 
 PCOD8108451
Probable space group: C 2/M
;
_chemical_formula_sum "Si O2"
_cell_formula_units_Z 64
_cell_length_a 14.469867
_cell_length_b 9.484884
_cell_length_c 33.620012
_cell_angle_alpha 90.000000
_cell_angle_beta 136.535129
_cell_angle_gamma 90.000000
_cell_volume 3174.138444
_symmetry_space_group_name_H-M "C 2/M"
_symmetry_group_IT_number 12
_symmetry_cell_setting 'monoclinic'
loop_
_space_group_symop_operation_xyz
x,y,z
-x,y,-z
-x,-y,-z
x,-y,z
1/2+x,1/2+y,z
1/2-x,1/2+y,-z
1/2-x,1/2-y,-z
1/2+x,1/2-y,z
loop_
_atom_site_type_symbol
_atom_site_label
_atom_site_fract_x
_atom_site_fract_y
_atom_site_fract_z
Si Si1 0.094765 0.335840 0.913308
Si Si2 0.406763 0.661464 0.008578
Si Si3 0.805159 0.650582 0.464648
Si Si4 0.557019 0.329749 0.201554
Si Si5 0.692817 0.346038 0.606202
Si Si6 0.531938 0.830943 0.270932
Si Si7 0.463883 0.256875 0.586612
Si Si8 0.643296 0.840870 0.711816
O O1 0.048079 0.500000 0.897541
O O2 0.064261 0.272914 0.947426
O O3 0.012645 0.235338 0.858525
O O4 0.249945 0.325008 0.948597
O O5 0.437943 0.500000 0.031893
O O6 0.500000 0.701727 0.000000
O O7 0.835680 0.500000 0.454626
O O8 0.851014 0.763337 0.446765
O O9 0.646403 0.655175 0.423932
O O10 0.888228 0.658944 0.531331
O O11 0.541194 0.500000 0.197930
O O12 0.489818 0.256894 0.218972
O O13 0.710959 0.273098 0.249628
O O14 0.734548 0.500000 0.603965
O O15 0.819885 0.280503 0.668757
O O16 0.566479 0.359473 0.596051
O O17 0.430184 0.775002 0.272905
O O18 0.526234 0.000000 0.261427
O O19 0.548703 0.163639 0.643715
O O20 0.672110 0.000000 0.732038
#
# Coordination Sequence:
#
# PCOD8108451 Si02
#       8
#     8   8   8   8   8   8   8   8
#     4  10  21  38  61  93 129 163 203 249 294 343
#     4   9  19  38  65  94 127 168 207 245 291 340
#     4  11  25  39  59  88 116 146 186 242 301 366
#     4  11  23  40  62  88 120 160 203 248 294 347
#     4  11  23  40  62  84 112 148 188 239 298 361
#     4  10  21  40  61  83 111 150 196 243 297 352
#     4  11  22  40  60  84 115 147 191 240 302 363
#     4  10  21  39  61  83 111 153 198 243 297 358
#
# _framework density 20.162951
#
# number of rings (size 3 to 8) (size 9 to 14) (size 15 to 20)
#    0.000    1.625    2.500    1.875    0.000    6.750 
#    0.000    6.250    0.000    0.000    0.000    0.000 
#    0.000    0.000    0.000    0.000    0.000    0.000 
#
# Total GULP energy -396679.615545 kJ/mol
# GULP energy per Si atom -12396.237986 kJ/mol
# Density = 2.011706 g / cm^3
# Si number density = 20.162951 Si / 1000 Ang^3
#
#
#
# Elastic Constant Matrix: (Units=GPa)
#
#
# Indices 1 2 3 4 5 6 
#
# 1 121.2741 33.6350 40.3127 0.0000 -15.1100 0.0000
# 2 33.6350 99.5337 43.7785 0.0000 -10.7192 0.0000
# 3 40.3127 43.7785 108.0129 0.0000 -9.7665 0.0000
# 4 0.0000 0.0000 0.0000 24.8004 0.0000 -8.2595
# 5 -15.1100 -10.7192 -9.7665 0.0000 25.2036 0.0000
# 6 0.0000 0.0000 0.0000 -8.2595 0.0000 22.8783
#
#
#
# Elastic Compliance Matrix: (Units=1/GPa)
#
#
# Indices 1 2 3 4 5 6 
#
# 1 0.010170 -0.001796 -0.002679 0.000000 0.004295 0.000000
# 2 -0.001796 0.012831 -0.004284 0.000000 0.002720 0.000000
# 3 -0.002679 -0.004284 0.012109 0.000000 0.001264 0.000000
# 4 0.000000 0.000000 0.000000 0.045832 0.000000 0.016546
# 5 0.004295 0.002720 0.001264 0.000000 0.043898 0.000000
# 6 0.000000 0.000000 0.000000 0.016546 0.000000 0.049683
#
#
# Mechanical properties :
#
#
# Convention : Reuss Voigt Hill
#
# Bulk Modulus (GPa) = 56.84782 62.69699 59.77240
# Shear Modulus (GPa) = 25.26458 28.64945 26.95702
#
# Velocity S-wave (km/s) = 3.54364 3.77357 3.66041
# Velocity P-wave (km/s) = 6.70810 7.08160 6.89738
#
# Compressibility (1/GPa) = 0.01759083
#
# Stress axis : x y z
#
# Youngs Moduli (GPa) = 98.33287 77.93622 82.58366
#
# Poissons Ratio (x) = 0.13994 0.22128
# Poissons Ratio (y) = 0.17656 0.35382
# Poissons Ratio (z) = 0.26347 0.33391
#
# Static dielectric constant tensor:
#      x y z
#    x 3.913110 0.000000 0.089150 
#    y 0.000000 3.481960 0.000000 
#    z 0.089150 0.000000 3.537200 
# 
# 
# High freq. dielectric constant tensor:
#      x y z
#    x 1.799240 0.000000 -0.000570 
#    y 0.000000 1.776260 0.000000 
#    z -0.000570 0.000000 1.781080 
# 
# From -- ./inp_files/375580.got.cif
#   From: 2010.06.25/outbox.cif.g09.slc.cpg/sg12_188_cif.got.tgz:375580.got - 2010.06.28 00:19:55.
