data_PCOD8108258
_publ_section_title
;
Structure prediction by ZEFSAII (Michael W. Deem and Ramdas Pophale) SiO2 
 PCOD8108258
Probable space group: C 2/M
;
_chemical_formula_sum "Si O2"
_cell_formula_units_Z 48
_cell_length_a 15.731079
_cell_length_b 8.652680
_cell_length_c 28.996581
_cell_angle_alpha 90.000000
_cell_angle_beta 144.608154
_cell_angle_gamma 90.000000
_cell_volume 2285.906056
_symmetry_space_group_name_H-M "C 2/M"
_symmetry_group_IT_number 12
_symmetry_cell_setting 'monoclinic'
loop_
_space_group_symop_operation_xyz
x,y,z
-x,y,-z
-x,-y,-z
x,-y,z
1/2+x,1/2+y,z
1/2-x,1/2+y,-z
1/2-x,1/2-y,-z
1/2+x,1/2-y,z
loop_
_atom_site_type_symbol
_atom_site_label
_atom_site_fract_x
_atom_site_fract_y
_atom_site_fract_z
Si Si1 0.123633 0.324751 0.361666
Si Si2 0.897153 0.320834 0.184574
Si Si3 0.574549 0.675817 0.656239
Si Si4 0.599433 0.683375 0.914896
Si Si5 0.585078 0.164755 0.492931
Si Si6 0.684613 0.183504 0.166299
O O1 0.091185 0.500000 0.363550
O O2 0.057485 0.198472 0.366526
O O3 0.296478 0.294864 0.441421
O O4 0.052484 0.299312 0.279804
O O5 0.863895 0.500000 0.160009
O O6 0.919679 0.233600 0.146513
O O7 0.760851 0.254293 0.154266
O O8 0.586069 0.500000 0.645615
O O9 0.540390 0.776834 0.596952
O O10 0.723091 0.729471 0.747321
O O11 0.598473 0.500000 0.917340
O O12 0.475648 0.748051 0.895034
O O13 0.750000 0.750000 0.000000
O O14 0.500000 0.121081 0.500000
O O15 0.652805 0.000000 0.504621
O O16 0.676522 0.000000 0.155759
#
# Coordination Sequence:
#
# PCOD8108258 Si02
#       6
#     8   8   8   8   8   8
#     4  10  21  38  61  85 116 157 201 250 302 360
#     4  10  22  42  67  97 129 166 211 259 314 376
#     4  10  21  38  61  85 116 157 201 250 302 360
#     4  12  26  44  68  97 130 167 206 256 313 376
#     4  11  24  37  52  81 119 159 204 253 300 355
#     4  10  22  42  67  97 129 166 211 259 314 376
#
# _framework density 20.998237
#
# number of rings (size 3 to 8) (size 9 to 14) (size 15 to 20)
#    0.000    1.500    0.000    4.500    2.333    6.000 
#    0.000    3.333    0.000    0.000    0.000    0.000 
#    0.000    0.000    0.000    0.000    0.000    0.000 
#
# Total GULP energy -297485.755694 kJ/mol
# GULP energy per Si atom -12395.239821 kJ/mol
# Density = 2.095044 g / cm^3
# Si number density = 20.998237 Si / 1000 Ang^3
#
#
#
# Elastic Constant Matrix: (Units=GPa)
#
#
# Indices 1 2 3 4 5 6 
#
# 1 49.0243 12.8846 1.9846 0.0000 4.6218 0.0000
# 2 12.8846 94.7239 12.2745 0.0000 1.4803 0.0001
# 3 1.9846 12.2745 49.4156 0.0000 4.2128 0.0000
# 4 0.0000 0.0000 0.0000 37.0504 0.0000 -2.9446
# 5 4.6218 1.4803 4.2128 0.0000 38.2137 0.0000
# 6 0.0000 0.0001 0.0000 -2.9446 0.0000 34.5553
#
#
#
# Elastic Compliance Matrix: (Units=1/GPa)
#
#
# Indices 1 2 3 4 5 6 
#
# 1 0.021386 -0.002879 0.000068 0.000000 -0.002482 0.000000
# 2 -0.002879 0.011296 -0.002708 0.000000 0.000209 0.000000
# 3 0.000068 -0.002708 0.021097 0.000000 -0.002229 0.000000
# 4 0.000000 0.000000 0.000000 0.027174 0.000000 0.002316
# 5 -0.002482 0.000209 -0.002229 0.000000 0.026706 0.000000
# 6 0.000000 0.000000 0.000000 0.002316 0.000000 0.029136
#
#
# Mechanical properties :
#
#
# Convention : Reuss Voigt Hill
#
# Bulk Modulus (GPa) = 23.39715 27.49461 25.44588
# Shear Modulus (GPa) = 30.84874 33.03190 31.94032
#
# Velocity S-wave (km/s) = 3.83706 3.97051 3.90435
# Velocity P-wave (km/s) = 5.54953 5.84313 5.69822
#
# Compressibility (1/GPa) = 0.04274024
#
# Stress axis : x y z
#
# Youngs Moduli (GPa) = 46.75961 88.52490 47.40122
#
# Poissons Ratio (x) = 0.25486 -0.00322
# Poissons Ratio (y) = 0.13462 0.12837
# Poissons Ratio (z) = -0.00317 0.23974
#
# Static dielectric constant tensor:
#      x y z
#    x 3.330510 0.000000 -0.342140 
#    y 0.000000 3.865190 0.000000 
#    z -0.342140 0.000000 4.507580 
# 
# 
# High freq. dielectric constant tensor:
#      x y z
#    x 1.815200 0.000000 -0.002990 
#    y 0.000000 1.840280 0.000000 
#    z -0.002990 0.000000 1.826800 
# 
# From -- ./inp_files/360320.got.cif
#   From: 2010.06.25/outbox.cif.g09.slc.cpg/sg12_181_cif.got.tgz:360320.got - 2010.06.28 00:19:55.
