data_PCOD8108432
_publ_section_title
;
Structure prediction by ZEFSAII (Michael W. Deem and Ramdas Pophale) SiO2 
 PCOD8108432
Probable space group: C 2/M
;
_chemical_formula_sum "Si O2"
_cell_formula_units_Z 56
_cell_length_a 19.565203
_cell_length_b 7.913846
_cell_length_c 27.987497
_cell_angle_alpha 90.000000
_cell_angle_beta 40.550801
_cell_angle_gamma 90.000000
_cell_volume 2817.285615
_symmetry_space_group_name_H-M "C 2/M"
_symmetry_group_IT_number 12
_symmetry_cell_setting 'monoclinic'
loop_
_space_group_symop_operation_xyz
x,y,z
-x,y,-z
-x,-y,-z
x,-y,z
1/2+x,1/2+y,z
1/2-x,1/2+y,-z
1/2-x,1/2-y,-z
1/2+x,1/2-y,z
loop_
_atom_site_type_symbol
_atom_site_label
_atom_site_fract_x
_atom_site_fract_y
_atom_site_fract_z
Si Si1 0.102721 0.804212 0.471579
Si Si2 0.034875 0.000000 0.905541
Si Si3 0.193750 0.807697 0.688157
Si Si4 0.716450 0.311126 0.164726
Si Si5 0.157885 0.310188 0.808017
Si Si6 0.631006 0.305993 0.564358
Si Si7 0.988421 0.690231 0.283283
Si Si8 0.665003 0.500000 0.932919
O O1 0.206225 0.707417 0.399497
O O2 0.081994 0.775006 0.538422
O O3 0.000000 0.731237 0.500000
O O4 0.120561 0.000000 0.449989
O O5 0.064895 0.171434 0.861208
O O6 0.093450 0.000000 0.924492
O O7 0.909243 0.000000 0.980822
O O8 0.211062 0.702406 0.727593
O O9 0.089841 0.745713 0.716701
O O10 0.178174 0.000000 0.711311
O O11 0.752744 0.500000 0.129723
O O12 0.752782 0.273890 0.199824
O O13 0.590681 0.307460 0.229310
O O14 0.765246 0.170819 0.103356
O O15 0.111708 0.500000 0.839290
O O16 0.622837 0.500000 0.584755
O O17 0.750000 0.250000 0.500000
O O18 0.568156 0.195065 0.635509
O O19 0.025476 0.500000 0.253990
#
# Coordination Sequence:
#
# PCOD8108432 Si02
#       8
#     8   4   8   8   8   8   8   4
#     4  10  23  41  58  81 115 156 200 250 308 358
#     4   9  18  36  62  94 126 161 197 240 300 351
#     4  12  24  39  60  86 118 157 208 253 298 367
#     4  10  21  38  61  93 125 159 200 247 302 353
#     4  10  21  38  61  91 126 160 201 248 297 359
#     4  11  22  38  58  82 114 151 199 251 300 356
#     4  12  24  39  60  85 118 161 203 252 306 357
#     4   9  18  36  62  94 129 156 197 247 291 361
#
# _framework density 19.877289000000001
#
# number of rings (size 3 to 8) (size 9 to 14) (size 15 to 20)
#    0.000    1.429    2.857    3.000    2.000    1.429 
#    0.000    2.857    0.000    0.857    0.000    0.000 
#    0.000    0.000    0.000    0.000    0.000    0.000 
#
# Total GULP energy -347268.177660 kJ/mol
# GULP energy per Si atom -12402.434916 kJ/mol
# Density = 1.983205 g / cm^3
# Si number density = 19.877289 Si / 1000 Ang^3
#
#
#
# Elastic Constant Matrix: (Units=GPa)
#
#
# Indices 1 2 3 4 5 6 
#
# 1 88.3435 27.8703 19.3845 -0.0018 -11.1929 -0.0177
# 2 27.8703 125.8244 31.2241 0.0007 -4.8826 -0.0026
# 3 19.3845 31.2241 77.8942 -0.0026 -14.9967 0.0071
# 4 -0.0018 0.0007 -0.0026 25.4107 0.0013 1.9191
# 5 -11.1929 -4.8826 -14.9967 0.0013 22.2891 -0.0014
# 6 -0.0177 -0.0026 0.0071 1.9191 -0.0014 22.8017
#
#
#
# Elastic Compliance Matrix: (Units=1/GPa)
#
#
# Indices 1 2 3 4 5 6 
#
# 1 0.012999 -0.002357 -0.001301 0.000000 0.005136 0.000011
# 2 -0.002357 0.009258 -0.003403 -0.000001 -0.001445 0.000000
# 3 -0.001301 -0.003403 0.016378 0.000002 0.009621 -0.000006
# 4 0.000000 -0.000001 0.000002 0.039605 -0.000002 -0.003333
# 5 0.005136 -0.001445 0.009621 -0.000002 0.053601 0.000004
# 6 0.000011 0.000000 -0.000006 -0.003333 0.000004 0.044137
#
#
# Mechanical properties :
#
#
# Convention : Reuss Voigt Hill
#
# Bulk Modulus (GPa) = 40.79471 49.89112 45.34292
# Shear Modulus (GPa) = 25.21796 28.33919 26.77857
#
# Velocity S-wave (km/s) = 3.56572 3.77995 3.67440
# Velocity P-wave (km/s) = 6.12538 6.64866 6.39238
#
# Compressibility (1/GPa) = 0.02451298
#
# Stress axis : x y z
#
# Youngs Moduli (GPa) = 76.92708 108.01436 61.05755
#
# Poissons Ratio (x) = 0.25461 0.07945
# Poissons Ratio (y) = 0.18133 0.20776
# Poissons Ratio (z) = 0.10011 0.36754
#
# Static dielectric constant tensor:
#      x y z
#    x 3.570470 -0.000020 0.071420 
#    y -0.000020 3.855220 -0.000010 
#    z 0.071420 -0.000010 3.577300 
# 
# 
# High freq. dielectric constant tensor:
#      x y z
#    x 1.764430 0.000000 -0.000830 
#    y 0.000000 1.790830 0.000000 
#    z -0.000830 0.000000 1.757320 
# 
# From -- ./inp_files/363059.got.cif
#   From: 2010.06.25/outbox.cif.g09.slc.cpg/sg12_182_cif.got.tgz:363059.got - 2010.06.28 00:19:55.
