data_PCOD8108984
_publ_section_title
;
Structure prediction by ZEFSAII (Michael W. Deem and Ramdas Pophale) SiO2 
 PCOD8108984
Probable space group: C 2/M
;
_chemical_formula_sum "Si O2"
_cell_formula_units_Z 56
_cell_length_a 21.593307
_cell_length_b 27.398947
_cell_length_c 8.993574
_cell_angle_alpha 90.000000
_cell_angle_beta 148.101432
_cell_angle_gamma 90.000000
_cell_volume 2811.656233
_symmetry_space_group_name_H-M "C 2/M"
_symmetry_group_IT_number 12
_symmetry_cell_setting 'monoclinic'
loop_
_space_group_symop_operation_xyz
x,y,z
-x,y,-z
-x,-y,-z
x,-y,z
1/2+x,1/2+y,z
1/2-x,1/2+y,-z
1/2-x,1/2-y,-z
1/2+x,1/2-y,z
loop_
_atom_site_type_symbol
_atom_site_label
_atom_site_fract_x
_atom_site_fract_y
_atom_site_fract_z
Si Si1 0.776527 0.126628 0.316401
Si Si2 0.835079 0.694270 0.327411
Si Si3 0.488268 0.445768 0.801984
Si Si4 0.364365 0.138015 0.677146
Si Si5 0.620962 0.704328 0.692165
Si Si6 0.627832 0.905042 0.755745
Si Si7 0.754421 0.055837 0.746419
O O1 0.885665 0.090999 0.555022
O O2 0.720779 0.145258 0.356001
O O3 0.817977 0.173841 0.312445
O O4 0.677020 0.097834 0.022539
O O5 0.839817 0.682734 0.513413
O O6 0.909241 0.742414 0.437910
O O7 0.887916 0.648356 0.348168
O O8 0.702523 0.705723 0.004722
O O9 0.461088 0.500000 0.681590
O O10 0.500000 0.449499 0.000000
O O11 0.611275 0.425654 0.987362
O O12 0.331209 0.086628 0.533896
O O13 0.500000 0.137209 0.000000
O O14 0.500000 0.680160 0.500000
O O15 0.500000 0.929899 0.500000
O O16 0.714901 0.938265 0.836274
O O17 0.746371 0.000000 0.676804
#
# Coordination Sequence:
#
# PCOD8108984 Si02
#       7
#     8   8   8   8   8   8   8
#     4  11  23  35  62  95 117 154 205 250 307 355
#     4   9  21  41  60  84 122 161 203 235 306 360
#     4  10  21  39  61  84 121 158 192 248 314 367
#     4  11  23  40  62  87 123 163 200 249 301 368
#     4  10  22  38  64  91 119 157 200 255 293 354
#     4  10  21  39  61  84 121 162 199 248 299 363
#     4  10  22  40  61  86 118 162 205 250 305 359
#
# _framework density 19.917086999999999
#
# number of rings (size 3 to 8) (size 9 to 14) (size 15 to 20)
#    0.000    1.857    1.429    2.143    6.000    4.000 
#    0.000    3.571    0.000    0.000    0.000    0.000 
#    0.000    0.000    0.000    0.000    0.000    0.000 
#
# Total GULP energy -347195.560493 kJ/mol
# GULP energy per Si atom -12399.841446 kJ/mol
# Density = 1.987176 g / cm^3
# Si number density = 19.917087 Si / 1000 Ang^3
#
#
#
# Elastic Constant Matrix: (Units=GPa)
#
#
# Indices 1 2 3 4 5 6 
#
# 1 133.0730 25.5806 64.8745 0.0000 5.6241 0.0000
# 2 25.5806 74.7324 46.3395 0.0000 1.8162 0.0000
# 3 64.8745 46.3395 128.3805 0.0000 4.6263 0.0000
# 4 0.0000 0.0000 0.0000 27.5858 0.0000 7.8245
# 5 5.6241 1.8162 4.6263 0.0000 39.2430 0.0000
# 6 0.0000 0.0000 0.0000 7.8245 0.0000 13.0760
#
#
#
# Elastic Compliance Matrix: (Units=1/GPa)
#
#
# Indices 1 2 3 4 5 6 
#
# 1 0.010007 -0.000371 -0.004892 0.000000 -0.000840 0.000000
# 2 -0.000371 0.017254 -0.006039 0.000000 -0.000033 0.000000
# 3 -0.004892 -0.006039 0.012459 0.000000 -0.000488 0.000000
# 4 0.000000 0.000000 0.000000 0.043661 0.000000 -0.026126
# 5 -0.000840 -0.000033 -0.000488 0.000000 0.025662 0.000000
# 6 0.000000 0.000000 0.000000 -0.026126 0.000000 0.092110
#
#
# Mechanical properties :
#
#
# Convention : Reuss Voigt Hill
#
# Bulk Modulus (GPa) = 58.43140 67.75280 63.09210
# Shear Modulus (GPa) = 21.79017 29.27372 25.53194
#
# Velocity S-wave (km/s) = 3.31122 3.83793 3.58426
# Velocity P-wave (km/s) = 6.63475 7.33013 6.99109
#
# Compressibility (1/GPa) = 0.01711409
#
# Stress axis : x y z
#
# Youngs Moduli (GPa) = 99.93389 57.95906 80.26326
#
# Poissons Ratio (x) = 0.02151 0.39268
# Poissons Ratio (y) = 0.03709 0.48471
# Poissons Ratio (z) = 0.48891 0.35001
#
# Static dielectric constant tensor:
#      x y z
#    x 3.723490 0.000000 0.011640 
#    y 0.000000 3.608600 0.000000 
#    z 0.011640 0.000000 3.610060 
# 
# 
# High freq. dielectric constant tensor:
#      x y z
#    x 1.785220 0.000000 0.007460 
#    y 0.000000 1.767470 0.000000 
#    z 0.007460 0.000000 1.778950 
# 
# From -- ./inp_files/91616.got.cif
#   From: 2010.06.25/outbox.cif.g09.slc.cpg/sg12_46_cif.got.tgz:91616.got - 2010.06.28 00:19:55.
