data_PCOD8108295
_publ_section_title
;
Structure prediction by ZEFSAII (Michael W. Deem and Ramdas Pophale) SiO2 
 PCOD8108295
Probable space group: C 2/M
;
_chemical_formula_sum "Si O2"
_cell_formula_units_Z 48
_cell_length_a 10.658260
_cell_length_b 22.907536
_cell_length_c 14.285953
_cell_angle_alpha 90.000000
_cell_angle_beta 136.431850
_cell_angle_gamma 90.000000
_cell_volume 2403.974242
_symmetry_space_group_name_H-M "C 2/M"
_symmetry_group_IT_number 12
_symmetry_cell_setting 'monoclinic'
loop_
_space_group_symop_operation_xyz
x,y,z
-x,y,-z
-x,-y,-z
x,-y,z
1/2+x,1/2+y,z
1/2-x,1/2+y,-z
1/2-x,1/2-y,-z
1/2+x,1/2-y,z
loop_
_atom_site_type_symbol
_atom_site_label
_atom_site_fract_x
_atom_site_fract_y
_atom_site_fract_z
Si Si1 0.716350 0.861077 0.900706
Si Si2 0.559150 0.222387 0.138396
Si Si3 0.603972 0.065526 0.319171
Si Si4 0.091600 0.151177 0.182842
Si Si5 0.347642 0.430732 0.621681
Si Si6 0.372756 0.640992 0.348706
O O1 0.588523 0.817337 0.888832
O O2 0.605768 0.918643 0.811006
O O3 0.784617 0.834583 0.840200
O O4 0.894796 0.878507 0.056495
O O5 0.561419 0.282143 0.201729
O O6 0.760989 0.194133 0.242627
O O7 0.500000 0.234801 0.000000
O O8 0.668496 0.076536 0.460802
O O9 0.726951 0.098690 0.313345
O O10 0.633626 0.000000 0.306708
O O11 0.194158 0.105950 0.306815
O O12 0.388224 0.500000 0.661770
O O13 0.518952 0.397564 0.668148
O O14 0.500000 0.666494 0.500000
#
# Coordination Sequence:
#
# PCOD8108295 Si02
#       6
#     8   8   8   8   8   8
#     4  10  22  38  56  85 114 151 193 235 287 339
#     4  11  21  38  62  84 114 152 193 238 288 342
#     4   9  19  38  61  84 115 153 193 239 285 334
#     4  11  23  37  56  84 116 154 191 234 286 343
#     4  10  21  38  61  87 118 154 192 235 287 345
#     4   9  19  37  60  92 115 146 192 243 290 333
#
# _framework density 19.966937000000001
#
# number of rings (size 3 to 8) (size 9 to 14) (size 15 to 20)
#    0.000    2.000    1.667    2.000    2.333    4.000 
#    3.000    5.833    0.000    5.500    0.000    0.000 
#    0.000    0.000    0.000    0.000    0.000    0.000 
#
# Total GULP energy -297378.518002 kJ/mol
# GULP energy per Si atom -12390.771583 kJ/mol
# Density = 1.992149 g / cm^3
# Si number density = 19.966937 Si / 1000 Ang^3
#
#
#
# Elastic Constant Matrix: (Units=GPa)
#
#
# Indices 1 2 3 4 5 6 
#
# 1 59.8362 13.2503 20.8186 0.0000 -2.5063 0.0000
# 2 13.2503 106.3221 68.7999 0.0000 -5.8412 0.0000
# 3 20.8186 68.7999 84.5903 0.0000 4.8014 0.0000
# 4 0.0000 0.0000 0.0000 27.3499 0.0000 -20.6316
# 5 -2.5063 -5.8412 4.8014 0.0000 30.4719 0.0000
# 6 0.0000 0.0000 0.0000 -20.6316 0.0000 -30.3751
#
#
#
# Elastic Compliance Matrix: (Units=1/GPa)
#
#
# Indices 1 2 3 4 5 6 
#
# 1 0.018601 0.001919 -0.006303 0.000000 0.002891 0.000000
# 2 0.001919 0.021376 -0.018263 0.000000 0.007133 0.000000
# 3 -0.006303 -0.018263 0.028712 0.000000 -0.008543 0.000000
# 4 0.000000 0.000000 0.000000 0.024176 0.000000 -0.016421
# 5 0.002891 0.007133 -0.008543 0.000000 0.035768 0.000000
# 6 0.000000 0.000000 0.000000 -0.016421 0.000000 -0.021768
#
#
# Mechanical properties :
#
#
# Convention : Reuss Voigt Hill
#
# Bulk Modulus (GPa) = 42.74330 50.72071 46.73201
# Shear Modulus (GPa) = 31.25846 15.34800 23.30323
#
# Velocity S-wave (km/s) = 3.96095 2.77550 3.41998
# Velocity P-wave (km/s) = 6.50940 5.97735 6.24904
#
# Compressibility (1/GPa) = 0.02339548
#
# Stress axis : x y z
#
# Youngs Moduli (GPa) = 53.75939 46.78201 34.82911
#
# Poissons Ratio (x) = -0.08979 0.21954
# Poissons Ratio (y) = -0.10319 0.63608
# Poissons Ratio (z) = 0.33886 0.85437
#
# Static dielectric constant tensor:
#      x y z
#    x 3.666860 0.000000 0.195050 
#    y 0.000000 3.749150 0.000000 
#    z 0.195050 0.000000 3.949660 
# 
# 
# High freq. dielectric constant tensor:
#      x y z
#    x 1.780420 0.000000 0.006290 
#    y 0.000000 1.776590 0.000000 
#    z 0.006290 0.000000 1.779090 
# 
# From -- ./inp_files/50619.got.cif
#   From: 2010.06.25/outbox.cif.g09.slc.cpg/sg12_26_cif.got.tgz:50619.got - 2010.06.28 00:19:55.
