data_PCOD8108555
_publ_section_title
;
Structure prediction by ZEFSAII (Michael W. Deem and Ramdas Pophale) SiO2 
 PCOD8108555
Probable space group: C 2/M
;
_chemical_formula_sum "Si O2"
_cell_formula_units_Z 40
_cell_length_a 15.394146
_cell_length_b 27.464522
_cell_length_c 8.158131
_cell_angle_alpha 90.000000
_cell_angle_beta 149.352727
_cell_angle_gamma 90.000000
_cell_volume 1758.234349
_symmetry_space_group_name_H-M "C 2/M"
_symmetry_group_IT_number 12
_symmetry_cell_setting 'monoclinic'
loop_
_space_group_symop_operation_xyz
x,y,z
-x,y,-z
-x,-y,-z
x,-y,z
1/2+x,1/2+y,z
1/2-x,1/2+y,-z
1/2-x,1/2-y,-z
1/2+x,1/2-y,z
loop_
_atom_site_type_symbol
_atom_site_label
_atom_site_fract_x
_atom_site_fract_y
_atom_site_fract_z
Si Si1 0.788649 0.111629 0.840306
Si Si2 0.683155 0.614351 0.476023
Si Si3 0.435767 0.794064 0.558186
Si Si4 0.673735 0.785552 0.213654
Si Si5 0.797870 0.945580 0.176322
O O1 0.781230 0.087930 0.643046
O O2 0.665019 0.157427 0.652134
O O3 0.729477 0.075993 0.891977
O O4 0.985268 0.125831 0.189694
O O5 0.772372 0.666698 0.597739
O O6 0.760956 0.584189 0.755953
O O7 0.500000 0.767085 0.500000
O O8 0.314740 0.756281 0.457031
O O9 0.617007 0.804090 0.941861
O O10 0.500000 0.762710 0.000000
O O11 0.000000 0.947379 0.500000
O O12 0.722960 0.000000 0.071148
#
# Coordination Sequence:
#
# PCOD8108555 Si02
#       5
#     8   8   8   8   8
#     4  10  21  38  62  91 124 162 206 254 306 364
#     4  10  21  38  63  90 122 164 206 253 305 366
#     4  12  25  39  60  90 124 166 209 254 304 366
#     4  12  24  40  61  88 125 166 205 254 303 363
#     4   9  19  37  62  93 124 154 200 261 313 361
#
# _framework density 22.750095999999999
#
# number of rings (size 3 to 8) (size 9 to 14) (size 15 to 20)
#    0.000    1.400    2.000    3.600    2.800    3.200 
#    0.000    4.000    0.000    6.000    0.000    0.000 
#    0.000    0.000    0.000    0.000    0.000    0.000 
#
# Total GULP energy -247769.021886 kJ/mol
# GULP energy per Si atom -12388.451094 kJ/mol
# Density = 2.269832 g / cm^3
# Si number density = 22.750096 Si / 1000 Ang^3
#
#
#
# Elastic Constant Matrix: (Units=GPa)
#
#
# Indices 1 2 3 4 5 6 
#
# 1 107.1495 33.2468 28.1169 0.0000 -39.2130 0.0000
# 2 33.2468 128.3319 43.7938 0.0000 -20.8333 0.0000
# 3 28.1169 43.7938 95.9421 0.0000 -28.3213 0.0000
# 4 0.0000 0.0000 0.0000 7.6008 0.0000 -0.2553
# 5 -39.2130 -20.8333 -28.3213 0.0000 44.7177 0.0000
# 6 0.0000 0.0000 0.0000 -0.2553 0.0000 24.4751
#
#
#
# Elastic Compliance Matrix: (Units=1/GPa)
#
#
# Indices 1 2 3 4 5 6 
#
# 1 0.014111 -0.001812 0.000117 0.000000 0.011604 0.000000
# 2 -0.001812 0.009612 -0.003694 0.000000 0.000549 0.000000
# 3 0.000117 -0.003694 0.014264 0.000000 0.007415 0.000000
# 4 0.000000 0.000000 0.000000 0.131611 0.000000 0.001373
# 5 0.011604 0.000549 0.007415 0.000000 0.037490 0.000000
# 6 0.000000 0.000000 0.000000 0.001373 0.000000 0.040872
#
#
# Mechanical properties :
#
#
# Convention : Reuss Voigt Hill
#
# Bulk Modulus (GPa) = 36.75337 60.19317 48.47327
# Shear Modulus (GPa) = 18.67012 30.44309 24.55661
#
# Velocity S-wave (km/s) = 2.86783 3.66204 3.28900
# Velocity P-wave (km/s) = 5.21116 6.66308 5.98134
#
# Compressibility (1/GPa) = 0.02720839
#
# Stress axis : x y z
#
# Youngs Moduli (GPa) = 70.86748 104.04183 70.10734
#
# Poissons Ratio (x) = 0.18851 -0.00821
# Poissons Ratio (y) = 0.12840 0.25898
# Poissons Ratio (z) = -0.00830 0.38434
#
# Static dielectric constant tensor:
#      x y z
#    x 4.418430 0.000000 -0.483240 
#    y 0.000000 3.803830 0.000000 
#    z -0.483240 0.000000 4.623530 
# 
# 
# High freq. dielectric constant tensor:
#      x y z
#    x 1.915900 0.000000 -0.029260 
#    y 0.000000 1.859680 0.000000 
#    z -0.029260 0.000000 1.910530 
# 
# From -- ./inp_files/79306.got.cif
#   From: 2010.06.25/outbox.cif.g09.slc.cpg/sg12_40_cif.got.tgz:79306.got - 2010.06.28 00:19:55.
