data_PCOD8108311
_publ_section_title
;
Structure prediction by ZEFSAII (Michael W. Deem and Ramdas Pophale) SiO2 
 PCOD8108311
Probable space group: C 2/M
;
_chemical_formula_sum "Si O2"
_cell_formula_units_Z 40
_cell_length_a 26.777269
_cell_length_b 10.019544
_cell_length_c 10.044980
_cell_angle_alpha 90.000000
_cell_angle_beta 46.345222
_cell_angle_gamma 90.000000
_cell_volume 1949.885827
_symmetry_space_group_name_H-M "C 2/M"
_symmetry_group_IT_number 12
_symmetry_cell_setting 'monoclinic'
loop_
_space_group_symop_operation_xyz
x,y,z
-x,y,-z
-x,-y,-z
x,-y,z
1/2+x,1/2+y,z
1/2-x,1/2+y,-z
1/2-x,1/2-y,-z
1/2+x,1/2-y,z
loop_
_atom_site_type_symbol
_atom_site_label
_atom_site_fract_x
_atom_site_fract_y
_atom_site_fract_z
Si Si1 0.069605 0.651554 0.801386
Si Si2 0.948667 0.149825 0.391694
Si Si3 0.211987 0.348511 0.669036
Si Si4 0.788082 0.650043 0.027743
Si Si5 0.565756 0.234532 0.316766
O O1 0.061779 0.500000 0.761785
O O2 0.085869 0.748919 0.648914
O O3 0.130278 0.661649 0.797073
O O4 0.000000 0.700063 0.000000
O O5 0.909606 0.168807 0.606411
O O6 0.031249 0.178732 0.259966
O O7 0.937439 0.000000 0.359971
O O8 0.237347 0.500000 0.595702
O O9 0.250000 0.250000 0.500000
O O10 0.227891 0.306857 0.791649
O O11 0.762125 0.500000 0.048084
O O12 0.750000 0.750000 0.000000
O O13 0.870785 0.649087 0.852834
O O14 0.500000 0.148206 0.500000
#
# Coordination Sequence:
#
# PCOD8108311 Si02
#       5
#     8   8   8   8   8
#     4  10  21  38  61  87 121 159 205 259 315 372
#     4   9  19  35  60  91 123 157 201 256 311 365
#     4  10  24  44  63  89 127 168 209 257 312 374
#     4  11  25  44  66  94 127 167 213 264 316 375
#     4   8  20  38  61  91 125 157 203 254 316 367
#
# _framework density 20.514023000000002
#
# number of rings (size 3 to 8) (size 9 to 14) (size 15 to 20)
#    1.200    1.000    0.000    2.400    2.800    7.200 
#    0.000    2.000    0.000    0.000    0.000    0.000 
#    0.000    0.000    0.000    0.000    0.000    0.000 
#
# Total GULP energy -247777.751551 kJ/mol
# GULP energy per Si atom -12388.887578 kJ/mol
# Density = 2.046733 g / cm^3
# Si number density = 20.514023 Si / 1000 Ang^3
#
#
#
# Elastic Constant Matrix: (Units=GPa)
#
#
# Indices 1 2 3 4 5 6 
#
# 1 109.0947 65.2348 35.4014 0.0000 24.9651 0.0000
# 2 65.2348 118.3195 47.0542 0.0000 20.9662 0.0000
# 3 35.4014 47.0542 101.7897 0.0000 3.7257 0.0000
# 4 0.0000 0.0000 0.0000 25.8102 0.0000 2.0632
# 5 24.9651 20.9662 3.7257 0.0000 28.3543 0.0000
# 6 0.0000 0.0000 0.0000 2.0632 0.0000 31.1159
#
#
#
# Elastic Compliance Matrix: (Units=1/GPa)
#
#
# Indices 1 2 3 4 5 6 
#
# 1 0.015603 -0.006120 -0.002271 0.000000 -0.008914 0.000000
# 2 -0.006120 0.014384 -0.004350 0.000000 -0.004677 0.000000
# 3 -0.002271 -0.004350 0.012494 0.000000 0.003575 0.000000
# 4 0.000000 0.000000 0.000000 0.038951 0.000000 -0.002583
# 5 -0.008914 -0.004677 0.003575 0.000000 0.046105 0.000000
# 6 0.000000 0.000000 0.000000 -0.002583 0.000000 0.032309
#
#
# Mechanical properties :
#
#
# Convention : Reuss Voigt Hill
#
# Bulk Modulus (GPa) = 58.82529 69.39828 64.11179
# Shear Modulus (GPa) = 26.17885 29.15697 27.66791
#
# Velocity S-wave (km/s) = 3.57619 3.77413 3.67649
# Velocity P-wave (km/s) = 6.76684 7.27291 7.02443
#
# Compressibility (1/GPa) = 0.01699949
#
# Stress axis : x y z
#
# Youngs Moduli (GPa) = 64.09210 69.52048 80.03787
#
# Poissons Ratio (x) = 0.42543 0.18179
# Poissons Ratio (y) = 0.39221 0.34816
# Poissons Ratio (z) = 0.14557 0.30241
#
# Static dielectric constant tensor:
#      x y z
#    x 3.733330 0.000000 0.009200 
#    y 0.000000 3.453610 0.000000 
#    z 0.009200 0.000000 3.537280 
# 
# 
# High freq. dielectric constant tensor:
#      x y z
#    x 1.810180 0.000000 0.001420 
#    y 0.000000 1.783610 0.000000 
#    z 0.001420 0.000000 1.785250 
# 
# From -- ./inp_files/186196.got.cif
#   From: 2010.06.25/outbox.cif.g09.slc.cpg/sg12_94_cif.got.tgz:186196.got - 2010.06.28 00:19:55.
