data_PCOD8108482
_publ_section_title
;
Structure prediction by ZEFSAII (Michael W. Deem and Ramdas Pophale) SiO2 
 PCOD8108482
Probable space group: C 2/M
;
_chemical_formula_sum "Si O2"
_cell_formula_units_Z 48
_cell_length_a 15.132844
_cell_length_b 8.528756
_cell_length_c 29.406190
_cell_angle_alpha 90.000000
_cell_angle_beta 39.269273
_cell_angle_gamma 90.000000
_cell_volume 2402.288907
_symmetry_space_group_name_H-M "C 2/M"
_symmetry_group_IT_number 12
_symmetry_cell_setting 'monoclinic'
loop_
_space_group_symop_operation_xyz
x,y,z
-x,y,-z
-x,-y,-z
x,-y,z
1/2+x,1/2+y,z
1/2-x,1/2+y,-z
1/2-x,1/2-y,-z
1/2+x,1/2-y,z
loop_
_atom_site_type_symbol
_atom_site_label
_atom_site_fract_x
_atom_site_fract_y
_atom_site_fract_z
Si Si1 0.362347 0.682922 0.920945
Si Si2 0.337098 0.818126 0.831926
Si Si3 0.918720 0.680507 0.331826
Si Si4 0.631380 0.818757 0.417543
Si Si5 0.101296 0.180844 0.332944
Si Si6 0.350819 0.818646 0.166377
O O1 0.337456 0.500000 0.923014
O O2 0.345114 0.773537 0.880898
O O3 0.515247 0.710692 0.880291
O O4 0.250000 0.750000 0.000000
O O5 0.486316 0.779096 0.749740
O O6 0.215713 0.718548 0.856098
O O7 0.299526 0.000000 0.841820
O O8 0.934576 0.500000 0.339292
O O9 0.760423 0.715346 0.382393
O O10 0.966155 0.783417 0.356002
O O11 0.500000 0.768204 0.500000
O O12 0.595644 0.787754 0.379482
O O13 0.669011 0.000000 0.409338
O O14 0.240485 0.223500 0.249625
O O15 0.099618 0.000000 0.348157
O O16 0.394880 0.000000 0.150772
#
# Coordination Sequence:
#
# PCOD8108482 Si02
#       6
#     8   8   8   8   8   8
#     4  12  25  40  59  85 118 156 193 234 285 339
#     4  10  21  39  62  89 117 148 190 237 285 339
#     4  10  21  38  62  88 115 149 190 237 286 339
#     4  11  24  39  56  82 117 155 194 237 286 341
#     4  10  21  38  62  88 115 149 190 237 286 339
#     4  10  21  39  62  89 117 148 190 237 285 339
#
# _framework density 19.980944999999998
#
# number of rings (size 3 to 8) (size 9 to 14) (size 15 to 20)
#    0.000    1.500    0.000    5.000    0.000   10.667 
#    0.000    3.333    0.000    0.000    0.000    0.000 
#    0.000    0.000    0.000    0.000    0.000    0.000 
#
# Total GULP energy -297774.188794 kJ/mol
# GULP energy per Si atom -12407.257866 kJ/mol
# Density = 1.993547 g / cm^3
# Si number density = 19.980945 Si / 1000 Ang^3
#
#
#
# Elastic Constant Matrix: (Units=GPa)
#
#
# Indices 1 2 3 4 5 6 
#
# 1 106.7792 14.1175 62.3827 -0.0009 1.7257 -0.0025
# 2 14.1175 60.5592 27.7287 -0.0021 0.4505 -0.0033
# 3 62.3827 27.7287 97.5044 0.0002 -9.4136 0.0003
# 4 -0.0009 -0.0021 0.0002 31.5290 0.0000 0.2430
# 5 1.7257 0.4505 -9.4136 0.0000 -28.8864 0.0004
# 6 -0.0025 -0.0033 0.0003 0.2430 0.0004 41.0470
#
#
#
# Elastic Compliance Matrix: (Units=1/GPa)
#
#
# Indices 1 2 3 4 5 6 
#
# 1 0.014549 0.000771 -0.009155 0.000000 0.003865 0.000001
# 2 0.000771 0.018908 -0.005660 0.000001 0.002185 0.000002
# 3 -0.009155 -0.005660 0.017122 -0.000001 -0.006215 -0.000001
# 4 0.000000 0.000001 -0.000001 0.031718 0.000000 -0.000188
# 5 0.003865 0.002185 -0.006215 0.000000 -0.032328 0.000001
# 6 0.000001 0.000002 -0.000001 -0.000188 0.000001 0.024363
#
#
# Mechanical properties :
#
#
# Convention : Reuss Voigt Hill
#
# Bulk Modulus (GPa) = 44.45692 52.58896 48.52294
# Shear Modulus (GPa) = 45.48883 19.44552 32.46718
#
# Velocity S-wave (km/s) = 4.77656 3.12300 4.03539
# Velocity P-wave (km/s) = 7.26076 6.27542 6.78600
#
# Compressibility (1/GPa) = 0.02249369
#
# Stress axis : x y z
#
# Youngs Moduli (GPa) = 68.73325 52.88732 58.40278
#
# Poissons Ratio (x) = -0.04079 0.53465
# Poissons Ratio (y) = -0.05301 0.33054
# Poissons Ratio (z) = 0.62923 0.29932
#
# Static dielectric constant tensor:
#      x y z
#    x 3.612250 0.000000 0.003830 
#    y 0.000000 3.742880 0.000000 
#    z 0.003830 0.000000 3.633360 
# 
# 
# High freq. dielectric constant tensor:
#      x y z
#    x 1.789880 0.000000 0.001540 
#    y 0.000000 1.791960 0.000000 
#    z 0.001540 0.000000 1.775320 
# 
# From -- ./inp_files/308605.got.cif
#   From: 2010.06.25/outbox.cif.g09.slc.cpg/sg12_155_cif.got.tgz:308605.got - 2010.06.28 00:19:55.
