data_PCOD8108597
_publ_section_title
;
Structure prediction by ZEFSAII (Michael W. Deem and Ramdas Pophale) SiO2 
 PCOD8108597
Probable space group: C 2/M
;
_chemical_formula_sum "Si O2"
_cell_formula_units_Z 52
_cell_length_a 8.746894
_cell_length_b 16.705175
_cell_length_c 17.932094
_cell_angle_alpha 90.000000
_cell_angle_beta 85.141229
_cell_angle_gamma 90.000000
_cell_volume 2610.793081
_symmetry_space_group_name_H-M "C 2/M"
_symmetry_group_IT_number 12
_symmetry_cell_setting 'monoclinic'
loop_
_space_group_symop_operation_xyz
x,y,z
-x,y,-z
-x,-y,-z
x,-y,z
1/2+x,1/2+y,z
1/2-x,1/2+y,-z
1/2-x,1/2-y,-z
1/2+x,1/2-y,z
loop_
_atom_site_type_symbol
_atom_site_label
_atom_site_fract_x
_atom_site_fract_y
_atom_site_fract_z
Si Si1 0.460629 0.646986 0.276742
Si Si2 0.485702 0.636706 0.104151
Si Si3 0.000000 0.282599 0.000000
Si Si4 0.080801 0.333017 0.571187
Si Si5 0.938389 0.000000 0.383503
Si Si6 0.750195 0.087016 0.004553
Si Si7 0.690705 0.241279 0.341875
Si Si8 0.747749 0.000000 0.541169
O O1 0.497583 0.623058 0.191303
O O2 0.410515 0.575553 0.332542
O O3 0.615037 0.683804 0.303942
O O4 0.316076 0.706377 0.280213
O O5 0.616765 0.582234 0.062566
O O6 0.508580 0.728299 0.074270
O O7 0.320710 0.604799 0.083245
O O8 0.144360 0.339853 0.986039
O O9 0.220726 0.273891 0.587699
O O10 0.140274 0.423433 0.560206
O O11 0.000000 0.300540 0.500000
O O12 0.940535 0.325208 0.636114
O O13 0.811387 0.000000 0.454155
O O14 0.110366 0.000000 0.408276
O O15 0.666922 0.000000 0.009551
#
# Coordination Sequence:
#
# PCOD8108597 Si02
#       8
#     8   8   4   8   4   8   8   4
#     4  11  24  41  63  87 130 159 204 252 312 369
#     4  10  21  38  63  85 122 167 200 240 301 364
#     4  10  21  38  63  94 122 152 210 252 293 352
#     4  11  21  40  64  89 118 158 205 257 308 364
#     4  11  24  42  62  93 122 163 205 256 312 369
#     4  10  21  38  62  94 120 155 210 246 293 355
#     4  10  24  40  59  95 121 158 203 258 307 373
#     4  11  23  42  66  88 122 163 208 257 310 364
#
# _framework density 19.91732
#
# number of rings (size 3 to 8) (size 9 to 14) (size 15 to 20)
#    0.000    1.692    1.538    4.615    6.462    1.846 
#    0.000    0.000    0.000    0.000    0.000    0.000 
#    0.000    0.000    0.000    0.000    0.000    0.000 
#
# Total GULP energy -322268.676748 kJ/mol
# GULP energy per Si atom -12394.949106 kJ/mol
# Density = 1.987199 g / cm^3
# Si number density = 19.917320 Si / 1000 Ang^3
#
#
#
# Elastic Constant Matrix: (Units=GPa)
#
#
# Indices 1 2 3 4 5 6 
#
# 1 98.1629 34.1516 31.9325 0.0000 3.4365 0.0000
# 2 34.1516 118.5240 31.5098 0.0000 -0.8511 0.0000
# 3 31.9325 31.5098 118.7772 0.0000 12.4364 0.0000
# 4 0.0000 0.0000 0.0000 -4.9538 0.0000 -21.8492
# 5 3.4365 -0.8511 12.4364 0.0000 16.3534 0.0000
# 6 0.0000 0.0000 0.0000 -21.8492 0.0000 15.0939
#
#
#
# Elastic Compliance Matrix: (Units=1/GPa)
#
#
# Indices 1 2 3 4 5 6 
#
# 1 0.011974 -0.002823 -0.002381 0.000000 -0.000853 0.000000
# 2 -0.002823 0.009838 -0.002137 0.000000 0.002730 0.000000
# 3 -0.002381 -0.002137 0.010415 0.000000 -0.007531 0.000000
# 4 0.000000 0.000000 0.000000 -0.027336 0.000000 -0.039570
# 5 -0.000853 0.002730 -0.007531 0.000000 0.067198 0.000000
# 6 0.000000 0.000000 0.000000 -0.039570 0.000000 0.008972
#
#
# Mechanical properties :
#
#
# Convention : Reuss Voigt Hill
#
# Bulk Modulus (GPa) = 56.99706 58.96132 57.97919
# Shear Modulus (GPa) = 49.21752 21.15672 35.18712
#
# Velocity S-wave (km/s) = 4.97640 3.26272 4.20772
# Velocity P-wave (km/s) = 7.85483 6.62277 7.26497
#
# Compressibility (1/GPa) = 0.01754476
#
# Stress axis : x y z
#
# Youngs Moduli (GPa) = 83.51621 101.64365 96.01941
#
# Poissons Ratio (x) = 0.28697 0.22860
# Poissons Ratio (y) = 0.23579 0.20517
# Poissons Ratio (z) = 0.19884 0.21719
#
# Static dielectric constant tensor:
#      x y z
#    x 3.888650 0.000000 0.115290 
#    y 0.000000 3.680510 0.000000 
#    z 0.115290 0.000000 3.402410 
# 
# 
# High freq. dielectric constant tensor:
#      x y z
#    x 1.789520 0.000000 0.003790 
#    y 0.000000 1.782500 0.000000 
#    z 0.003790 0.000000 1.756470 
# 
# From -- ./inp_files/256579.got.cif
#   From: 2010.06.25/outbox.cif.g09.slc.cpg/sg12_129_cif.got.tgz:256579.got - 2010.06.28 00:19:55.
