data_PCOD8108666
_publ_section_title
;
Structure prediction by ZEFSAII (Michael W. Deem and Ramdas Pophale) SiO2 
 PCOD8108666
Probable space group: C 2/M
;
_chemical_formula_sum "Si O2"
_cell_formula_units_Z 56
_cell_length_a 22.108527
_cell_length_b 10.731446
_cell_length_c 12.314459
_cell_angle_alpha 90.000000
_cell_angle_beta 66.758096
_cell_angle_gamma 90.000000
_cell_volume 2684.581430
_symmetry_space_group_name_H-M "C 2/M"
_symmetry_group_IT_number 12
_symmetry_cell_setting 'monoclinic'
loop_
_space_group_symop_operation_xyz
x,y,z
-x,y,-z
-x,-y,-z
x,-y,z
1/2+x,1/2+y,z
1/2-x,1/2+y,-z
1/2-x,1/2-y,-z
1/2+x,1/2-y,z
loop_
_atom_site_type_symbol
_atom_site_label
_atom_site_fract_x
_atom_site_fract_y
_atom_site_fract_z
Si Si1 0.399313 0.143732 0.557958
Si Si2 0.063054 0.644597 0.703791
Si Si3 0.459580 0.500000 0.689684
Si Si4 0.306597 0.850639 0.982148
Si Si5 0.165006 0.359218 0.799329
Si Si6 0.895605 0.000000 0.499668
Si Si7 0.711992 0.291767 0.420422
Si Si8 0.428582 0.765079 0.764895
O O1 0.426305 0.199024 0.424711
O O2 0.320524 0.170139 0.613627
O O3 0.435945 0.212588 0.630293
O O4 0.414564 0.000000 0.562436
O O5 0.080853 0.500000 0.685933
O O6 0.112165 0.709476 0.757320
O O7 0.987595 0.668757 0.789494
O O8 0.420708 0.500000 0.604564
O O9 0.539408 0.500000 0.623014
O O10 0.434917 0.617398 0.778194
O O11 0.361543 0.827134 0.852620
O O12 0.285596 0.000000 0.995457
O O13 0.250000 0.750000 0.000000
O O14 0.335473 0.807439 0.078175
O O15 0.141605 0.500000 0.824424
O O16 0.238331 0.353461 0.699282
O O17 0.848985 0.117848 0.509153
O O18 0.750000 0.250000 0.500000
#
# Coordination Sequence:
#
# PCOD8108666 Si02
#       8
#     8   8   4   8   8   4   8   8
#     4  11  22  36  59  94 130 166 208 273 336 400
#     4  10  21  38  63  93 130 165 212 274 340 400
#     4  11  26  40  66  98 131 183 225 283 336 424
#     4  11  26  45  74  98 130 177 233 284 336 404
#     4  10  22  41  64  96 126 172 224 273 325 398
#     4  11  24  42  64  97 134 178 233 272 346 413
#     4  12  22  36  63  91 133 171 214 267 334 403
#     4  12  24  42  65  94 132 174 226 274 344 397
#
# _framework density 20.859862
#
# number of rings (size 3 to 8) (size 9 to 14) (size 15 to 20)
#    0.000    1.000    3.571    3.429    4.000    1.714 
#    0.000    2.143    1.571    0.857    0.000    0.000 
#    0.000    0.000    0.000    0.000    0.000    0.000 
#
# Total GULP energy -347017.324083 kJ/mol
# GULP energy per Si atom -12393.475860 kJ/mol
# Density = 2.081238 g / cm^3
# Si number density = 20.859862 Si / 1000 Ang^3
#
#
#
# Elastic Constant Matrix: (Units=GPa)
#
#
# Indices 1 2 3 4 5 6 
#
# 1 153.2387 40.4284 42.9646 0.0000 4.7446 0.0000
# 2 40.4284 82.1827 33.6422 0.0000 -1.0218 0.0000
# 3 42.9646 33.6422 85.8164 0.0000 11.2052 0.0000
# 4 0.0000 0.0000 0.0000 22.9302 0.0000 -2.6698
# 5 4.7446 -1.0218 11.2052 0.0000 31.3236 0.0000
# 6 0.0000 0.0000 0.0000 -2.6698 0.0000 37.8155
#
#
#
# Elastic Compliance Matrix: (Units=1/GPa)
#
#
# Indices 1 2 3 4 5 6 
#
# 1 0.008088 -0.002786 -0.002922 0.000000 -0.000271 0.000000
# 2 -0.002786 0.015663 -0.005106 0.000000 0.002759 0.000000
# 3 -0.002922 -0.005106 0.015820 0.000000 -0.005383 0.000000
# 4 0.000000 0.000000 0.000000 0.043972 0.000000 0.003104
# 5 -0.000271 0.002759 -0.005383 0.000000 0.033982 0.000000
# 6 0.000000 0.000000 0.000000 0.003104 0.000000 0.026663
#
#
# Mechanical properties :
#
#
# Convention : Reuss Voigt Hill
#
# Bulk Modulus (GPa) = 55.72900 61.70090 58.71495
# Shear Modulus (GPa) = 29.10403 32.02737 30.56570
#
# Velocity S-wave (km/s) = 3.73931 3.92262 3.83206
# Velocity P-wave (km/s) = 6.73923 7.08229 6.91289
#
# Compressibility (1/GPa) = 0.01794398
#
# Stress axis : x y z
#
# Youngs Moduli (GPa) = 123.63279 63.84475 63.21074
#
# Poissons Ratio (x) = 0.17789 0.18470
# Poissons Ratio (y) = 0.34447 0.32273
# Poissons Ratio (z) = 0.36124 0.32597
#
# Static dielectric constant tensor:
#      x y z
#    x 4.070060 0.000000 0.121630 
#    y 0.000000 3.816650 0.000000 
#    z 0.121630 0.000000 3.699330 
# 
# 
# High freq. dielectric constant tensor:
#      x y z
#    x 1.835560 0.000000 0.002760 
#    y 0.000000 1.811090 0.000000 
#    z 0.002760 0.000000 1.792730 
# 
# From -- ./inp_files/165642.got.cif
#   From: 2010.06.25/outbox.cif.g09.slc.cpg/sg12_83_cif.got.tgz:165642.got - 2010.06.28 00:19:55.
