data_PCOD8108624
_publ_section_title
;
Structure prediction by ZEFSAII (Michael W. Deem and Ramdas Pophale) SiO2 
 PCOD8108624
Probable space group: C 2/M
;
_chemical_formula_sum "Si O2"
_cell_formula_units_Z 64
_cell_length_a 27.861624
_cell_length_b 13.072529
_cell_length_c 17.446338
_cell_angle_alpha 90.000000
_cell_angle_beta 29.127729
_cell_angle_gamma 90.000000
_cell_volume 3093.026182
_symmetry_space_group_name_H-M "C 2/M"
_symmetry_group_IT_number 12
_symmetry_cell_setting 'monoclinic'
loop_
_space_group_symop_operation_xyz
x,y,z
-x,y,-z
-x,-y,-z
x,-y,z
1/2+x,1/2+y,z
1/2-x,1/2+y,-z
1/2-x,1/2-y,-z
1/2+x,1/2-y,z
loop_
_atom_site_type_symbol
_atom_site_label
_atom_site_fract_x
_atom_site_fract_y
_atom_site_fract_z
Si Si1 0.531567 0.179497 0.262735
Si Si2 0.476821 0.388118 0.943997
Si Si3 0.601981 0.247947 0.325354
Si Si4 0.317328 0.233011 0.194937
Si Si5 0.612268 0.283558 0.643962
Si Si6 0.785769 0.615255 0.092648
Si Si7 0.150735 0.386115 0.400098
Si Si8 0.184631 0.378066 0.655510
O O1 0.590467 0.217773 0.253744
O O2 0.473430 0.270496 0.299549
O O3 0.447947 0.102471 0.411053
O O4 0.610467 0.129954 0.095659
O O5 0.444132 0.500000 0.959202
O O6 0.575493 0.353029 0.764797
O O7 0.500000 0.394810 0.000000
O O8 0.391805 0.306766 0.045903
O O9 0.500000 0.298860 0.500000
O O10 0.694212 0.321993 0.188543
O O11 0.627442 0.152912 0.346297
O O12 0.295730 0.140048 0.168312
O O13 0.221425 0.304664 0.345459
O O14 0.366911 0.180168 0.200637
O O15 0.701584 0.350509 0.485930
O O16 0.646757 0.172051 0.628959
O O17 0.752987 0.500000 0.129565
O O18 0.197858 0.500000 0.328965
O O19 0.165036 0.500000 0.681401
#
# Coordination Sequence:
#
# PCOD8108624 Si02
#       8
#     8   8   8   8   8   8   8   8
#     4  11  21  40  63  88 126 157 199 262 309 355
#     4  11  22  39  63  87 120 165 206 253 311 361
#     4   9  22  41  63  87 123 161 201 256 304 363
#     4  11  21  41  59  88 124 157 203 252 297 368
#     4  11  23  43  62  91 126 158 213 260 300 365
#     4  11  23  38  62  91 123 163 201 248 309 367
#     4  10  21  38  63  90 117 156 202 251 314 367
#     4  11  24  42  63  89 125 169 205 249 309 368
#
# _framework density 20.69171
#
# number of rings (size 3 to 8) (size 9 to 14) (size 15 to 20)
#    0.000    1.375    3.750    1.875    0.000    4.000 
#    0.000    1.875    0.000    0.000    0.000    0.000 
#    0.000    0.000    0.000    0.000    0.000    0.000 
#
# Total GULP energy -396616.810785 kJ/mol
# GULP energy per Si atom -12394.275337 kJ/mol
# Density = 2.064461 g / cm^3
# Si number density = 20.691710 Si / 1000 Ang^3
#
#
#
# Elastic Constant Matrix: (Units=GPa)
#
#
# Indices 1 2 3 4 5 6 
#
# 1 54.0833 11.6116 -13.7808 0.0000 7.4432 0.0000
# 2 11.6116 114.1907 31.2140 0.0000 7.0237 0.0000
# 3 -13.7808 31.2140 70.6431 0.0000 -1.0059 0.0000
# 4 0.0000 0.0000 0.0000 18.4433 0.0000 -3.5161
# 5 7.4432 7.0237 -1.0059 0.0000 27.5820 0.0000
# 6 0.0000 0.0000 0.0000 -3.5161 0.0000 7.8687
#
#
#
# Elastic Compliance Matrix: (Units=1/GPa)
#
#
# Indices 1 2 3 4 5 6 
#
# 1 0.021289 -0.003406 0.005591 0.000000 -0.004674 0.000000
# 2 -0.003406 0.010710 -0.005425 0.000000 -0.002006 0.000000
# 3 0.005591 -0.005425 0.017651 0.000000 0.000516 0.000000
# 4 0.000000 0.000000 0.000000 0.059269 0.000000 0.026484
# 5 -0.004674 -0.002006 0.000516 0.000000 0.038046 0.000000
# 6 0.000000 0.000000 0.000000 0.026484 0.000000 0.138920
#
#
# Mechanical properties :
#
#
# Convention : Reuss Voigt Hill
#
# Bulk Modulus (GPa) = 23.16384 33.00077 28.08230
# Shear Modulus (GPa) = 16.29965 24.77030 20.53497
#
# Velocity S-wave (km/s) = 2.80971 3.46368 3.15370
# Velocity P-wave (km/s) = 4.66316 5.65505 5.18288
#
# Compressibility (1/GPa) = 0.04317074
#
# Stress axis : x y z
#
# Youngs Moduli (GPa) = 46.97233 93.37107 56.65442
#
# Poissons Ratio (x) = 0.31799 -0.31677
# Poissons Ratio (y) = 0.15997 0.30736
# Poissons Ratio (z) = -0.26264 0.50656
#
# Static dielectric constant tensor:
#      x y z
#    x 3.684100 0.000000 0.012240 
#    y 0.000000 3.660120 0.000000 
#    z 0.012240 0.000000 4.021990 
# 
# 
# High freq. dielectric constant tensor:
#      x y z
#    x 1.809100 0.000000 0.003300 
#    y 0.000000 1.794240 0.000000 
#    z 0.003300 0.000000 1.822610 
# 
# From -- ./inp_files/296448.got.cif
#   From: 2010.06.25/outbox.cif.g09.slc.cpg/sg12_149_cif.got.tgz:296448.got - 2010.06.28 00:19:55.
