data_PCOD8108383
_publ_section_title
;
Structure prediction by ZEFSAII (Michael W. Deem and Ramdas Pophale) SiO2 
 PCOD8108383
Probable space group: C 2/M
;
_chemical_formula_sum "Si O2"
_cell_formula_units_Z 56
_cell_length_a 26.968058
_cell_length_b 8.715043
_cell_length_c 13.641192
_cell_angle_alpha 90.000000
_cell_angle_beta 119.852801
_cell_angle_gamma 90.000000
_cell_volume 2780.637850
_symmetry_space_group_name_H-M "C 2/M"
_symmetry_group_IT_number 12
_symmetry_cell_setting 'monoclinic'
loop_
_space_group_symop_operation_xyz
x,y,z
-x,y,-z
-x,-y,-z
x,-y,z
1/2+x,1/2+y,z
1/2-x,1/2+y,-z
1/2-x,1/2-y,-z
1/2+x,1/2-y,z
loop_
_atom_site_type_symbol
_atom_site_label
_atom_site_fract_x
_atom_site_fract_y
_atom_site_fract_z
Si Si1 0.980660 0.177089 0.689956
Si Si2 0.190725 0.319184 0.975271
Si Si3 0.167844 0.679483 0.172427
Si Si4 0.405705 0.820291 0.271155
Si Si5 0.623758 0.678455 0.553203
Si Si6 0.552476 0.323372 0.121326
Si Si7 0.760351 0.320288 0.404666
O O1 0.926021 0.219416 0.571438
O O2 0.965700 0.213605 0.786595
O O3 0.031834 0.287303 0.709334
O O4 0.998651 0.000000 0.692700
O O5 0.196318 0.500000 0.978687
O O6 0.140761 0.263927 0.853625
O O7 0.250000 0.250000 0.000000
O O8 0.175807 0.261173 0.069364
O O9 0.180671 0.500000 0.194438
O O10 0.103771 0.712578 0.142909
O O11 0.211170 0.770275 0.282810
O O12 0.396873 0.722321 0.359581
O O13 0.399648 0.000000 0.288572
O O14 0.639693 0.500000 0.565324
O O15 0.678904 0.774578 0.578992
O O16 0.571689 0.500000 0.128495
O O17 0.500000 0.282904 0.000000
O O18 0.757716 0.500000 0.414560
O O19 0.750000 0.250000 0.500000
#
# Coordination Sequence:
#
# PCOD8108383 Si02
#       7
#     8   8   8   8   8   8   8
#     4  10  22  39  59  85 118 155 195 242 297 356
#     4  10  23  40  59  86 118 154 196 244 297 353
#     4  11  23  40  62  89 121 158 200 247 303 361
#     4  11  23  39  60  88 120 155 200 249 297 353
#     4  11  23  40  61  87 121 159 200 246 298 356
#     4  10  21  38  61  89 120 157 202 250 303 363
#     4  12  25  42  64  91 122 157 199 245 297 356
#
# _framework density 20.139263
#
# number of rings (size 3 to 8) (size 9 to 14) (size 15 to 20)
#    0.000    1.286    0.000    5.571    0.000    9.429 
#    0.000    0.000    0.000    0.000    0.000    0.000 
#    0.000    0.000    0.000    0.000    0.000    0.000 
#
# Total GULP energy -347405.134529 kJ/mol
# GULP energy per Si atom -12407.326233 kJ/mol
# Density = 2.009343 g / cm^3
# Si number density = 20.139263 Si / 1000 Ang^3
#
#
#
# Elastic Constant Matrix: (Units=GPa)
#
#
# Indices 1 2 3 4 5 6 
#
# 1 131.8356 39.6224 69.0450 0.0000 2.5367 0.0000
# 2 39.6224 78.2628 50.6271 0.0000 6.4450 0.0000
# 3 69.0450 50.6271 185.0702 0.0000 -1.4871 0.0000
# 4 0.0000 0.0000 0.0000 -0.7405 0.0000 22.4725
# 5 2.5367 6.4450 -1.4871 0.0000 31.3878 0.0000
# 6 0.0000 0.0000 0.0000 22.4725 0.0000 27.0993
#
#
#
# Elastic Compliance Matrix: (Units=1/GPa)
#
#
# Indices 1 2 3 4 5 6 
#
# 1 0.010063 -0.003208 -0.002879 0.000000 -0.000291 0.000000
# 2 -0.003208 0.016917 -0.003458 0.000000 -0.003378 0.000000
# 3 -0.002879 -0.003458 0.007434 0.000000 0.001295 0.000000
# 4 0.000000 0.000000 0.000000 -0.051610 0.000000 0.042798
# 5 -0.000291 -0.003378 0.001295 0.000000 0.032638 0.000000
# 6 0.000000 0.000000 0.000000 0.042798 0.000000 0.001410
#
#
# Mechanical properties :
#
#
# Convention : Reuss Voigt Hill
#
# Bulk Modulus (GPa) = 65.26054 79.30640 72.28347
# Shear Modulus (GPa) = 121.80431 27.27427 74.53929
#
# Velocity S-wave (km/s) = 7.78539 3.68405 6.09034
# Velocity P-wave (km/s) = 10.64384 7.58688 9.24262
#
# Compressibility (1/GPa) = 0.01532320
#
# Stress axis : x y z
#
# Youngs Moduli (GPa) = 99.37652 59.11289 134.52205
#
# Poissons Ratio (x) = 0.18965 0.38727
# Poissons Ratio (y) = 0.31882 0.46517
# Poissons Ratio (z) = 0.28609 0.20441
#
# Static dielectric constant tensor:
#      x y z
#    x 3.757640 0.000000 -0.105080 
#    y 0.000000 3.586010 0.000000 
#    z -0.105080 0.000000 4.179660 
# 
# 
# High freq. dielectric constant tensor:
#      x y z
#    x 1.800880 0.000000 -0.000600 
#    y 0.000000 1.787340 0.000000 
#    z -0.000600 0.000000 1.810570 
# 
# From -- ./inp_files/181042.got.cif
#   From: 2010.06.25/outbox.cif.g09.slc.cpg/sg12_91_cif.got.tgz:181042.got - 2010.06.28 00:19:55.
