data_PCOD8108320
_publ_section_title
;
Structure prediction by ZEFSAII (Michael W. Deem and Ramdas Pophale) SiO2 
 PCOD8108320
Probable space group: C 2/M
;
_chemical_formula_sum "Si O2"
_cell_formula_units_Z 56
_cell_length_a 29.435600
_cell_length_b 8.464442
_cell_length_c 21.717655
_cell_angle_alpha 90.000000
_cell_angle_beta 148.705534
_cell_angle_gamma 90.000000
_cell_volume 2810.714192
_symmetry_space_group_name_H-M "C 2/M"
_symmetry_group_IT_number 12
_symmetry_cell_setting 'monoclinic'
loop_
_space_group_symop_operation_xyz
x,y,z
-x,y,-z
-x,-y,-z
x,-y,z
1/2+x,1/2+y,z
1/2-x,1/2+y,-z
1/2-x,1/2-y,-z
1/2+x,1/2-y,z
loop_
_atom_site_type_symbol
_atom_site_label
_atom_site_fract_x
_atom_site_fract_y
_atom_site_fract_z
Si Si1 0.774448 0.813508 0.381317
Si Si2 0.760498 0.316676 0.110342
Si Si3 0.783633 0.315798 0.818099
Si Si4 0.879533 0.683680 0.136591
Si Si5 0.070146 0.815759 0.355587
Si Si6 0.027734 0.183274 0.964306
Si Si7 0.118423 0.684552 0.285438
O O1 0.766213 0.756457 0.301149
O O2 0.867741 0.758865 0.516371
O O3 0.694431 0.745489 0.329417
O O4 0.767551 0.000000 0.377282
O O5 0.766145 0.500000 0.132747
O O6 0.775960 0.219144 0.191250
O O7 0.836582 0.263237 0.151525
O O8 0.665496 0.279462 0.971007
O O9 0.806782 0.500000 0.839810
O O10 0.870536 0.214081 0.927446
O O11 0.861897 0.500000 0.104074
O O12 0.982024 0.715843 0.257205
O O13 0.122458 0.780738 0.353575
O O14 0.047317 0.000000 0.333613
O O15 0.975050 0.287887 0.854587
O O16 0.006587 0.000000 0.928521
O O17 0.000000 0.238391 0.000000
O O18 0.130249 0.500000 0.313220
#
# Coordination Sequence:
#
# PCOD8108320 Si02
#       7
#     8   8   8   8   8   8   8
#     4   9  21  38  56  79 111 151 191 231 271 327
#     4  10  21  38  61  88 115 142 179 229 282 333
#     4  11  21  37  59  83 113 150 189 226 277 334
#     4  10  21  39  61  86 113 144 183 227 279 335
#     4  11  22  38  58  82 112 146 189 235 279 325
#     4  11  22  35  53  81 114 146 183 228 277 325
#     4  11  21  37  58  81 111 149 192 232 278 329
#
# _framework density 19.923762
#
# number of rings (size 3 to 8) (size 9 to 14) (size 15 to 20)
#    0.000    1.571    1.429    3.857    0.000    2.286 
#    0.000    5.714    0.000    4.286    0.000    0.000 
#    0.000    0.000    0.000    0.000    0.000    0.000 
#
# Total GULP energy -347331.725608 kJ/mol
# GULP energy per Si atom -12404.704486 kJ/mol
# Density = 1.987841 g / cm^3
# Si number density = 19.923762 Si / 1000 Ang^3
#
#
#
# Elastic Constant Matrix: (Units=GPa)
#
#
# Indices 1 2 3 4 5 6 
#
# 1 116.8466 13.7269 50.9283 0.0000 -17.7401 0.0000
# 2 13.7269 39.9485 9.7407 0.0000 -3.7716 0.0000
# 3 50.9283 9.7407 107.4618 0.0000 -13.0838 0.0000
# 4 0.0000 0.0000 0.0000 16.6505 0.0000 0.1441
# 5 -17.7401 -3.7716 -13.0838 0.0000 27.6611 0.0000
# 6 0.0000 0.0000 0.0000 0.1441 0.0000 30.7414
#
#
#
# Elastic Compliance Matrix: (Units=1/GPa)
#
#
# Indices 1 2 3 4 5 6 
#
# 1 0.011632 -0.002388 -0.004698 0.000000 0.004912 0.000000
# 2 -0.002388 0.026257 -0.001060 0.000000 0.001548 0.000000
# 3 -0.004698 -0.001060 0.011931 0.000000 0.002486 0.000000
# 4 0.000000 0.000000 0.000000 0.060061 0.000000 -0.000282
# 5 0.004912 0.001548 0.002486 0.000000 0.040689 0.000000
# 6 0.000000 0.000000 0.000000 -0.000282 0.000000 0.032531
#
#
# Mechanical properties :
#
#
# Convention : Reuss Voigt Hill
#
# Bulk Modulus (GPa) = 29.82535 45.89430 37.85982
# Shear Modulus (GPa) = 23.74517 27.66800 25.70659
#
# Velocity S-wave (km/s) = 3.45599 3.73056 3.59590
# Velocity P-wave (km/s) = 5.56124 6.45299 6.02364
#
# Compressibility (1/GPa) = 0.03352853
#
# Stress axis : x y z
#
# Youngs Moduli (GPa) = 85.96745 38.08474 83.81559
#
# Poissons Ratio (x) = 0.09093 0.39379
# Poissons Ratio (y) = 0.20526 0.08885
# Poissons Ratio (z) = 0.40390 0.04037
#
# Static dielectric constant tensor:
#      x y z
#    x 3.807240 0.000000 -0.204100 
#    y 0.000000 3.430290 0.000000 
#    z -0.204100 0.000000 3.647480 
# 
# 
# High freq. dielectric constant tensor:
#      x y z
#    x 1.781510 0.000000 -0.010670 
#    y 0.000000 1.771100 0.000000 
#    z -0.010670 0.000000 1.768790 
# 
# From -- ./inp_files/329679.got.cif
#   From: 2010.06.25/outbox.cif.g09.slc.cpg/sg12_165_cif.got.tgz:329679.got - 2010.06.28 00:19:55.
