data_PCOD8108573
_publ_section_title
;
Structure prediction by ZEFSAII (Michael W. Deem and Ramdas Pophale) SiO2 
 PCOD8108573
Probable space group: C 2/M
;
_chemical_formula_sum "Si O2"
_cell_formula_units_Z 56
_cell_length_a 30.004985
_cell_length_b 15.654917
_cell_length_c 12.529898
_cell_angle_alpha 90.000000
_cell_angle_beta 29.338235
_cell_angle_gamma 90.000000
_cell_volume 2883.740352
_symmetry_space_group_name_H-M "C 2/M"
_symmetry_group_IT_number 12
_symmetry_cell_setting 'monoclinic'
loop_
_space_group_symop_operation_xyz
x,y,z
-x,y,-z
-x,-y,-z
x,-y,z
1/2+x,1/2+y,z
1/2-x,1/2+y,-z
1/2-x,1/2-y,-z
1/2+x,1/2-y,z
loop_
_atom_site_type_symbol
_atom_site_label
_atom_site_fract_x
_atom_site_fract_y
_atom_site_fract_z
Si Si1 0.731694 0.843349 0.580908
Si Si2 0.347593 0.215498 0.033805
Si Si3 0.420993 0.596414 0.245720
Si Si4 0.451345 0.253694 0.340575
Si Si5 0.103336 0.401962 0.262862
Si Si6 0.077593 0.402338 0.754943
Si Si7 0.703416 0.208408 0.198160
O O1 0.750000 0.750000 0.500000
O O2 0.684640 0.835671 0.794687
O O3 0.823940 0.897386 0.391137
O O4 0.671414 0.894378 0.622310
O O5 0.274391 0.288671 0.149606
O O6 0.442573 0.262810 0.855458
O O7 0.357147 0.146223 0.921605
O O8 0.436245 0.500000 0.256280
O O9 0.421262 0.663422 0.339707
O O10 0.500000 0.623317 0.000000
O O11 0.428415 0.163724 0.330298
O O12 0.389018 0.258407 0.576199
O O13 0.106941 0.500000 0.226189
O O14 0.167436 0.384312 0.233168
O O15 0.000000 0.371931 0.500000
O O16 0.066399 0.500000 0.736066
O O17 0.000000 0.376875 0.000000
O O18 0.750000 0.250000 0.000000
#
# Coordination Sequence:
#
# PCOD8108573 Si02
#       7
#     8   8   8   8   8   8   8
#     4  12  21  39  62  87 121 164 206 251 305 358
#     4  11  22  37  64  90 115 164 202 243 308 367
#     4  11  24  40  60  85 119 165 211 250 293 354
#     4  12  21  40  62  87 125 164 202 256 301 361
#     4  10  21  38  62  92 124 153 192 250 312 369
#     4  11  23  36  57  92 127 158 197 249 309 367
#     4  10  22  40  58  89 118 155 200 245 306 362
#
# _framework density 19.419224
#
# number of rings (size 3 to 8) (size 9 to 14) (size 15 to 20)
#    0.000    1.000    5.714    1.714    0.000    2.286 
#    0.000    0.714    0.000    0.000    0.000    4.000 
#    0.000    0.000    0.000    0.000    0.000    0.000 
#
# Total GULP energy -347101.046478 kJ/mol
# GULP energy per Si atom -12396.465946 kJ/mol
# Density = 1.937502 g / cm^3
# Si number density = 19.419224 Si / 1000 Ang^3
#
#
#
# Elastic Constant Matrix: (Units=GPa)
#
#
# Indices 1 2 3 4 5 6 
#
# 1 86.5841 23.2958 24.3986 0.0000 -21.8342 0.0000
# 2 23.2958 86.6341 21.9411 0.0000 5.8691 0.0000
# 3 24.3986 21.9411 121.6615 0.0000 -5.8067 0.0000
# 4 0.0000 0.0000 0.0000 16.3842 0.0000 -6.9915
# 5 -21.8342 5.8691 -5.8067 0.0000 43.8333 0.0000
# 6 0.0000 0.0000 0.0000 -6.9915 0.0000 17.7459
#
#
#
# Elastic Compliance Matrix: (Units=1/GPa)
#
#
# Indices 1 2 3 4 5 6 
#
# 1 0.015185 -0.004128 -0.001926 0.000000 0.007862 0.000000
# 2 -0.004128 0.013380 -0.001780 0.000000 -0.004084 0.000000
# 3 -0.001926 -0.001780 0.008949 0.000000 0.000465 0.000000
# 4 0.000000 0.000000 0.000000 0.073369 0.000000 0.028906
# 5 0.007862 -0.004084 0.000465 0.000000 0.027338 0.000000
# 6 0.000000 0.000000 0.000000 0.028906 0.000000 0.067739
#
#
# Mechanical properties :
#
#
# Convention : Reuss Voigt Hill
#
# Bulk Modulus (GPa) = 45.77347 48.23897 47.00622
# Shear Modulus (GPa) = 21.84253 30.60895 26.22574
#
# Velocity S-wave (km/s) = 3.35743 3.97447 3.67891
# Velocity P-wave (km/s) = 6.21708 6.77913 6.50418
#
# Compressibility (1/GPa) = 0.02184671
#
# Stress axis : x y z
#
# Youngs Moduli (GPa) = 65.85310 74.73640 111.74552
#
# Poissons Ratio (x) = 0.30853 0.21518
# Poissons Ratio (y) = 0.27186 0.19892
# Poissons Ratio (z) = 0.12681 0.13304
#
# Static dielectric constant tensor:
#      x y z
#    x 3.743820 0.000000 -0.217930 
#    y 0.000000 3.470270 0.000000 
#    z -0.217930 0.000000 3.849860 
# 
# 
# High freq. dielectric constant tensor:
#      x y z
#    x 1.758310 0.000000 -0.008120 
#    y 0.000000 1.737390 0.000000 
#    z -0.008120 0.000000 1.779990 
# 
# From -- ./inp_files/189600.got.cif
#   From: 2010.06.25/outbox.cif.g09.slc.cpg/sg12_95_cif.got.tgz:189600.got - 2010.06.28 00:19:55.
