data_PCOD8108040
_publ_section_title
;
Structure prediction by ZEFSAII (Michael W. Deem and Ramdas Pophale) SiO2 
 PCOD8108040
Probable space group: C 2/M
;
_chemical_formula_sum "Si O2"
_cell_formula_units_Z 56
_cell_length_a 9.327247
_cell_length_b 21.713549
_cell_length_c 14.554365
_cell_angle_alpha 90.000000
_cell_angle_beta 113.759157
_cell_angle_gamma 90.000000
_cell_volume 2697.838293
_symmetry_space_group_name_H-M "C 2/M"
_symmetry_group_IT_number 12
_symmetry_cell_setting 'monoclinic'
loop_
_space_group_symop_operation_xyz
x,y,z
-x,y,-z
-x,-y,-z
x,-y,z
1/2+x,1/2+y,z
1/2-x,1/2+y,-z
1/2-x,1/2-y,-z
1/2+x,1/2-y,z
loop_
_atom_site_type_symbol
_atom_site_label
_atom_site_fract_x
_atom_site_fract_y
_atom_site_fract_z
Si Si1 0.663516 0.230132 0.069802
Si Si2 0.928600 0.856285 0.703243
Si Si3 0.442794 0.070385 0.202847
Si Si4 0.583466 0.118703 0.607212
Si Si5 0.374773 0.634330 0.893903
Si Si6 0.366678 0.772548 0.610721
Si Si7 0.745128 0.146393 0.254189
O O1 0.629462 0.292424 0.115365
O O2 0.757498 0.185525 0.162126
O O3 0.500000 0.197587 0.000000
O O4 0.750000 0.250000 0.000000
O O5 0.762328 0.875884 0.618398
O O6 0.928889 0.883346 0.806462
O O7 0.943957 0.782811 0.688776
O O8 0.083180 0.886255 0.695216
O O9 0.436421 0.074673 0.311174
O O10 0.295292 0.107369 0.122729
O O11 0.605207 0.097783 0.207392
O O12 0.431466 0.000000 0.168616
O O13 0.500000 0.086214 0.500000
O O14 0.510197 0.186733 0.607288
O O15 0.500000 0.609674 0.000000
O O16 0.250000 0.750000 0.500000
O O17 0.271363 0.813441 0.658736
#
# Coordination Sequence:
#
# PCOD8108040 Si02
#       7
#     8   8   8   8   8   8   8
#     4  11  21  34  58  88 124 155 191 243 312 378
#     4  11  21  34  57  89 127 157 201 248 311 378
#     4  10  24  44  63  85 122 170 217 260 308 367
#     4  10  21  38  59  87 121 166 213 258 308 369
#     4  10  21  39  62  91 121 155 205 256 315 376
#     4  11  21  35  55  89 132 167 197 245 316 382
#     4  11  23  36  59  90 128 166 202 256 312 374
#
# _framework density 20.757361
#
# number of rings (size 3 to 8) (size 9 to 14) (size 15 to 20)
#    0.000    1.429    2.857    3.429    4.000    0.571 
#    0.000    2.857    0.000   10.714    0.000    0.000 
#    0.000    0.000    0.000    0.000    0.000    0.000 
#
# Total GULP energy -347002.077163 kJ/mol
# GULP energy per Si atom -12392.931327 kJ/mol
# Density = 2.071012 g / cm^3
# Si number density = 20.757361 Si / 1000 Ang^3
#
#
#
# Elastic Constant Matrix: (Units=GPa)
#
#
# Indices 1 2 3 4 5 6 
#
# 1 162.7077 15.5337 43.9387 0.0000 30.0968 0.0000
# 2 15.5337 45.8630 13.7838 0.0000 11.6319 0.0000
# 3 43.9387 13.7838 118.2843 0.0000 17.0650 0.0000
# 4 0.0000 0.0000 0.0000 8.6728 0.0000 -0.0100
# 5 30.0968 11.6319 17.0650 0.0000 38.0740 0.0000
# 6 0.0000 0.0000 0.0000 -0.0100 0.0000 15.5379
#
#
#
# Elastic Compliance Matrix: (Units=1/GPa)
#
#
# Indices 1 2 3 4 5 6 
#
# 1 0.007683 -0.000734 -0.002058 0.000000 -0.004927 0.000000
# 2 -0.000734 0.024082 -0.001663 0.000000 -0.006031 0.000000
# 3 -0.002058 -0.001663 0.009734 0.000000 -0.002228 0.000000
# 4 0.000000 0.000000 0.000000 0.115303 0.000000 0.000074
# 5 -0.004927 -0.006031 -0.002228 0.000000 0.033000 0.000000
# 6 0.000000 0.000000 0.000000 0.000074 0.000000 0.064359
#
#
# Mechanical properties :
#
#
# Convention : Reuss Voigt Hill
#
# Bulk Modulus (GPa) = 30.68558 52.59637 41.64097
# Shear Modulus (GPa) = 18.25249 29.36352 23.80800
#
# Velocity S-wave (km/s) = 2.96856 3.76521 3.39036
# Velocity P-wave (km/s) = 5.15411 6.65553 5.95235
#
# Compressibility (1/GPa) = 0.03258859
#
# Stress axis : x y z
#
# Youngs Moduli (GPa) = 130.15608 41.52409 102.73435
#
# Poissons Ratio (x) = 0.03049 0.21139
# Poissons Ratio (y) = 0.09557 0.17089
# Poissons Ratio (z) = 0.26782 0.06907
#
# Static dielectric constant tensor:
#      x y z
#    x 3.983310 0.000000 0.102490 
#    y 0.000000 3.285500 0.000000 
#    z 0.102490 0.000000 3.918480 
# 
# 
# High freq. dielectric constant tensor:
#      x y z
#    x 1.831050 0.000000 0.009750 
#    y 0.000000 1.751710 0.000000 
#    z 0.009750 0.000000 1.823610 
# 
# From -- ./inp_files/198787.got.cif
#   From: 2010.06.25/outbox.cif.g09.slc.cpg/sg12_100_cif.got.tgz:198787.got - 2010.06.28 00:19:55.
