data_PCOD8108045
_publ_section_title
;
Structure prediction by ZEFSAII (Michael W. Deem and Ramdas Pophale) SiO2 
 PCOD8108045
Probable space group: C 2/M
;
_chemical_formula_sum "Si O2"
_cell_formula_units_Z 56
_cell_length_a 19.873419
_cell_length_b 11.606305
_cell_length_c 15.000875
_cell_angle_alpha 90.000000
_cell_angle_beta 120.649636
_cell_angle_gamma 90.000000
_cell_volume 2976.688876
_symmetry_space_group_name_H-M "C 2/M"
_symmetry_group_IT_number 12
_symmetry_cell_setting 'monoclinic'
loop_
_space_group_symop_operation_xyz
x,y,z
-x,y,-z
-x,-y,-z
x,-y,z
1/2+x,1/2+y,z
1/2-x,1/2+y,-z
1/2-x,1/2-y,-z
1/2+x,1/2-y,z
loop_
_atom_site_type_symbol
_atom_site_label
_atom_site_fract_x
_atom_site_fract_y
_atom_site_fract_z
Si Si1 0.581802 0.500000 0.670419
Si Si2 0.151481 0.232070 0.781120
Si Si3 0.093234 0.368097 0.903233
Si Si4 0.601664 0.500000 0.481074
Si Si5 0.911778 0.364299 0.424286
Si Si6 0.414015 0.866427 0.751236
Si Si7 0.339928 0.259471 0.538230
Si Si8 0.183951 0.367400 0.142547
O O1 0.606384 0.611692 0.742488
O O2 0.622374 0.500000 0.600354
O O3 0.489862 0.500000 0.596261
O O4 0.141889 0.281797 0.873663
O O5 0.114172 0.326504 0.690905
O O6 0.242772 0.215855 0.822557
O O7 0.108206 0.500000 0.883374
O O8 0.001969 0.337595 0.839101
O O9 0.120986 0.348290 0.022590
O O10 0.640371 0.392241 0.459618
O O11 0.906191 0.500000 0.429532
O O12 0.854598 0.307078 0.456561
O O13 0.000000 0.319869 0.500000
O O14 0.394036 0.792396 0.651536
O O15 0.356467 0.832188 0.792395
O O16 0.404427 0.000000 0.719696
O O17 0.250000 0.250000 0.500000
O O18 0.212804 0.500000 0.164173
#
# Coordination Sequence:
#
# PCOD8108045 Si02
#       8
#     4   8   8   4   8   8   8   8
#     4  11  22  38  62  83 117 158 199 235 279 353
#     4  12  21  36  59  89 118 151 193 241 290 345
#     4  10  21  38  61  87 114 148 193 244 295 348
#     4  11  24  40  58  85 117 161 200 232 283 351
#     4  11  23  39  60  85 118 155 194 239 291 348
#     4  10  21  38  62  85 115 152 193 239 294 346
#     4  12  25  38  59  87 123 153 195 242 286 346
#     4  10  21  38  59  88 115 147 192 245 297 342
#
# _framework density 18.812849
#
# number of rings (size 3 to 8) (size 9 to 14) (size 15 to 20)
#    0.000    1.143    2.143    5.143    2.000    4.000 
#    0.000    0.000    0.000    0.000    0.000    3.000 
#    0.000    0.000    0.000    0.000    0.000    0.000 
#
# Total GULP energy -347389.476129 kJ/mol
# GULP energy per Si atom -12406.767005 kJ/mol
# Density = 1.877003 g / cm^3
# Si number density = 18.812849 Si / 1000 Ang^3
#
#
#
# Elastic Constant Matrix: (Units=GPa)
#
#
# Indices 1 2 3 4 5 6 
#
# 1 89.2006 35.1984 -2.1067 0.0000 3.6080 0.0000
# 2 35.1984 89.1342 21.9045 0.0000 -2.6390 0.0000
# 3 -2.1067 21.9045 57.2791 0.0000 1.1241 0.0000
# 4 0.0000 0.0000 0.0000 23.3168 0.0000 -6.0582
# 5 3.6080 -2.6390 1.1241 0.0000 37.4183 0.0000
# 6 0.0000 0.0000 0.0000 -6.0582 0.0000 31.6831
#
#
#
# Elastic Compliance Matrix: (Units=1/GPa)
#
#
# Indices 1 2 3 4 5 6 
#
# 1 0.013813 -0.006229 0.002927 0.000000 -0.001859 0.000000
# 2 -0.006229 0.015230 -0.006090 0.000000 0.001858 0.000000
# 3 0.002927 -0.006090 0.019921 0.000000 -0.001310 0.000000
# 4 0.000000 0.000000 0.000000 0.045130 0.000000 0.008629
# 5 -0.001859 0.001858 -0.001310 0.000000 0.027075 0.000000
# 6 0.000000 0.000000 0.000000 0.008629 0.000000 0.033213
#
#
# Mechanical properties :
#
#
# Convention : Reuss Voigt Hill
#
# Bulk Modulus (GPa) = 33.13514 38.40070 35.76792
# Shear Modulus (GPa) = 27.28892 30.52484 28.90688
#
# Velocity S-wave (km/s) = 3.81274 4.03246 3.92414
# Velocity P-wave (km/s) = 6.08555 6.49132 6.29171
#
# Compressibility (1/GPa) = 0.03017944
#
# Stress axis : x y z
#
# Youngs Moduli (GPa) = 72.39622 65.65849 50.19928
#
# Poissons Ratio (x) = 0.40898 -0.14691
# Poissons Ratio (y) = 0.45094 0.30571
# Poissons Ratio (z) = -0.21187 0.39985
#
# Static dielectric constant tensor:
#      x y z
#    x 3.514340 0.000000 -0.031860 
#    y 0.000000 3.428300 0.000000 
#    z -0.031860 0.000000 3.522630 
# 
# 
# High freq. dielectric constant tensor:
#      x y z
#    x 1.740930 0.000000 0.003980 
#    y 0.000000 1.727430 0.000000 
#    z 0.003980 0.000000 1.740640 
# 
# From -- ./inp_files/223946.got.cif
#   From: 2010.06.25/outbox.cif.g09.slc.cpg/sg12_112_cif.got.tgz:223946.got - 2010.06.28 00:19:55.
