data_PCOD8108928
_publ_section_title
;
Structure prediction by ZEFSAII (Michael W. Deem and Ramdas Pophale) SiO2 
 PCOD8108928
Probable space group: C 2/M
;
_chemical_formula_sum "Si O2"
_cell_formula_units_Z 56
_cell_length_a 15.233347
_cell_length_b 8.828209
_cell_length_c 24.174493
_cell_angle_alpha 90.000000
_cell_angle_beta 117.424959
_cell_angle_gamma 90.000000
_cell_volume 2885.691269
_symmetry_space_group_name_H-M "C 2/M"
_symmetry_group_IT_number 12
_symmetry_cell_setting 'monoclinic'
loop_
_space_group_symop_operation_xyz
x,y,z
-x,y,-z
-x,-y,-z
x,-y,z
1/2+x,1/2+y,z
1/2-x,1/2+y,-z
1/2-x,1/2-y,-z
1/2+x,1/2-y,z
loop_
_atom_site_type_symbol
_atom_site_label
_atom_site_fract_x
_atom_site_fract_y
_atom_site_fract_z
Si Si1 0.808501 0.326314 0.870787
Si Si2 0.423263 0.179201 0.433251
Si Si3 0.980091 0.320866 0.650912
Si Si4 0.657994 0.321584 0.004054
Si Si5 0.895677 0.678286 0.207110
Si Si6 0.226593 0.820584 0.434167
Si Si7 0.987255 0.326598 0.117947
O O1 0.791192 0.500000 0.882893
O O2 0.708877 0.260027 0.816140
O O3 0.893999 0.310986 0.849252
O O4 0.844813 0.234781 0.934352
O O5 0.500000 0.249023 0.500000
O O6 0.453165 0.236960 0.381020
O O7 0.312389 0.230575 0.416286
O O8 0.431115 0.000000 0.437391
O O9 0.962276 0.500000 0.642989
O O10 0.035034 0.270781 0.722536
O O11 0.875061 0.239409 0.620124
O O12 0.669370 0.500000 0.007381
O O13 0.558095 0.274845 0.943890
O O14 0.750000 0.250000 0.000000
O O15 0.876759 0.500000 0.202424
O O16 0.948334 0.730822 0.165841
O O17 0.250000 0.750000 0.500000
O O18 0.222901 0.000000 0.439919
O O19 0.954546 0.500000 0.098454
#
# Coordination Sequence:
#
# PCOD8108928 Si02
#       7
#     8   8   8   8   8   8   8
#     4  11  23  39  61  87 119 157 196 243 296 345
#     4   9  17  33  57  82 113 149 184 227 286 347
#     4  10  21  39  60  84 115 154 196 237 287 345
#     4  12  23  37  61  91 119 152 196 247 299 349
#     4  10  22  40  61  83 115 159 199 238 288 350
#     4  11  21  35  58  86 114 148 187 235 292 346
#     4  10  22  40  60  86 121 158 195 242 298 347
#
# _framework density 19.406096000000002
#
# number of rings (size 3 to 8) (size 9 to 14) (size 15 to 20)
#    0.000    1.571    2.857    2.571    0.000    4.571 
#    0.000    2.143    0.000    0.000    0.000    0.000 
#    0.000    0.000    0.000    0.000    0.000    0.000 
#
# Total GULP energy -347282.569965 kJ/mol
# GULP energy per Si atom -12402.948927 kJ/mol
# Density = 1.936193 g / cm^3
# Si number density = 19.406096 Si / 1000 Ang^3
#
#
#
# Elastic Constant Matrix: (Units=GPa)
#
#
# Indices 1 2 3 4 5 6 
#
# 1 149.1870 41.3313 64.8269 0.0000 21.5800 0.0000
# 2 41.3313 77.3176 47.7110 0.0000 12.0248 0.0000
# 3 64.8269 47.7110 140.3582 0.0000 19.3735 0.0000
# 4 0.0000 0.0000 0.0000 25.6665 0.0000 8.6657
# 5 21.5800 12.0248 19.3735 0.0000 26.1516 0.0000
# 6 0.0000 0.0000 0.0000 8.6657 0.0000 29.5061
#
#
#
# Elastic Compliance Matrix: (Units=1/GPa)
#
#
# Indices 1 2 3 4 5 6 
#
# 1 0.009262 -0.002533 -0.002810 0.000000 -0.004396 0.000000
# 2 -0.002533 0.017404 -0.004378 0.000000 -0.002669 0.000000
# 3 -0.002810 -0.004378 0.010373 0.000000 -0.003353 0.000000
# 4 0.000000 0.000000 0.000000 0.043250 0.000000 -0.012702
# 5 -0.004396 -0.002669 -0.003353 0.000000 0.045578 0.000000
# 6 0.000000 0.000000 0.000000 -0.012702 0.000000 0.037622
#
#
# Mechanical properties :
#
#
# Convention : Reuss Voigt Hill
#
# Bulk Modulus (GPa) = 56.82518 74.95570 65.89044
# Shear Modulus (GPa) = 26.48359 30.46442 28.47400
#
# Velocity S-wave (km/s) = 3.69820 3.96642 3.83465
# Velocity P-wave (km/s) = 6.89792 7.72562 7.32347
#
# Compressibility (1/GPa) = 0.01759783
#
# Stress axis : x y z
#
# Youngs Moduli (GPa) = 107.97149 57.45666 96.40196
#
# Poissons Ratio (x) = 0.14556 0.27086
# Poissons Ratio (y) = 0.27354 0.42201
# Poissons Ratio (z) = 0.30337 0.25152
#
# Static dielectric constant tensor:
#      x y z
#    x 3.804740 0.000000 -0.042110 
#    y 0.000000 3.460350 0.000000 
#    z -0.042110 0.000000 3.611330 
# 
# 
# High freq. dielectric constant tensor:
#      x y z
#    x 1.773200 0.000000 0.001840 
#    y 0.000000 1.742170 0.000000 
#    z 0.001840 0.000000 1.751020 
# 
# From -- ./inp_files/338492.got.cif
#   From: 2010.06.25/outbox.cif.g09.slc.cpg/sg12_170_cif.got.tgz:338492.got - 2010.06.28 00:19:55.
