data_PCOD8108892
_publ_section_title
;
Structure prediction by ZEFSAII (Michael W. Deem and Ramdas Pophale) SiO2 
 PCOD8108892
Probable space group: C 2/M
;
_chemical_formula_sum "Si O2"
_cell_formula_units_Z 48
_cell_length_a 19.298267
_cell_length_b 17.441489
_cell_length_c 14.448111
_cell_angle_alpha 90.000000
_cell_angle_beta 148.885050
_cell_angle_gamma 90.000000
_cell_volume 2513.038162
_symmetry_space_group_name_H-M "C 2/M"
_symmetry_group_IT_number 12
_symmetry_cell_setting 'monoclinic'
loop_
_space_group_symop_operation_xyz
x,y,z
-x,y,-z
-x,-y,-z
x,-y,z
1/2+x,1/2+y,z
1/2-x,1/2+y,-z
1/2-x,1/2-y,-z
1/2+x,1/2-y,z
loop_
_atom_site_type_symbol
_atom_site_label
_atom_site_fract_x
_atom_site_fract_y
_atom_site_fract_z
Si Si1 0.108740 0.185072 0.550462
Si Si2 0.125312 0.365071 0.582241
Si Si3 0.144294 0.644332 0.400185
Si Si4 0.406129 0.587362 0.977929
Si Si5 0.140487 0.413505 0.198266
Si Si6 0.440396 0.691474 0.713148
O O1 0.144763 0.273725 0.605443
O O2 0.246076 0.138570 0.718383
O O3 0.047492 0.167989 0.380019
O O4 0.000000 0.156114 0.500000
O O5 0.099960 0.393471 0.447193
O O6 0.000000 0.391317 0.500000
O O7 0.252783 0.405249 0.773083
O O8 0.138285 0.586271 0.307785
O O9 0.297433 0.669583 0.593286
O O10 0.048044 0.716433 0.264916
O O11 0.433273 0.500000 0.042172
O O12 0.440049 0.647132 0.098461
O O13 0.500000 0.609102 0.000000
O O14 0.165308 0.500000 0.193247
O O15 0.000000 0.381764 0.000000
#
# Coordination Sequence:
#
# PCOD8108892 Si02
#       6
#     8   8   8   8   8   8
#     4   9  20  39  60  84 112 150 190 235 284 334
#     4  10  21  39  59  87 118 150 191 229 288 349
#     4   9  18  35  58  82 111 149 186 233 280 329
#     4  11  23  36  57  87 116 149 192 240 284 340
#     4  10  22  36  55  84 111 147 193 234 284 337
#     4   9  18  34  58  86 109 143 194 230 278 334
#
# _framework density 19.100387999999999
#
# number of rings (size 3 to 8) (size 9 to 14) (size 15 to 20)
#    0.000    2.333    1.667    1.000    2.333    4.000 
#    3.000    2.500    0.000    0.000    0.000    0.000 
#    0.000    0.000    0.000    0.000    0.000    0.000 
#
# Total GULP energy -297590.885568 kJ/mol
# GULP energy per Si atom -12399.620232 kJ/mol
# Density = 1.905691 g / cm^3
# Si number density = 19.100388 Si / 1000 Ang^3
#
#
#
# Elastic Constant Matrix: (Units=GPa)
#
#
# Indices 1 2 3 4 5 6 
#
# 1 123.2882 12.7758 34.1591 0.0000 15.7141 0.0000
# 2 12.7758 46.3617 27.3807 0.0000 1.4913 0.0000
# 3 34.1591 27.3807 92.6106 0.0000 6.3359 0.0000
# 4 0.0000 0.0000 0.0000 28.0249 0.0000 0.2427
# 5 15.7141 1.4913 6.3359 0.0000 26.8414 0.0000
# 6 0.0000 0.0000 0.0000 0.2427 0.0000 11.1294
#
#
#
# Elastic Compliance Matrix: (Units=1/GPa)
#
#
# Indices 1 2 3 4 5 6 
#
# 1 0.009643 -0.000723 -0.003008 0.000000 -0.004895 0.000000
# 2 -0.000723 0.026191 -0.007528 0.000000 0.000745 0.000000
# 3 -0.003008 -0.007528 0.014213 0.000000 -0.001176 0.000000
# 4 0.000000 0.000000 0.000000 0.035689 0.000000 -0.000778
# 5 -0.004895 0.000745 -0.001176 0.000000 0.040358 0.000000
# 6 0.000000 0.000000 0.000000 -0.000778 0.000000 0.089869
#
#
# Mechanical properties :
#
#
# Convention : Reuss Voigt Hill
#
# Bulk Modulus (GPa) = 36.32486 45.65462 40.98974
# Shear Modulus (GPa) = 20.18911 25.72881 22.95896
#
# Velocity S-wave (km/s) = 3.25468 3.67417 3.47077
# Velocity P-wave (km/s) = 5.76048 6.47717 6.12931
#
# Compressibility (1/GPa) = 0.02752936
#
# Stress axis : x y z
#
# Youngs Moduli (GPa) = 103.69719 38.18170 70.35592
#
# Poissons Ratio (x) = 0.02762 0.21164
# Poissons Ratio (y) = 0.07501 0.52961
# Poissons Ratio (z) = 0.31194 0.28741
#
# Static dielectric constant tensor:
#      x y z
#    x 3.590420 0.000000 -0.033650 
#    y 0.000000 3.324870 0.000000 
#    z -0.033650 0.000000 3.307250 
# 
# 
# High freq. dielectric constant tensor:
#      x y z
#    x 1.742490 0.000000 -0.006480 
#    y 0.000000 1.733110 0.000000 
#    z -0.006480 0.000000 1.729740 
# 
# From -- ./inp_files/77264.got.cif
#   From: 2010.06.25/outbox.cif.g09.slc.cpg/sg12_39_cif.got.tgz:77264.got - 2010.06.28 00:19:55.
