data_PCOD8108735
_publ_section_title
;
Structure prediction by ZEFSAII (Michael W. Deem and Ramdas Pophale) SiO2 
 PCOD8108735
Probable space group: C 2/M
;
_chemical_formula_sum "Si O2"
_cell_formula_units_Z 48
_cell_length_a 11.409080
_cell_length_b 23.103836
_cell_length_c 9.573464
_cell_angle_alpha 90.000000
_cell_angle_beta 67.934618
_cell_angle_gamma 90.000000
_cell_volume 2338.670989
_symmetry_space_group_name_H-M "C 2/M"
_symmetry_group_IT_number 12
_symmetry_cell_setting 'monoclinic'
loop_
_space_group_symop_operation_xyz
x,y,z
-x,y,-z
-x,-y,-z
x,-y,z
1/2+x,1/2+y,z
1/2-x,1/2+y,-z
1/2-x,1/2-y,-z
1/2+x,1/2-y,z
loop_
_atom_site_type_symbol
_atom_site_label
_atom_site_fract_x
_atom_site_fract_y
_atom_site_fract_z
Si Si1 0.755525 0.437812 0.324599
Si Si2 0.556174 0.151460 0.833865
Si Si3 0.313036 0.565701 0.329864
Si Si4 0.723870 0.266108 0.172279
Si Si5 0.041054 0.135205 0.320807
Si Si6 0.114327 0.659505 0.338783
O O1 0.793262 0.500000 0.246871
O O2 0.879705 0.399514 0.282238
O O3 0.697498 0.444006 0.502122
O O4 0.654392 0.410942 0.264416
O O5 0.652993 0.202768 0.820964
O O6 0.439457 0.170312 0.792029
O O7 0.500000 0.125251 0.000000
O O8 0.326807 0.500000 0.257093
O O9 0.434975 0.608278 0.263633
O O10 0.190979 0.599110 0.321269
O O11 0.596490 0.305285 0.233373
O O12 0.709803 0.214047 0.293435
O O13 0.750000 0.250000 0.000000
O O14 0.000000 0.146292 0.500000
O O15 0.000000 0.664147 0.500000
#
# Coordination Sequence:
#
# PCOD8108735 Si02
#       6
#     8   8   8   8   8   8
#     4   9  18  36  63  91 124 162 206 260 309 365
#     4  11  23  41  60  91 124 163 211 250 318 376
#     4  10  21  38  64  95 127 163 207 263 314 364
#     4  11  24  41  64  88 125 166 208 264 318 369
#     4   9  19  38  63  96 121 161 216 260 306 369
#     4  12  25  40  64  95 126 164 207 259 311 378
#
# _framework density 20.524477999999998
#
# number of rings (size 3 to 8) (size 9 to 14) (size 15 to 20)
#    0.000    1.667    3.333    1.000    2.333    4.000 
#    0.000    0.000    0.000    1.000    0.000    0.000 
#    0.000    0.000    0.000    0.000    0.000    0.000 
#
# Total GULP energy -297360.688679 kJ/mol
# GULP energy per Si atom -12390.028695 kJ/mol
# Density = 2.047776 g / cm^3
# Si number density = 20.524478 Si / 1000 Ang^3
#
#
#
# Elastic Constant Matrix: (Units=GPa)
#
#
# Indices 1 2 3 4 5 6 
#
# 1 102.5097 45.0622 21.6578 0.0000 2.6736 0.0000
# 2 45.0622 143.5522 30.5408 0.0000 -5.0600 0.0000
# 3 21.6578 30.5408 55.6068 0.0000 3.5215 0.0000
# 4 0.0000 0.0000 0.0000 15.1024 0.0000 12.8418
# 5 2.6736 -5.0600 3.5215 0.0000 24.3291 0.0000
# 6 0.0000 0.0000 0.0000 12.8418 0.0000 -5.5782
#
#
#
# Elastic Compliance Matrix: (Units=1/GPa)
#
#
# Indices 1 2 3 4 5 6 
#
# 1 0.011767 -0.003164 -0.002747 0.000000 -0.001554 0.000000
# 2 -0.003164 0.008867 -0.003811 0.000000 0.002744 0.000000
# 3 -0.002747 -0.003811 0.021374 0.000000 -0.003585 0.000000
# 4 0.000000 0.000000 0.000000 0.022388 0.000000 0.051541
# 5 -0.001554 0.002744 -0.003585 0.000000 0.042363 0.000000
# 6 0.000000 0.000000 0.000000 0.051541 0.000000 -0.060614
#
#
# Mechanical properties :
#
#
# Convention : Reuss Voigt Hill
#
# Bulk Modulus (GPa) = 44.32056 55.13226 49.72641
# Shear Modulus (GPa) = 68.38981 20.39783 44.39382
#
# Velocity S-wave (km/s) = 5.77871 3.15593 4.65582
# Velocity P-wave (km/s) = 8.13422 6.34034 7.29264
#
# Compressibility (1/GPa) = 0.02256289
#
# Stress axis : x y z
#
# Youngs Moduli (GPa) = 84.98383 112.77877 46.78683
#
# Poissons Ratio (x) = 0.35685 0.12851
# Poissons Ratio (y) = 0.26890 0.17832
# Poissons Ratio (z) = 0.23343 0.42984
#
# Static dielectric constant tensor:
#      x y z
#    x 3.792030 0.000000 -0.217720 
#    y 0.000000 4.070420 0.000000 
#    z -0.217720 0.000000 3.486080 
# 
# 
# High freq. dielectric constant tensor:
#      x y z
#    x 1.808460 0.000000 -0.013040 
#    y 0.000000 1.812870 0.000000 
#    z -0.013040 0.000000 1.776600 
# 
# From -- ./inp_files/51327.got.cif
#   From: 2010.06.25/outbox.cif.g09.slc.cpg/sg12_26_cif.got.tgz:51327.got - 2010.06.28 00:19:55.
