data_PCOD8108219
_publ_section_title
;
Structure prediction by ZEFSAII (Michael W. Deem and Ramdas Pophale) SiO2 
 PCOD8108219
Probable space group: C 2/M
;
_chemical_formula_sum "Si O2"
_cell_formula_units_Z 40
_cell_length_a 14.498818
_cell_length_b 8.454283
_cell_length_c 30.220295
_cell_angle_alpha 90.000000
_cell_angle_beta 147.218235
_cell_angle_gamma 90.000000
_cell_volume 2005.667551
_symmetry_space_group_name_H-M "C 2/M"
_symmetry_group_IT_number 12
_symmetry_cell_setting 'monoclinic'
loop_
_space_group_symop_operation_xyz
x,y,z
-x,y,-z
-x,-y,-z
x,-y,z
1/2+x,1/2+y,z
1/2-x,1/2+y,-z
1/2-x,1/2-y,-z
1/2+x,1/2-y,z
loop_
_atom_site_type_symbol
_atom_site_label
_atom_site_fract_x
_atom_site_fract_y
_atom_site_fract_z
Si Si1 0.772763 0.318701 0.303822
Si Si2 0.409653 0.315784 0.008721
Si Si3 0.522758 0.818329 0.870942
Si Si4 0.808064 0.182140 0.411721
Si Si5 0.385237 0.683090 0.588956
O O1 0.779983 0.500000 0.321948
O O2 0.607950 0.292363 0.207398
O O3 0.765642 0.206638 0.343508
O O4 0.939305 0.277615 0.342890
O O5 0.446722 0.500000 0.031818
O O6 0.208097 0.282495 0.925080
O O7 0.500000 0.257249 0.000000
O O8 0.487041 0.219389 0.080895
O O9 0.471243 0.000000 0.843298
O O10 0.683575 0.293413 0.389441
O O11 0.000000 0.234065 0.500000
O O12 0.778160 0.000000 0.412626
O O13 0.418146 0.500000 0.592012
O O14 0.250000 0.750000 0.500000
#
# Coordination Sequence:
#
# PCOD8108219 Si02
#       5
#     8   8   8   8   8
#     4  12  25  41  62  88 124 165 208 258 307 361
#     4   9  19  38  64  90 120 159 198 242 301 368
#     4  10  21  38  60  89 124 158 199 251 304 362
#     4  11  23  40  63  88 118 158 204 254 307 365
#     4  12  24  40  62  88 118 156 204 254 309 365
#
# _framework density 19.943484999999999
#
# number of rings (size 3 to 8) (size 9 to 14) (size 15 to 20)
#    0.000    1.200    2.000    4.800    0.000    3.600 
#    0.000    6.000    0.000    0.000    0.000    0.000 
#    0.000    0.000    0.000    0.000    0.000    0.000 
#
# Total GULP energy -248142.615308 kJ/mol
# GULP energy per Si atom -12407.130765 kJ/mol
# Density = 1.989809 g / cm^3
# Si number density = 19.943485 Si / 1000 Ang^3
#
#
#
# Elastic Constant Matrix: (Units=GPa)
#
#
# Indices 1 2 3 4 5 6 
#
# 1 138.7495 18.5584 45.4917 0.0000 -2.0901 0.0000
# 2 18.5584 77.3469 28.2039 0.0000 3.8830 0.0001
# 3 45.4917 28.2039 110.0085 0.0000 1.2767 0.0000
# 4 0.0000 0.0000 0.0000 30.0561 0.0000 -4.5908
# 5 -2.0901 3.8830 1.2767 0.0000 21.3357 0.0000
# 6 0.0000 0.0001 0.0000 -4.5908 0.0000 32.1402
#
#
#
# Elastic Compliance Matrix: (Units=1/GPa)
#
#
# Indices 1 2 3 4 5 6 
#
# 1 0.008414 -0.000887 -0.003266 0.000000 0.001181 0.000000
# 2 -0.000887 0.014477 -0.003315 0.000000 -0.002523 0.000000
# 3 -0.003266 -0.003315 0.011295 0.000000 -0.000392 0.000000
# 4 0.000000 0.000000 0.000000 0.034013 0.000000 0.004858
# 5 0.001181 -0.002523 -0.000392 0.000000 0.047468 0.000000
# 6 0.000000 0.000000 0.000000 0.004858 0.000000 0.031808
#
#
# Mechanical properties :
#
#
# Convention : Reuss Voigt Hill
#
# Bulk Modulus (GPa) = 51.94867 56.73475 54.34171
# Shear Modulus (GPa) = 29.61561 32.29648 30.95605
#
# Velocity S-wave (km/s) = 3.85772 4.02854 3.94406
# Velocity P-wave (km/s) = 6.77843 7.08155 6.93165
#
# Compressibility (1/GPa) = 0.01924977
#
# Stress axis : x y z
#
# Youngs Moduli (GPa) = 118.84267 69.07357 88.53251
#
# Poissons Ratio (x) = 0.06129 0.28913
# Poissons Ratio (y) = 0.10546 0.29352
# Poissons Ratio (z) = 0.38812 0.22901
#
# Static dielectric constant tensor:
#      x y z
#    x 3.702250 0.000000 0.076480 
#    y 0.000000 3.718850 0.000000 
#    z 0.076480 0.000000 3.647200 
# 
# 
# High freq. dielectric constant tensor:
#      x y z
#    x 1.786550 0.000000 0.000830 
#    y 0.000000 1.785670 0.000000 
#    z 0.000830 0.000000 1.773410 
# 
# From -- ./inp_files/211205.got.cif
#   From: 2010.06.25/outbox.cif.g09.slc.cpg/sg12_106_cif.got.tgz:211205.got - 2010.06.28 00:19:55.
