data_PCOD8108240
_publ_section_title
;
Structure prediction by ZEFSAII (Michael W. Deem and Ramdas Pophale) SiO2 
 PCOD8108240
Probable space group: C 2/M
;
_chemical_formula_sum "Si O2"
_cell_formula_units_Z 52
_cell_length_a 9.037071
_cell_length_b 26.381954
_cell_length_c 10.520339
_cell_angle_alpha 90.000000
_cell_angle_beta 94.546401
_cell_angle_gamma 90.000000
_cell_volume 2500.320669
_symmetry_space_group_name_H-M "C 2/M"
_symmetry_group_IT_number 12
_symmetry_cell_setting 'monoclinic'
loop_
_space_group_symop_operation_xyz
x,y,z
-x,y,-z
-x,-y,-z
x,-y,z
1/2+x,1/2+y,z
1/2-x,1/2+y,-z
1/2-x,1/2-y,-z
1/2+x,1/2-y,z
loop_
_atom_site_type_symbol
_atom_site_label
_atom_site_fract_x
_atom_site_fract_y
_atom_site_fract_z
Si Si1 0.330946 0.695797 0.284135
Si Si2 0.106404 0.440844 0.118918
Si Si3 0.954055 0.595662 0.353010
Si Si4 0.640233 0.558471 0.327802
Si Si5 0.999356 0.709462 0.355633
Si Si6 0.000000 0.130286 0.500000
Si Si7 0.911119 0.892450 0.119432
O O1 0.162127 0.704863 0.309612
O O2 0.406740 0.750429 0.265721
O O3 0.415450 0.665900 0.398595
O O4 0.346370 0.661692 0.159945
O O5 0.080038 0.500000 0.133322
O O6 0.080163 0.415507 0.256054
O O7 0.273922 0.430001 0.086581
O O8 0.000000 0.419059 0.000000
O O9 0.917028 0.655384 0.347845
O O10 0.000000 0.578904 0.500000
O O11 0.810288 0.564726 0.295092
O O12 0.605691 0.500000 0.354335
O O13 0.625252 0.593120 0.451587
O O14 0.523081 0.579293 0.220026
O O15 0.000000 0.729895 0.500000
O O16 0.000000 0.880321 0.000000
#
# Coordination Sequence:
#
# PCOD8108240 Si02
#       7
#     8   8   8   8   8   4   8
#     4  11  23  40  64  97 128 170 212 264 327 387
#     4  11  24  45  71  96 128 177 228 273 328 400
#     4  11  24  42  65 102 139 174 220 277 333 390
#     4  11  24  39  64  96 133 175 215 265 326 387
#     4  11  22  38  67  96 131 169 213 265 324 396
#     4  10  21  38  60  94 136 168 209 256 322 390
#     4  11  25  46  66  93 131 170 224 276 327 392
#
# _framework density 20.797332000000001
#
# number of rings (size 3 to 8) (size 9 to 14) (size 15 to 20)
#    0.000    1.077    2.308    4.385    6.462    3.692 
#    0.000    1.538    0.000    0.000    0.000    0.000 
#    0.000    0.000    0.000    0.000    0.000    0.000 
#
# Total GULP energy -322447.602458 kJ/mol
# GULP energy per Si atom -12401.830864 kJ/mol
# Density = 2.075000 g / cm^3
# Si number density = 20.797332 Si / 1000 Ang^3
#
#
#
# Elastic Constant Matrix: (Units=GPa)
#
#
# Indices 1 2 3 4 5 6 
#
# 1 126.2111 27.1777 37.9753 0.0000 -6.4634 0.0000
# 2 27.1777 104.9680 30.1638 0.0000 0.0830 0.0000
# 3 37.9753 30.1638 90.1784 0.0000 -15.2193 0.0000
# 4 0.0000 0.0000 0.0000 0.1413 0.0000 31.1885
# 5 -6.4634 0.0830 -15.2193 0.0000 36.0326 0.0000
# 6 0.0000 0.0000 0.0000 31.1885 0.0000 -15.1052
#
#
#
# Elastic Compliance Matrix: (Units=1/GPa)
#
#
# Indices 1 2 3 4 5 6 
#
# 1 0.009260 -0.001426 -0.003383 0.000000 0.000235 0.000000
# 2 -0.001426 0.010849 -0.003312 0.000000 -0.001680 0.000000
# 3 -0.003383 -0.003312 0.014558 0.000000 0.005550 0.000000
# 4 0.000000 0.000000 0.000000 0.015495 0.000000 0.031993
# 5 0.000235 -0.001680 0.005550 0.000000 0.030143 0.000000
# 6 0.000000 0.000000 0.000000 0.031993 0.000000 -0.000145
#
#
# Mechanical properties :
#
#
# Convention : Reuss Voigt Hill
#
# Bulk Modulus (GPa) = 54.27079 56.88788 55.57934
# Shear Modulus (GPa) = 48.75999 19.28312 34.02156
#
# Velocity S-wave (km/s) = 4.84729 3.04829 4.04897
# Velocity P-wave (km/s) = 7.58156 6.30890 6.97432
#
# Compressibility (1/GPa) = 0.01842612
#
# Stress axis : x y z
#
# Youngs Moduli (GPa) = 107.98931 92.17534 68.68979
#
# Poissons Ratio (x) = 0.13141 0.23238
# Poissons Ratio (y) = 0.15395 0.22750
# Poissons Ratio (z) = 0.36533 0.30528
#
# Static dielectric constant tensor:
#      x y z
#    x 3.822530 0.000000 -0.071890 
#    y 0.000000 3.973940 0.000000 
#    z -0.071890 0.000000 3.727620 
# 
# 
# High freq. dielectric constant tensor:
#      x y z
#    x 1.826780 0.000000 -0.008320 
#    y 0.000000 1.825430 0.000000 
#    z -0.008320 0.000000 1.797690 
# 
# From -- ./inp_files/123695.got.cif
#   From: 2010.06.25/outbox.cif.g09.slc.cpg/sg12_62_cif.got.tgz:123695.got - 2010.06.28 00:19:55.
