data_PCOD8108559
_publ_section_title
;
Structure prediction by ZEFSAII (Michael W. Deem and Ramdas Pophale) SiO2 
 PCOD8108559
Probable space group: C 2/M
;
_chemical_formula_sum "Si O2"
_cell_formula_units_Z 56
_cell_length_a 22.375985
_cell_length_b 10.987647
_cell_length_c 11.782629
_cell_angle_alpha 90.000000
_cell_angle_beta 109.551127
_cell_angle_gamma 90.000000
_cell_volume 2729.846249
_symmetry_space_group_name_H-M "C 2/M"
_symmetry_group_IT_number 12
_symmetry_cell_setting 'monoclinic'
loop_
_space_group_symop_operation_xyz
x,y,z
-x,y,-z
-x,-y,-z
x,-y,z
1/2+x,1/2+y,z
1/2-x,1/2+y,-z
1/2-x,1/2-y,-z
1/2+x,1/2-y,z
loop_
_atom_site_type_symbol
_atom_site_label
_atom_site_fract_x
_atom_site_fract_y
_atom_site_fract_z
Si Si1 0.420774 0.305759 0.208248
Si Si2 0.893915 0.137581 0.434639
Si Si3 0.151991 0.738184 0.182487
Si Si4 0.444362 0.865144 0.035178
Si Si5 0.439690 0.365886 0.701721
Si Si6 0.796411 0.137627 0.993607
Si Si7 0.752097 0.137615 0.414365
O O1 0.412095 0.282822 0.336611
O O2 0.433454 0.178154 0.156132
O O3 0.485598 0.380370 0.226360
O O4 0.359334 0.368064 0.112479
O O5 0.927013 0.192464 0.568555
O O6 0.818955 0.140648 0.396384
O O7 0.918098 0.000000 0.426891
O O8 0.097046 0.790356 0.227398
O O9 0.184958 0.843176 0.127051
O O10 0.200990 0.660336 0.285246
O O11 0.121043 0.644084 0.074801
O O12 0.468200 0.000000 0.067150
O O13 0.500000 0.794452 0.000000
O O14 0.408507 0.500000 0.680296
O O15 0.765980 0.000000 0.983766
O O16 0.750000 0.250000 0.000000
O O17 0.750000 0.250000 0.500000
O O18 0.741205 0.000000 0.460235
#
# Coordination Sequence:
#
# PCOD8108559 Si02
#       7
#     8   8   8   8   8   8   8
#     4  11  22  39  64  93 123 163 209 261 318 379
#     4  10  21  38  62  91 126 162 201 255 317 380
#     4  11  22  39  63  95 125 164 213 262 318 379
#     4  10  21  39  60  85 121 168 212 255 311 376
#     4  11  21  36  62  93 127 161 202 256 318 377
#     4  11  25  42  65  93 130 169 218 273 325 382
#     4  11  23  41  65  93 126 168 213 263 314 378
#
# _framework density 20.513974999999999
#
# number of rings (size 3 to 8) (size 9 to 14) (size 15 to 20)
#    0.000    1.286    2.857    3.429    0.000    5.714 
#    0.000    2.857    0.000    0.857    0.000    0.000 
#    0.000    0.000    0.000    0.000    0.000    0.000 
#
# Total GULP energy -346906.219851 kJ/mol
# GULP energy per Si atom -12389.507852 kJ/mol
# Density = 2.046728 g / cm^3
# Si number density = 20.513975 Si / 1000 Ang^3
#
#
#
# Elastic Constant Matrix: (Units=GPa)
#
#
# Indices 1 2 3 4 5 6 
#
# 1 109.5875 47.7844 56.0152 0.0000 -0.1821 0.0000
# 2 47.7844 118.0535 50.7900 0.0000 -14.2450 0.0000
# 3 56.0152 50.7900 125.7801 0.0000 -17.4112 0.0000
# 4 0.0000 0.0000 0.0000 16.3576 0.0000 -4.0575
# 5 -0.1821 -14.2450 -17.4112 0.0000 44.3250 0.0000
# 6 0.0000 0.0000 0.0000 -4.0575 0.0000 21.0768
#
#
#
# Elastic Compliance Matrix: (Units=1/GPa)
#
#
# Indices 1 2 3 4 5 6 
#
# 1 0.013158 -0.003616 -0.004815 0.000000 -0.002999 0.000000
# 2 -0.003616 0.011378 -0.002622 0.000000 0.002612 0.000000
# 3 -0.004815 -0.002622 0.011669 0.000000 0.003721 0.000000
# 4 0.000000 0.000000 0.000000 0.064199 0.000000 0.012359
# 5 -0.002999 0.002612 0.003721 0.000000 0.024849 0.000000
# 6 0.000000 0.000000 0.000000 0.012359 0.000000 0.049825
#
#
# Mechanical properties :
#
#
# Convention : Reuss Voigt Hill
#
# Bulk Modulus (GPa) = 70.93442 73.62227 72.27835
# Shear Modulus (GPa) = 24.76668 29.60730 27.18699
#
# Velocity S-wave (km/s) = 3.47840 3.80317 3.64440
# Velocity P-wave (km/s) = 7.12643 7.43318 7.28142
#
# Compressibility (1/GPa) = 0.01409753
#
# Stress axis : x y z
#
# Youngs Moduli (GPa) = 75.99884 87.88967 85.70042
#
# Poissons Ratio (x) = 0.31785 0.41262
# Poissons Ratio (y) = 0.27485 0.22473
# Poissons Ratio (z) = 0.36591 0.23047
#
# Static dielectric constant tensor:
#      x y z
#    x 3.855620 0.000000 0.047750 
#    y 0.000000 3.431540 0.000000 
#    z 0.047750 0.000000 3.904500 
# 
# 
# High freq. dielectric constant tensor:
#      x y z
#    x 1.813570 0.000000 0.003900 
#    y 0.000000 1.776420 0.000000 
#    z 0.003900 0.000000 1.812180 
# 
# From -- ./inp_files/165733.got.cif
#   From: 2010.06.25/outbox.cif.g09.slc.cpg/sg12_83_cif.got.tgz:165733.got - 2010.06.28 00:19:55.
