data_PCOD8108425
_publ_section_title
;
Structure prediction by ZEFSAII (Michael W. Deem and Ramdas Pophale) SiO2 
 PCOD8108425
Probable space group: C 2/M
;
_chemical_formula_sum "Si O2"
_cell_formula_units_Z 40
_cell_length_a 18.101573
_cell_length_b 28.935498
_cell_length_c 12.023810
_cell_angle_alpha 90.000000
_cell_angle_beta 163.260690
_cell_angle_gamma 90.000000
_cell_volume 1813.879426
_symmetry_space_group_name_H-M "C 2/M"
_symmetry_group_IT_number 12
_symmetry_cell_setting 'monoclinic'
loop_
_space_group_symop_operation_xyz
x,y,z
-x,y,-z
-x,-y,-z
x,-y,z
1/2+x,1/2+y,z
1/2-x,1/2+y,-z
1/2-x,1/2-y,-z
1/2+x,1/2-y,z
loop_
_atom_site_type_symbol
_atom_site_label
_atom_site_fract_x
_atom_site_fract_y
_atom_site_fract_z
Si Si1 0.673086 0.717718 0.992953
Si Si2 0.277173 0.551274 0.089234
Si Si3 0.925148 0.877943 0.609002
Si Si4 0.478934 0.877130 0.788689
Si Si5 0.797956 0.287065 0.415772
O O1 0.618316 0.665018 0.883920
O O2 0.397186 0.741981 0.626878
O O3 0.750000 0.750000 0.000000
O O4 0.857494 0.719147 0.368045
O O5 0.500000 0.547273 0.500000
O O6 0.184773 0.500000 0.920470
O O7 0.397678 0.577339 0.156572
O O8 0.033992 0.578880 0.789241
O O9 0.785478 0.885221 0.525689
O O10 0.717117 0.869520 0.213614
O O11 0.456803 0.831691 0.682089
O O12 0.500000 0.295775 0.000000
#
# Coordination Sequence:
#
# PCOD8108425 Si02
#       5
#     8   8   8   8   8
#     4  12  25  39  60  89 122 164 209 254 306 365
#     4   9  19  37  62  93 123 153 200 261 318 371
#     4  10  21  38  61  91 122 159 207 258 307 367
#     4  10  21  38  63  88 121 164 205 255 311 365
#     4  12  24  40  60  87 123 164 205 254 303 364
#
# _framework density 22.052181000000001
#
# number of rings (size 3 to 8) (size 9 to 14) (size 15 to 20)
#    0.000    1.400    2.000    3.600    2.800    4.000 
#    0.000    4.000    0.000    3.000    0.000    0.000 
#    0.000    0.000    0.000    0.000    0.000    0.000 
#
# Total GULP energy -247948.971717 kJ/mol
# GULP energy per Si atom -12397.448586 kJ/mol
# Density = 2.200199 g / cm^3
# Si number density = 22.052181 Si / 1000 Ang^3
#
#
#
# Elastic Constant Matrix: (Units=GPa)
#
#
# Indices 1 2 3 4 5 6 
#
# 1 122.2831 47.4952 24.2491 0.0014 8.8055 0.0004
# 2 47.4952 177.4504 34.5730 -0.0023 -1.3789 0.0002
# 3 24.2491 34.5730 36.1969 0.0053 -5.0514 -0.0009
# 4 0.0014 -0.0023 0.0053 27.3279 0.0031 2.5250
# 5 8.8055 -1.3789 -5.0514 0.0031 28.5377 -0.0001
# 6 0.0004 0.0002 -0.0009 2.5250 -0.0001 30.8451
#
#
#
# Elastic Compliance Matrix: (Units=1/GPa)
#
#
# Indices 1 2 3 4 5 6 
#
# 1 0.010301 -0.001633 -0.005943 0.000001 -0.004309 0.000000
# 2 -0.001633 0.007203 -0.005811 0.000002 -0.000177 0.000000
# 3 -0.005943 -0.005811 0.038321 -0.000009 0.008336 0.000002
# 4 0.000001 0.000002 -0.000009 0.036871 -0.000006 -0.003018
# 5 -0.004309 -0.000177 0.008336 -0.000006 0.037838 0.000001
# 6 0.000000 0.000000 0.000002 -0.003018 0.000001 0.032667
#
#
# Mechanical properties :
#
#
# Convention : Reuss Voigt Hill
#
# Bulk Modulus (GPa) = 34.42008 60.95168 47.68588
# Shear Modulus (GPa) = 25.04281 32.64967 28.84624
#
# Velocity S-wave (km/s) = 3.37355 3.85198 3.62068
# Velocity P-wave (km/s) = 5.55129 6.89082 6.25701
#
# Compressibility (1/GPa) = 0.02905281
#
# Stress axis : x y z
#
# Youngs Moduli (GPa) = 97.08171 138.82824 26.09518
#
# Poissons Ratio (x) = 0.22666 0.15507
# Poissons Ratio (y) = 0.15850 0.15164
# Poissons Ratio (z) = 0.57691 0.80672
#
# Static dielectric constant tensor:
#      x y z
#    x 4.422030 0.000000 0.268090 
#    y 0.000000 4.232470 -0.000010 
#    z 0.268090 -0.000010 4.444150 
# 
# 
# High freq. dielectric constant tensor:
#      x y z
#    x 1.884120 0.000000 0.018910 
#    y 0.000000 1.856810 0.000000 
#    z 0.018910 0.000000 1.869070 
# 
# From -- ./inp_files/161133.got.cif
#   From: 2010.06.25/outbox.cif.g09.slc.cpg/sg12_81_cif.got.tgz:161133.got - 2010.06.28 00:19:55.
