data_PCOD8108862
_publ_section_title
;
Structure prediction by ZEFSAII (Michael W. Deem and Ramdas Pophale) SiO2 
 PCOD8108862
Probable space group: C 2/M
;
_chemical_formula_sum "Si O2"
_cell_formula_units_Z 56
_cell_length_a 19.458307
_cell_length_b 9.154482
_cell_length_c 24.329344
_cell_angle_alpha 90.000000
_cell_angle_beta 136.617314
_cell_angle_gamma 90.000000
_cell_volume 2976.750653
_symmetry_space_group_name_H-M "C 2/M"
_symmetry_group_IT_number 12
_symmetry_cell_setting 'monoclinic'
loop_
_space_group_symop_operation_xyz
x,y,z
-x,y,-z
-x,-y,-z
x,-y,z
1/2+x,1/2+y,z
1/2-x,1/2+y,-z
1/2-x,1/2-y,-z
1/2+x,1/2-y,z
loop_
_atom_site_type_symbol
_atom_site_label
_atom_site_fract_x
_atom_site_fract_y
_atom_site_fract_z
Si Si1 0.464392 0.667454 0.683176
Si Si2 0.303574 0.669121 0.782060
Si Si3 0.997149 0.328855 0.934132
Si Si4 0.806715 0.172749 0.983993
Si Si5 0.332565 0.832056 0.197498
Si Si6 0.170780 0.169100 0.491324
Si Si7 0.229071 0.169722 0.362669
O O1 0.484602 0.500000 0.708669
O O2 0.565692 0.749174 0.755848
O O3 0.435525 0.688597 0.601715
O O4 0.375798 0.724663 0.671806
O O5 0.337271 0.500000 0.808820
O O6 0.393107 0.776443 0.848656
O O7 0.210104 0.705311 0.767110
O O8 0.268077 0.702782 0.699990
O O9 0.011617 0.500000 0.930814
O O10 0.082561 0.237940 0.953326
O O11 0.000000 0.293019 0.000000
O O12 0.751175 0.213085 0.895203
O O13 0.812512 0.000000 0.997503
O O14 0.750000 0.250000 0.000000
O O15 0.359954 0.000000 0.207653
O O16 0.250000 0.250000 0.500000
O O17 0.177211 0.243414 0.555305
O O18 0.199059 0.000000 0.512971
O O19 0.244085 0.000000 0.384764
#
# Coordination Sequence:
#
# PCOD8108862 Si02
#       7
#     8   8   8   8   8   8   8
#     4   9  19  34  54  81 111 143 181 225 278 329
#     4  10  21  39  59  81 112 150 190 231 279 335
#     4  11  23  39  60  86 113 148 192 233 281 340
#     4  11  24  41  60  84 115 150 191 238 286 336
#     4  10  22  38  56  80 111 147 187 229 278 333
#     4   9  17  32  54  81 111 144 182 225 274 330
#     4   9  19  35  57  84 109 141 185 230 276 332
#
# _framework density 18.812460000000002
#
# number of rings (size 3 to 8) (size 9 to 14) (size 15 to 20)
#    0.000    2.143    1.429    2.143    2.000    5.714 
#    0.000    0.714    0.000    4.286    0.000    0.000 
#    0.000    0.000    0.000    0.000    0.000    0.000 
#
# Total GULP energy -347185.673820 kJ/mol
# GULP energy per Si atom -12399.488351 kJ/mol
# Density = 1.876964 g / cm^3
# Si number density = 18.812460 Si / 1000 Ang^3
#
#
#
# Elastic Constant Matrix: (Units=GPa)
#
#
# Indices 1 2 3 4 5 6 
#
# 1 75.7613 24.2703 12.1641 0.0000 -15.2163 0.0000
# 2 24.2703 70.4245 26.0619 0.0000 -6.4380 0.0000
# 3 12.1641 26.0619 44.1693 0.0000 -16.1640 0.0000
# 4 0.0000 0.0000 0.0000 38.6506 0.0000 2.6242
# 5 -15.2163 -6.4380 -16.1640 0.0000 32.6636 0.0000
# 6 0.0000 0.0000 0.0000 2.6242 0.0000 26.9521
#
#
#
# Elastic Compliance Matrix: (Units=1/GPa)
#
#
# Indices 1 2 3 4 5 6 
#
# 1 0.016148 -0.005415 0.001356 0.000000 0.007126 0.000000
# 2 -0.005415 0.020102 -0.012020 0.000000 -0.004509 0.000000
# 3 0.001356 -0.012020 0.035075 0.000000 0.015620 0.000000
# 4 0.000000 0.000000 0.000000 0.026045 0.000000 -0.002536
# 5 0.007126 -0.004509 0.015620 0.000000 0.040776 0.000000
# 6 0.000000 0.000000 0.000000 -0.002536 0.000000 0.037350
#
#
# Mechanical properties :
#
#
# Convention : Reuss Voigt Hill
#
# Bulk Modulus (GPa) = 25.53179 35.03864 30.28521
# Shear Modulus (GPa) = 22.65432 28.17718 25.41575
#
# Velocity S-wave (km/s) = 3.47395 3.87433 3.67959
# Velocity P-wave (km/s) = 5.44907 6.21929 5.84688
#
# Compressibility (1/GPa) = 0.03916685
#
# Stress axis : x y z
#
# Youngs Moduli (GPa) = 61.92828 49.74677 28.51036
#
# Poissons Ratio (x) = 0.26940 -0.03866
# Poissons Ratio (y) = 0.33537 0.34268
# Poissons Ratio (z) = -0.08399 0.59794
#
# Static dielectric constant tensor:
#      x y z
#    x 3.479890 0.000000 -0.213800 
#    y 0.000000 3.524980 0.000000 
#    z -0.213800 0.000000 3.924960 
# 
# 
# High freq. dielectric constant tensor:
#      x y z
#    x 1.715840 0.000000 -0.010310 
#    y 0.000000 1.733870 0.000000 
#    z -0.010310 0.000000 1.737430 
# 
# From -- ./inp_files/342500.got.cif
#   From: 2010.06.25/outbox.cif.g09.slc.cpg/sg12_172_cif.got.tgz:342500.got - 2010.06.28 00:19:55.
