data_PCOD8108587
_publ_section_title
;
Structure prediction by ZEFSAII (Michael W. Deem and Ramdas Pophale) SiO2 
 PCOD8108587
Probable space group: C 2/M
;
_chemical_formula_sum "Si O2"
_cell_formula_units_Z 32
_cell_length_a 11.230892
_cell_length_b 15.771952
_cell_length_c 8.282397
_cell_angle_alpha 90.000000
_cell_angle_beta 65.889294
_cell_angle_gamma 90.000000
_cell_volume 1339.094802
_symmetry_space_group_name_H-M "C 2/M"
_symmetry_group_IT_number 12
_symmetry_cell_setting 'monoclinic'
loop_
_space_group_symop_operation_xyz
x,y,z
-x,y,-z
-x,-y,-z
x,-y,z
1/2+x,1/2+y,z
1/2-x,1/2+y,-z
1/2-x,1/2-y,-z
1/2+x,1/2-y,z
loop_
_atom_site_type_symbol
_atom_site_label
_atom_site_fract_x
_atom_site_fract_y
_atom_site_fract_z
Si Si1 0.331557 0.282417 0.807757
Si Si2 0.689488 0.833268 0.461047
Si Si3 0.461070 0.406080 0.335486
Si Si4 0.609476 0.900187 0.813246
O O1 0.369271 0.200002 0.676861
O O2 0.462064 0.330175 0.799406
O O3 0.247620 0.355412 0.765876
O O4 0.250000 0.250000 0.000000
O O5 0.750000 0.750000 0.500000
O O6 0.808121 0.900144 0.376822
O O7 0.579115 0.875063 0.641702
O O8 0.500000 0.390463 0.500000
O O9 0.506529 0.500000 0.255771
O O10 0.626435 0.000000 0.825173
O O11 0.500000 0.866488 0.000000
#
# Coordination Sequence:
#
# PCOD8108587 Si02
#       4
#     8   8   8   8
#     4  11  25  38  63  94 130 164 213 267 322 383
#     4  10  21  38  62  93 124 163 212 263 317 375
#     4  11  21  39  67  93 124 168 217 264 320 387
#     4  10  21  39  62  86 122 166 207 255 320 384
#
# _framework density 23.896739
#
# number of rings (size 3 to 8) (size 9 to 14) (size 15 to 20)
#    0.000    1.500    5.000    1.500    7.000    0.000 
#    0.000    6.250    0.000    3.000    0.000    0.000 
#    0.000    0.000    0.000    0.000    0.000    0.000 
#
# Total GULP energy -198213.288878 kJ/mol
# GULP energy per Si atom -12388.330555 kJ/mol
# Density = 2.384235 g / cm^3
# Si number density = 23.896739 Si / 1000 Ang^3
#
#
#
# Elastic Constant Matrix: (Units=GPa)
#
#
# Indices 1 2 3 4 5 6 
#
# 1 57.1730 36.0811 25.0384 0.0000 -18.6754 0.0000
# 2 36.0811 117.7805 63.6952 0.0000 -7.0185 0.0000
# 3 25.0384 63.6952 185.1699 0.0000 -19.0803 0.0000
# 4 0.0000 0.0000 0.0000 41.9520 0.0000 -13.7854
# 5 -18.6754 -7.0185 -19.0803 0.0000 27.8886 0.0000
# 6 0.0000 0.0000 0.0000 -13.7854 0.0000 32.3469
#
#
#
# Elastic Compliance Matrix: (Units=1/GPa)
#
#
# Indices 1 2 3 4 5 6 
#
# 1 0.027713 -0.007859 0.000715 0.000000 0.017069 0.000000
# 2 -0.007859 0.012660 -0.003772 0.000000 -0.004657 0.000000
# 3 0.000715 -0.003772 0.007050 0.000000 0.004353 0.000000
# 4 0.000000 0.000000 0.000000 0.027718 0.000000 0.011813
# 5 0.017069 -0.004657 0.004353 0.000000 0.049093 0.000000
# 6 0.000000 0.000000 0.000000 0.011813 0.000000 0.035949
#
#
# Mechanical properties :
#
#
# Convention : Reuss Voigt Hill
#
# Bulk Modulus (GPa) = 39.07703 67.75030 53.41367
# Shear Modulus (GPa) = 26.24027 36.12476 31.18252
#
# Velocity S-wave (km/s) = 3.31731 3.89228 3.61624
# Velocity P-wave (km/s) = 5.57321 6.97227 6.31163
#
# Compressibility (1/GPa) = 0.02559048
#
# Stress axis : x y z
#
# Youngs Moduli (GPa) = 36.08409 78.98642 141.84719
#
# Poissons Ratio (x) = 0.62077 -0.10141
# Poissons Ratio (y) = 0.28359 0.53507
# Poissons Ratio (z) = -0.02580 0.29795
#
# Static dielectric constant tensor:
#      x y z
#    x 2.927230 0.000000 -0.138670 
#    y 0.000000 4.524250 0.000000 
#    z -0.138670 0.000000 4.881840 
# 
# 
# High freq. dielectric constant tensor:
#      x y z
#    x 1.919360 0.000000 -0.022180 
#    y 0.000000 1.954740 0.000000 
#    z -0.022180 0.000000 1.942780 
# 
# From -- ./inp_files/46003.got.cif
#   From: 2010.06.25/outbox.cif.g09.slc.cpg/sg12_24_cif.got.tgz:46003.got - 2010.06.28 00:19:55.
