data_PCOD8108565
_publ_section_title
;
Structure prediction by ZEFSAII (Michael W. Deem and Ramdas Pophale) SiO2 
 PCOD8108565
Probable space group: C 2/M
;
_chemical_formula_sum "Si O2"
_cell_formula_units_Z 64
_cell_length_a 28.461498
_cell_length_b 14.326955
_cell_length_c 9.057288
_cell_angle_alpha 90.000000
_cell_angle_beta 61.726334
_cell_angle_gamma 90.000000
_cell_volume 3252.635799
_symmetry_space_group_name_H-M "C 2/M"
_symmetry_group_IT_number 12
_symmetry_cell_setting 'monoclinic'
loop_
_space_group_symop_operation_xyz
x,y,z
-x,y,-z
-x,-y,-z
x,-y,z
1/2+x,1/2+y,z
1/2-x,1/2+y,-z
1/2-x,1/2-y,-z
1/2+x,1/2-y,z
loop_
_atom_site_type_symbol
_atom_site_label
_atom_site_fract_x
_atom_site_fract_y
_atom_site_fract_z
Si Si1 0.556324 0.892546 0.628355
Si Si2 0.621935 0.743813 0.055974
Si Si3 0.005411 0.784062 0.320465
Si Si4 0.776107 0.336269 0.539160
Si Si5 0.856435 0.725778 0.652297
Si Si6 0.873740 0.603847 0.196791
Si Si7 0.165439 0.898063 0.775074
Si Si8 0.903385 0.111411 0.403651
O O1 0.504677 0.826594 0.691282
O O2 0.599462 0.852515 0.449418
O O3 0.577596 0.882866 0.762846
O O4 0.542462 0.000000 0.609613
O O5 0.564743 0.696762 0.174866
O O6 0.651962 0.774937 0.159946
O O7 0.616814 0.831159 0.956139
O O8 0.659139 0.667374 0.924886
O O9 0.964107 0.851351 0.293768
O O10 0.000000 0.809957 0.500000
O O11 0.750000 0.250000 0.500000
O O12 0.801702 0.303207 0.655476
O O13 0.818744 0.380585 0.365706
O O14 0.727926 0.407389 0.641723
O O15 0.876063 0.829537 0.575732
O O16 0.873098 0.500000 0.133555
O O17 0.129599 0.859665 0.693119
O O18 0.144163 0.000000 0.848386
O O19 0.901360 0.000000 0.438634
#
# Coordination Sequence:
#
# PCOD8108565 Si02
#       8
#     8   8   8   8   8   8   8   8
#     4   9  19  38  61  85 116 159 206 242 286 358
#     4  12  23  39  59  89 129 153 195 254 299 354
#     4  11  22  39  58  88 120 166 200 241 306 357
#     4  11  19  41  70  84 114 160 199 239 294 364
#     4  10  21  38  62  92 120 158 197 243 302 352
#     4  10  22  39  61  90 120 155 197 246 298 356
#     4  11  24  41  64  91 119 157 202 251 300 354
#     4  10  21  40  62  87 118 160 211 247 289 357
#
# _framework density 19.676348999999998
#
# number of rings (size 3 to 8) (size 9 to 14) (size 15 to 20)
#    0.000    1.500    5.000    1.875    0.000    5.500 
#    0.000    2.500    0.000    0.000    0.000    0.000 
#    0.000    0.000    0.000    0.000    0.000    0.000 
#
# Total GULP energy -396769.721142 kJ/mol
# GULP energy per Si atom -12399.053786 kJ/mol
# Density = 1.963156 g / cm^3
# Si number density = 19.676349 Si / 1000 Ang^3
#
#
#
# Elastic Constant Matrix: (Units=GPa)
#
#
# Indices 1 2 3 4 5 6 
#
# 1 96.2457 8.8307 29.6674 0.0000 2.7428 0.0000
# 2 8.8307 84.9320 22.1636 0.0000 9.2239 0.0000
# 3 29.6674 22.1636 99.0023 0.0000 13.8703 0.0000
# 4 0.0000 0.0000 0.0000 12.2858 0.0000 -0.6404
# 5 2.7428 9.2239 13.8703 0.0000 33.0647 0.0000
# 6 0.0000 0.0000 0.0000 -0.6404 0.0000 19.4107
#
#
#
# Elastic Compliance Matrix: (Units=1/GPa)
#
#
# Indices 1 2 3 4 5 6 
#
# 1 0.011466 -0.000359 -0.003438 0.000000 0.000591 0.000000
# 2 -0.000359 0.012707 -0.002385 0.000000 -0.002515 0.000000
# 3 -0.003438 -0.002385 0.012252 0.000000 -0.004189 0.000000
# 4 0.000000 0.000000 0.000000 0.081535 0.000000 0.002690
# 5 0.000591 -0.002515 -0.004189 0.000000 0.032653 0.000000
# 6 0.000000 0.000000 0.000000 0.002690 0.000000 0.051607
#
#
# Mechanical properties :
#
#
# Convention : Reuss Voigt Hill
#
# Bulk Modulus (GPa) = 41.56237 44.61149 43.08693
# Shear Modulus (GPa) = 22.46132 27.58679 25.02405
#
# Velocity S-wave (km/s) = 3.38233 3.74843 3.57008
# Velocity P-wave (km/s) = 6.03510 6.43865 6.24014
#
# Compressibility (1/GPa) = 0.02406023
#
# Stress axis : x y z
#
# Youngs Moduli (GPa) = 87.21402 78.69748 81.61994
#
# Poissons Ratio (x) = 0.02826 0.28064
# Poissons Ratio (y) = 0.03132 0.19464
# Poissons Ratio (z) = 0.29988 0.18768
#
# Static dielectric constant tensor:
#      x y z
#    x 4.587820 0.000000 -0.452500 
#    y 0.000000 3.394600 0.000000 
#    z -0.452500 0.000000 3.658630 
# 
# 
# High freq. dielectric constant tensor:
#      x y z
#    x 1.775410 0.000000 0.004560 
#    y 0.000000 1.771610 0.000000 
#    z 0.004560 0.000000 1.748010 
# 
# From -- ./inp_files/111613.got.cif
#   From: 2010.06.25/outbox.cif.g09.slc.cpg/sg12_56_cif.got.tgz:111613.got - 2010.06.28 00:19:55.
