data_PCOD8108670
_publ_section_title
;
Structure prediction by ZEFSAII (Michael W. Deem and Ramdas Pophale) SiO2 
 PCOD8108670
Probable space group: C 2/M
;
_chemical_formula_sum "Si O2"
_cell_formula_units_Z 56
_cell_length_a 30.857544
_cell_length_b 8.860961
_cell_length_c 22.929010
_cell_angle_alpha 90.000000
_cell_angle_beta 26.977731
_cell_angle_gamma 90.000000
_cell_volume 2844.086562
_symmetry_space_group_name_H-M "C 2/M"
_symmetry_group_IT_number 12
_symmetry_cell_setting 'monoclinic'
loop_
_space_group_symop_operation_xyz
x,y,z
-x,y,-z
-x,-y,-z
x,-y,z
1/2+x,1/2+y,z
1/2-x,1/2+y,-z
1/2-x,1/2-y,-z
1/2+x,1/2-y,z
loop_
_atom_site_type_symbol
_atom_site_label
_atom_site_fract_x
_atom_site_fract_y
_atom_site_fract_z
Si Si1 0.559951 0.327809 0.838831
Si Si2 0.770105 0.176675 0.280060
Si Si3 0.367667 0.822872 0.059498
Si Si4 0.614627 0.323542 0.201514
Si Si5 0.297400 0.323243 0.028117
Si Si6 0.150037 0.826492 0.607469
Si Si7 0.080842 0.677714 0.574652
O O1 0.532719 0.500000 0.886473
O O2 0.651625 0.276082 0.765758
O O3 0.582111 0.308991 0.744354
O O4 0.470268 0.223607 0.963246
O O5 0.785593 0.270978 0.202624
O O6 0.666921 0.222059 0.428514
O O7 0.775895 0.000000 0.258702
O O8 0.355756 0.738368 0.012702
O O9 0.361816 0.000000 0.056409
O O10 0.603548 0.500000 0.226003
O O11 0.695671 0.259747 0.147035
O O12 0.516242 0.241820 0.336359
O O13 0.640702 0.286913 0.103381
O O14 0.279073 0.500000 0.057039
O O15 0.250000 0.750000 0.500000
O O16 0.095703 0.749014 0.619900
O O17 0.169064 0.000000 0.569437
O O18 0.073777 0.500000 0.591220
#
# Coordination Sequence:
#
# PCOD8108670 Si02
#       7
#     8   8   8   8   8   8   8
#     4  10  21  39  59  81 113 157 199 236 287 349
#     4  10  22  41  59  78 113 160 201 237 282 347
#     4  12  25  38  57  87 116 148 195 249 293 335
#     4  10  21  38  63  94 121 148 185 237 292 342
#     4  10  21  40  64  88 117 154 190 231 287 350
#     4  11  21  35  56  84 117 152 191 237 287 339
#     4  11  22  38  59  87 119 157 197 234 287 350
#
# _framework density 19.689976999999999
#
# number of rings (size 3 to 8) (size 9 to 14) (size 15 to 20)
#    0.000    1.429    1.429    4.286    0.000    9.714 
#    0.000    0.714    0.000    4.286    0.000    0.000 
#    0.000    0.000    0.000    0.000    0.000    0.000 
#
# Total GULP energy -347384.971104 kJ/mol
# GULP energy per Si atom -12406.606111 kJ/mol
# Density = 1.964516 g / cm^3
# Si number density = 19.689977 Si / 1000 Ang^3
#
#
#
# Elastic Constant Matrix: (Units=GPa)
#
#
# Indices 1 2 3 4 5 6 
#
# 1 54.6802 26.1767 32.5648 -0.0009 -9.8541 -0.0007
# 2 26.1767 86.1505 47.6097 0.0014 -0.1313 0.0042
# 3 32.5648 47.6097 108.3047 -0.0033 -16.2402 0.0013
# 4 -0.0009 0.0014 -0.0033 33.3797 0.0013 -3.1042
# 5 -9.8541 -0.1313 -16.2402 0.0013 30.6640 -0.0022
# 6 -0.0007 0.0042 0.0013 -3.1042 -0.0022 36.5577
#
#
#
# Elastic Compliance Matrix: (Units=1/GPa)
#
#
# Indices 1 2 3 4 5 6 
#
# 1 0.024206 -0.004993 -0.004258 0.000000 0.005502 0.000002
# 2 -0.004993 0.016783 -0.006633 -0.000001 -0.005046 -0.000002
# 3 -0.004258 -0.006633 0.014360 0.000001 0.006209 0.000001
# 4 0.000000 -0.000001 0.000001 0.030197 0.000000 0.002564
# 5 0.005502 -0.005046 0.006209 0.000000 0.037646 0.000003
# 6 0.000002 -0.000002 0.000001 0.002564 0.000003 0.027572
#
#
# Mechanical properties :
#
#
# Convention : Reuss Voigt Hill
#
# Bulk Modulus (GPa) = 42.40789 51.31529 46.86159
# Shear Modulus (GPa) = 26.26159 29.63923 27.95041
#
# Velocity S-wave (km/s) = 3.65602 3.88402 3.77175
# Velocity P-wave (km/s) = 6.27746 6.79944 6.54366
#
# Compressibility (1/GPa) = 0.02358052
#
# Stress axis : x y z
#
# Youngs Moduli (GPa) = 41.31184 59.58573 69.63719
#
# Poissons Ratio (x) = 0.29754 0.29652
# Poissons Ratio (y) = 0.20629 0.46188
# Poissons Ratio (z) = 0.17591 0.39521
#
# Static dielectric constant tensor:
#      x y z
#    x 3.565200 -0.000020 -0.051110 
#    y -0.000020 3.554590 0.000030 
#    z -0.051110 0.000030 3.629940 
# 
# 
# High freq. dielectric constant tensor:
#      x y z
#    x 1.762070 0.000000 -0.006930 
#    y 0.000000 1.772250 0.000000 
#    z -0.006930 0.000000 1.771880 
# 
# From -- ./inp_files/329441.got.cif
#   From: 2010.06.25/outbox.cif.g09.slc.cpg/sg12_165_cif.got.tgz:329441.got - 2010.06.28 00:19:55.
