data_PCOD8108710
_publ_section_title
;
Structure prediction by ZEFSAII (Michael W. Deem and Ramdas Pophale) SiO2 
 PCOD8108710
Probable space group: C 2/M
;
_chemical_formula_sum "Si O2"
_cell_formula_units_Z 64
_cell_length_a 28.185159
_cell_length_b 8.673966
_cell_length_c 13.032369
_cell_angle_alpha 90.000000
_cell_angle_beta 86.698577
_cell_angle_gamma 90.000000
_cell_volume 3180.828200
_symmetry_space_group_name_H-M "C 2/M"
_symmetry_group_IT_number 12
_symmetry_cell_setting 'monoclinic'
loop_
_space_group_symop_operation_xyz
x,y,z
-x,y,-z
-x,-y,-z
x,-y,z
1/2+x,1/2+y,z
1/2-x,1/2+y,-z
1/2-x,1/2-y,-z
1/2+x,1/2-y,z
loop_
_atom_site_type_symbol
_atom_site_label
_atom_site_fract_x
_atom_site_fract_y
_atom_site_fract_z
Si Si1 0.778496 0.181910 0.901676
Si Si2 0.296786 0.819809 0.446019
Si Si3 0.885615 0.317530 0.124700
Si Si4 0.897266 0.680371 0.513595
Si Si5 0.557310 0.816688 0.282876
Si Si6 0.551523 0.182659 0.693861
Si Si7 0.705239 0.681798 0.772260
Si Si8 0.886890 0.818395 0.912660
O O1 0.755731 0.247271 0.799733
O O2 0.833085 0.234790 0.896479
O O3 0.773673 0.000000 0.904953
O O4 0.750000 0.250000 0.000000
O O5 0.250000 0.750000 0.500000
O O6 0.341028 0.785084 0.515397
O O7 0.309035 0.742590 0.336996
O O8 0.289631 0.000000 0.429277
O O9 0.878320 0.500000 0.131399
O O10 0.921247 0.257001 0.208431
O O11 0.834919 0.233979 0.142635
O O12 0.906178 0.267556 0.011959
O O13 0.907803 0.500000 0.511071
O O14 0.917447 0.747637 0.617280
O O15 0.924221 0.753532 0.411685
O O16 0.502755 0.764128 0.294679
O O17 0.580255 0.732198 0.184350
O O18 0.562896 0.000000 0.269989
O O19 0.555446 0.000000 0.690000
O O20 0.709854 0.500000 0.770653
O O21 0.890484 0.000000 0.929177
#
# Coordination Sequence:
#
# PCOD8108710 Si02
#       8
#     8   8   8   8   8   8   8   8
#     4  11  23  39  61  87 118 159 202 247 296 357
#     4  11  23  40  60  90 127 163 202 249 307 364
#     4  11  21  38  65  91 121 159 206 258 306 362
#     4   9  18  36  63  93 121 153 199 253 303 358
#     4  10  21  38  64  92 120 158 204 254 308 364
#     4   9  18  36  64  95 119 150 202 260 309 361
#     4  12  24  39  60  89 122 161 206 250 305 370
#     4  11  25  42  58  86 127 163 201 250 308 369
#
# _framework density 20.120546999999998
#
# number of rings (size 3 to 8) (size 9 to 14) (size 15 to 20)
#    0.000    1.500    2.500    3.000    1.750    3.500 
#    0.000    4.375    0.000    0.750    0.000    0.000 
#    0.000    0.000    0.000    0.000    0.000    0.000 
#
# Total GULP energy -396919.711749 kJ/mol
# GULP energy per Si atom -12403.740992 kJ/mol
# Density = 2.007475 g / cm^3
# Si number density = 20.120547 Si / 1000 Ang^3
#
#
#
# Elastic Constant Matrix: (Units=GPa)
#
#
# Indices 1 2 3 4 5 6 
#
# 1 119.5018 33.2151 61.2396 0.0000 -2.2994 0.0000
# 2 33.2151 67.4767 25.4284 0.0000 1.2396 0.0000
# 3 61.2396 25.4284 142.8105 0.0000 5.2667 0.0000
# 4 0.0000 0.0000 0.0000 27.6248 0.0000 -3.3562
# 5 -2.2994 1.2396 5.2667 0.0000 38.1776 0.0000
# 6 0.0000 0.0000 0.0000 -3.3562 0.0000 23.8995
#
#
#
# Elastic Compliance Matrix: (Units=1/GPa)
#
#
# Indices 1 2 3 4 5 6 
#
# 1 0.011798 -0.004188 -0.004367 0.000000 0.001449 0.000000
# 2 -0.004188 0.017373 -0.001274 0.000000 -0.000641 0.000000
# 3 -0.004367 -0.001274 0.009156 0.000000 -0.001485 0.000000
# 4 0.000000 0.000000 0.000000 0.036828 0.000000 0.005172
# 5 0.001449 -0.000641 -0.001485 0.000000 0.026506 0.000000
# 6 0.000000 0.000000 0.000000 0.005172 0.000000 0.042568
#
#
# Mechanical properties :
#
#
# Convention : Reuss Voigt Hill
#
# Bulk Modulus (GPa) = 53.56260 63.28392 58.42326
# Shear Modulus (GPa) = 29.39255 31.93411 30.66333
#
# Velocity S-wave (km/s) = 3.82622 3.98821 3.90805
# Velocity P-wave (km/s) = 6.79695 7.26144 7.03303
#
# Compressibility (1/GPa) = 0.01866974
#
# Stress axis : x y z
#
# Youngs Moduli (GPa) = 84.76058 57.55899 109.21309
#
# Poissons Ratio (x) = 0.24108 0.47691
# Poissons Ratio (y) = 0.35502 0.13911
# Poissons Ratio (z) = 0.37013 0.07332
#
# Static dielectric constant tensor:
#      x y z
#    x 3.792800 0.000000 0.167030 
#    y 0.000000 3.422160 0.000000 
#    z 0.167030 0.000000 3.903780 
# 
# 
# High freq. dielectric constant tensor:
#      x y z
#    x 1.791750 0.000000 0.007920 
#    y 0.000000 1.763520 0.000000 
#    z 0.007920 0.000000 1.799050 
# 
# From -- ./inp_files/187582.got.cif
#   From: 2010.06.25/outbox.cif.g09.slc.cpg/sg12_94_cif.got.tgz:187582.got - 2010.06.28 00:19:55.
