data_PCOD8108956
_publ_section_title
;
Structure prediction by ZEFSAII (Michael W. Deem and Ramdas Pophale) SiO2 
 PCOD8108956
Probable space group: C 2/M
;
_chemical_formula_sum "Si O2"
_cell_formula_units_Z 64
_cell_length_a 29.299234
_cell_length_b 17.353620
_cell_length_c 9.305190
_cell_angle_alpha 90.000000
_cell_angle_beta 42.426386
_cell_angle_gamma 90.000000
_cell_volume 3191.870197
_symmetry_space_group_name_H-M "C 2/M"
_symmetry_group_IT_number 12
_symmetry_cell_setting 'monoclinic'
loop_
_space_group_symop_operation_xyz
x,y,z
-x,y,-z
-x,-y,-z
x,-y,z
1/2+x,1/2+y,z
1/2-x,1/2+y,-z
1/2-x,1/2-y,-z
1/2+x,1/2-y,z
loop_
_atom_site_type_symbol
_atom_site_label
_atom_site_fract_x
_atom_site_fract_y
_atom_site_fract_z
Si Si1 0.219382 0.326281 0.225781
Si Si2 0.686196 0.657775 0.249545
Si Si3 0.654798 0.337055 0.863627
Si Si4 0.099988 0.410642 0.637585
Si Si5 0.270061 0.411526 0.562059
Si Si6 0.627784 0.832526 0.862796
Si Si7 0.020697 0.590292 0.294172
Si Si8 0.578270 0.589759 0.294657
O O1 0.177763 0.246758 0.314876
O O2 0.280430 0.313776 0.193443
O O3 0.170541 0.393537 0.394155
O O4 0.247740 0.351450 0.004953
O O5 0.696167 0.603336 0.362755
O O6 0.618304 0.633457 0.326699
O O7 0.674672 0.393436 0.688035
O O8 0.622980 0.259489 0.872794
O O9 0.599201 0.379931 0.089280
O O10 0.098362 0.500000 0.682972
O O11 0.091995 0.362518 0.801701
O O12 0.038889 0.387889 0.676074
O O13 0.247617 0.500000 0.602186
O O14 0.205403 0.358010 0.687867
O O15 0.588807 0.865528 0.091813
O O16 0.036545 0.500000 0.257754
O O17 0.000000 0.619171 0.500000
O O18 0.500000 0.607149 0.500000
O O19 0.595716 0.500000 0.263964
#
# Coordination Sequence:
#
# PCOD8108956 Si02
#       8
#     8   8   8   8   8   8   8   8
#     4  10  21  39  60  89 126 161 206 254 308 367
#     4  10  22  38  62  91 125 159 199 262 313 364
#     4  11  23  41  64  92 127 160 205 255 310 372
#     4  11  23  39  62  88 124 171 213 251 302 366
#     4  12  23  37  62  95 126 161 205 257 311 366
#     4  12  23  39  62  89 125 167 207 252 309 368
#     4  10  24  42  60  88 127 167 212 258 299 360
#     4  10  23  45  69  91 121 163 208 255 313 377
#
# _framework density 20.050941000000002
#
# number of rings (size 3 to 8) (size 9 to 14) (size 15 to 20)
#    0.000    1.250    2.500    3.375    1.750    5.000 
#    0.000    1.875    0.000    2.250    0.000    0.000 
#    0.000    0.000    0.000    0.000    0.000    0.000 
#
# Total GULP energy -397040.094747 kJ/mol
# GULP energy per Si atom -12407.502961 kJ/mol
# Density = 2.000530 g / cm^3
# Si number density = 20.050941 Si / 1000 Ang^3
#
#
#
# Elastic Constant Matrix: (Units=GPa)
#
#
# Indices 1 2 3 4 5 6 
#
# 1 82.6273 35.9075 39.1313 0.0000 13.5593 0.0000
# 2 35.9075 86.5118 37.6514 0.0000 -0.5772 0.0000
# 3 39.1313 37.6514 125.1055 0.0000 10.1850 0.0000
# 4 0.0000 0.0000 0.0000 32.1559 0.0000 0.3075
# 5 13.5593 -0.5772 10.1850 0.0000 35.3997 0.0000
# 6 0.0000 0.0000 0.0000 0.3075 0.0000 24.3126
#
#
#
# Elastic Compliance Matrix: (Units=1/GPa)
#
#
# Indices 1 2 3 4 5 6 
#
# 1 0.017016 -0.005738 -0.003130 0.000000 -0.005711 0.000000
# 2 -0.005738 0.015305 -0.003083 0.000000 0.003334 0.000000
# 3 -0.003130 -0.003083 0.010042 0.000000 -0.001740 0.000000
# 4 0.000000 0.000000 0.000000 0.031102 0.000000 -0.000393
# 5 -0.005711 0.003334 -0.001740 0.000000 0.030991 0.000000
# 6 0.000000 0.000000 0.000000 -0.000393 0.000000 0.041136
#
#
# Mechanical properties :
#
#
# Convention : Reuss Voigt Hill
#
# Bulk Modulus (GPa) = 54.17220 57.73612 55.95416
# Shear Modulus (GPa) = 28.46603 30.47727 29.47165
#
# Velocity S-wave (km/s) = 3.77196 3.90294 3.83801
# Velocity P-wave (km/s) = 6.78573 7.01197 6.89978
#
# Compressibility (1/GPa) = 0.01845965
#
# Stress axis : x y z
#
# Youngs Moduli (GPa) = 58.76861 65.33933 99.58312
#
# Poissons Ratio (x) = 0.37493 0.31174
# Poissons Ratio (y) = 0.33723 0.30698
# Poissons Ratio (z) = 0.18397 0.20142
#
# Static dielectric constant tensor:
#      x y z
#    x 3.602910 0.000000 0.199440 
#    y 0.000000 3.586910 0.000000 
#    z 0.199440 0.000000 3.805220 
# 
# 
# High freq. dielectric constant tensor:
#      x y z
#    x 1.780330 0.000000 0.013300 
#    y 0.000000 1.784210 0.000000 
#    z 0.013300 0.000000 1.791920 
# 
# From -- ./inp_files/112825.got.cif
#   From: 2010.06.25/outbox.cif.g09.slc.cpg/sg12_57_cif.got.tgz:112825.got - 2010.06.28 00:19:55.
