data_PCOD8108829
_publ_section_title
;
Structure prediction by ZEFSAII (Michael W. Deem and Ramdas Pophale) SiO2 
 PCOD8108829
Probable space group: C 2/M
;
_chemical_formula_sum "Si O2"
_cell_formula_units_Z 56
_cell_length_a 14.057302
_cell_length_b 14.211462
_cell_length_c 18.186985
_cell_angle_alpha 90.000000
_cell_angle_beta 52.085022
_cell_angle_gamma 90.000000
_cell_volume 2866.396867
_symmetry_space_group_name_H-M "C 2/M"
_symmetry_group_IT_number 12
_symmetry_cell_setting 'monoclinic'
loop_
_space_group_symop_operation_xyz
x,y,z
-x,y,-z
-x,-y,-z
x,-y,z
1/2+x,1/2+y,z
1/2-x,1/2+y,-z
1/2-x,1/2-y,-z
1/2+x,1/2-y,z
loop_
_atom_site_type_symbol
_atom_site_label
_atom_site_fract_x
_atom_site_fract_y
_atom_site_fract_z
Si Si1 0.667155 0.247148 0.609879
Si Si2 0.550402 0.887182 0.291082
Si Si3 0.704808 0.742685 0.297521
Si Si4 0.103864 0.891544 0.108915
Si Si5 0.263033 0.891731 0.909368
Si Si6 0.582820 0.711240 0.898495
Si Si7 0.538438 0.391855 0.300934
O O1 0.750000 0.250000 0.500000
O O2 0.583747 0.154051 0.645347
O O3 0.753364 0.242651 0.638936
O O4 0.589887 0.342446 0.649315
O O5 0.633390 0.840731 0.315618
O O6 0.612959 0.850593 0.184226
O O7 0.546800 0.000000 0.303491
O O8 0.816643 0.724049 0.188316
O O9 0.612856 0.655869 0.331272
O O10 0.992494 0.831045 0.132899
O O11 0.117609 0.878614 0.189268
O O12 0.078846 0.000000 0.100282
O O13 0.228451 0.857566 0.008770
O O14 0.148621 0.872308 0.911551
O O15 0.289679 0.000000 0.897174
O O16 0.500000 0.764843 0.000000
O O17 0.514733 0.500000 0.331555
#
# Coordination Sequence:
#
# PCOD8108829 Si02
#       7
#     8   8   8   8   8   8   8
#     4  11  24  42  61  83 112 148 192 241 288 334
#     4   9  20  38  60  86 115 148 187 231 286 339
#     4  10  21  39  57  84 117 148 185 240 282 331
#     4   9  15  27  51  81 114 148 185 226 272 334
#     4   8  14  26  48  81 115 147 182 225 275 331
#     4   9  15  27  49  82 112 149 184 225 274 333
#     4  10  22  39  59  85 115 152 191 230 283 341
#
# _framework density 19.536722000000001
#
# number of rings (size 3 to 8) (size 9 to 14) (size 15 to 20)
#    0.000    2.571    1.429    0.429    0.000    6.286 
#    2.571    4.286    0.000    0.429    0.000    0.000 
#    0.000    0.000    0.000    0.000    0.000    0.000 
#
# Total GULP energy -346906.346142 kJ/mol
# GULP energy per Si atom -12389.512362 kJ/mol
# Density = 1.949226 g / cm^3
# Si number density = 19.536722 Si / 1000 Ang^3
#
#
#
# Elastic Constant Matrix: (Units=GPa)
#
#
# Indices 1 2 3 4 5 6 
#
# 1 107.2498 45.3238 53.1444 0.0000 9.8142 0.0000
# 2 45.3238 103.6249 36.1718 0.0000 2.5634 0.0000
# 3 53.1444 36.1718 129.9380 0.0000 1.1038 0.0000
# 4 0.0000 0.0000 0.0000 18.5553 0.0000 -5.8505
# 5 9.8142 2.5634 1.1038 0.0000 21.6294 0.0000
# 6 0.0000 0.0000 0.0000 -5.8505 0.0000 18.1912
#
#
#
# Elastic Compliance Matrix: (Units=1/GPa)
#
#
# Indices 1 2 3 4 5 6 
#
# 1 0.013870 -0.004392 -0.004403 0.000000 -0.005548 0.000000
# 2 -0.004392 0.012107 -0.001579 0.000000 0.000639 0.000000
# 3 -0.004403 -0.001579 0.009922 0.000000 0.001679 0.000000
# 4 0.000000 0.000000 0.000000 0.059975 0.000000 0.019289
# 5 -0.005548 0.000639 0.001679 0.000000 0.048590 0.000000
# 6 0.000000 0.000000 0.000000 0.019289 0.000000 0.061175
#
#
# Mechanical properties :
#
#
# Convention : Reuss Voigt Hill
#
# Bulk Modulus (GPa) = 66.00733 67.78808 66.89770
# Shear Modulus (GPa) = 21.60426 25.42002 23.51214
#
# Velocity S-wave (km/s) = 3.32901 3.61105 3.47289
# Velocity P-wave (km/s) = 6.97395 7.22214 7.09913
#
# Compressibility (1/GPa) = 0.01514983
#
# Stress axis : x y z
#
# Youngs Moduli (GPa) = 72.10053 82.59867 100.78524
#
# Poissons Ratio (x) = 0.36279 0.44374
# Poissons Ratio (y) = 0.31668 0.15917
# Poissons Ratio (z) = 0.31744 0.13045
#
# Static dielectric constant tensor:
#      x y z
#    x 3.361590 0.000000 -0.100720 
#    y 0.000000 3.359910 0.000000 
#    z -0.100720 0.000000 3.813770 
# 
# 
# High freq. dielectric constant tensor:
#      x y z
#    x 1.746660 0.000000 -0.005520 
#    y 0.000000 1.740060 0.000000 
#    z -0.005520 0.000000 1.766400 
# 
# From -- ./inp_files/263214.got.cif
#   From: 2010.06.25/outbox.cif.g09.slc.cpg/sg12_132_cif.got.tgz:263214.got - 2010.06.28 00:19:55.
