data_PCOD8108128
_publ_section_title
;
Structure prediction by ZEFSAII (Michael W. Deem and Ramdas Pophale) SiO2 
 PCOD8108128
Probable space group: C 2/M
;
_chemical_formula_sum "Si O2"
_cell_formula_units_Z 56
_cell_length_a 18.321738
_cell_length_b 8.659773
_cell_length_c 18.001281
_cell_angle_alpha 90.000000
_cell_angle_beta 93.255787
_cell_angle_gamma 90.000000
_cell_volume 2851.510951
_symmetry_space_group_name_H-M "C 2/M"
_symmetry_group_IT_number 12
_symmetry_cell_setting 'monoclinic'
loop_
_space_group_symop_operation_xyz
x,y,z
-x,y,-z
-x,-y,-z
x,-y,z
1/2+x,1/2+y,z
1/2-x,1/2+y,-z
1/2-x,1/2-y,-z
1/2+x,1/2-y,z
loop_
_atom_site_type_symbol
_atom_site_label
_atom_site_fract_x
_atom_site_fract_y
_atom_site_fract_z
Si Si1 0.660521 0.820740 0.561648
Si Si2 0.582284 0.318115 0.693899
Si Si3 0.329850 0.680641 0.005530
Si Si4 0.928776 0.319610 0.718657
Si Si5 0.656415 0.181757 0.141423
Si Si6 0.179557 0.181811 0.833528
Si Si7 0.672097 0.678530 0.407180
O O1 0.603065 0.769330 0.620055
O O2 0.643703 0.722438 0.487248
O O3 0.741974 0.786445 0.595353
O O4 0.649947 0.000000 0.541995
O O5 0.593864 0.500000 0.684017
O O6 0.498461 0.284514 0.706344
O O7 0.631742 0.248808 0.763699
O O8 0.326056 0.500000 0.992293
O O9 0.374726 0.753879 0.939239
O O10 0.250000 0.750000 0.000000
O O11 0.361064 0.719670 0.089891
O O12 0.948997 0.500000 0.718020
O O13 0.898635 0.267857 0.797191
O O14 0.866672 0.286831 0.654682
O O15 0.737746 0.249857 0.163229
O O16 0.661779 0.000000 0.134966
O O17 0.184430 0.000000 0.822787
O O18 0.653765 0.500000 0.390930
#
# Coordination Sequence:
#
# PCOD8108128 Si02
#       7
#     8   8   8   8   8   8   8
#     4  10  21  38  60  86 113 139 174 221 271 320
#     4  11  22  37  56  78 109 147 186 224 267 322
#     4   9  16  29  51  79 107 135 174 222 271 320
#     4  11  23  38  55  78 112 148 182 224 273 321
#     4   9  18  34  55  78 105 139 179 222 271 323
#     4   8  16  32  54  78 103 136 177 220 267 318
#     4  10  21  38  61  87 111 139 179 221 265 322
#
# _framework density 19.638712000000002
#
# number of rings (size 3 to 8) (size 9 to 14) (size 15 to 20)
#    0.000    2.286    0.000    3.857    0.000    4.571 
#    0.000   12.143    0.000    4.286    0.000    0.000 
#    0.000    0.000    0.000    0.000    0.000    0.000 
#
# Total GULP energy -347150.582684 kJ/mol
# GULP energy per Si atom -12398.235096 kJ/mol
# Density = 1.959401 g / cm^3
# Si number density = 19.638712 Si / 1000 Ang^3
#
#
#
# Elastic Constant Matrix: (Units=GPa)
#
#
# Indices 1 2 3 4 5 6 
#
# 1 45.6122 18.0099 29.8309 0.0000 -21.7161 0.0000
# 2 18.0099 32.3601 24.2972 0.0000 -3.7740 0.0000
# 3 29.8309 24.2972 120.1717 0.0000 -26.7125 0.0000
# 4 0.0000 0.0000 0.0000 31.6023 0.0000 0.3631
# 5 -21.7161 -3.7740 -26.7125 0.0000 21.7097 0.0000
# 6 0.0000 0.0000 0.0000 0.3631 0.0000 21.8156
#
#
#
# Elastic Compliance Matrix: (Units=1/GPa)
#
#
# Indices 1 2 3 4 5 6 
#
# 1 0.058604 -0.029075 0.004457 0.000000 0.059051 0.000000
# 2 -0.029075 0.051083 -0.010464 0.000000 -0.033079 0.000000
# 3 0.004457 -0.010464 0.013651 0.000000 0.019437 0.000000
# 4 0.000000 0.000000 0.000000 0.031649 0.000000 -0.000527
# 5 0.059051 -0.033079 0.019437 0.000000 0.123296 0.000000
# 6 0.000000 0.000000 0.000000 -0.000527 0.000000 0.045847
#
#
# Mechanical properties :
#
#
# Convention : Reuss Voigt Hill
#
# Bulk Modulus (GPa) = 18.80621 38.04664 28.42643
# Shear Modulus (GPa) = 12.13540 23.42594 17.78067
#
# Velocity S-wave (km/s) = 2.48852 3.45751 3.01223
# Velocity P-wave (km/s) = 4.22538 5.94596 5.15792
#
# Compressibility (1/GPa) = 0.05317391
#
# Stress axis : x y z
#
# Youngs Moduli (GPa) = 17.06382 19.57609 73.25449
#
# Poissons Ratio (x) = 0.56918 -0.32653
# Poissons Ratio (y) = 0.49614 0.76651
# Poissons Ratio (z) = -0.07606 0.20484
#
# Static dielectric constant tensor:
#      x y z
#    x 3.358390 0.000000 0.014500 
#    y 0.000000 3.466160 0.000000 
#    z 0.014500 0.000000 4.044040 
# 
# 
# High freq. dielectric constant tensor:
#      x y z
#    x 1.735080 0.000000 -0.003930 
#    y 0.000000 1.758070 0.000000 
#    z -0.003930 0.000000 1.786400 
# 
# From -- ./inp_files/280214.got.cif
#   From: 2010.06.25/outbox.cif.g09.slc.cpg/sg12_141_cif.got.tgz:280214.got - 2010.06.28 00:19:55.
