data_PCOD8108218
_publ_section_title
;
Structure prediction by ZEFSAII (Michael W. Deem and Ramdas Pophale) SiO2 
 PCOD8108218
Probable space group: C 2/M
;
_chemical_formula_sum "Si O2"
_cell_formula_units_Z 40
_cell_length_a 14.676143
_cell_length_b 8.561775
_cell_length_c 30.112244
_cell_angle_alpha 90.000000
_cell_angle_beta 146.878164
_cell_angle_gamma 90.000000
_cell_volume 2067.504172
_symmetry_space_group_name_H-M "C 2/M"
_symmetry_group_IT_number 12
_symmetry_cell_setting 'monoclinic'
loop_
_space_group_symop_operation_xyz
x,y,z
-x,y,-z
-x,-y,-z
x,-y,z
1/2+x,1/2+y,z
1/2-x,1/2+y,-z
1/2-x,1/2-y,-z
1/2+x,1/2-y,z
loop_
_atom_site_type_symbol
_atom_site_label
_atom_site_fract_x
_atom_site_fract_y
_atom_site_fract_z
Si Si1 0.544674 0.183877 0.378829
Si Si2 0.716988 0.816628 0.201456
Si Si3 0.686560 0.679973 0.093441
Si Si4 0.869982 0.815256 0.086658
Si Si5 0.614375 0.184830 0.506401
O O1 0.373789 0.234244 0.287217
O O2 0.544905 0.242441 0.430212
O O3 0.695800 0.256287 0.411813
O O4 0.564501 0.000000 0.385093
O O5 0.707597 0.778673 0.146078
O O6 0.554255 0.750500 0.158421
O O7 0.729350 0.000000 0.213940
O O8 0.736230 0.500000 0.121610
O O9 0.809193 0.761028 0.109392
O O10 0.500000 0.693541 0.000000
O O11 0.872487 0.000000 0.083070
O O12 0.750000 0.750000 0.000000
O O13 0.500000 0.252935 0.500000
O O14 0.615246 0.000000 0.509834
#
# Coordination Sequence:
#
# PCOD8108218 Si02
#       5
#     8   8   8   8   8
#     4  10  21  38  60  89 124 158 198 251 306 361
#     4  12  25  41  62  88 124 165 208 257 306 362
#     4  11  23  40  63  88 117 155 203 257 309 365
#     4  12  24  40  62  88 119 158 205 253 307 364
#     4   9  19  38  64  90 120 158 199 243 300 367
#
# _framework density 19.347000000000001
#
# number of rings (size 3 to 8) (size 9 to 14) (size 15 to 20)
#    0.000    1.200    2.000    4.800    0.000    3.600 
#    0.000    6.000    0.000    0.000    0.000    0.000 
#    0.000    0.000    0.000    0.000    0.000    0.000 
#
# Total GULP energy -248068.656049 kJ/mol
# GULP energy per Si atom -12403.432802 kJ/mol
# Density = 1.930297 g / cm^3
# Si number density = 19.347000 Si / 1000 Ang^3
#
#
#
# Elastic Constant Matrix: (Units=GPa)
#
#
# Indices 1 2 3 4 5 6 
#
# 1 162.6347 6.4469 30.6319 0.0000 19.8003 0.0000
# 2 6.4469 -91.7436 -52.2783 0.0000 -5.2393 0.0000
# 3 30.6319 -52.2783 69.9114 0.0000 18.2354 0.0000
# 4 0.0000 0.0000 0.0000 40.7877 0.0000 2.1560
# 5 19.8003 -5.2393 18.2354 0.0000 28.4236 0.0000
# 6 0.0000 0.0000 0.0000 2.1560 0.0000 34.5152
#
#
#
# Elastic Compliance Matrix: (Units=1/GPa)
#
#
# Indices 1 2 3 4 5 6 
#
# 1 0.006754 0.001270 -0.001013 0.000000 -0.003821 0.000000
# 2 0.001270 -0.007234 -0.006470 0.000000 0.001933 0.000000
# 3 -0.001013 -0.006470 0.012053 0.000000 -0.008220 0.000000
# 4 0.000000 0.000000 0.000000 0.024598 0.000000 -0.001537
# 5 -0.003821 0.001933 -0.008220 0.000000 0.043474 0.000000
# 6 0.000000 0.000000 0.000000 -0.001537 0.000000 0.029069
#
#
# Mechanical properties :
#
#
# Convention : Reuss Voigt Hill
#
# Bulk Modulus (GPa) = -1173.05592 12.26707 -580.39443
# Shear Modulus (GPa) = 41.37127 31.14542 36.25835
#
# Velocity S-wave (km/s) = 4.62928 4.01662 4.33379
# Velocity P-wave (km/s) = 24.06381 5.27876 16.60123
#
# Compressibility (1/GPa) = -0.00085247
#
# Stress axis : x y z
#
# Youngs Moduli (GPa) = 148.05120 -138.23308 82.96369
#
# Poissons Ratio (x) = 0.17557 0.08404
# Poissons Ratio (y) = -0.18804 0.53679
# Poissons Ratio (z) = 0.14998 -0.89439
#
# Static dielectric constant tensor:
#      x y z
#    x 3.851990 0.000000 0.012320 
#    y 0.000000 3.675770 0.000000 
#    z 0.012320 0.000000 3.543270 
# 
# 
# High freq. dielectric constant tensor:
#      x y z
#    x 1.768850 0.000000 0.004050 
#    y 0.000000 1.765430 0.000000 
#    z 0.004050 0.000000 1.754400 
# 
# From -- ./inp_files/211189.got.cif
#   From: 2010.06.25/outbox.cif.g09.slc.cpg/sg12_106_cif.got.tgz:211189.got - 2010.06.28 00:19:55.
