data_PCOD8108370
_publ_section_title
;
Structure prediction by ZEFSAII (Michael W. Deem and Ramdas Pophale) SiO2 
 PCOD8108370
Probable space group: C 2/M
;
_chemical_formula_sum "Si O2"
_cell_formula_units_Z 56
_cell_length_a 18.352349
_cell_length_b 9.204075
_cell_length_c 16.825140
_cell_angle_alpha 90.000000
_cell_angle_beta 82.112279
_cell_angle_gamma 90.000000
_cell_volume 2815.153167
_symmetry_space_group_name_H-M "C 2/M"
_symmetry_group_IT_number 12
_symmetry_cell_setting 'monoclinic'
loop_
_space_group_symop_operation_xyz
x,y,z
-x,y,-z
-x,-y,-z
x,-y,z
1/2+x,1/2+y,z
1/2-x,1/2+y,-z
1/2-x,1/2-y,-z
1/2+x,1/2-y,z
loop_
_atom_site_type_symbol
_atom_site_label
_atom_site_fract_x
_atom_site_fract_y
_atom_site_fract_z
Si Si1 0.542245 0.167621 0.274392
Si Si2 0.873762 0.669675 0.304462
Si Si3 0.652776 0.828867 0.123081
Si Si4 0.416032 0.331785 0.011101
Si Si5 0.679852 0.663145 0.536204
Si Si6 0.942476 0.162016 0.569555
Si Si7 0.309642 0.667857 0.169700
O O1 0.457583 0.195235 0.264386
O O2 0.593070 0.226687 0.195905
O O3 0.566454 0.247074 0.350156
O O4 0.558585 0.000000 0.287327
O O5 0.855805 0.500000 0.318905
O O6 0.863818 0.752662 0.388723
O O7 0.819619 0.734557 0.246325
O O8 0.634355 0.753339 0.043208
O O9 0.734446 0.782868 0.138056
O O10 0.647362 0.000000 0.110452
O O11 0.415494 0.500000 0.986604
O O12 0.500000 0.272409 0.000000
O O13 0.379427 0.306941 0.102293
O O14 0.698917 0.500000 0.563002
O O15 0.750000 0.750000 0.500000
O O16 0.635053 0.654806 0.461719
O O17 0.000000 0.236350 0.500000
O O18 0.971121 0.000000 0.587581
O O19 0.304045 0.500000 0.196626
#
# Coordination Sequence:
#
# PCOD8108370 Si02
#       7
#     8   8   8   8   8   8   8
#     4  10  22  38  58  85 117 153 196 244 294 350
#     4  11  23  39  59  86 117 154 200 243 292 352
#     4  10  22  39  59  87 118 152 193 238 294 351
#     4  10  21  38  61  89 118 153 196 239 290 349
#     4  11  24  41  61  86 119 155 196 245 297 352
#     4  10  21  39  61  86 114 151 198 244 293 347
#     4  10  22  39  59  85 120 156 194 242 295 351
#
# _framework density 19.892346
#
# number of rings (size 3 to 8) (size 9 to 14) (size 15 to 20)
#    0.000    1.714    1.429    2.143    2.000    4.000 
#    0.000    0.000    0.000    0.000    0.000    0.000 
#    0.000    0.000    0.000    0.000    0.000    0.000 
#
# Total GULP energy -347296.292003 kJ/mol
# GULP energy per Si atom -12403.439000 kJ/mol
# Density = 1.984707 g / cm^3
# Si number density = 19.892346 Si / 1000 Ang^3
#
#
#
# Elastic Constant Matrix: (Units=GPa)
#
#
# Indices 1 2 3 4 5 6 
#
# 1 97.5992 35.0484 15.9048 0.0000 2.1895 0.0000
# 2 35.0484 81.6932 35.4335 0.0000 9.2781 0.0000
# 3 15.9048 35.4335 65.8995 0.0000 8.7604 0.0000
# 4 0.0000 0.0000 0.0000 35.6039 0.0000 6.4838
# 5 2.1895 9.2781 8.7604 0.0000 41.3846 0.0000
# 6 0.0000 0.0000 0.0000 6.4838 0.0000 31.2906
#
#
#
# Elastic Compliance Matrix: (Units=1/GPa)
#
#
# Indices 1 2 3 4 5 6 
#
# 1 0.012126 -0.005170 -0.000222 0.000000 0.000565 0.000000
# 2 -0.005170 0.018302 -0.008318 0.000000 -0.002069 0.000000
# 3 -0.000222 -0.008318 0.020014 0.000000 -0.002360 0.000000
# 4 0.000000 0.000000 0.000000 0.029188 0.000000 -0.006048
# 5 0.000565 -0.002069 -0.002360 0.000000 0.025097 0.000000
# 6 0.000000 0.000000 0.000000 -0.006048 0.000000 0.033212
#
#
# Mechanical properties :
#
#
# Convention : Reuss Voigt Hill
#
# Bulk Modulus (GPa) = 43.43555 46.44056 44.93805
# Shear Modulus (GPa) = 28.89616 32.24284 30.56950
#
# Velocity S-wave (km/s) = 3.81547 4.03037 3.92439
# Velocity P-wave (km/s) = 6.42597 6.71231 6.57070
#
# Compressibility (1/GPa) = 0.02302262
#
# Stress axis : x y z
#
# Youngs Moduli (GPa) = 82.46642 54.63917 49.96431
#
# Poissons Ratio (x) = 0.28251 0.01107
# Poissons Ratio (y) = 0.42639 0.41560
# Poissons Ratio (z) = 0.01827 0.45448
#
# Static dielectric constant tensor:
#      x y z
#    x 3.745410 0.000000 -0.267620 
#    y 0.000000 3.699150 0.000000 
#    z -0.267620 0.000000 3.556440 
# 
# 
# High freq. dielectric constant tensor:
#      x y z
#    x 1.786360 0.000000 -0.004400 
#    y 0.000000 1.771920 0.000000 
#    z -0.004400 0.000000 1.779870 
# 
# From -- ./inp_files/275266.got.cif
#   From: 2010.06.25/outbox.cif.g09.slc.cpg/sg12_138_cif.got.tgz:275266.got - 2010.06.28 00:19:55.
