data_PCOD8108847
_publ_section_title
;
Structure prediction by ZEFSAII (Michael W. Deem and Ramdas Pophale) SiO2 
 PCOD8108847
Probable space group: C 2/M
;
_chemical_formula_sum "Si O2"
_cell_formula_units_Z 64
_cell_length_a 14.512781
_cell_length_b 17.857967
_cell_length_c 17.130705
_cell_angle_alpha 90.000000
_cell_angle_beta 129.904404
_cell_angle_gamma 90.000000
_cell_volume 3405.797697
_symmetry_space_group_name_H-M "C 2/M"
_symmetry_group_IT_number 12
_symmetry_cell_setting 'monoclinic'
loop_
_space_group_symop_operation_xyz
x,y,z
-x,y,-z
-x,-y,-z
x,-y,z
1/2+x,1/2+y,z
1/2-x,1/2+y,-z
1/2-x,1/2-y,-z
1/2+x,1/2-y,z
loop_
_atom_site_type_symbol
_atom_site_label
_atom_site_fract_x
_atom_site_fract_y
_atom_site_fract_z
Si Si1 0.775332 0.412037 0.258722
Si Si2 0.623270 0.088247 0.269643
Si Si3 0.148812 0.720192 0.387742
Si Si4 0.066213 0.284611 0.614686
Si Si5 0.420793 0.689871 0.798818
Si Si6 0.276486 0.810436 0.795840
Si Si7 0.797731 0.176747 0.066577
Si Si8 0.650462 0.912687 0.871123
O O1 0.795858 0.500000 0.281506
O O2 0.871994 0.366240 0.362929
O O3 0.641458 0.389151 0.212547
O O4 0.794271 0.382838 0.180060
O O5 0.683498 0.138255 0.371189
O O6 0.685791 0.109718 0.221479
O O7 0.484891 0.116505 0.189494
O O8 0.638606 0.000000 0.295298
O O9 0.250000 0.750000 0.500000
O O10 0.134136 0.781124 0.312046
O O11 0.023995 0.711039 0.363136
O O12 0.164931 0.221961 0.686491
O O13 0.000000 0.260701 0.500000
O O14 0.387902 0.751696 0.847656
O O15 0.560347 0.673064 0.867070
O O16 0.240906 0.825064 0.864953
O O17 0.750000 0.250000 0.000000
O O18 0.735860 0.107554 0.989544
O O19 0.643737 0.000000 0.861594
#
# Coordination Sequence:
#
# PCOD8108847 Si02
#       8
#     8   8   8   8   8   8   8   8
#     4  10  21  39  58  84 121 155 195 245 296 357
#     4  10  21  40  62  86 119 157 199 248 297 353
#     4  11  20  37  62  89 117 152 196 246 300 352
#     4  11  20  36  61  88 116 151 193 244 299 351
#     4  10  22  37  56  85 120 156 194 248 301 345
#     4  10  22  37  57  87 119 154 198 249 297 347
#     4  12  22  36  58  86 120 157 207 248 297 352
#     4  10  22  38  59  84 117 158 199 245 298 348
#
# _framework density 18.791487
#
# number of rings (size 3 to 8) (size 9 to 14) (size 15 to 20)
#    0.000    1.500    2.500    5.250    0.000    4.750 
#    0.000    4.375    0.000    3.375    0.000    0.000 
#    0.000    0.000    0.000    0.000    0.000    0.000 
#
# Total GULP energy -396732.698721 kJ/mol
# GULP energy per Si atom -12397.896835 kJ/mol
# Density = 1.874872 g / cm^3
# Si number density = 18.791487 Si / 1000 Ang^3
#
#
#
# Elastic Constant Matrix: (Units=GPa)
#
#
# Indices 1 2 3 4 5 6 
#
# 1 144.6929 43.5461 52.1237 0.0000 -3.2602 0.0000
# 2 43.5461 81.3805 39.9043 0.0000 3.1294 0.0000
# 3 52.1237 39.9043 114.8018 0.0000 0.6278 0.0000
# 4 0.0000 0.0000 0.0000 27.0211 0.0000 -0.9250
# 5 -3.2602 3.1294 0.6278 0.0000 28.3975 0.0000
# 6 0.0000 0.0000 0.0000 -0.9250 0.0000 28.5790
#
#
#
# Elastic Compliance Matrix: (Units=1/GPa)
#
#
# Indices 1 2 3 4 5 6 
#
# 1 0.009034 -0.003467 -0.002905 0.000000 0.001483 0.000000
# 2 -0.003467 0.016209 -0.004049 0.000000 -0.002095 0.000000
# 3 -0.002905 -0.004049 0.011438 0.000000 -0.000140 0.000000
# 4 0.000000 0.000000 0.000000 0.037049 0.000000 0.001199
# 5 0.001483 -0.002095 -0.000140 0.000000 0.035619 0.000000
# 6 0.000000 0.000000 0.000000 0.001199 0.000000 0.035029
#
#
# Mechanical properties :
#
#
# Convention : Reuss Voigt Hill
#
# Bulk Modulus (GPa) = 63.13101 68.00262 65.56681
# Shear Modulus (GPa) = 29.32568 30.48626 29.90597
#
# Velocity S-wave (km/s) = 3.95471 4.03220 3.99364
# Velocity P-wave (km/s) = 7.38386 7.61215 7.49887
#
# Compressibility (1/GPa) = 0.01584008
#
# Stress axis : x y z
#
# Youngs Moduli (GPa) = 110.68703 61.69495 87.43065
#
# Poissons Ratio (x) = 0.21389 0.25399
# Poissons Ratio (y) = 0.38374 0.35397
# Poissons Ratio (z) = 0.32155 0.24977
#
# Static dielectric constant tensor:
#      x y z
#    x 4.089880 0.000000 -0.060450 
#    y 0.000000 3.292150 0.000000 
#    z -0.060450 0.000000 2.843150 
# 
# 
# High freq. dielectric constant tensor:
#      x y z
#    x 1.754470 0.000000 -0.004880 
#    y 0.000000 1.718710 0.000000 
#    z -0.004880 0.000000 1.718550 
# 
# From -- ./inp_files/216826.got.cif
#   From: 2010.06.25/outbox.cif.g09.slc.cpg/sg12_109_cif.got.tgz:216826.got - 2010.06.28 00:19:55.
