data_PCOD8108138
_publ_section_title
;
Structure prediction by ZEFSAII (Michael W. Deem and Ramdas Pophale) SiO2 
 PCOD8108138
Probable space group: C 2/M
;
_chemical_formula_sum "Si O2"
_cell_formula_units_Z 56
_cell_length_a 27.356297
_cell_length_b 8.653932
_cell_length_c 13.597763
_cell_angle_alpha 90.000000
_cell_angle_beta 120.149518
_cell_angle_gamma 90.000000
_cell_volume 2783.636916
_symmetry_space_group_name_H-M "C 2/M"
_symmetry_group_IT_number 12
_symmetry_cell_setting 'monoclinic'
loop_
_space_group_symop_operation_xyz
x,y,z
-x,y,-z
-x,-y,-z
x,-y,z
1/2+x,1/2+y,z
1/2-x,1/2+y,-z
1/2-x,1/2-y,-z
1/2+x,1/2-y,z
loop_
_atom_site_type_symbol
_atom_site_label
_atom_site_fract_x
_atom_site_fract_y
_atom_site_fract_z
Si Si1 0.404020 0.820156 0.533878
Si Si2 0.613907 0.319444 0.692660
Si Si3 0.834249 0.317200 0.833853
Si Si4 0.950304 0.819690 0.021370
Si Si5 0.738437 0.682302 0.882366
Si Si6 0.309194 0.182549 0.592064
Si Si7 0.525162 0.821428 0.747966
O O1 0.397398 0.714386 0.432255
O O2 0.356974 0.765826 0.563793
O O3 0.464482 0.785373 0.641428
O O4 0.397556 0.000000 0.498991
O O5 0.604122 0.500000 0.703993
O O6 0.677102 0.266548 0.782821
O O7 0.572117 0.218056 0.715405
O O8 0.830921 0.500000 0.827527
O O9 0.784654 0.250288 0.853124
O O10 0.825957 0.249912 0.715831
O O11 0.894044 0.270304 0.937549
O O12 0.967414 0.784677 0.149811
O O13 0.938839 0.000000 0.996950
O O14 0.000000 0.761996 0.000000
O O15 0.743416 0.500000 0.894213
O O16 0.750000 0.750000 0.000000
O O17 0.250000 0.250000 0.500000
O O18 0.304072 0.000000 0.591598
O O19 0.530817 0.000000 0.784319
#
# Coordination Sequence:
#
# PCOD8108138 Si02
#       7
#     8   8   8   8   8   8   8
#     4  10  22  39  59  85 116 152 194 237 284 343
#     4  11  23  39  60  87 119 152 189 237 291 342
#     4  10  21  39  61  84 113 153 198 238 283 343
#     4  11  24  40  59  87 120 151 189 239 292 343
#     4  10  22  38  57  83 114 149 189 234 284 339
#     4  10  21  38  60  86 116 151 194 242 290 342
#     4  11  23  40  62  86 115 153 196 238 282 340
#
# _framework density 20.117566
#
# number of rings (size 3 to 8) (size 9 to 14) (size 15 to 20)
#    0.000    1.571    0.000    4.286    0.000   11.429 
#    0.000    0.000    0.000    0.000    0.000    0.000 
#    0.000    0.000    0.000    0.000    0.000    0.000 
#
# Total GULP energy -347365.967250 kJ/mol
# GULP energy per Si atom -12405.927402 kJ/mol
# Density = 2.007178 g / cm^3
# Si number density = 20.117566 Si / 1000 Ang^3
#
#
#
# Elastic Constant Matrix: (Units=GPa)
#
#
# Indices 1 2 3 4 5 6 
#
# 1 172.0150 17.2458 62.7517 0.0000 -3.6614 0.0000
# 2 17.2458 12.1464 13.8304 0.0000 -0.7393 0.0000
# 3 62.7517 13.8304 134.1859 0.0000 -6.3049 0.0000
# 4 0.0000 0.0000 0.0000 33.9777 0.0000 -2.3950
# 5 -3.6614 -0.7393 -6.3049 0.0000 42.7515 0.0000
# 6 0.0000 0.0000 0.0000 -2.3950 0.0000 21.2070
#
#
#
# Elastic Compliance Matrix: (Units=1/GPa)
#
#
# Indices 1 2 3 4 5 6 
#
# 1 0.007586 -0.007625 -0.002756 0.000000 0.000111 0.000000
# 2 -0.007625 0.100942 -0.006834 0.000000 0.000085 0.000000
# 3 -0.002756 -0.006834 0.009495 0.000000 0.001046 0.000000
# 4 0.000000 0.000000 0.000000 0.029667 0.000000 0.003351
# 5 0.000111 0.000085 0.001046 0.000000 0.023556 0.000000
# 6 0.000000 0.000000 0.000000 0.003351 0.000000 0.047533
#
#
# Mechanical properties :
#
#
# Convention : Reuss Voigt Hill
#
# Bulk Modulus (GPa) = 11.96295 56.22259 34.09277
# Shear Modulus (GPa) = 17.78889 34.55519 26.17204
#
# Velocity S-wave (km/s) = 2.97685 4.14897 3.61079
# Velocity P-wave (km/s) = 4.21604 7.13860 5.86236
#
# Compressibility (1/GPa) = 0.08359139
#
# Stress axis : x y z
#
# Youngs Moduli (GPa) = 131.82460 9.90666 105.32004
#
# Poissons Ratio (x) = 0.07554 0.29030
# Poissons Ratio (y) = 1.00521 0.71976
# Poissons Ratio (z) = 0.36335 0.06770
#
# Static dielectric constant tensor:
#      x y z
#    x 3.978860 0.000000 -0.115650 
#    y 0.000000 3.176550 0.000000 
#    z -0.115650 0.000000 3.798520 
# 
# 
# High freq. dielectric constant tensor:
#      x y z
#    x 1.807170 0.000000 -0.001070 
#    y 0.000000 1.775900 0.000000 
#    z -0.001070 0.000000 1.802510 
# 
# From -- ./inp_files/181018.got.cif
#   From: 2010.06.25/outbox.cif.g09.slc.cpg/sg12_91_cif.got.tgz:181018.got - 2010.06.28 00:19:55.
