data_PCOD8108964
_publ_section_title
;
Structure prediction by ZEFSAII (Michael W. Deem and Ramdas Pophale) SiO2 
 PCOD8108964
Probable space group: C 2/M
;
_chemical_formula_sum "Si O2"
_cell_formula_units_Z 56
_cell_length_a 20.712404
_cell_length_b 24.376245
_cell_length_c 10.426040
_cell_angle_alpha 90.000000
_cell_angle_beta 145.572237
_cell_angle_gamma 90.000000
_cell_volume 2976.096201
_symmetry_space_group_name_H-M "C 2/M"
_symmetry_group_IT_number 12
_symmetry_cell_setting 'monoclinic'
loop_
_space_group_symop_operation_xyz
x,y,z
-x,y,-z
-x,-y,-z
x,-y,z
1/2+x,1/2+y,z
1/2-x,1/2+y,-z
1/2-x,1/2-y,-z
1/2+x,1/2-y,z
loop_
_atom_site_type_symbol
_atom_site_label
_atom_site_fract_x
_atom_site_fract_y
_atom_site_fract_z
Si Si1 0.844098 0.098126 0.654043
Si Si2 0.481992 0.244486 0.320184
Si Si3 0.106241 0.143681 0.768375
Si Si4 0.690676 0.286438 0.508456
Si Si5 0.918817 0.937280 0.046445
Si Si6 0.122324 0.436813 0.141844
Si Si7 0.178276 0.657313 0.057122
O O1 0.866932 0.161394 0.654857
O O2 0.721378 0.077064 0.406250
O O3 0.944665 0.063803 0.750813
O O4 0.851389 0.090987 0.818712
O O5 0.500000 0.238167 0.500000
O O6 0.407402 0.299540 0.174769
O O7 0.599277 0.250056 0.434778
O O8 0.422461 0.189194 0.177592
O O9 0.116462 0.093291 0.881833
O O10 0.219201 0.146870 0.870803
O O11 0.000000 0.134130 0.500000
O O12 0.750000 0.250000 0.500000
O O13 0.786251 0.306403 0.763504
O O14 0.879315 0.000000 0.994464
O O15 0.129386 0.500000 0.113311
O O16 0.135305 0.401830 0.033631
O O17 0.000000 0.421939 0.000000
#
# Coordination Sequence:
#
# PCOD8108964 Si02
#       7
#     8   8   8   8   8   8   8
#     4  10  21  39  60  92 127 152 201 251 307 364
#     4  11  23  41  60  84 124 161 198 241 305 363
#     4  11  21  41  59  85 124 163 201 242 298 361
#     4  11  24  37  62  94 120 157 200 251 301 360
#     4  11  22  36  64  94 122 160 197 251 314 359
#     4  10  22  42  63  85 120 161 202 252 301 358
#     4  11  24  39  63  88 118 158 202 247 298 366
#
# _framework density 18.816596000000001
#
# number of rings (size 3 to 8) (size 9 to 14) (size 15 to 20)
#    0.000    1.286    4.286    3.000    6.000    0.857 
#    0.000    0.000    0.000    0.429    0.000    0.000 
#    0.000    0.000    0.000    0.000    0.000    0.000 
#
# Total GULP energy -347287.628294 kJ/mol
# GULP energy per Si atom -12403.129582 kJ/mol
# Density = 1.877377 g / cm^3
# Si number density = 18.816596 Si / 1000 Ang^3
#
#
#
# Elastic Constant Matrix: (Units=GPa)
#
#
# Indices 1 2 3 4 5 6 
#
# 1 135.6020 60.5771 43.0123 0.0000 -1.1973 0.0000
# 2 60.5771 100.8125 53.5187 0.0000 -7.5130 0.0000
# 3 43.0123 53.5187 89.2919 0.0000 -1.0812 0.0000
# 4 0.0000 0.0000 0.0000 26.7489 0.0000 -0.0013
# 5 -1.1973 -7.5130 -1.0812 0.0000 31.3316 0.0000
# 6 0.0000 0.0000 0.0000 -0.0013 0.0000 40.1470
#
#
#
# Elastic Compliance Matrix: (Units=1/GPa)
#
#
# Indices 1 2 3 4 5 6 
#
# 1 0.010308 -0.005312 -0.001793 0.000000 -0.000942 0.000000
# 2 -0.005312 0.017612 -0.007952 0.000000 0.003746 0.000000
# 3 -0.001793 -0.007952 0.016812 0.000000 -0.001395 0.000000
# 4 0.000000 0.000000 0.000000 0.037385 0.000000 0.000001
# 5 -0.000942 0.003746 -0.001395 0.000000 0.032731 0.000000
# 6 0.000000 0.000000 0.000000 0.000001 0.000000 0.024908
#
#
# Mechanical properties :
#
#
# Convention : Reuss Voigt Hill
#
# Bulk Modulus (GPa) = 68.40775 71.10252 69.75513
# Shear Modulus (GPa) = 28.61348 30.88537 29.74943
#
# Velocity S-wave (km/s) = 3.90378 4.05580 3.98052
# Velocity P-wave (km/s) = 7.53348 7.73317 7.63398
#
# Compressibility (1/GPa) = 0.01461823
#
# Stress axis : x y z
#
# Youngs Moduli (GPa) = 97.01129 56.77898 59.48164
#
# Poissons Ratio (x) = 0.30164 0.10663
# Poissons Ratio (y) = 0.51537 0.47298
# Poissons Ratio (z) = 0.17391 0.45149
#
# Static dielectric constant tensor:
#      x y z
#    x 3.427280 0.000000 -0.207600 
#    y 0.000000 3.623250 0.000000 
#    z -0.207600 0.000000 2.958540 
# 
# 
# High freq. dielectric constant tensor:
#      x y z
#    x 1.736180 0.000000 -0.002070 
#    y 0.000000 1.737020 0.000000 
#    z -0.002070 0.000000 1.724970 
# 
# From -- ./inp_files/80072.got.cif
#   From: 2010.06.25/outbox.cif.g09.slc.cpg/sg12_41_cif.got.tgz:80072.got - 2010.06.28 00:19:55.
