data_PCOD8108180
_publ_section_title
;
Structure prediction by ZEFSAII (Michael W. Deem and Ramdas Pophale) SiO2 
 PCOD8108180
Probable space group: C 2/M
;
_chemical_formula_sum "Si O2"
_cell_formula_units_Z 56
_cell_length_a 14.891622
_cell_length_b 8.602499
_cell_length_c 23.952460
_cell_angle_alpha 90.000000
_cell_angle_beta 62.612444
_cell_angle_gamma 90.000000
_cell_volume 2724.509363
_symmetry_space_group_name_H-M "C 2/M"
_symmetry_group_IT_number 12
_symmetry_cell_setting 'monoclinic'
loop_
_space_group_symop_operation_xyz
x,y,z
-x,y,-z
-x,-y,-z
x,-y,z
1/2+x,1/2+y,z
1/2-x,1/2+y,-z
1/2-x,1/2-y,-z
1/2+x,1/2-y,z
loop_
_atom_site_type_symbol
_atom_site_label
_atom_site_fract_x
_atom_site_fract_y
_atom_site_fract_z
Si Si1 0.168950 0.679292 0.765912
Si Si2 0.149576 0.818119 0.000132
Si Si3 0.935339 0.179497 0.308516
Si Si4 0.280967 0.824076 0.433217
Si Si5 0.927191 0.183723 0.098188
Si Si6 0.617942 0.178707 0.305212
Si Si7 0.426684 0.675689 0.568916
O O1 0.150586 0.500000 0.755947
O O2 0.120753 0.787597 0.732892
O O3 0.120664 0.717491 0.838942
O O4 0.287702 0.711112 0.733386
O O5 0.045954 0.770064 0.061292
O O6 0.163105 0.000000 0.999188
O O7 0.250000 0.750000 0.000000
O O8 0.134519 0.767333 0.939949
O O9 0.867787 0.220256 0.381445
O O10 0.036677 0.283112 0.280508
O O11 0.964887 0.000000 0.303206
O O12 0.250000 0.750000 0.500000
O O13 0.188139 0.822942 0.417615
O O14 0.319845 0.000000 0.431189
O O15 0.915623 0.000000 0.112096
O O16 0.564683 0.216121 0.379551
O O17 0.651490 0.000000 0.292857
O O18 0.500000 0.744282 0.500000
O O19 0.461447 0.500000 0.573955
#
# Coordination Sequence:
#
# PCOD8108180 Si02
#       7
#     8   8   8   8   8   8   8
#     4  12  25  43  65  93 129 169 215 265 320 383
#     4   9  19  37  64  94 130 169 211 259 308 366
#     4  12  25  43  65  89 122 163 209 263 320 380
#     4  11  22  37  60  89 124 159 203 257 315 382
#     4   9  20  40  62  90 128 173 213 254 312 373
#     4  12  25  42  65  91 121 161 209 261 319 384
#     4  10  21  38  60  87 121 158 199 253 315 379
#
# _framework density 20.554158999999999
#
# number of rings (size 3 to 8) (size 9 to 14) (size 15 to 20)
#    0.000    1.286    1.429    6.000    0.000    4.286 
#    0.000    4.286    0.000    0.000    0.000    0.000 
#    0.000    0.000    0.000    0.000    0.000    0.000 
#
# Total GULP energy -347282.299270 kJ/mol
# GULP energy per Si atom -12402.939260 kJ/mol
# Density = 2.050738 g / cm^3
# Si number density = 20.554159 Si / 1000 Ang^3
#
#
#
# Elastic Constant Matrix: (Units=GPa)
#
#
# Indices 1 2 3 4 5 6 
#
# 1 124.7700 19.2398 39.5878 0.0000 -4.1061 0.0000
# 2 19.2398 89.7168 30.9982 0.0000 2.8742 0.0000
# 3 39.5878 30.9982 119.1224 0.0000 -1.4085 0.0000
# 4 0.0000 0.0000 0.0000 35.3043 0.0000 -1.5230
# 5 -4.1061 2.8742 -1.4085 0.0000 21.1658 0.0000
# 6 0.0000 0.0000 0.0000 -1.5230 0.0000 34.1040
#
#
#
# Elastic Compliance Matrix: (Units=1/GPa)
#
#
# Indices 1 2 3 4 5 6 
#
# 1 0.009101 -0.001065 -0.002727 0.000000 0.001729 0.000000
# 2 -0.001065 0.012447 -0.002910 0.000000 -0.002090 0.000000
# 3 -0.002727 -0.002910 0.010065 0.000000 0.000536 0.000000
# 4 0.000000 0.000000 0.000000 0.028380 0.000000 0.001267
# 5 0.001729 -0.002090 0.000536 0.000000 0.047901 0.000000
# 6 0.000000 0.000000 0.000000 0.001267 0.000000 0.029379
#
#
# Mechanical properties :
#
#
# Convention : Reuss Voigt Hill
#
# Bulk Modulus (GPa) = 54.91750 57.02899 55.97325
# Shear Modulus (GPa) = 31.89894 34.36703 33.13299
#
# Velocity S-wave (km/s) = 3.94375 4.09347 4.01931
# Velocity P-wave (km/s) = 6.89304 7.08152 6.98792
#
# Compressibility (1/GPa) = 0.01820913
#
# Stress axis : x y z
#
# Youngs Moduli (GPa) = 109.87691 80.34143 99.35906
#
# Poissons Ratio (x) = 0.08556 0.27095
# Poissons Ratio (y) = 0.11701 0.28911
# Poissons Ratio (z) = 0.29963 0.23377
#
# Static dielectric constant tensor:
#      x y z
#    x 4.181230 0.000000 -0.026130 
#    y 0.000000 3.660500 0.000000 
#    z -0.026130 0.000000 3.705790 
# 
# 
# High freq. dielectric constant tensor:
#      x y z
#    x 1.816390 0.000000 -0.001870 
#    y 0.000000 1.802070 0.000000 
#    z -0.001870 0.000000 1.800720 
# 
# From -- ./inp_files/338539.got.cif
#   From: 2010.06.25/outbox.cif.g09.slc.cpg/sg12_170_cif.got.tgz:338539.got - 2010.06.28 00:19:55.
