data_PCOD8108289
_publ_section_title
;
Structure prediction by ZEFSAII (Michael W. Deem and Ramdas Pophale) SiO2 
 PCOD8108289
Probable space group: C 2/M
;
_chemical_formula_sum "Si O2"
_cell_formula_units_Z 32
_cell_length_a 13.436815
_cell_length_b 18.705620
_cell_length_c 11.303846
_cell_angle_alpha 90.000000
_cell_angle_beta 31.888116
_cell_angle_gamma 90.000000
_cell_volume 1500.874024
_symmetry_space_group_name_H-M "C 2/M"
_symmetry_group_IT_number 12
_symmetry_cell_setting 'monoclinic'
loop_
_space_group_symop_operation_xyz
x,y,z
-x,y,-z
-x,-y,-z
x,-y,z
1/2+x,1/2+y,z
1/2-x,1/2+y,-z
1/2-x,1/2-y,-z
1/2+x,1/2-y,z
loop_
_atom_site_type_symbol
_atom_site_label
_atom_site_fract_x
_atom_site_fract_y
_atom_site_fract_z
Si Si1 0.717675 0.421730 0.812387
Si Si2 0.549919 0.188312 0.084851
Si Si3 0.594400 0.663332 0.145013
Si Si4 0.281823 0.916201 0.487746
O O1 0.790661 0.500000 0.781441
O O2 0.825844 0.398816 0.582314
O O3 0.500000 0.428072 0.000000
O O4 0.737853 0.363913 0.896207
O O5 0.500833 0.261308 0.203573
O O6 0.431262 0.122999 0.255574
O O7 0.500000 0.200032 0.000000
O O8 0.773423 0.171825 0.873073
O O9 0.428565 0.607669 0.337393
O O10 0.295954 0.000000 0.448662
#
# Coordination Sequence:
#
# PCOD8108289 Si02
#       4
#     8   8   8   8
#     4   8  15  32  59  86 109 139 185 236 283 328
#     4  11  24  39  57  85 117 152 194 232 276 344
#     4  10  21  39  62  84 113 150 188 239 291 331
#     4  10  21  38  61  87 116 150 189 236 285 335
#
# _framework density 21.320910999999999
#
# number of rings (size 3 to 8) (size 9 to 14) (size 15 to 20)
#    0.000    2.250    0.000    5.250    0.000    4.500 
#    0.000    8.750    0.000    0.000    0.000    0.000 
#    0.000    0.000    0.000    0.000    0.000    0.000 
#
# Total GULP energy -198374.232211 kJ/mol
# GULP energy per Si atom -12398.389513 kJ/mol
# Density = 2.127238 g / cm^3
# Si number density = 21.320911 Si / 1000 Ang^3
#
#
#
# Elastic Constant Matrix: (Units=GPa)
#
#
# Indices 1 2 3 4 5 6 
#
# 1 131.3610 42.6063 24.0223 -0.0087 -4.9698 -0.0037
# 2 42.6063 115.9373 41.2102 -0.0193 -10.8742 -0.0127
# 3 24.0223 41.2102 66.6360 0.0062 -3.1576 0.0077
# 4 -0.0087 -0.0193 0.0062 16.3464 -0.0031 10.4032
# 5 -4.9698 -10.8742 -3.1576 -0.0031 7.4450 -0.0042
# 6 -0.0037 -0.0127 0.0077 10.4032 -0.0042 10.9246
#
#
#
# Elastic Compliance Matrix: (Units=1/GPa)
#
#
# Indices 1 2 3 4 5 6 
#
# 1 0.008772 -0.002544 -0.001518 0.000004 0.001496 -0.000002
# 2 -0.002544 0.013310 -0.006606 0.000010 0.014941 0.000016
# 3 -0.001518 -0.006606 0.019527 -0.000005 -0.002381 -0.000019
# 4 0.000004 0.000010 -0.000005 0.155284 -0.000004 -0.147872
# 5 0.001496 0.014941 -0.002381 -0.000004 0.156131 0.000084
# 6 -0.000002 0.000016 -0.000019 -0.147872 0.000084 0.232349
#
#
# Mechanical properties :
#
#
# Convention : Reuss Voigt Hill
#
# Bulk Modulus (GPa) = 49.32860 58.84577 54.08718
# Shear Modulus (GPa) = 8.15041 20.68290 14.41666
#
# Velocity S-wave (km/s) = 1.95730 3.11798 2.60316
# Velocity P-wave (km/s) = 5.31926 6.37357 5.87013
#
# Compressibility (1/GPa) = 0.02027222
#
# Stress axis : x y z
#
# Youngs Moduli (GPa) = 114.00070 75.13345 51.21112
#
# Poissons Ratio (x) = 0.19111 0.07775
# Poissons Ratio (y) = 0.28997 0.33831
# Poissons Ratio (z) = 0.17309 0.49635
#
# Static dielectric constant tensor:
#      x y z
#    x 3.886430 -0.000020 0.066960 
#    y -0.000020 3.998590 0.000070 
#    z 0.066960 0.000070 3.739870 
# 
# 
# High freq. dielectric constant tensor:
#      x y z
#    x 1.827750 0.000000 -0.015390 
#    y 0.000000 1.846340 0.000000 
#    z -0.015390 0.000000 1.816950 
# 
# From -- ./inp_files/145202.got.cif
#   From: 2010.06.25/outbox.cif.g09.slc.cpg/sg12_73_cif.got.tgz:145202.got - 2010.06.28 00:19:55.
