data_PCOD8108831
_publ_section_title
;
Structure prediction by ZEFSAII (Michael W. Deem and Ramdas Pophale) SiO2 
 PCOD8108831
Probable space group: C 2/M
;
_chemical_formula_sum "Si O2"
_cell_formula_units_Z 56
_cell_length_a 30.664014
_cell_length_b 8.977381
_cell_length_c 18.692559
_cell_angle_alpha 90.000000
_cell_angle_beta 142.187657
_cell_angle_gamma 90.000000
_cell_volume 3154.733147
_symmetry_space_group_name_H-M "C 2/M"
_symmetry_group_IT_number 12
_symmetry_cell_setting 'monoclinic'
loop_
_space_group_symop_operation_xyz
x,y,z
-x,y,-z
-x,-y,-z
x,-y,z
1/2+x,1/2+y,z
1/2-x,1/2+y,-z
1/2-x,1/2-y,-z
1/2+x,1/2-y,z
loop_
_atom_site_type_symbol
_atom_site_label
_atom_site_fract_x
_atom_site_fract_y
_atom_site_fract_z
Si Si1 0.549679 0.827306 0.245413
Si Si2 0.940308 0.837117 0.362925
Si Si3 0.956869 0.826048 0.013210
Si Si4 0.833221 0.177464 0.335256
Si Si5 0.298231 0.173497 0.621215
Si Si6 0.295953 0.325315 0.767947
Si Si7 0.050458 0.822863 0.398443
O O1 0.482752 0.759933 0.116949
O O2 0.619485 0.797108 0.288960
O O3 0.559309 0.749592 0.333493
O O4 0.536151 0.000000 0.241173
O O5 0.872107 0.760027 0.312886
O O6 0.000000 0.857113 0.500000
O O7 0.978215 0.757902 0.343751
O O8 0.915081 0.000000 0.304813
O O9 0.970959 0.000000 0.043234
O O10 0.874500 0.787874 0.896979
O O11 0.000000 0.768380 0.000000
O O12 0.758337 0.261954 0.243365
O O13 0.880492 0.219511 0.465612
O O14 0.822227 0.000000 0.316365
O O15 0.250000 0.250000 0.500000
O O16 0.279557 0.243966 0.672751
O O17 0.279435 0.000000 0.599133
O O18 0.284899 0.500000 0.742456
O O19 0.044128 0.000000 0.382838
#
# Coordination Sequence:
#
# PCOD8108831 Si02
#       7
#     8   8   8   8   8   8   8
#     4  11  23  35  51  76 104 132 168 217 261 299
#     4   7  12  26  49  76 103 134 173 207 240 296
#     4  10  21  39  58  72  92 132 180 217 254 305
#     4   9  17  31  53  80 108 138 170 207 254 304
#     4  11  23  36  51  74 105 138 168 203 252 305
#     4  11  22  35  53  76 102 132 171 215 255 303
#     4   9  17  31  53  78 106 140 173 205 246 305
#
# _framework density 17.751104999999999
#
# number of rings (size 3 to 8) (size 9 to 14) (size 15 to 20)
#    0.000    2.286    1.429    3.857    0.000    6.000 
#    0.000    0.714    0.000    3.429    0.000    0.000 
#    0.000    0.000    0.000    0.000    0.000    0.000 
#
# Total GULP energy -347066.714149 kJ/mol
# GULP energy per Si atom -12395.239791 kJ/mol
# Density = 1.771070 g / cm^3
# Si number density = 17.751105 Si / 1000 Ang^3
#
#
#
# Elastic Constant Matrix: (Units=GPa)
#
#
# Indices 1 2 3 4 5 6 
#
# 1 91.4206 29.3242 11.9792 0.0000 28.4885 0.0000
# 2 29.3242 56.2442 31.9340 0.0000 12.6413 0.0000
# 3 11.9792 31.9340 58.8079 0.0000 17.7531 0.0000
# 4 0.0000 0.0000 0.0000 23.6656 0.0000 3.6687
# 5 28.4885 12.6413 17.7531 0.0000 22.8471 0.0000
# 6 0.0000 0.0000 0.0000 3.6687 0.0000 20.4620
#
#
#
# Elastic Compliance Matrix: (Units=1/GPa)
#
#
# Indices 1 2 3 4 5 6 
#
# 1 0.022401 -0.010825 0.010372 0.000000 -0.030003 0.000000
# 2 -0.010825 0.031281 -0.017808 0.000000 0.010028 0.000000
# 3 0.010372 -0.017808 0.033304 0.000000 -0.028959 0.000000
# 4 0.000000 0.000000 0.000000 0.043464 0.000000 -0.007793
# 5 -0.030003 0.010028 -0.028959 0.000000 0.098133 0.000000
# 6 0.000000 0.000000 0.000000 -0.007793 0.000000 0.050268
#
#
# Mechanical properties :
#
#
# Convention : Reuss Voigt Hill
#
# Bulk Modulus (GPa) = 19.81622 39.21636 29.51629
# Shear Modulus (GPa) = 15.05141 22.27730 18.66436
#
# Velocity S-wave (km/s) = 2.91506 3.54641 3.24612
# Velocity P-wave (km/s) = 4.74528 6.23777 5.54199
#
# Compressibility (1/GPa) = 0.05046372
#
# Stress axis : x y z
#
# Youngs Moduli (GPa) = 44.64082 31.96850 30.02623
#
# Poissons Ratio (x) = 0.34607 -0.31145
# Poissons Ratio (y) = 0.48325 0.53472
# Poissons Ratio (z) = -0.46304 0.56931
#
# Static dielectric constant tensor:
#      x y z
#    x 3.682290 0.000000 0.153340 
#    y 0.000000 3.128480 0.000000 
#    z 0.153340 0.000000 3.023040 
# 
# 
# High freq. dielectric constant tensor:
#      x y z
#    x 1.701340 0.000000 0.008450 
#    y 0.000000 1.671600 0.000000 
#    z 0.008450 0.000000 1.661220 
# 
# From -- ./inp_files/288247.got.cif
#   From: 2010.06.25/outbox.cif.g09.slc.cpg/sg12_145_cif.got.tgz:288247.got - 2010.06.28 00:19:55.
