data_PCOD8108917
_publ_section_title
;
Structure prediction by ZEFSAII (Michael W. Deem and Ramdas Pophale) SiO2 
 PCOD8108917
Probable space group: C 2/M
;
_chemical_formula_sum "Si O2"
_cell_formula_units_Z 56
_cell_length_a 14.283603
_cell_length_b 8.725310
_cell_length_c 26.260999
_cell_angle_alpha 90.000000
_cell_angle_beta 124.669996
_cell_angle_gamma 90.000000
_cell_volume 2691.752857
_symmetry_space_group_name_H-M "C 2/M"
_symmetry_group_IT_number 12
_symmetry_cell_setting 'monoclinic'
loop_
_space_group_symop_operation_xyz
x,y,z
-x,y,-z
-x,-y,-z
x,-y,z
1/2+x,1/2+y,z
1/2-x,1/2+y,-z
1/2-x,1/2-y,-z
1/2+x,1/2-y,z
loop_
_atom_site_type_symbol
_atom_site_label
_atom_site_fract_x
_atom_site_fract_y
_atom_site_fract_z
Si Si1 0.648859 0.679543 0.000418
Si Si2 0.604173 0.680777 0.100036
Si Si3 0.219948 0.818828 0.321146
Si Si4 0.496212 0.821029 0.695501
Si Si5 0.331314 0.829528 0.456450
Si Si6 0.580697 0.329251 0.425007
Si Si7 0.771171 0.821009 0.230061
O O1 0.658056 0.500000 0.998789
O O2 0.527770 0.731688 0.940035
O O3 0.750000 0.750000 0.000000
O O4 0.658478 0.727291 0.062523
O O5 0.617133 0.500000 0.114277
O O6 0.664546 0.776577 0.162535
O O7 0.094404 0.780614 0.302472
O O8 0.313756 0.770575 0.393003
O O9 0.242793 0.718508 0.279161
O O10 0.226370 0.000000 0.311289
O O11 0.493678 0.781358 0.634261
O O12 0.619942 0.775860 0.755155
O O13 0.472390 0.000000 0.696497
O O14 0.420608 0.728317 0.516605
O O15 0.209184 0.828338 0.445328
O O16 0.381321 0.000000 0.471508
O O17 0.528974 0.500000 0.406879
O O18 0.797280 0.000000 0.233248
#
# Coordination Sequence:
#
# PCOD8108917 Si02
#       7
#     8   8   8   8   8   8   8
#     4   9  19  37  64  92 120 153 190 232 278 329
#     4   9  20  40  60  84 120 159 192 229 281 336
#     4  10  21  39  60  83 113 150 194 245 296 351
#     4  11  22  38  59  82 112 152 196 244 295 350
#     4   8  15  28  49  76 105 140 183 233 294 354
#     4   9  16  28  49  77 108 142 184 237 294 351
#     4  12  25  40  59  86 119 157 198 240 288 344
#
# _framework density 20.804288
#
# number of rings (size 3 to 8) (size 9 to 14) (size 15 to 20)
#    0.000    2.286    0.000    5.143    0.000    6.286 
#    0.000    5.000    0.000    4.286    0.000    0.000 
#    0.000    0.000    0.000    0.000    0.000    0.000 
#
# Total GULP energy -347194.151825 kJ/mol
# GULP energy per Si atom -12399.791137 kJ/mol
# Density = 2.075694 g / cm^3
# Si number density = 20.804288 Si / 1000 Ang^3
#
#
#
# Elastic Constant Matrix: (Units=GPa)
#
#
# Indices 1 2 3 4 5 6 
#
# 1 67.7400 5.3969 26.5385 0.0000 0.2685 0.0000
# 2 5.3969 80.6971 32.2887 0.0000 2.2715 0.0000
# 3 26.5385 32.2887 96.5514 0.0000 3.7686 0.0000
# 4 0.0000 0.0000 0.0000 34.2508 0.0000 -0.3967
# 5 0.2685 2.2715 3.7686 0.0000 25.2622 0.0000
# 6 0.0000 0.0000 0.0000 -0.3967 0.0000 29.7342
#
#
#
# Elastic Compliance Matrix: (Units=1/GPa)
#
#
# Indices 1 2 3 4 5 6 
#
# 1 0.016597 0.000819 -0.004854 0.000000 0.000474 0.000000
# 2 0.000819 0.014355 -0.005004 0.000000 -0.000553 0.000000
# 3 -0.004854 -0.005004 0.013424 0.000000 -0.001501 0.000000
# 4 0.000000 0.000000 0.000000 0.029201 0.000000 0.000390
# 5 0.000474 -0.000553 -0.001501 0.000000 0.039853 0.000000
# 6 0.000000 0.000000 0.000000 0.000390 0.000000 0.033637
#
#
# Mechanical properties :
#
#
# Convention : Reuss Voigt Hill
#
# Bulk Modulus (GPa) = 38.02767 41.49297 39.76032
# Shear Modulus (GPa) = 28.75036 29.90041 29.32538
#
# Velocity S-wave (km/s) = 3.72148 3.79519 3.75852
# Velocity P-wave (km/s) = 6.06501 6.26038 6.16347
#
# Compressibility (1/GPa) = 0.02629664
#
# Stress axis : x y z
#
# Youngs Moduli (GPa) = 60.25200 69.66171 74.49614
#
# Poissons Ratio (x) = -0.05705 0.36163
# Poissons Ratio (y) = -0.04935 0.37279
# Poissons Ratio (z) = 0.29248 0.34860
#
# Static dielectric constant tensor:
#      x y z
#    x 3.556290 0.000000 0.017370 
#    y 0.000000 3.683360 0.000000 
#    z 0.017370 0.000000 3.895490 
# 
# 
# High freq. dielectric constant tensor:
#      x y z
#    x 1.810810 0.000000 0.002930 
#    y 0.000000 1.809820 0.000000 
#    z 0.002930 0.000000 1.814900 
# 
# From -- ./inp_files/339002.got.cif
#   From: 2010.06.25/outbox.cif.g09.slc.cpg/sg12_170_cif.got.tgz:339002.got - 2010.06.28 00:19:55.
