data_PCOD8108806
_publ_section_title
;
Structure prediction by ZEFSAII (Michael W. Deem and Ramdas Pophale) SiO2 
 PCOD8108806
Probable space group: C 2/M
;
_chemical_formula_sum "Si O2"
_cell_formula_units_Z 56
_cell_length_a 19.120174
_cell_length_b 15.848305
_cell_length_c 9.138494
_cell_angle_alpha 90.000000
_cell_angle_beta 89.480992
_cell_angle_gamma 90.000000
_cell_volume 2769.054309
_symmetry_space_group_name_H-M "C 2/M"
_symmetry_group_IT_number 12
_symmetry_cell_setting 'monoclinic'
loop_
_space_group_symop_operation_xyz
x,y,z
-x,y,-z
-x,-y,-z
x,-y,z
1/2+x,1/2+y,z
1/2-x,1/2+y,-z
1/2-x,1/2-y,-z
1/2+x,1/2-y,z
loop_
_atom_site_type_symbol
_atom_site_label
_atom_site_fract_x
_atom_site_fract_y
_atom_site_fract_z
Si Si1 0.814402 0.166005 0.133814
Si Si2 0.327584 0.245475 0.437178
Si Si3 0.113616 0.597441 0.739505
Si Si4 0.902442 0.000000 0.101389
Si Si5 0.521331 0.810367 0.161765
Si Si6 0.337225 0.831990 0.966119
Si Si7 0.953779 0.000000 0.774880
Si Si8 0.943806 0.831187 0.622521
O O1 0.833102 0.199485 0.292431
O O2 0.732455 0.145382 0.120028
O O3 0.855331 0.081095 0.115343
O O4 0.838080 0.232984 0.010031
O O5 0.250000 0.250000 0.500000
O O6 0.352552 0.150646 0.394802
O O7 0.376498 0.283495 0.561703
O O8 0.117094 0.500000 0.693535
O O9 0.032579 0.622313 0.769083
O O10 0.157461 0.611579 0.887721
O O11 0.961207 0.000000 0.228422
O O12 0.934610 0.000000 0.942409
O O13 0.599024 0.850361 0.147604
O O14 0.518232 0.727322 0.259616
O O15 0.500000 0.781531 0.000000
O O16 0.920714 0.081350 0.696593
O O17 0.000000 0.853400 0.500000
#
# Coordination Sequence:
#
# PCOD8108806 Si02
#       8
#     8   8   8   4   8   8   4   8
#     4  10  21  41  60  92 133 168 220 269 328 393
#     4  11  24  44  67  92 133 182 214 260 334 407
#     4  10  22  41  65  98 129 163 219 276 325 390
#     4  11  24  40  64  98 131 161 223 290 325 371
#     4  10  21  38  67  94 126 171 218 268 328 394
#     4   9  20  37  66  91 126 174 212 268 332 392
#     4  11  27  38  64  98 128 172 224 277 327 391
#     4  12  23  42  66  94 133 176 222 263 333 399
#
# _framework density 20.223510999999998
#
# number of rings (size 3 to 8) (size 9 to 14) (size 15 to 20)
#    0.000    1.571    1.429    2.786    7.000    5.429 
#    2.571    1.429    0.000    0.000    0.000    0.000 
#    0.000    0.000    0.000    0.000    0.000    0.000 
#
# Total GULP energy -347273.710626 kJ/mol
# GULP energy per Si atom -12402.632522 kJ/mol
# Density = 2.017748 g / cm^3
# Si number density = 20.223511 Si / 1000 Ang^3
#
#
#
# Elastic Constant Matrix: (Units=GPa)
#
#
# Indices 1 2 3 4 5 6 
#
# 1 122.1016 59.2688 30.8733 0.0000 -0.8878 0.0000
# 2 59.2688 161.8041 53.2974 0.0000 7.5255 0.0000
# 3 30.8733 53.2974 75.9076 0.0000 1.9573 0.0000
# 4 0.0000 0.0000 0.0000 29.8672 0.0000 2.0067
# 5 -0.8878 7.5255 1.9573 0.0000 32.8476 0.0000
# 6 0.0000 0.0000 0.0000 2.0067 0.0000 21.3523
#
#
#
# Elastic Compliance Matrix: (Units=1/GPa)
#
#
# Indices 1 2 3 4 5 6 
#
# 1 0.010225 -0.003145 -0.001979 0.000000 0.001115 0.000000
# 2 -0.003145 0.009083 -0.005050 0.000000 -0.001865 0.000000
# 3 -0.001979 -0.005050 0.017523 0.000000 0.000059 0.000000
# 4 0.000000 0.000000 0.000000 0.033694 0.000000 -0.003167
# 5 0.001115 -0.001865 0.000059 0.000000 0.030897 0.000000
# 6 0.000000 0.000000 0.000000 -0.003167 0.000000 0.047131
#
#
# Mechanical properties :
#
#
# Convention : Reuss Voigt Hill
#
# Bulk Modulus (GPa) = 60.67157 71.85469 66.26313
# Shear Modulus (GPa) = 28.67035 31.23835 29.95435
#
# Velocity S-wave (km/s) = 3.76929 3.93447 3.85277
# Velocity P-wave (km/s) = 7.00064 7.49983 7.25453
#
# Compressibility (1/GPa) = 0.01648218
#
# Stress axis : x y z
#
# Youngs Moduli (GPa) = 97.79726 110.10046 57.06807
#
# Poissons Ratio (x) = 0.34632 0.11294
# Poissons Ratio (y) = 0.30762 0.28818
# Poissons Ratio (z) = 0.19354 0.55599
#
# Static dielectric constant tensor:
#      x y z
#    x 3.986150 0.000000 0.057070 
#    y 0.000000 3.501960 0.000000 
#    z 0.057070 0.000000 3.905880 
# 
# 
# High freq. dielectric constant tensor:
#      x y z
#    x 1.802650 0.000000 0.002450 
#    y 0.000000 1.778090 0.000000 
#    z 0.002450 0.000000 1.790280 
# 
# From -- ./inp_files/86405.got.cif
#   From: 2010.06.25/outbox.cif.g09.slc.cpg/sg12_44_cif.got.tgz:86405.got - 2010.06.28 00:19:55.
