data_PCOD8108344
_publ_section_title
;
Structure prediction by ZEFSAII (Michael W. Deem and Ramdas Pophale) SiO2 
 PCOD8108344
Probable space group: C 2/M
;
_chemical_formula_sum "Si O2"
_cell_formula_units_Z 40
_cell_length_a 14.803266
_cell_length_b 17.744105
_cell_length_c 12.388815
_cell_angle_alpha 90.000000
_cell_angle_beta 143.514701
_cell_angle_gamma 90.000000
_cell_volume 1934.988442
_symmetry_space_group_name_H-M "C 2/M"
_symmetry_group_IT_number 12
_symmetry_cell_setting 'monoclinic'
loop_
_space_group_symop_operation_xyz
x,y,z
-x,y,-z
-x,-y,-z
x,-y,z
1/2+x,1/2+y,z
1/2-x,1/2+y,-z
1/2-x,1/2-y,-z
1/2+x,1/2-y,z
loop_
_atom_site_type_symbol
_atom_site_label
_atom_site_fract_x
_atom_site_fract_y
_atom_site_fract_z
Si Si1 0.166890 0.585911 0.646176
Si Si2 0.860195 0.340669 0.997586
Si Si3 0.820750 0.411502 0.740267
Si Si4 0.659683 0.335999 0.005203
Si Si5 0.368334 0.585020 0.643264
O O1 0.157203 0.500000 0.675583
O O2 0.216893 0.593411 0.570072
O O3 0.000000 0.623827 0.500000
O O4 0.297269 0.624561 0.842166
O O5 0.775601 0.380605 0.815138
O O6 0.781136 0.363992 0.033154
O O7 0.842619 0.251619 0.970126
O O8 0.034408 0.366375 0.165904
O O9 0.860682 0.500000 0.784179
O O10 0.679191 0.396247 0.525140
O O11 0.493834 0.357295 0.803923
O O12 0.432663 0.500000 0.713907
#
# Coordination Sequence:
#
# PCOD8108344 Si02
#       5
#     8   8   8   8   8
#     4  10  21  38  61  88 119 161 204 242 294 362
#     4  10  23  40  58  88 119 162 201 244 306 360
#     4  10  22  42  65  88 115 162 216 249 295 360
#     4  11  23  39  57  91 127 154 198 247 311 364
#     4  10  22  38  62  92 119 155 200 253 302 348
#
# _framework density 20.671958
#
# number of rings (size 3 to 8) (size 9 to 14) (size 15 to 20)
#    0.000    1.800    0.000    3.600    5.600    8.000 
#    7.200    2.000    0.000    0.000    0.000    0.000 
#    0.000    0.000    0.000    0.000    0.000    0.000 
#
# Total GULP energy -248030.668049 kJ/mol
# GULP energy per Si atom -12401.533402 kJ/mol
# Density = 2.062491 g / cm^3
# Si number density = 20.671958 Si / 1000 Ang^3
#
#
#
# Elastic Constant Matrix: (Units=GPa)
#
#
# Indices 1 2 3 4 5 6 
#
# 1 56.6310 29.0833 6.0537 0.0000 -10.2247 0.0000
# 2 29.0833 61.7255 26.0942 0.0000 -9.0457 0.0000
# 3 6.0537 26.0942 108.8349 0.0000 -14.8784 0.0000
# 4 0.0000 0.0000 0.0000 -12.8410 0.0000 -9.5422
# 5 -10.2247 -9.0457 -14.8784 0.0000 31.5594 0.0000
# 6 0.0000 0.0000 0.0000 -9.5422 0.0000 26.9761
#
#
#
# Elastic Compliance Matrix: (Units=1/GPa)
#
#
# Indices 1 2 3 4 5 6 
#
# 1 0.024393 -0.011597 0.002191 0.000000 0.005612 0.000000
# 2 -0.011597 0.023878 -0.004979 0.000000 0.000740 0.000000
# 3 0.002191 -0.004979 0.010862 0.000000 0.004404 0.000000
# 4 0.000000 0.000000 0.000000 -0.061666 0.000000 -0.021813
# 5 0.005612 0.000740 0.004404 0.000000 0.035792 0.000000
# 6 0.000000 0.000000 0.000000 -0.021813 0.000000 0.029354
#
#
# Mechanical properties :
#
#
# Convention : Reuss Voigt Hill
#
# Bulk Modulus (GPa) = 32.93474 38.85043 35.89258
# Shear Modulus (GPa) = 49.25888 20.20291 34.73089
#
# Velocity S-wave (km/s) = 4.88678 3.12959 4.10335
# Velocity P-wave (km/s) = 6.91429 5.64745 6.31273
#
# Compressibility (1/GPa) = 0.03036308
#
# Stress axis : x y z
#
# Youngs Moduli (GPa) = 40.99549 41.87931 92.06340
#
# Poissons Ratio (x) = 0.48568 -0.20170
# Poissons Ratio (y) = 0.47543 0.45837
# Poissons Ratio (z) = -0.08982 0.20851
#
# Static dielectric constant tensor:
#      x y z
#    x 3.862500 0.000000 -0.174270 
#    y 0.000000 3.689790 0.000000 
#    z -0.174270 0.000000 3.685040 
# 
# 
# High freq. dielectric constant tensor:
#      x y z
#    x 1.812950 0.000000 -0.011450 
#    y 0.000000 1.805540 0.000000 
#    z -0.011450 0.000000 1.811650 
# 
# From -- ./inp_files/60812.got.cif
#   From: 2010.06.25/outbox.cif.g09.slc.cpg/sg12_31_cif.got.tgz:60812.got - 2010.06.28 00:19:55.
