data_PCOD8108960
_publ_section_title
;
Structure prediction by ZEFSAII (Michael W. Deem and Ramdas Pophale) SiO2 
 PCOD8108960
Probable space group: C 2/M
;
_chemical_formula_sum "Si O2"
_cell_formula_units_Z 32
_cell_length_a 22.992814
_cell_length_b 12.703965
_cell_length_c 5.174093
_cell_angle_alpha 90.000000
_cell_angle_beta 86.532094
_cell_angle_gamma 90.000000
_cell_volume 1508.584540
_symmetry_space_group_name_H-M "C 2/M"
_symmetry_group_IT_number 12
_symmetry_cell_setting 'monoclinic'
loop_
_space_group_symop_operation_xyz
x,y,z
-x,y,-z
-x,-y,-z
x,-y,z
1/2+x,1/2+y,z
1/2-x,1/2+y,-z
1/2-x,1/2-y,-z
1/2+x,1/2-y,z
loop_
_atom_site_type_symbol
_atom_site_label
_atom_site_fract_x
_atom_site_fract_y
_atom_site_fract_z
Si Si1 0.234269 0.500000 0.955521
Si Si2 0.635327 0.774431 0.579170
Si Si3 0.059180 0.882374 0.851272
Si Si4 0.340942 0.000000 0.523114
Si Si5 0.672297 0.322637 0.059864
O O1 0.182653 0.500000 0.178466
O O2 0.211879 0.500000 0.667360
O O3 0.273011 0.397307 0.991996
O O4 0.576715 0.702574 0.623781
O O5 0.619126 0.896497 0.533531
O O6 0.675079 0.732720 0.335697
O O7 0.674182 0.765524 0.830826
O O8 0.051058 0.000000 0.735508
O O9 0.111269 0.886257 0.048502
O O10 0.000000 0.843092 0.000000
#
# Coordination Sequence:
#
# PCOD8108960 Si02
#       5
#     4   8   8   4   8
#     4  12  24  38  65  91 121 163 202 246 306 350
#     4  10  23  40  61  87 127 158 202 247 293 360
#     4   9  20  40  67  95 120 152 196 253 315 357
#     4  12  26  40  59  89 123 169 208 236 290 358
#     4  10  21  39  60  91 122 153 199 247 301 355
#
# _framework density 21.211939000000001
#
# number of rings (size 3 to 8) (size 9 to 14) (size 15 to 20)
#    1.500    0.250    1.250    3.000    1.750    7.000 
#    0.000    3.125    0.000    1.500    0.000    0.000 
#    0.000    0.000    0.000    0.000    0.000    0.000 
#
# Total GULP energy -198267.919709 kJ/mol
# GULP energy per Si atom -12391.744982 kJ/mol
# Density = 2.116366 g / cm^3
# Si number density = 21.211939 Si / 1000 Ang^3
#
#
#
# Elastic Constant Matrix: (Units=GPa)
#
#
# Indices 1 2 3 4 5 6 
#
# 1 66.7827 29.3605 14.0801 0.0000 -18.4946 0.0000
# 2 29.3605 167.9251 42.3642 0.0000 -40.8727 0.0000
# 3 14.0801 42.3642 130.5053 0.0000 -21.5114 0.0000
# 4 0.0000 0.0000 0.0000 71.3022 0.0000 -29.2961
# 5 -18.4946 -40.8727 -21.5114 0.0000 25.8468 0.0000
# 6 0.0000 0.0000 0.0000 -29.2961 0.0000 35.2511
#
#
#
# Elastic Compliance Matrix: (Units=1/GPa)
#
#
# Indices 1 2 3 4 5 6 
#
# 1 0.018680 -0.000038 0.000221 0.000000 0.013489 0.000000
# 2 -0.000038 0.009740 -0.000722 0.000000 0.014773 0.000000
# 3 0.000221 -0.000722 0.008937 0.000000 0.006453 0.000000
# 4 0.000000 0.000000 0.000000 0.021297 0.000000 0.017699
# 5 0.013489 0.014773 0.006453 0.000000 0.077074 0.000000
# 6 0.000000 0.000000 0.000000 0.017699 0.000000 0.043077
#
#
# Mechanical properties :
#
#
# Convention : Reuss Voigt Hill
#
# Bulk Modulus (GPa) = 27.56636 59.64695 43.60666
# Shear Modulus (GPa) = 26.04467 45.10724 35.57595
#
# Velocity S-wave (km/s) = 3.50784 4.61640 4.09977
# Velocity P-wave (km/s) = 5.42499 7.52300 6.55843
#
# Compressibility (1/GPa) = 0.03627610
#
# Stress axis : x y z
#
# Youngs Moduli (GPa) = 53.53311 102.67164 111.89487
#
# Poissons Ratio (x) = 0.00395 -0.02468
# Poissons Ratio (y) = 0.00206 0.08084
# Poissons Ratio (z) = -0.01181 0.07418
#
# Static dielectric constant tensor:
#      x y z
#    x 3.436520 0.000000 -0.033840 
#    y 0.000000 3.942240 0.000000 
#    z -0.033840 0.000000 3.702160 
# 
# 
# High freq. dielectric constant tensor:
#      x y z
#    x 1.796650 0.000000 -0.010650 
#    y 0.000000 1.839290 0.000000 
#    z -0.010650 0.000000 1.831860 
# 
# From -- ./inp_files/14574.got.cif
#   From: 2010.06.25/outbox.cif.g09.slc.cpg/sg12_8_cif.got.tgz:14574.got - 2010.06.28 00:19:55.
