data_PCOD8108326
_publ_section_title
;
Structure prediction by ZEFSAII (Michael W. Deem and Ramdas Pophale) SiO2 
 PCOD8108326
Probable space group: C 2/M
;
_chemical_formula_sum "Si O2"
_cell_formula_units_Z 40
_cell_length_a 13.197061
_cell_length_b 31.818273
_cell_length_c 14.110099
_cell_angle_alpha 90.000000
_cell_angle_beta 158.378477
_cell_angle_gamma 90.000000
_cell_volume 2183.184783
_symmetry_space_group_name_H-M "C 2/M"
_symmetry_group_IT_number 12
_symmetry_cell_setting 'monoclinic'
loop_
_space_group_symop_operation_xyz
x,y,z
-x,y,-z
-x,-y,-z
x,-y,z
1/2+x,1/2+y,z
1/2-x,1/2+y,-z
1/2-x,1/2-y,-z
1/2+x,1/2-y,z
loop_
_atom_site_type_symbol
_atom_site_label
_atom_site_fract_x
_atom_site_fract_y
_atom_site_fract_z
Si Si1 0.185772 0.250803 0.250454
Si Si2 0.688540 0.160997 0.579577
Si Si3 0.564726 0.375449 0.768226
Si Si4 0.186753 0.048020 0.752612
Si Si5 0.076748 0.327021 0.279871
O O1 0.500000 0.260448 0.500000
O O2 0.144958 0.202177 0.242458
O O3 0.088198 0.279497 0.252966
O O4 0.000000 0.262471 0.000000
O O5 0.500000 0.142556 0.500000
O O6 0.497135 0.174190 0.322862
O O7 0.910707 0.126090 0.737581
O O8 0.594243 0.423364 0.760408
O O9 0.376641 0.349324 0.529993
O O10 0.861449 0.354004 0.032243
O O11 0.000000 0.058214 0.500000
O O12 0.149252 0.000000 0.753051
O O13 0.500000 0.058089 0.000000
#
# Coordination Sequence:
#
# PCOD8108326 Si02
#       5
#     8   8   8   8   8
#     4  11  23  35  54  78 111 149 187 231 282 326
#     4   9  23  38  56  75 109 151 193 231 271 318
#     4  10  22  35  59  81 109 145 183 227 268 333
#     4  10  21  38  61  88 118 145 171 214 278 345
#     4  10  22  36  55  80 110 147 187 236 268 322
#
# _framework density 18.321857999999999
#
# number of rings (size 3 to 8) (size 9 to 14) (size 15 to 20)
#    1.200    0.800    0.000    3.000    5.600    5.600 
#    0.000    0.000    0.000    0.600    0.000    1.400 
#    0.000    0.000    0.000    0.000    0.000    0.000 
#
# Total GULP energy -247872.167033 kJ/mol
# GULP energy per Si atom -12393.608352 kJ/mol
# Density = 1.828016 g / cm^3
# Si number density = 18.321858 Si / 1000 Ang^3
#
#
#
# Elastic Constant Matrix: (Units=GPa)
#
#
# Indices 1 2 3 4 5 6 
#
# 1 109.8433 67.9252 37.6727 -0.0016 -4.7738 -0.0001
# 2 67.9252 88.5496 28.2752 -0.0004 -1.1071 0.0001
# 3 37.6727 28.2752 137.5801 -0.0053 5.7486 -0.0005
# 4 -0.0016 -0.0004 -0.0053 49.6459 -0.0025 6.7597
# 5 -4.7738 -1.1071 5.7486 -0.0025 15.4446 -0.0003
# 6 -0.0001 0.0001 -0.0005 6.7597 -0.0003 35.4123
#
#
#
# Elastic Compliance Matrix: (Units=1/GPa)
#
#
# Indices 1 2 3 4 5 6 
#
# 1 0.018415 -0.013237 -0.002560 0.000001 0.005696 0.000000
# 2 -0.013237 0.021652 -0.000730 0.000000 -0.002268 0.000000
# 3 -0.002560 -0.000730 0.008284 0.000001 -0.003927 0.000000
# 4 0.000001 0.000000 0.000001 0.020680 0.000003 -0.003948
# 5 0.005696 -0.002268 -0.003927 0.000003 0.067807 0.000000
# 6 0.000000 0.000000 0.000000 -0.003948 0.000000 0.028992
#
#
# Mechanical properties :
#
#
# Convention : Reuss Voigt Hill
#
# Bulk Modulus (GPa) = 65.37907 67.07989 66.22948
# Shear Modulus (GPa) = 24.51166 33.57390 29.04278
#
# Velocity S-wave (km/s) = 3.66161 4.28536 3.98571
# Velocity P-wave (km/s) = 7.32377 7.82158 7.57677
#
# Compressibility (1/GPa) = 0.01529542
#
# Stress axis : x y z
#
# Youngs Moduli (GPa) = 54.30306 46.18470 120.71927
#
# Poissons Ratio (x) = 0.61136 0.30904
# Poissons Ratio (y) = 0.71883 0.08818
# Poissons Ratio (z) = 0.13902 0.03374
#
# Static dielectric constant tensor:
#      x y z
#    x 3.224370 0.000000 0.000500 
#    y 0.000000 3.129360 0.000000 
#    z 0.000500 0.000000 3.498000 
# 
# 
# High freq. dielectric constant tensor:
#      x y z
#    x 1.695630 0.000000 0.002250 
#    y 0.000000 1.679620 0.000000 
#    z 0.002250 0.000000 1.729080 
# 
# From -- ./inp_files/137165.got.cif
#   From: 2010.06.25/outbox.cif.g09.slc.cpg/sg12_69_cif.got.tgz:137165.got - 2010.06.28 00:19:55.
