data_PCOD8108416
_publ_section_title
;
Structure prediction by ZEFSAII (Michael W. Deem and Ramdas Pophale) SiO2 
 PCOD8108416
Probable space group: C 2/M
;
_chemical_formula_sum "Si O2"
_cell_formula_units_Z 48
_cell_length_a 11.231439
_cell_length_b 29.349981
_cell_length_c 13.298427
_cell_angle_alpha 90.000000
_cell_angle_beta 32.392853
_cell_angle_gamma 90.000000
_cell_volume 2348.456677
_symmetry_space_group_name_H-M "C 2/M"
_symmetry_group_IT_number 12
_symmetry_cell_setting 'monoclinic'
loop_
_space_group_symop_operation_xyz
x,y,z
-x,y,-z
-x,-y,-z
x,-y,z
1/2+x,1/2+y,z
1/2-x,1/2+y,-z
1/2-x,1/2-y,-z
1/2+x,1/2-y,z
loop_
_atom_site_type_symbol
_atom_site_label
_atom_site_fract_x
_atom_site_fract_y
_atom_site_fract_z
Si Si1 0.186810 0.701011 0.506360
Si Si2 0.472046 0.448388 0.263426
Si Si3 0.771769 0.925888 0.209792
Si Si4 0.323061 0.383049 0.542215
Si Si5 0.441909 0.051186 0.829705
Si Si6 0.291442 0.319407 0.212840
O O1 0.250000 0.750000 0.500000
O O2 0.230551 0.663100 0.559689
O O3 0.328576 0.688758 0.305225
O O4 0.926969 0.706186 0.668300
O O5 0.472874 0.500000 0.303079
O O6 0.269874 0.442360 0.326924
O O7 0.443202 0.414758 0.375804
O O8 0.706937 0.435062 0.045554
O O9 0.574938 0.946398 0.280903
O O10 0.750264 0.872028 0.220763
O O11 0.000000 0.944249 0.000000
O O12 0.500000 0.368790 0.500000
O O13 0.124713 0.412295 0.735347
O O14 0.514035 0.000000 0.809414
O O15 0.500000 0.300872 0.000000
#
# Coordination Sequence:
#
# PCOD8108416 Si02
#       6
#     8   8   8   8   8   8
#     4  11  25  43  68  94 125 161 206 256 316 375
#     4  10  21  38  61  90 124 161 203 252 305 363
#     4   9  16  33  62  94 121 149 190 245 309 361
#     4  12  26  41  58  84 123 168 210 252 299 363
#     4  10  21  38  61  90 124 161 203 252 305 363
#     4  10  21  42  71  97 124 157 199 259 321 367
#
# _framework density 20.438956000000001
#
# number of rings (size 3 to 8) (size 9 to 14) (size 15 to 20)
#    0.000    1.667    3.333    1.000    2.333    5.333 
#    0.000    3.333    0.000    0.000    0.000    0.000 
#    0.000    0.000    0.000    0.000    0.000    0.000 
#
# Total GULP energy -297592.643670 kJ/mol
# GULP energy per Si atom -12399.693486 kJ/mol
# Density = 2.039244 g / cm^3
# Si number density = 20.438956 Si / 1000 Ang^3
#
#
#
# Elastic Constant Matrix: (Units=GPa)
#
#
# Indices 1 2 3 4 5 6 
#
# 1 78.7462 16.3382 0.8341 0.0000 -6.4811 0.0000
# 2 16.3382 101.5399 11.6390 0.0000 -5.4560 0.0000
# 3 0.8341 11.6390 57.4124 0.0000 2.4786 0.0000
# 4 0.0000 0.0000 0.0000 16.3096 0.0000 -7.5659
# 5 -6.4811 -5.4560 2.4786 0.0000 26.5100 0.0000
# 6 0.0000 0.0000 0.0000 -7.5659 0.0000 30.4305
#
#
#
# Elastic Compliance Matrix: (Units=1/GPa)
#
#
# Indices 1 2 3 4 5 6 
#
# 1 0.013348 -0.002005 0.000090 0.000000 0.002842 0.000000
# 2 -0.002005 0.010522 -0.002185 0.000000 0.001880 0.000000
# 3 0.000090 -0.002185 0.017950 0.000000 -0.002106 0.000000
# 4 0.000000 0.000000 0.000000 0.069307 0.000000 0.017232
# 5 0.002842 0.001880 -0.002106 0.000000 0.039000 0.000000
# 6 0.000000 0.000000 0.000000 0.017232 0.000000 0.037146
#
#
# Mechanical properties :
#
#
# Convention : Reuss Voigt Hill
#
# Bulk Modulus (GPa) = 29.74442 32.81343 31.27892
# Shear Modulus (GPa) = 24.19171 28.57586 26.38378
#
# Velocity S-wave (km/s) = 3.44409 3.74318 3.59675
# Velocity P-wave (km/s) = 5.51363 5.89670 5.70838
#
# Compressibility (1/GPa) = 0.03361975
#
# Stress axis : x y z
#
# Youngs Moduli (GPa) = 74.91729 95.03456 55.70895
#
# Poissons Ratio (x) = 0.19058 -0.00501
# Poissons Ratio (y) = 0.15024 0.12173
# Poissons Ratio (z) = -0.00674 0.20767
#
# Static dielectric constant tensor:
#      x y z
#    x 3.684810 0.000000 -0.026500 
#    y 0.000000 3.519420 0.000000 
#    z -0.026500 0.000000 3.934420 
# 
# 
# High freq. dielectric constant tensor:
#      x y z
#    x 1.788990 0.000000 -0.000190 
#    y 0.000000 1.789670 0.000000 
#    z -0.000190 0.000000 1.801970 
# 
# From -- ./inp_files/209288.got.cif
#   From: 2010.06.25/outbox.cif.g09.slc.cpg/sg12_105_cif.got.tgz:209288.got - 2010.06.28 00:19:55.
