data_PCOD8108448
_publ_section_title
;
Structure prediction by ZEFSAII (Michael W. Deem and Ramdas Pophale) SiO2 
 PCOD8108448
Probable space group: C 2/M
;
_chemical_formula_sum "Si O2"
_cell_formula_units_Z 40
_cell_length_a 15.422354
_cell_length_b 8.505205
_cell_length_c 30.501732
_cell_angle_alpha 90.000000
_cell_angle_beta 152.081966
_cell_angle_gamma 90.000000
_cell_volume 1873.262960
_symmetry_space_group_name_H-M "C 2/M"
_symmetry_group_IT_number 12
_symmetry_cell_setting 'monoclinic'
loop_
_space_group_symop_operation_xyz
x,y,z
-x,y,-z
-x,-y,-z
x,-y,z
1/2+x,1/2+y,z
1/2-x,1/2+y,-z
1/2-x,1/2-y,-z
1/2+x,1/2-y,z
loop_
_atom_site_type_symbol
_atom_site_label
_atom_site_fract_x
_atom_site_fract_y
_atom_site_fract_z
Si Si1 0.063475 0.816221 0.396693
Si Si2 0.465220 0.181254 0.710695
Si Si3 0.346263 0.180178 0.897748
Si Si4 0.791298 0.817177 0.713958
Si Si5 0.946662 0.319678 0.099745
O O1 0.250000 0.750000 0.500000
O O2 0.060284 0.787289 0.343474
O O3 0.894109 0.730645 0.344252
O O4 0.046419 0.000000 0.398275
O O5 0.663475 0.215595 0.821586
O O6 0.306152 0.224408 0.674625
O O7 0.448980 0.000000 0.689994
O O8 0.416038 0.195563 0.879595
O O9 0.298346 0.000000 0.888307
O O10 0.500000 0.246027 0.000000
O O11 0.969727 0.779457 0.823203
O O12 0.787179 0.000000 0.701404
O O13 0.925948 0.500000 0.105181
O O14 0.750000 0.250000 0.000000
#
# Coordination Sequence:
#
# PCOD8108448 Si02
#       5
#     8   8   8   8   8
#     4  12  26  48  74 103 137 176 226 282 344 407
#     4  12  25  43  69 101 136 178 227 279 340 405
#     4  10  21  38  61  92 133 179 225 276 335 398
#     4  12  25  44  69  99 137 180 227 281 339 401
#     4  11  22  37  61  94 136 180 227 279 335 400
#
# _framework density 21.353116
#
# number of rings (size 3 to 8) (size 9 to 14) (size 15 to 20)
#    0.000    0.600    2.000    7.200    0.000    3.600 
#    0.000    4.000    0.000    0.000    0.000    0.000 
#    0.000    0.000    0.000    0.000    0.000    0.000 
#
# Total GULP energy -248167.617069 kJ/mol
# GULP energy per Si atom -12408.380853 kJ/mol
# Density = 2.130452 g / cm^3
# Si number density = 21.353116 Si / 1000 Ang^3
#
#
#
# Elastic Constant Matrix: (Units=GPa)
#
#
# Indices 1 2 3 4 5 6 
#
# 1 103.7918 7.6419 29.7741 -0.0001 0.1308 0.0000
# 2 7.6419 103.2905 18.4588 -0.0001 4.3833 0.0001
# 3 29.7741 18.4588 117.2438 -0.0002 4.4386 0.0000
# 4 -0.0001 -0.0001 -0.0002 39.2797 0.0001 -0.9846
# 5 0.1308 4.3833 4.4386 0.0001 24.9434 -0.0001
# 6 0.0000 0.0001 0.0000 -0.9846 -0.0001 33.1797
#
#
#
# Elastic Compliance Matrix: (Units=1/GPa)
#
#
# Indices 1 2 3 4 5 6 
#
# 1 0.010406 -0.000323 -0.002609 0.000000 0.000467 0.000000
# 2 -0.000323 0.010026 -0.001439 0.000000 -0.001504 0.000000
# 3 -0.002609 -0.001439 0.009472 0.000000 -0.001419 0.000000
# 4 0.000000 0.000000 0.000000 0.025477 0.000000 0.000756
# 5 0.000467 -0.001504 -0.001419 0.000000 0.040605 0.000000
# 6 0.000000 0.000000 0.000000 0.000756 0.000000 0.030161
#
#
# Mechanical properties :
#
#
# Convention : Reuss Voigt Hill
#
# Bulk Modulus (GPa) = 47.25799 48.45287 47.85543
# Shear Modulus (GPa) = 35.22434 37.37729 36.30082
#
# Velocity S-wave (km/s) = 4.06595 4.18836 4.12761
# Velocity P-wave (km/s) = 6.64998 6.79193 6.72133
#
# Compressibility (1/GPa) = 0.02116045
#
# Stress axis : x y z
#
# Youngs Moduli (GPa) = 96.09420 99.73633 105.57143
#
# Poissons Ratio (x) = 0.03225 0.27549
# Poissons Ratio (y) = 0.03108 0.15197
# Poissons Ratio (z) = 0.25076 0.14357
#
# Static dielectric constant tensor:
#      x y z
#    x 4.022120 0.000000 0.018190 
#    y 0.000000 3.354430 -0.000010 
#    z 0.018190 -0.000010 3.901900 
# 
# 
# High freq. dielectric constant tensor:
#      x y z
#    x 1.853640 0.000000 -0.000290 
#    y 0.000000 1.844780 0.000000 
#    z -0.000290 0.000000 1.838550 
# 
# From -- ./inp_files/211448.got.cif
#   From: 2010.06.25/outbox.cif.g09.slc.cpg/sg12_106_cif.got.tgz:211448.got - 2010.06.28 00:19:55.
