data_PCOD8108886
_publ_section_title
;
Structure prediction by ZEFSAII (Michael W. Deem and Ramdas Pophale) SiO2 
 PCOD8108886
Probable space group: C 2/M
;
_chemical_formula_sum "Si O2"
_cell_formula_units_Z 48
_cell_length_a 27.840565
_cell_length_b 9.090137
_cell_length_c 15.569428
_cell_angle_alpha 90.000000
_cell_angle_beta 38.399183
_cell_angle_gamma 90.000000
_cell_volume 2447.418592
_symmetry_space_group_name_H-M "C 2/M"
_symmetry_group_IT_number 12
_symmetry_cell_setting 'monoclinic'
loop_
_space_group_symop_operation_xyz
x,y,z
-x,y,-z
-x,-y,-z
x,-y,z
1/2+x,1/2+y,z
1/2-x,1/2+y,-z
1/2-x,1/2-y,-z
1/2+x,1/2-y,z
loop_
_atom_site_type_symbol
_atom_site_label
_atom_site_fract_x
_atom_site_fract_y
_atom_site_fract_z
Si Si1 0.150279 0.828286 0.568918
Si Si2 0.773805 0.173220 0.879195
Si Si3 0.005353 0.331263 0.248035
Si Si4 0.300352 0.328028 0.309974
Si Si5 0.428821 0.170079 0.658500
Si Si6 0.858260 0.329496 0.068889
O O1 0.216784 0.748422 0.421214
O O2 0.158765 0.790213 0.657378
O O3 0.067920 0.774044 0.651574
O O4 0.157950 0.000000 0.539880
O O5 0.856725 0.230690 0.731403
O O6 0.712448 0.216509 0.892717
O O7 0.775770 0.000000 0.892456
O O8 0.750000 0.250000 0.000000
O O9 0.977181 0.500000 0.284100
O O10 0.052698 0.300959 0.268130
O O11 0.061021 0.293911 0.090634
O O12 0.288081 0.500000 0.314536
O O13 0.356052 0.266189 0.158171
O O14 0.500000 0.219861 0.500000
O O15 0.407885 0.000000 0.671603
O O16 0.852891 0.500000 0.101366
#
# Coordination Sequence:
#
# PCOD8108886 Si02
#       6
#     8   8   8   8   8   8
#     4  10  22  40  61  87 119 150 190 243 291 343
#     4  11  22  39  61  86 119 156 196 240 287 342
#     4  10  21  39  59  85 120 156 194 235 290 348
#     4  10  22  40  62  87 115 152 195 237 290 351
#     4  10  22  40  60  86 120 156 196 240 286 343
#     4  10  22  39  59  86 120 154 193 240 288 344
#
# _framework density 19.612500000000001
#
# number of rings (size 3 to 8) (size 9 to 14) (size 15 to 20)
#    0.000    1.833    1.667    1.500    2.333    5.667 
#    0.000    3.333    0.000    0.000    0.000    0.000 
#    0.000    0.000    0.000    0.000    0.000    0.000 
#
# Total GULP energy -297750.074333 kJ/mol
# GULP energy per Si atom -12406.253097 kJ/mol
# Density = 1.956786 g / cm^3
# Si number density = 19.612500 Si / 1000 Ang^3
#
#
#
# Elastic Constant Matrix: (Units=GPa)
#
#
# Indices 1 2 3 4 5 6 
#
# 1 20.9718 12.0170 -1.3282 0.0003 -7.1368 0.0001
# 2 12.0170 57.7523 17.3324 0.0035 0.9941 -0.0026
# 3 -1.3282 17.3324 76.1688 0.0009 6.0405 -0.0006
# 4 0.0003 0.0035 0.0009 39.6868 -0.0005 -2.5614
# 5 -7.1368 0.9941 6.0405 -0.0005 36.1878 0.0003
# 6 0.0001 -0.0026 -0.0006 -2.5614 0.0003 32.4797
#
#
#
# Elastic Compliance Matrix: (Units=1/GPa)
#
#
# Indices 1 2 3 4 5 6 
#
# 1 0.059604 -0.013564 0.003207 0.000001 0.011592 -0.000001
# 2 -0.013564 0.021673 -0.004975 -0.000002 -0.002440 0.000002
# 3 0.003207 -0.004975 0.014447 0.000000 -0.001642 0.000000
# 4 0.000001 -0.000002 0.000000 0.025326 0.000001 0.001997
# 5 0.011592 -0.002440 -0.001642 0.000001 0.030261 -0.000001
# 6 -0.000001 0.000002 0.000000 0.001997 -0.000001 0.030946
#
#
# Mechanical properties :
#
#
# Convention : Reuss Voigt Hill
#
# Bulk Modulus (GPa) = 15.37073 23.43725 19.40399
# Shear Modulus (GPa) = 21.31224 30.12897 25.72060
#
# Velocity S-wave (km/s) = 3.30004 3.92371 3.62531
# Velocity P-wave (km/s) = 4.73018 5.70118 5.23822
#
# Compressibility (1/GPa) = 0.06505872
#
# Stress axis : x y z
#
# Youngs Moduli (GPa) = 16.77753 46.14097 69.21897
#
# Poissons Ratio (x) = 0.62586 -0.22196
# Poissons Ratio (y) = 0.22757 0.34434
# Poissons Ratio (z) = -0.05380 0.22954
#
# Static dielectric constant tensor:
#      x y z
#    x 3.548330 0.000000 0.000170 
#    y 0.000000 3.541640 0.000000 
#    z 0.000170 0.000000 3.667890 
# 
# 
# High freq. dielectric constant tensor:
#      x y z
#    x 1.760930 0.000000 0.000940 
#    y 0.000000 1.764240 0.000000 
#    z 0.000940 0.000000 1.776430 
# 
# From -- ./inp_files/244651.got.cif
#   From: 2010.06.25/outbox.cif.g09.slc.cpg/sg12_123_cif.got.tgz:244651.got - 2010.06.28 00:19:55.
