data_PCOD8108148
_publ_section_title
;
Structure prediction by ZEFSAII (Michael W. Deem and Ramdas Pophale) SiO2 
 PCOD8108148
Probable space group: C 2/M
;
_chemical_formula_sum "Si O2"
_cell_formula_units_Z 56
_cell_length_a 20.315988
_cell_length_b 8.781302
_cell_length_c 17.506753
_cell_angle_alpha 90.000000
_cell_angle_beta 64.222607
_cell_angle_gamma 90.000000
_cell_volume 2812.428994
_symmetry_space_group_name_H-M "C 2/M"
_symmetry_group_IT_number 12
_symmetry_cell_setting 'monoclinic'
loop_
_space_group_symop_operation_xyz
x,y,z
-x,y,-z
-x,-y,-z
x,-y,z
1/2+x,1/2+y,z
1/2-x,1/2+y,-z
1/2-x,1/2-y,-z
1/2+x,1/2-y,z
loop_
_atom_site_type_symbol
_atom_site_label
_atom_site_fract_x
_atom_site_fract_y
_atom_site_fract_z
Si Si1 0.657441 0.821885 0.770093
Si Si2 0.077221 0.178937 0.668286
Si Si3 0.908842 0.179807 0.755242
Si Si4 0.828331 0.820735 0.948119
Si Si5 0.085475 0.826611 0.946845
Si Si6 0.821953 0.678234 0.499588
Si Si7 0.310527 0.178332 0.681510
O O1 0.626469 0.733527 0.713302
O O2 0.609110 0.785805 0.868091
O O3 0.739584 0.768750 0.745939
O O4 0.655664 0.000000 0.753722
O O5 0.105544 0.255475 0.576326
O O6 0.993333 0.224587 0.724034
O O7 0.087369 0.000000 0.655638
O O8 0.864973 0.238728 0.851578
O O9 0.879297 0.267383 0.696321
O O10 0.899739 0.000000 0.747811
O O11 0.820130 0.000000 0.948440
O O12 0.750000 0.750000 0.000000
O O13 0.878877 0.770149 0.992650
O O14 0.108759 0.000000 0.915010
O O15 0.000000 0.814473 0.000000
O O16 0.818129 0.500000 0.487057
O O17 0.750000 0.750000 0.500000
O O18 0.827538 0.719239 0.585594
O O19 0.296904 0.000000 0.700040
#
# Coordination Sequence:
#
# PCOD8108148 Si02
#       7
#     8   8   8   8   8   8   8
#     4  12  24  38  61  91 123 160 207 258 306 365
#     4  11  23  41  65  91 124 164 206 255 311 370
#     4  10  23  42  63  90 124 162 205 252 308 369
#     4  10  21  38  60  86 117 157 201 247 301 361
#     4  10  21  39  62  86 117 158 204 254 309 365
#     4  11  23  40  64  93 124 161 205 255 307 365
#     4  11  24  41  63  90 123 161 203 251 306 368
#
# _framework density 19.911614
#
# number of rings (size 3 to 8) (size 9 to 14) (size 15 to 20)
#    0.000    1.286    1.429    4.286    0.000    9.429 
#    0.000    4.286    0.000    0.000    0.000    0.000 
#    0.000    0.000    0.000    0.000    0.000    0.000 
#
# Total GULP energy -347386.042481 kJ/mol
# GULP energy per Si atom -12406.644374 kJ/mol
# Density = 1.986629 g / cm^3
# Si number density = 19.911614 Si / 1000 Ang^3
#
#
#
# Elastic Constant Matrix: (Units=GPa)
#
#
# Indices 1 2 3 4 5 6 
#
# 1 89.2883 18.8779 23.2145 0.0000 -0.3385 0.0001
# 2 18.8779 58.2918 34.7509 0.0000 -0.4091 0.0000
# 3 23.2145 34.7509 116.0648 0.0000 -5.1486 0.0000
# 4 0.0000 0.0000 0.0000 36.4100 0.0000 -2.2480
# 5 -0.3385 -0.4091 -5.1486 0.0000 35.9825 0.0000
# 6 0.0001 0.0000 0.0000 -2.2480 0.0000 31.8132
#
#
#
# Elastic Compliance Matrix: (Units=1/GPa)
#
#
# Indices 1 2 3 4 5 6 
#
# 1 0.012244 -0.003046 -0.001543 0.000000 -0.000140 0.000000
# 2 -0.003046 0.021656 -0.005903 0.000000 -0.000627 0.000000
# 3 -0.001543 -0.005903 0.010756 0.000000 0.001457 0.000000
# 4 0.000000 0.000000 0.000000 0.027585 0.000000 0.001949
# 5 -0.000140 -0.000627 0.001457 0.000000 0.027991 0.000000
# 6 0.000000 0.000000 0.000000 0.001949 0.000000 0.031571
#
#
# Mechanical properties :
#
#
# Convention : Reuss Voigt Hill
#
# Bulk Modulus (GPa) = 42.24258 46.37016 44.30637
# Shear Modulus (GPa) = 31.11774 33.29458 32.20616
#
# Velocity S-wave (km/s) = 3.95751 4.09359 4.02612
# Velocity P-wave (km/s) = 6.49181 6.75884 6.62667
#
# Compressibility (1/GPa) = 0.02367280
#
# Stress axis : x y z
#
# Youngs Moduli (GPa) = 81.66967 46.17638 92.96744
#
# Poissons Ratio (x) = 0.14067 0.14346
# Poissons Ratio (y) = 0.24880 0.54874
# Poissons Ratio (z) = 0.12603 0.27256
#
# Static dielectric constant tensor:
#      x y z
#    x 3.674010 0.000000 0.139900 
#    y 0.000000 3.672350 0.000000 
#    z 0.139900 0.000000 3.795350 
# 
# 
# High freq. dielectric constant tensor:
#      x y z
#    x 1.785470 0.000000 0.000660 
#    y 0.000000 1.776440 0.000000 
#    z 0.000660 0.000000 1.792350 
# 
# From -- ./inp_files/280865.got.cif
#   From: 2010.06.25/outbox.cif.g09.slc.cpg/sg12_141_cif.got.tgz:280865.got - 2010.06.28 00:19:55.
