data_PCOD8108937
_publ_section_title
;
Structure prediction by ZEFSAII (Michael W. Deem and Ramdas Pophale) SiO2 
 PCOD8108937
Probable space group: C 2/M
;
_chemical_formula_sum "Si O2"
_cell_formula_units_Z 48
_cell_length_a 27.881910
_cell_length_b 8.766611
_cell_length_c 9.831370
_cell_angle_alpha 90.000000
_cell_angle_beta 79.912304
_cell_angle_gamma 90.000000
_cell_volume 2365.930721
_symmetry_space_group_name_H-M "C 2/M"
_symmetry_group_IT_number 12
_symmetry_cell_setting 'monoclinic'
loop_
_space_group_symop_operation_xyz
x,y,z
-x,y,-z
-x,-y,-z
x,-y,z
1/2+x,1/2+y,z
1/2-x,1/2+y,-z
1/2-x,1/2-y,-z
1/2+x,1/2-y,z
loop_
_atom_site_type_symbol
_atom_site_label
_atom_site_fract_x
_atom_site_fract_y
_atom_site_fract_z
Si Si1 0.856449 0.179953 0.056788
Si Si2 0.380672 0.820756 0.766885
Si Si3 0.706375 0.822694 0.690010
Si Si4 0.509645 0.820156 0.344312
Si Si5 0.959622 0.819858 0.123982
Si Si6 0.682756 0.676864 0.426656
O O1 0.812690 0.263601 0.155975
O O2 0.907025 0.234000 0.098809
O O3 0.848935 0.000000 0.069500
O O4 0.854653 0.230204 0.901179
O O5 0.436904 0.769935 0.731716
O O6 0.355389 0.776253 0.638580
O O7 0.375453 0.000000 0.794219
O O8 0.679485 0.729098 0.584581
O O9 0.763791 0.790908 0.659160
O O10 0.694718 0.000000 0.675731
O O11 0.500000 0.756479 0.500000
O O12 0.468798 0.748343 0.267902
O O13 0.503428 0.000000 0.344334
O O14 0.963142 0.000000 0.131332
O O15 0.000000 0.754665 0.000000
O O16 0.668521 0.500000 0.424797
#
# Coordination Sequence:
#
# PCOD8108937 Si02
#       6
#     8   8   8   8   8   8
#     4  11  23  39  61  89 120 157 201 246 295 351
#     4  11  23  39  60  88 121 159 200 245 296 349
#     4  10  22  41  64  90 119 154 196 242 296 357
#     4  10  23  40  58  86 120 156 197 241 292 349
#     4  10  21  39  60  85 118 156 196 240 290 347
#     4  10  22  41  64  89 120 156 194 242 297 353
#
# _framework density 20.287998000000002
#
# number of rings (size 3 to 8) (size 9 to 14) (size 15 to 20)
#    0.000    1.667    1.667    2.000    2.333    5.333 
#    0.000    0.000    0.000    0.000    0.000    0.000 
#    0.000    0.000    0.000    0.000    0.000    0.000 
#
# Total GULP energy -297773.351995 kJ/mol
# GULP energy per Si atom -12407.223000 kJ/mol
# Density = 2.024182 g / cm^3
# Si number density = 20.287998 Si / 1000 Ang^3
#
#
#
# Elastic Constant Matrix: (Units=GPa)
#
#
# Indices 1 2 3 4 5 6 
#
# 1 33.4689 22.9561 -0.9990 0.0000 5.4899 0.0000
# 2 22.9561 44.2855 10.5070 0.0000 -2.9907 0.0000
# 3 -0.9990 10.5070 81.8111 0.0000 -2.1877 0.0000
# 4 0.0000 0.0000 0.0000 40.6839 0.0000 4.6012
# 5 5.4899 -2.9907 -2.1877 0.0000 39.2357 0.0000
# 6 0.0000 0.0000 0.0000 4.6012 0.0000 25.7207
#
#
#
# Elastic Compliance Matrix: (Units=1/GPa)
#
#
# Indices 1 2 3 4 5 6 
#
# 1 0.050460 -0.027695 0.003934 0.000000 -0.008952 0.000000
# 2 -0.027695 0.038593 -0.005120 0.000000 0.006531 0.000000
# 3 0.003934 -0.005120 0.012923 0.000000 -0.000220 0.000000
# 4 0.000000 0.000000 0.000000 0.025087 0.000000 -0.004488
# 5 -0.008952 0.006531 -0.000220 0.000000 0.027225 0.000000
# 6 0.000000 0.000000 0.000000 -0.004488 0.000000 0.039682
#
#
# Mechanical properties :
#
#
# Convention : Reuss Voigt Hill
#
# Bulk Modulus (GPa) = 22.61751 24.94375 23.78063
# Shear Modulus (GPa) = 18.76386 29.60146 24.18266
#
# Velocity S-wave (km/s) = 3.04448 3.82391 3.45624
# Velocity P-wave (km/s) = 4.85086 5.64074 5.26065
#
# Compressibility (1/GPa) = 0.04421353
#
# Stress axis : x y z
#
# Youngs Moduli (GPa) = 19.81773 25.91175 77.38150
#
# Poissons Ratio (x) = 0.71761 -0.30439
# Poissons Ratio (y) = 0.54884 0.39619
# Poissons Ratio (z) = -0.07795 0.13267
#
# Static dielectric constant tensor:
#      x y z
#    x 3.667510 0.000000 -0.067760 
#    y 0.000000 3.561980 0.000000 
#    z -0.067760 0.000000 3.719810 
# 
# 
# High freq. dielectric constant tensor:
#      x y z
#    x 1.790850 0.000000 -0.001100 
#    y 0.000000 1.793320 0.000000 
#    z -0.001100 0.000000 1.802480 
# 
# From -- ./inp_files/108635.got.cif
#   From: 2010.06.25/outbox.cif.g09.slc.cpg/sg12_55_cif.got.tgz:108635.got - 2010.06.28 00:19:55.
