data_PCOD8108262
_publ_section_title
;
Structure prediction by ZEFSAII (Michael W. Deem and Ramdas Pophale) SiO2 
 PCOD8108262
Probable space group: C 2/M
;
_chemical_formula_sum "Si O2"
_cell_formula_units_Z 48
_cell_length_a 25.764521
_cell_length_b 13.662605
_cell_length_c 9.984097
_cell_angle_alpha 90.000000
_cell_angle_beta 39.426810
_cell_angle_gamma 90.000000
_cell_volume 2232.035179
_symmetry_space_group_name_H-M "C 2/M"
_symmetry_group_IT_number 12
_symmetry_cell_setting 'monoclinic'
loop_
_space_group_symop_operation_xyz
x,y,z
-x,y,-z
-x,-y,-z
x,-y,z
1/2+x,1/2+y,z
1/2-x,1/2+y,-z
1/2-x,1/2-y,-z
1/2+x,1/2-y,z
loop_
_atom_site_type_symbol
_atom_site_label
_atom_site_fract_x
_atom_site_fract_y
_atom_site_fract_z
Si Si1 0.836959 0.296111 0.951814
Si Si2 0.329165 0.890782 0.699509
Si Si3 0.966346 0.194863 0.205995
Si Si4 0.783680 0.759216 0.582780
Si Si5 0.493662 0.890776 0.745889
Si Si6 0.941155 0.888376 0.737290
O O1 0.796159 0.325775 0.890370
O O2 0.915001 0.366359 0.813445
O O3 0.861902 0.181440 0.898808
O O4 0.777819 0.317503 0.196220
O O5 0.296864 0.847460 0.623102
O O6 0.427492 0.887432 0.507217
O O7 0.294870 0.000000 0.780429
O O8 0.868867 0.183009 0.407618
O O9 0.996081 0.307868 0.160897
O O10 0.005175 0.124070 0.237669
O O11 0.000000 0.154695 0.000000
O O12 0.750000 0.750000 0.500000
O O13 0.484930 0.000000 0.826869
O O14 0.000000 0.856001 0.500000
O O15 0.910819 0.000000 0.783501
#
# Coordination Sequence:
#
# PCOD8108262 Si02
#       6
#     8   8   8   8   8   8
#     4  11  20  36  62  89 120 149 186 244 298 344
#     4  10  21  38  62  89 118 155 195 235 286 349
#     4  10  21  40  61  81 112 153 195 238 285 343
#     4  11  23  39  57  83 120 160 196 239 295 344
#     4   9  18  34  60  91 118 147 186 233 289 351
#     4  10  21  38  61  86 112 150 198 239 281 341
#
# _framework density 21.505037000000002
#
# number of rings (size 3 to 8) (size 9 to 14) (size 15 to 20)
#    0.000    1.833    0.000    6.500    0.000    2.667 
#    0.000    9.167    0.000    1.000    0.000    0.000 
#    0.000    0.000    0.000    0.000    0.000    0.000 
#
# Total GULP energy -297595.279967 kJ/mol
# GULP energy per Si atom -12399.803332 kJ/mol
# Density = 2.145609 g / cm^3
# Si number density = 21.505037 Si / 1000 Ang^3
#
#
#
# Elastic Constant Matrix: (Units=GPa)
#
#
# Indices 1 2 3 4 5 6 
#
# 1 107.5491 36.2780 53.3139 0.0000 24.2251 0.0000
# 2 36.2780 90.3321 36.0687 0.0000 -1.8978 0.0000
# 3 53.3139 36.0687 131.4472 0.0000 24.8634 0.0000
# 4 0.0000 0.0000 0.0000 -44.1479 0.0000 -4.3408
# 5 24.2251 -1.8978 24.8634 0.0000 40.3826 0.0000
# 6 0.0000 0.0000 0.0000 -4.3408 0.0000 15.2849
#
#
#
# Elastic Compliance Matrix: (Units=1/GPa)
#
#
# Indices 1 2 3 4 5 6 
#
# 1 0.013837 -0.004436 -0.003152 0.000000 -0.006568 0.000000
# 2 -0.004436 0.014193 -0.003084 0.000000 0.005227 0.000000
# 3 -0.003152 -0.003084 0.010641 0.000000 -0.004806 0.000000
# 4 0.000000 0.000000 0.000000 -0.022036 0.000000 -0.006258
# 5 -0.006568 0.005227 -0.004806 0.000000 0.031908 0.000000
# 6 0.000000 0.000000 0.000000 -0.006258 0.000000 0.063647
#
#
# Mechanical properties :
#
#
# Convention : Reuss Voigt Hill
#
# Bulk Modulus (GPa) = 57.71644 64.51662 61.11653
# Shear Modulus (GPa) = 35.89108 15.88176 25.88642
#
# Velocity S-wave (km/s) = 4.08972 2.72051 3.47326
# Velocity P-wave (km/s) = 7.01413 6.31934 6.67578
#
# Compressibility (1/GPa) = 0.01732609
#
# Stress axis : x y z
#
# Youngs Moduli (GPa) = 72.27221 70.45702 93.97228
#
# Poissons Ratio (x) = 0.31256 0.29624
# Poissons Ratio (y) = 0.32061 0.28981
# Poissons Ratio (z) = 0.22783 0.21729
#
# Static dielectric constant tensor:
#      x y z
#    x 3.834380 0.000000 -0.145590 
#    y 0.000000 3.746440 0.000000 
#    z -0.145590 0.000000 3.939680 
# 
# 
# High freq. dielectric constant tensor:
#      x y z
#    x 1.848370 0.000000 -0.007560 
#    y 0.000000 1.827320 0.000000 
#    z -0.007560 0.000000 1.848570 
# 
# From -- ./inp_files/104949.got.cif
#   From: 2010.06.25/outbox.cif.g09.slc.cpg/sg12_53_cif.got.tgz:104949.got - 2010.06.28 00:19:55.
