data_PCOD8108222
_publ_section_title
;
Structure prediction by ZEFSAII (Michael W. Deem and Ramdas Pophale) SiO2 
 PCOD8108222
Probable space group: C 2/M
;
_chemical_formula_sum "Si O2"
_cell_formula_units_Z 56
_cell_length_a 28.949319
_cell_length_b 8.707567
_cell_length_c 10.715032
_cell_angle_alpha 90.000000
_cell_angle_beta 100.388809
_cell_angle_gamma 90.000000
_cell_volume 2656.746593
_symmetry_space_group_name_H-M "C 2/M"
_symmetry_group_IT_number 12
_symmetry_cell_setting 'monoclinic'
loop_
_space_group_symop_operation_xyz
x,y,z
-x,y,-z
-x,-y,-z
x,-y,z
1/2+x,1/2+y,z
1/2-x,1/2+y,-z
1/2-x,1/2-y,-z
1/2+x,1/2-y,z
loop_
_atom_site_type_symbol
_atom_site_label
_atom_site_fract_x
_atom_site_fract_y
_atom_site_fract_z
Si Si1 0.606909 0.320902 0.289340
Si Si2 0.611556 0.819542 0.549163
Si Si3 0.803977 0.820073 0.288545
Si Si4 0.799903 0.675981 0.041033
Si Si5 0.519787 0.819328 0.144472
Si Si6 0.470751 0.681308 0.362984
Si Si7 0.695244 0.824903 0.233054
O O1 0.597867 0.500000 0.269765
O O2 0.591289 0.268225 0.418936
O O3 0.574536 0.230082 0.174515
O O4 0.661904 0.282162 0.298958
O O5 0.665825 0.770348 0.594462
O O6 0.579827 0.765185 0.650280
O O7 0.608430 0.000000 0.526383
O O8 0.825119 0.770855 0.163351
O O9 0.749325 0.770475 0.273426
O O10 0.810516 0.000000 0.310572
O O11 0.795385 0.500000 0.081606
O O12 0.750000 0.750000 0.000000
O O13 0.824536 0.688620 0.918428
O O14 0.493452 0.733791 0.244215
O O15 0.514324 0.000000 0.161452
O O16 0.500000 0.768525 0.000000
O O17 0.500000 0.731389 0.500000
O O18 0.463373 0.500000 0.354837
O O19 0.691022 0.000000 0.277499
#
# Coordination Sequence:
#
# PCOD8108222 Si02
#       7
#     8   8   8   8   8   8   8
#     4  12  25  41  63  91 124 165 211 261 319 382
#     4  12  25  41  65  92 124 166 212 261 316 383
#     4  10  21  38  60  89 125 162 210 265 314 372
#     4   9  17  32  55  82 115 156 204 253 308 369
#     4  11  25  45  70 100 133 169 213 266 323 387
#     4  11  23  42  70  99 128 166 212 263 320 383
#     4   9  20  38  60  86 122 168 209 255 313 375
#
# _framework density 21.078412
#
# number of rings (size 3 to 8) (size 9 to 14) (size 15 to 20)
#    0.000    1.429    1.429    5.143    0.000    6.857 
#    0.000    1.429    0.000    0.000    0.000    0.000 
#    0.000    0.000    0.000    0.000    0.000    0.000 
#
# Total GULP energy -347168.645429 kJ/mol
# GULP energy per Si atom -12398.880194 kJ/mol
# Density = 2.103044 g / cm^3
# Si number density = 21.078412 Si / 1000 Ang^3
#
#
#
# Elastic Constant Matrix: (Units=GPa)
#
#
# Indices 1 2 3 4 5 6 
#
# 1 97.2634 26.0150 36.3260 0.0000 1.4271 0.0000
# 2 26.0150 77.1780 32.3072 0.0000 -0.8985 0.0000
# 3 36.3260 32.3072 111.1708 0.0000 7.6663 0.0000
# 4 0.0000 0.0000 0.0000 37.3975 0.0000 -0.9863
# 5 1.4271 -0.8985 7.6663 0.0000 31.7275 0.0000
# 6 0.0000 0.0000 0.0000 -0.9863 0.0000 34.1142
#
#
#
# Elastic Compliance Matrix: (Units=1/GPa)
#
#
# Indices 1 2 3 4 5 6 
#
# 1 0.012215 -0.002779 -0.003194 0.000000 0.000144 0.000000
# 2 -0.002779 0.015452 -0.003683 0.000000 0.001452 0.000000
# 3 -0.003194 -0.003683 0.011294 0.000000 -0.002690 0.000000
# 4 0.000000 0.000000 0.000000 0.026760 0.000000 0.000774
# 5 0.000144 0.001452 -0.002690 0.000000 0.032203 0.000000
# 6 0.000000 0.000000 0.000000 0.000774 0.000000 0.029336
#
#
# Mechanical properties :
#
#
# Convention : Reuss Voigt Hill
#
# Bulk Modulus (GPa) = 50.88723 52.76764 51.82744
# Shear Modulus (GPa) = 32.65368 33.37878 33.01623
#
# Velocity S-wave (km/s) = 3.94020 3.98371 3.96201
# Velocity P-wave (km/s) = 6.70034 6.80060 6.75066
#
# Compressibility (1/GPa) = 0.01965130
#
# Stress axis : x y z
#
# Youngs Moduli (GPa) = 81.86424 64.71540 88.53888
#
# Poissons Ratio (x) = 0.17984 0.28278
# Poissons Ratio (y) = 0.22749 0.32606
# Poissons Ratio (z) = 0.26146 0.23833
#
# Static dielectric constant tensor:
#      x y z
#    x 3.743750 0.000000 -0.003520 
#    y 0.000000 3.856620 0.000000 
#    z -0.003520 0.000000 4.197160 
# 
# 
# High freq. dielectric constant tensor:
#      x y z
#    x 1.819780 0.000000 0.000210 
#    y 0.000000 1.832020 0.000000 
#    z 0.000210 0.000000 1.826370 
# 
# From -- ./inp_files/186795.got.cif
#   From: 2010.06.25/outbox.cif.g09.slc.cpg/sg12_94_cif.got.tgz:186795.got - 2010.06.28 00:19:55.
