data_PCOD8108907
_publ_section_title
;
Structure prediction by ZEFSAII (Michael W. Deem and Ramdas Pophale) SiO2 
 PCOD8108907
Probable space group: C 2/M
;
_chemical_formula_sum "Si O2"
_cell_formula_units_Z 56
_cell_length_a 19.919792
_cell_length_b 8.952480
_cell_length_c 28.914215
_cell_angle_alpha 90.000000
_cell_angle_beta 34.704766
_cell_angle_gamma 90.000000
_cell_volume 2935.738004
_symmetry_space_group_name_H-M "C 2/M"
_symmetry_group_IT_number 12
_symmetry_cell_setting 'monoclinic'
loop_
_space_group_symop_operation_xyz
x,y,z
-x,y,-z
-x,-y,-z
x,-y,z
1/2+x,1/2+y,z
1/2-x,1/2+y,-z
1/2-x,1/2-y,-z
1/2+x,1/2-y,z
loop_
_atom_site_type_symbol
_atom_site_label
_atom_site_fract_x
_atom_site_fract_y
_atom_site_fract_z
Si Si1 0.976011 0.174931 0.812104
Si Si2 0.352191 0.825694 0.672036
Si Si3 0.236238 0.171521 0.642761
Si Si4 0.042571 0.322359 0.079048
Si Si5 0.333022 0.327105 0.147986
Si Si6 0.938269 0.830856 0.485615
Si Si7 0.247197 0.825630 0.910078
O O1 0.989761 0.254954 0.853325
O O2 0.875630 0.251587 0.838313
O O3 0.097264 0.199049 0.715251
O O4 0.950412 0.000000 0.834445
O O5 0.273654 0.774300 0.672830
O O6 0.281749 0.777996 0.757902
O O7 0.479761 0.746475 0.599443
O O8 0.377105 0.000000 0.657132
O O9 0.307916 0.259676 0.562543
O O10 0.270316 0.000000 0.617361
O O11 0.050524 0.500000 0.077442
O O12 0.943977 0.274355 0.098033
O O13 0.168349 0.256744 0.992813
O O14 0.364723 0.500000 0.140456
O O15 0.308016 0.300111 0.108704
O O16 0.000000 0.810472 0.500000
O O17 0.922556 0.000000 0.479388
O O18 0.256628 0.000000 0.917193
#
# Coordination Sequence:
#
# PCOD8108907 Si02
#       7
#     8   8   8   8   8   8   8
#     4  11  22  39  60  82 112 146 187 231 277 330
#     4   9  16  31  53  77 105 140 181 218 266 325
#     4   9  17  31  53  77 104 141 180 220 267 324
#     4  12  24  38  59  84 111 143 186 234 279 327
#     4  10  21  39  60  82 111 148 186 228 276 331
#     4   9  17  27  44  76 113 140 169 218 272 316
#     4  11  24  40  58  81 112 148 186 228 280 332
#
# _framework density 19.075271000000001
#
# number of rings (size 3 to 8) (size 9 to 14) (size 15 to 20)
#    0.000    1.857    1.429    3.429    0.000    6.286 
#    0.000    0.000    0.000    0.857    0.000    0.000 
#    0.000    0.000    0.000    0.000    0.000    0.000 
#
# Total GULP energy -347274.724455 kJ/mol
# GULP energy per Si atom -12402.668731 kJ/mol
# Density = 1.903185 g / cm^3
# Si number density = 19.075271 Si / 1000 Ang^3
#
#
#
# Elastic Constant Matrix: (Units=GPa)
#
#
# Indices 1 2 3 4 5 6 
#
# 1 44.7804 35.4381 15.9420 0.0009 -17.2582 -0.0060
# 2 35.4381 109.6993 48.8322 0.0007 -16.7758 -0.0038
# 3 15.9420 48.8322 109.5067 -0.0001 -20.5378 -0.0004
# 4 0.0009 0.0007 -0.0001 31.1723 -0.0002 -7.9297
# 5 -17.2582 -16.7758 -20.5378 -0.0002 22.4610 0.0037
# 6 -0.0060 -0.0038 -0.0004 -7.9297 0.0037 24.4476
#
#
#
# Elastic Compliance Matrix: (Units=1/GPa)
#
#
# Indices 1 2 3 4 5 6 
#
# 1 0.039130 -0.010376 0.003761 0.000000 0.025755 0.000004
# 2 -0.010376 0.014543 -0.005350 0.000000 -0.002003 0.000000
# 3 0.003761 -0.005350 0.012990 0.000000 0.010772 -0.000001
# 4 0.000000 0.000000 0.000000 0.034965 -0.000001 0.011341
# 5 0.025755 -0.002003 0.010772 -0.000001 0.072664 -0.000005
# 6 0.000004 0.000000 -0.000001 0.011341 -0.000005 0.044582
#
#
# Mechanical properties :
#
#
# Convention : Reuss Voigt Hill
#
# Bulk Modulus (GPa) = 23.40179 51.60122 37.50150
# Shear Modulus (GPa) = 19.45150 26.53448 22.99299
#
# Velocity S-wave (km/s) = 3.19678 3.73371 3.47563
# Velocity P-wave (km/s) = 5.09123 6.76000 5.98407
#
# Compressibility (1/GPa) = 0.04273177
#
# Stress axis : x y z
#
# Youngs Moduli (GPa) = 25.55609 68.76044 76.97972
#
# Poissons Ratio (x) = 0.71348 -0.28951
# Poissons Ratio (y) = 0.26518 0.41186
# Poissons Ratio (z) = -0.09611 0.36789
#
# Static dielectric constant tensor:
#      x y z
#    x 3.148940 0.000000 -0.109680 
#    y 0.000000 3.512200 0.000000 
#    z -0.109680 0.000000 3.690560 
# 
# 
# High freq. dielectric constant tensor:
#      x y z
#    x 1.702940 0.000000 -0.010110 
#    y 0.000000 1.744710 0.000000 
#    z -0.010110 0.000000 1.758440 
# 
# From -- ./inp_files/319669.got.cif
#   From: 2010.06.25/outbox.cif.g09.slc.cpg/sg12_160_cif.got.tgz:319669.got - 2010.06.28 00:19:55.
