data_PCOD8108709
_publ_section_title
;
Structure prediction by ZEFSAII (Michael W. Deem and Ramdas Pophale) SiO2 
 PCOD8108709
Probable space group: C 2/M
;
_chemical_formula_sum "Si O2"
_cell_formula_units_Z 64
_cell_length_a 15.499150
_cell_length_b 24.902966
_cell_length_c 12.009835
_cell_angle_alpha 90.000000
_cell_angle_beta 40.804239
_cell_angle_gamma 90.000000
_cell_volume 3029.186718
_symmetry_space_group_name_H-M "C 2/M"
_symmetry_group_IT_number 12
_symmetry_cell_setting 'monoclinic'
loop_
_space_group_symop_operation_xyz
x,y,z
-x,y,-z
-x,-y,-z
x,-y,z
1/2+x,1/2+y,z
1/2-x,1/2+y,-z
1/2-x,1/2-y,-z
1/2+x,1/2-y,z
loop_
_atom_site_type_symbol
_atom_site_label
_atom_site_fract_x
_atom_site_fract_y
_atom_site_fract_z
Si Si1 0.362417 0.700539 0.098411
Si Si2 0.156715 0.389217 0.347709
Si Si3 0.288298 0.062701 0.468039
Si Si4 0.690031 0.182249 0.849169
Si Si5 0.105000 0.879336 0.492960
Si Si6 0.744985 0.559688 0.969754
Si Si7 0.891241 0.832715 0.834512
Si Si8 0.531104 0.911878 0.087388
O O1 0.233982 0.666805 0.257695
O O2 0.352746 0.760369 0.159711
O O3 0.500000 0.672258 0.000000
O O4 0.380252 0.706354 0.949019
O O5 0.213489 0.415514 0.404424
O O6 0.186291 0.428458 0.215666
O O7 0.000000 0.377833 0.500000
O O8 0.153097 0.073922 0.530883
O O9 0.407287 0.091726 0.288936
O O10 0.314914 0.000000 0.445804
O O11 0.762207 0.145352 0.687620
O O12 0.791735 0.194481 0.847279
O O13 0.567389 0.149873 0.021735
O O14 0.000000 0.899984 0.500000
O O15 0.034867 0.833597 0.636498
O O16 0.680447 0.500000 0.027064
O O17 0.851016 0.557981 0.965667
O O18 0.638241 0.605041 0.102946
O O19 0.500000 0.942053 0.000000
#
# Coordination Sequence:
#
# PCOD8108709 Si02
#       8
#     8   8   8   8   8   8   8   8
#     4  11  23  41  66  94 124 169 218 270 333 389
#     4  11  24  43  64  97 135 167 222 278 323 392
#     4  12  25  40  65  94 129 173 214 270 326 382
#     4  10  21  41  63  86 124 167 207 266 326 385
#     4  10  22  43  61  90 131 168 213 267 323 395
#     4  10  21  38  64  91 124 172 211 261 326 378
#     4   9  21  40  61  89 126 163 210 265 312 395
#     4  11  21  38  58  92 129 159 210 266 313 382
#
# _framework density 21.127783000000001
#
# number of rings (size 3 to 8) (size 9 to 14) (size 15 to 20)
#    0.000    1.500    2.500    2.250    0.000    3.750 
#    2.250    1.250    0.000    4.125    0.000    0.000 
#    0.000    0.000    0.000    0.000    0.000    0.000 
#
# Total GULP energy -396617.316057 kJ/mol
# GULP energy per Si atom -12394.291127 kJ/mol
# Density = 2.107969 g / cm^3
# Si number density = 21.127783 Si / 1000 Ang^3
#
#
#
# Elastic Constant Matrix: (Units=GPa)
#
#
# Indices 1 2 3 4 5 6 
#
# 1 107.3617 30.5404 32.7522 0.0000 13.4873 0.0001
# 2 30.5404 99.6895 22.0251 0.0000 -3.7805 0.0000
# 3 32.7522 22.0251 77.9016 -0.0001 13.4095 0.0001
# 4 0.0000 0.0000 -0.0001 40.7427 0.0001 -19.0792
# 5 13.4873 -3.7805 13.4095 0.0001 34.9579 -0.0001
# 6 0.0001 0.0000 0.0001 -19.0792 -0.0001 24.0155
#
#
#
# Elastic Compliance Matrix: (Units=1/GPa)
#
#
# Indices 1 2 3 4 5 6 
#
# 1 0.011643 -0.002933 -0.003467 0.000000 -0.003479 0.000000
# 2 -0.002933 0.011643 -0.002645 0.000000 0.003405 0.000000
# 3 -0.003467 -0.002645 0.015912 0.000000 -0.005052 0.000000
# 4 0.000000 0.000000 0.000000 0.039085 0.000000 0.031052
# 5 -0.003479 0.003405 -0.005052 0.000000 0.032254 0.000000
# 6 0.000000 0.000000 0.000000 0.031052 0.000000 0.066309
#
#
# Mechanical properties :
#
#
# Convention : Reuss Voigt Hill
#
# Bulk Modulus (GPa) = 47.37442 50.62091 48.99766
# Shear Modulus (GPa) = 24.75577 33.25223 29.00400
#
# Velocity S-wave (km/s) = 3.42675 3.97150 3.70914
# Velocity P-wave (km/s) = 6.17481 6.71132 6.44865
#
# Compressibility (1/GPa) = 0.02110844
#
# Stress axis : x y z
#
# Youngs Moduli (GPa) = 85.88551 85.88723 62.84649
#
# Poissons Ratio (x) = 0.25190 0.21789
# Poissons Ratio (y) = 0.25190 0.16622
# Poissons Ratio (z) = 0.29777 0.22717
#
# Static dielectric constant tensor:
#      x y z
#    x 4.186460 0.000000 0.114100 
#    y 0.000000 3.450840 0.000000 
#    z 0.114100 0.000000 3.905110 
# 
# 
# High freq. dielectric constant tensor:
#      x y z
#    x 1.846690 0.000000 0.004540 
#    y 0.000000 1.805000 0.000000 
#    z 0.004540 0.000000 1.832610 
# 
# From -- ./inp_files/149750.got.cif
#   From: 2010.06.25/outbox.cif.g09.slc.cpg/sg12_75_cif.got.tgz:149750.got - 2010.06.28 00:19:55.
