data_PCOD8108748
_publ_section_title
;
Structure prediction by ZEFSAII (Michael W. Deem and Ramdas Pophale) SiO2 
 PCOD8108748
Probable space group: C 2/M
;
_chemical_formula_sum "Si O2"
_cell_formula_units_Z 48
_cell_length_a 13.393574
_cell_length_b 27.322268
_cell_length_c 10.982558
_cell_angle_alpha 90.000000
_cell_angle_beta 145.174101
_cell_angle_gamma 90.000000
_cell_volume 2295.182636
_symmetry_space_group_name_H-M "C 2/M"
_symmetry_group_IT_number 12
_symmetry_cell_setting 'monoclinic'
loop_
_space_group_symop_operation_xyz
x,y,z
-x,y,-z
-x,-y,-z
x,-y,z
1/2+x,1/2+y,z
1/2-x,1/2+y,-z
1/2-x,1/2-y,-z
1/2+x,1/2-y,z
loop_
_atom_site_type_symbol
_atom_site_label
_atom_site_fract_x
_atom_site_fract_y
_atom_site_fract_z
Si Si1 0.808671 0.194483 0.562568
Si Si2 0.986094 0.365862 0.845659
Si Si3 0.170332 0.147508 0.923838
Si Si4 0.829836 0.555285 0.535747
Si Si5 0.799296 0.364004 0.319099
Si Si6 0.018473 0.054492 0.658630
O O1 0.750000 0.250000 0.500000
O O2 0.691205 0.164841 0.348714
O O3 0.779744 0.175627 0.669215
O O4 0.012858 0.184984 0.733479
O O5 0.982754 0.414498 0.757260
O O6 0.000000 0.380728 0.000000
O O7 0.151622 0.333627 0.963418
O O8 0.144954 0.093153 0.846811
O O9 0.188103 0.141135 0.085956
O O10 0.891702 0.500000 0.570379
O O11 0.782391 0.581444 0.359972
O O12 0.668082 0.556694 0.464424
O O13 0.000000 0.350371 0.500000
O O14 0.000000 0.069059 0.500000
O O15 0.099306 0.000000 0.752555
#
# Coordination Sequence:
#
# PCOD8108748 Si02
#       6
#     8   8   8   8   8   8
#     4  11  26  47  68  99 128 166 223 279 339 407
#     4  11  24  43  65  98 135 175 224 272 332 400
#     4  12  23  42  74  93 132 183 212 275 340 389
#     4  10  21  40  64  96 138 177 223 272 320 391
#     4  11  22  46  67  95 138 171 216 277 332 394
#     4  10  21  38  64  99 136 178 225 270 326 394
#
# _framework density 20.913368999999999
#
# number of rings (size 3 to 8) (size 9 to 14) (size 15 to 20)
#    0.000    1.167    6.667    1.500    0.000    4.000 
#    3.000    1.667    0.000    0.000    0.000    0.000 
#    0.000    0.000    0.000    0.000    0.000    0.000 
#
# Total GULP energy -297580.012979 kJ/mol
# GULP energy per Si atom -12399.167207 kJ/mol
# Density = 2.086577 g / cm^3
# Si number density = 20.913369 Si / 1000 Ang^3
#
#
#
# Elastic Constant Matrix: (Units=GPa)
#
#
# Indices 1 2 3 4 5 6 
#
# 1 75.9358 7.2656 31.4008 0.0000 2.8761 0.0000
# 2 7.2656 117.4510 46.5833 0.0000 -10.2510 0.0000
# 3 31.4008 46.5833 121.5278 0.0000 -2.5844 0.0000
# 4 0.0000 0.0000 0.0000 23.2803 0.0000 -7.7588
# 5 2.8761 -10.2510 -2.5844 0.0000 40.8120 0.0000
# 6 0.0000 0.0000 0.0000 -7.7588 0.0000 28.6922
#
#
#
# Elastic Compliance Matrix: (Units=1/GPa)
#
#
# Indices 1 2 3 4 5 6 
#
# 1 0.014847 0.000604 -0.004092 0.000000 -0.001154 0.000000
# 2 0.000604 0.010282 -0.004049 0.000000 0.002284 0.000000
# 3 -0.004092 -0.004049 0.010837 0.000000 -0.000042 0.000000
# 4 0.000000 0.000000 0.000000 0.047209 0.000000 0.012766
# 5 -0.001154 0.002284 -0.000042 0.000000 0.025155 0.000000
# 6 0.000000 0.000000 0.000000 0.012766 0.000000 0.038305
#
#
# Mechanical properties :
#
#
# Convention : Reuss Voigt Hill
#
# Bulk Modulus (GPa) = 47.86532 53.93490 50.90011
# Shear Modulus (GPa) = 29.64311 33.86789 31.75550
#
# Velocity S-wave (km/s) = 3.76895 4.02859 3.90093
# Velocity P-wave (km/s) = 6.47125 6.89094 6.68439
#
# Compressibility (1/GPa) = 0.02089195
#
# Stress axis : x y z
#
# Youngs Moduli (GPa) = 67.35293 97.25805 92.27670
#
# Poissons Ratio (x) = -0.05874 0.37762
# Poissons Ratio (y) = -0.04068 0.37360
# Poissons Ratio (z) = 0.27563 0.39377
#
# Static dielectric constant tensor:
#      x y z
#    x 3.511750 0.000000 0.331230 
#    y 0.000000 3.895600 0.000000 
#    z 0.331230 0.000000 3.707190 
# 
# 
# High freq. dielectric constant tensor:
#      x y z
#    x 1.832280 0.000000 0.002750 
#    y 0.000000 1.799570 0.000000 
#    z 0.002750 0.000000 1.824120 
# 
# From -- ./inp_files/149616.got.cif
#   From: 2010.06.25/outbox.cif.g09.slc.cpg/sg12_75_cif.got.tgz:149616.got - 2010.06.28 00:19:55.
