data_PCOD8108607
_publ_section_title
;
Structure prediction by ZEFSAII (Michael W. Deem and Ramdas Pophale) SiO2 
 PCOD8108607
Probable space group: C 2/M
;
_chemical_formula_sum "Si O2"
_cell_formula_units_Z 56
_cell_length_a 17.103315
_cell_length_b 18.176646
_cell_length_c 8.641337
_cell_angle_alpha 90.000000
_cell_angle_beta 103.287510
_cell_angle_gamma 90.000000
_cell_volume 2614.508311
_symmetry_space_group_name_H-M "C 2/M"
_symmetry_group_IT_number 12
_symmetry_cell_setting 'monoclinic'
loop_
_space_group_symop_operation_xyz
x,y,z
-x,y,-z
-x,-y,-z
x,-y,z
1/2+x,1/2+y,z
1/2-x,1/2+y,-z
1/2-x,1/2-y,-z
1/2+x,1/2-y,z
loop_
_atom_site_type_symbol
_atom_site_label
_atom_site_fract_x
_atom_site_fract_y
_atom_site_fract_z
Si Si1 0.186792 0.331566 0.195175
Si Si2 0.925859 0.418660 0.078057
Si Si3 0.360238 0.327626 0.145817
Si Si4 0.507394 0.584528 0.681685
Si Si5 0.371475 0.327881 0.792747
Si Si6 0.932134 0.308257 0.341929
Si Si7 0.275899 0.831525 0.464635
O O1 0.271898 0.306316 0.163568
O O2 0.131303 0.261408 0.216512
O O3 0.203730 0.374801 0.365169
O O4 0.147017 0.380355 0.045346
O O5 0.896948 0.500000 0.114273
O O6 0.956067 0.376238 0.243923
O O7 0.000000 0.424174 0.000000
O O8 0.398642 0.400958 0.238176
O O9 0.418646 0.260798 0.222471
O O10 0.360563 0.346353 0.966076
O O11 0.500000 0.605106 0.500000
O O12 0.484542 0.500000 0.705527
O O13 0.453771 0.639032 0.763131
O O14 0.299534 0.366178 0.661566
O O15 0.851513 0.332184 0.389106
O O16 0.000000 0.290535 0.500000
O O17 0.250000 0.750000 0.500000
#
# Coordination Sequence:
#
# PCOD8108607 Si02
#       7
#     8   8   8   8   8   8   8
#     4  11  22  42  70 100 133 175 224 280 338 395
#     4  11  26  46  67  96 136 178 225 282 346 409
#     4  12  23  39  70 102 139 170 227 283 331 400
#     4  11  27  46  65  98 143 184 222 271 341 415
#     4  11  22  40  67  97 133 177 224 280 324 392
#     4  12  24  40  69 104 132 179 228 279 342 401
#     4  10  21  38  63 101 133 165 223 285 323 388
#
# _framework density 21.418941
#
# number of rings (size 3 to 8) (size 9 to 14) (size 15 to 20)
#    0.000    0.857    4.286    3.857    8.000    2.000 
#    0.000    3.571    0.000    0.000    0.000    0.000 
#    0.000    0.000    0.000    0.000    0.000    0.000 
#
# Total GULP energy -347085.497870 kJ/mol
# GULP energy per Si atom -12395.910638 kJ/mol
# Density = 2.137019 g / cm^3
# Si number density = 21.418941 Si / 1000 Ang^3
#
#
#
# Elastic Constant Matrix: (Units=GPa)
#
#
# Indices 1 2 3 4 5 6 
#
# 1 72.4888 40.8654 15.0194 0.0000 -3.2055 0.0000
# 2 40.8654 87.7313 41.1353 0.0000 -1.8069 0.0000
# 3 15.0194 41.1353 152.1382 0.0000 2.0774 0.0000
# 4 0.0000 0.0000 0.0000 23.2294 0.0000 -0.6416
# 5 -3.2055 -1.8069 2.0774 0.0000 45.0532 0.0000
# 6 0.0000 0.0000 0.0000 -0.6416 0.0000 17.0567
#
#
#
# Elastic Compliance Matrix: (Units=1/GPa)
#
#
# Indices 1 2 3 4 5 6 
#
# 1 0.018794 -0.008999 0.000565 0.000000 0.000950 0.000000
# 2 -0.008999 0.017384 -0.003815 0.000000 0.000233 0.000000
# 3 0.000565 -0.003815 0.007555 0.000000 -0.000461 0.000000
# 4 0.000000 0.000000 0.000000 0.043094 0.000000 0.001621
# 5 0.000950 0.000233 -0.000461 0.000000 0.022294 0.000000
# 6 0.000000 0.000000 0.000000 0.001621 0.000000 0.058689
#
#
# Mechanical properties :
#
#
# Convention : Reuss Voigt Hill
#
# Bulk Modulus (GPa) = 51.99240 56.26648 54.12944
# Shear Modulus (GPa) = 25.16109 31.42375 28.29242
#
# Velocity S-wave (km/s) = 3.43113 3.83443 3.63837
# Velocity P-wave (km/s) = 6.32642 6.77719 6.55568
#
# Compressibility (1/GPa) = 0.01923358
#
# Stress axis : x y z
#
# Youngs Moduli (GPa) = 53.20967 57.52429 132.36253
#
# Poissons Ratio (x) = 0.51768 -0.07478
# Poissons Ratio (y) = 0.47886 0.50497
# Poissons Ratio (z) = -0.03006 0.21946
#
# Static dielectric constant tensor:
#      x y z
#    x 3.871750 0.000000 0.243310 
#    y 0.000000 3.927950 0.000000 
#    z 0.243310 0.000000 4.470900 
# 
# 
# High freq. dielectric constant tensor:
#      x y z
#    x 1.847110 0.000000 0.002950 
#    y 0.000000 1.798510 0.000000 
#    z 0.002950 0.000000 1.872760 
# 
# From -- ./inp_files/75981.got.cif
#   From: 2010.06.25/outbox.cif.g09.slc.cpg/sg12_38_cif.got.tgz:75981.got - 2010.06.28 00:19:55.
