data_PCOD8108388
_publ_section_title
;
Structure prediction by ZEFSAII (Michael W. Deem and Ramdas Pophale) SiO2 
 PCOD8108388
Probable space group: C 2/M
;
_chemical_formula_sum "Si O2"
_cell_formula_units_Z 48
_cell_length_a 25.053099
_cell_length_b 8.607284
_cell_length_c 12.297975
_cell_angle_alpha 90.000000
_cell_angle_beta 70.863547
_cell_angle_gamma 90.000000
_cell_volume 2505.380793
_symmetry_space_group_name_H-M "C 2/M"
_symmetry_group_IT_number 12
_symmetry_cell_setting 'monoclinic'
loop_
_space_group_symop_operation_xyz
x,y,z
-x,y,-z
-x,-y,-z
x,-y,z
1/2+x,1/2+y,z
1/2-x,1/2+y,-z
1/2-x,1/2-y,-z
1/2+x,1/2-y,z
loop_
_atom_site_type_symbol
_atom_site_label
_atom_site_fract_x
_atom_site_fract_y
_atom_site_fract_z
Si Si1 0.441860 0.818954 0.370061
Si Si2 0.250818 0.318130 0.380332
Si Si3 0.057612 0.180451 0.243301
Si Si4 0.132356 0.317354 0.372846
Si Si5 0.627496 0.681575 0.777418
Si Si6 0.060319 0.318593 0.006694
O O1 0.499755 0.724115 0.343247
O O2 0.402200 0.772075 0.496310
O O3 0.411062 0.779095 0.278579
O O4 0.457037 0.000000 0.360401
O O5 0.246730 0.500000 0.398502
O O6 0.250000 0.250000 0.500000
O O7 0.196802 0.261757 0.347352
O O8 0.307348 0.267935 0.279386
O O9 0.109730 0.220538 0.286371
O O10 0.063815 0.280416 0.130692
O O11 0.058143 0.000000 0.212985
O O12 0.127366 0.500000 0.351444
O O13 0.619113 0.500000 0.759116
O O14 0.609018 0.723328 0.911807
O O15 0.070528 0.500000 0.981512
O O16 0.000000 0.265558 0.000000
#
# Coordination Sequence:
#
# PCOD8108388 Si02
#       6
#     8   8   8   8   8   8
#     4  11  21  36  60  88 121 160 197 236 293 358
#     4  10  21  38  61  89 121 158 197 242 290 345
#     4  12  25  39  59  88 122 155 196 250 302 347
#     4  10  22  40  60  85 122 163 200 237 288 356
#     4  11  22  36  60  93 123 150 194 250 295 338
#     4  11  23  40  63  86 115 157 201 240 292 359
#
# _framework density 19.158764000000001
#
# number of rings (size 3 to 8) (size 9 to 14) (size 15 to 20)
#    0.000    1.167    3.333    3.500    0.000    5.333 
#    0.000    0.833    0.000    0.000    0.000    0.000 
#    0.000    0.000    0.000    0.000    0.000    0.000 
#
# Total GULP energy -297753.797957 kJ/mol
# GULP energy per Si atom -12406.408248 kJ/mol
# Density = 1.911516 g / cm^3
# Si number density = 19.158764 Si / 1000 Ang^3
#
#
#
# Elastic Constant Matrix: (Units=GPa)
#
#
# Indices 1 2 3 4 5 6 
#
# 1 143.8461 31.8846 45.6850 0.0000 -8.0908 0.0000
# 2 31.8846 44.4727 22.1289 0.0000 -4.4870 0.0000
# 3 45.6850 22.1289 92.6468 0.0000 -11.7414 0.0000
# 4 0.0000 0.0000 0.0000 31.8057 0.0000 2.2730
# 5 -8.0908 -4.4870 -11.7414 0.0000 32.2005 0.0000
# 6 0.0000 0.0000 0.0000 2.2730 0.0000 26.9558
#
#
#
# Elastic Compliance Matrix: (Units=1/GPa)
#
#
# Indices 1 2 3 4 5 6 
#
# 1 0.009088 -0.004846 -0.003271 0.000000 0.000415 0.000000
# 2 -0.004846 0.028163 -0.004188 0.000000 0.001180 0.000000
# 3 -0.003271 -0.004188 0.013870 0.000000 0.003652 0.000000
# 4 0.000000 0.000000 0.000000 0.031632 0.000000 -0.002667
# 5 0.000415 0.001180 0.003652 0.000000 0.032656 0.000000
# 6 0.000000 0.000000 0.000000 -0.002667 0.000000 0.037323
#
#
# Mechanical properties :
#
#
# Convention : Reuss Voigt Hill
#
# Bulk Modulus (GPa) = 37.72042 53.37363 45.54703
# Shear Modulus (GPa) = 26.85596 30.27688 28.56642
#
# Velocity S-wave (km/s) = 3.74807 3.97963 3.86558
# Velocity P-wave (km/s) = 6.20175 7.00255 6.61428
#
# Compressibility (1/GPa) = 0.02651084
#
# Stress axis : x y z
#
# Youngs Moduli (GPa) = 110.02998 35.50772 72.09877
#
# Poissons Ratio (x) = 0.17208 0.23586
# Poissons Ratio (y) = 0.53323 0.30192
# Poissons Ratio (z) = 0.35995 0.14869
#
# Static dielectric constant tensor:
#      x y z
#    x 3.751130 0.000000 -0.156790 
#    y 0.000000 3.449200 0.000000 
#    z -0.156790 0.000000 3.501930 
# 
# 
# High freq. dielectric constant tensor:
#      x y z
#    x 1.746870 0.000000 -0.004130 
#    y 0.000000 1.747850 0.000000 
#    z -0.004130 0.000000 1.745010 
# 
# From -- ./inp_files/172851.got.cif
#   From: 2010.06.25/outbox.cif.g09.slc.cpg/sg12_87_cif.got.tgz:172851.got - 2010.06.28 00:19:55.
