data_PCOD8108569
_publ_section_title
;
Structure prediction by ZEFSAII (Michael W. Deem and Ramdas Pophale) SiO2 
 PCOD8108569
Probable space group: C 2/M
;
_chemical_formula_sum "Si O2"
_cell_formula_units_Z 48
_cell_length_a 29.326919
_cell_length_b 8.882929
_cell_length_c 14.937734
_cell_angle_alpha 90.000000
_cell_angle_beta 39.597846
_cell_angle_gamma 90.000000
_cell_volume 2480.367429
_symmetry_space_group_name_H-M "C 2/M"
_symmetry_group_IT_number 12
_symmetry_cell_setting 'monoclinic'
loop_
_space_group_symop_operation_xyz
x,y,z
-x,y,-z
-x,-y,-z
x,-y,z
1/2+x,1/2+y,z
1/2-x,1/2+y,-z
1/2-x,1/2-y,-z
1/2+x,1/2-y,z
loop_
_atom_site_type_symbol
_atom_site_label
_atom_site_fract_x
_atom_site_fract_y
_atom_site_fract_z
Si Si1 0.069155 0.324388 0.645043
Si Si2 0.676289 0.823375 0.641154
Si Si3 0.313821 0.323532 0.193149
Si Si4 0.822526 0.824448 0.859296
Si Si5 0.832804 0.177501 0.640509
Si Si6 0.579851 0.324674 0.127572
O O1 0.072925 0.500000 0.616597
O O2 0.115561 0.283696 0.661574
O O3 0.096605 0.230741 0.518161
O O4 0.988589 0.276628 0.788000
O O5 0.750000 0.750000 0.500000
O O6 0.650726 0.754145 0.774092
O O7 0.687987 0.000000 0.633860
O O8 0.307698 0.500000 0.219836
O O9 0.234576 0.260652 0.300023
O O10 0.361394 0.284477 0.035641
O O11 0.842851 0.774652 0.728467
O O12 0.887675 0.778340 0.825466
O O13 0.808313 0.000000 0.887601
O O14 0.750000 0.750000 0.000000
O O15 0.822297 0.000000 0.645813
O O16 0.558726 0.500000 0.155987
#
# Coordination Sequence:
#
# PCOD8108569 Si02
#       6
#     8   8   8   8   8   8
#     4  11  25  42  61  88 124 161 202 254 306 358
#     4  11  23  39  62  90 121 159 204 254 304 360
#     4  11  22  38  63  92 122 158 203 251 300 361
#     4  10  21  38  62  92 122 159 203 248 299 360
#     4  11  22  37  63  92 121 160 203 249 302 360
#     4  10  23  42  62  88 126 163 199 249 306 362
#
# _framework density 19.351972
#
# number of rings (size 3 to 8) (size 9 to 14) (size 15 to 20)
#    0.000    1.333    3.333    2.000    0.000    6.000 
#    0.000    6.667    0.000    0.000    0.000    0.000 
#    0.000    0.000    0.000    0.000    0.000    0.000 
#
# Total GULP energy -297744.729070 kJ/mol
# GULP energy per Si atom -12406.030378 kJ/mol
# Density = 1.930793 g / cm^3
# Si number density = 19.351972 Si / 1000 Ang^3
#
#
#
# Elastic Constant Matrix: (Units=GPa)
#
#
# Indices 1 2 3 4 5 6 
#
# 1 110.5995 40.7940 29.1170 0.0001 12.1840 0.0000
# 2 40.7940 67.5464 25.4317 -0.0009 5.7011 0.0001
# 3 29.1170 25.4317 66.2321 -0.0003 5.8251 0.0001
# 4 0.0001 -0.0009 -0.0003 36.9579 0.0000 -1.8451
# 5 12.1840 5.7011 5.8251 0.0000 39.9572 0.0000
# 6 0.0000 0.0001 0.0001 -1.8451 0.0000 32.4650
#
#
#
# Elastic Compliance Matrix: (Units=1/GPa)
#
#
# Indices 1 2 3 4 5 6 
#
# 1 0.012338 -0.006175 -0.002836 0.000000 -0.002468 0.000000
# 2 -0.006175 0.020489 -0.005127 0.000000 -0.000293 0.000000
# 3 -0.002836 -0.005127 0.018409 0.000000 -0.001088 0.000000
# 4 0.000000 0.000000 0.000000 0.027135 0.000000 0.001542
# 5 -0.002468 -0.000293 -0.001088 0.000000 0.025980 0.000000
# 6 0.000000 0.000000 0.000000 0.001542 0.000000 0.030890
#
#
# Mechanical properties :
#
#
# Convention : Reuss Voigt Hill
#
# Bulk Modulus (GPa) = 43.55309 48.34038 45.94674
# Shear Modulus (GPa) = 29.21075 31.81172 30.51123
#
# Velocity S-wave (km/s) = 3.88937 4.05884 3.97501
# Velocity P-wave (km/s) = 6.53638 6.85561 6.69790
#
# Compressibility (1/GPa) = 0.02296048
#
# Stress axis : x y z
#
# Youngs Moduli (GPa) = 81.05198 48.80628 54.32034
#
# Poissons Ratio (x) = 0.30139 0.15404
# Poissons Ratio (y) = 0.50052 0.27849
# Poissons Ratio (z) = 0.22984 0.25022
#
# Static dielectric constant tensor:
#      x y z
#    x 4.341450 0.000000 0.519720 
#    y 0.000000 3.596210 0.000000 
#    z 0.519720 0.000000 3.680400 
# 
# 
# High freq. dielectric constant tensor:
#      x y z
#    x 1.764100 0.000000 0.011900 
#    y 0.000000 1.760350 0.000000 
#    z 0.011900 0.000000 1.755100 
# 
# From -- ./inp_files/244655.got.cif
#   From: 2010.06.25/outbox.cif.g09.slc.cpg/sg12_123_cif.got.tgz:244655.got - 2010.06.28 00:19:55.
