data_PCOD8108519
_publ_section_title
;
Structure prediction by ZEFSAII (Michael W. Deem and Ramdas Pophale) SiO2 
 PCOD8108519
Probable space group: C 2/M
;
_chemical_formula_sum "Si O2"
_cell_formula_units_Z 48
_cell_length_a 18.432035
_cell_length_b 8.391751
_cell_length_c 17.928004
_cell_angle_alpha 90.000000
_cell_angle_beta 122.945149
_cell_angle_gamma 90.000000
_cell_volume 2327.120839
_symmetry_space_group_name_H-M "C 2/M"
_symmetry_group_IT_number 12
_symmetry_cell_setting 'monoclinic'
loop_
_space_group_symop_operation_xyz
x,y,z
-x,y,-z
-x,-y,-z
x,-y,z
1/2+x,1/2+y,z
1/2-x,1/2+y,-z
1/2-x,1/2-y,-z
1/2+x,1/2-y,z
loop_
_atom_site_type_symbol
_atom_site_label
_atom_site_fract_x
_atom_site_fract_y
_atom_site_fract_z
Si Si1 0.046146 0.815925 0.759871
Si Si2 0.049651 0.313755 0.921302
Si Si3 0.299025 0.315810 0.415103
Si Si4 0.126821 0.684624 0.400852
Si Si5 0.879933 0.186065 0.891046
Si Si6 0.310472 0.184211 0.263166
O O1 0.078056 0.754771 0.857746
O O2 0.123015 0.792166 0.744746
O O3 0.963377 0.714814 0.689435
O O4 0.020157 0.000000 0.749154
O O5 0.069168 0.500000 0.935824
O O6 0.948222 0.283400 0.879449
O O7 0.107945 0.225029 0.015178
O O8 0.301607 0.500000 0.393735
O O9 0.203845 0.261686 0.388852
O O10 0.367936 0.283530 0.519381
O O11 0.325194 0.210629 0.358966
O O12 0.136920 0.500000 0.426598
O O13 0.785353 0.240117 0.812812
O O14 0.895688 0.000000 0.885699
O O15 0.326168 0.000000 0.251992
#
# Coordination Sequence:
#
# PCOD8108519 Si02
#       6
#     8   8   8   8   8   8
#     4  12  25  40  59  84 118 156 195 239 289 346
#     4  11  22  38  62  89 118 152 193 239 288 343
#     4  10  21  38  62  90 118 151 192 237 287 342
#     4  10  21  39  63  89 118 151 192 240 287 340
#     4  10  21  39  63  89 117 151 194 241 288 340
#     4  11  24  40  59  85 118 155 194 238 290 345
#
# _framework density 20.626346000000002
#
# number of rings (size 3 to 8) (size 9 to 14) (size 15 to 20)
#    0.000    1.333    0.000    7.000    0.000    8.667 
#    0.000    3.333    0.000    0.000    0.000    0.000 
#    0.000    0.000    0.000    0.000    0.000    0.000 
#
# Total GULP energy -297798.003028 kJ/mol
# GULP energy per Si atom -12408.250126 kJ/mol
# Density = 2.057940 g / cm^3
# Si number density = 20.626346 Si / 1000 Ang^3
#
#
#
# Elastic Constant Matrix: (Units=GPa)
#
#
# Indices 1 2 3 4 5 6 
#
# 1 65.1797 15.4012 30.9168 0.0000 -25.4904 0.0000
# 2 15.4012 61.6335 6.8605 0.0000 -0.1882 0.0000
# 3 30.9168 6.8605 82.0613 0.0000 -22.2770 0.0000
# 4 0.0000 0.0000 0.0000 31.4545 0.0000 -3.0324
# 5 -25.4904 -0.1882 -22.2770 0.0000 26.7343 0.0000
# 6 0.0000 0.0000 0.0000 -3.0324 0.0000 32.2627
#
#
#
# Elastic Compliance Matrix: (Units=1/GPa)
#
#
# Indices 1 2 3 4 5 6 
#
# 1 0.027708 -0.006458 -0.003541 0.000000 0.023423 0.000000
# 2 -0.006458 0.017919 -0.000908 0.000000 -0.006788 0.000000
# 3 -0.003541 -0.000908 0.016384 0.000000 0.010270 0.000000
# 4 0.000000 0.000000 0.000000 0.032083 0.000000 0.003016
# 5 0.023423 -0.006788 0.010270 0.000000 0.068248 0.000000
# 6 0.000000 0.000000 0.000000 0.003016 0.000000 0.031279
#
#
# Mechanical properties :
#
#
# Convention : Reuss Voigt Hill
#
# Bulk Modulus (GPa) = 24.87685 35.02575 29.95130
# Shear Modulus (GPa) = 21.85014 28.47004 25.16009
#
# Velocity S-wave (km/s) = 3.25827 3.71924 3.49636
# Velocity P-wave (km/s) = 5.12269 5.95496 5.55444
#
# Compressibility (1/GPa) = 0.04019802
#
# Stress axis : x y z
#
# Youngs Moduli (GPa) = 36.09114 55.80667 61.03603
#
# Poissons Ratio (x) = 0.36040 0.21610
# Poissons Ratio (y) = 0.23308 0.05540
# Poissons Ratio (z) = 0.12778 0.05065
#
# Static dielectric constant tensor:
#      x y z
#    x 3.607490 0.000000 -0.050090 
#    y 0.000000 3.700650 0.000000 
#    z -0.050090 0.000000 3.773070 
# 
# 
# High freq. dielectric constant tensor:
#      x y z
#    x 1.796680 0.000000 -0.007050 
#    y 0.000000 1.817200 0.000000 
#    z -0.007050 0.000000 1.816410 
# 
# From -- ./inp_files/274584.got.cif
#   From: 2010.06.25/outbox.cif.g09.slc.cpg/sg12_138_cif.got.tgz:274584.got - 2010.06.28 00:19:55.
