data_PCOD8108259
_publ_section_title
;
Structure prediction by ZEFSAII (Michael W. Deem and Ramdas Pophale) SiO2 
 PCOD8108259
Probable space group: C 2/M
;
_chemical_formula_sum "Si O2"
_cell_formula_units_Z 48
_cell_length_a 16.662352
_cell_length_b 30.090479
_cell_length_c 8.350293
_cell_angle_alpha 90.000000
_cell_angle_beta 148.016954
_cell_angle_gamma 90.000000
_cell_volume 2217.538166
_symmetry_space_group_name_H-M "C 2/M"
_symmetry_group_IT_number 12
_symmetry_cell_setting 'monoclinic'
loop_
_space_group_symop_operation_xyz
x,y,z
-x,y,-z
-x,-y,-z
x,-y,z
1/2+x,1/2+y,z
1/2-x,1/2+y,-z
1/2-x,1/2-y,-z
1/2+x,1/2-y,z
loop_
_atom_site_type_symbol
_atom_site_label
_atom_site_fract_x
_atom_site_fract_y
_atom_site_fract_z
Si Si1 0.158404 0.951077 0.184459
Si Si2 0.602012 0.853572 0.928091
Si Si3 0.649187 0.307479 0.082673
Si Si4 0.973165 0.736329 0.628171
Si Si5 0.711256 0.870146 0.460567
Si Si6 0.145811 0.888690 0.855671
O O1 0.249080 0.922200 0.469710
O O2 0.232399 0.000000 0.284129
O O3 0.153382 0.926084 0.005263
O O4 0.000000 0.957914 0.000000
O O5 0.677187 0.851862 0.229349
O O6 0.697782 0.888172 0.982585
O O7 0.595736 0.804004 0.845507
O O8 0.427986 0.868287 0.649831
O O9 0.648017 0.339764 0.236919
O O10 0.802485 0.279175 0.357763
O O11 0.511262 0.272283 0.832950
O O12 0.635432 0.339091 0.905876
O O13 0.000000 0.758546 0.500000
O O14 0.000000 0.899207 0.500000
#
# Coordination Sequence:
#
# PCOD8108259 Si02
#       6
#     8   8   8   8   8   8
#     4  10  22  42  66  92 124 156 193 250 313 374
#     4  10  21  38  61  85 124 162 210 252 305 357
#     4  10  22  34  57  82 121 165 212 252 308 356
#     4  11  20  34  54  84 121 165 210 262 301 355
#     4   9  21  42  60  85 121 167 202 253 311 364
#     4  11  22  37  62  92 120 161 207 252 306 371
#
# _framework density 21.645624999999999
#
# number of rings (size 3 to 8) (size 9 to 14) (size 15 to 20)
#    0.000    1.833    1.667    2.000    2.333    1.000 
#    0.000    4.167    3.667    0.000    0.000    0.000 
#    0.000    0.000    0.000    0.000    0.000    0.000 
#
# Total GULP energy -297384.048524 kJ/mol
# GULP energy per Si atom -12391.002022 kJ/mol
# Density = 2.159636 g / cm^3
# Si number density = 21.645625 Si / 1000 Ang^3
#
#
#
# Elastic Constant Matrix: (Units=GPa)
#
#
# Indices 1 2 3 4 5 6 
#
# 1 64.8325 15.5055 2.5636 0.0000 -4.4282 0.0000
# 2 15.5055 132.0633 47.1223 0.0000 -6.4817 0.0000
# 3 2.5636 47.1223 81.8433 0.0000 -20.7218 0.0000
# 4 0.0000 0.0000 0.0000 10.0992 0.0000 12.8725
# 5 -4.4282 -6.4817 -20.7218 0.0000 23.6737 0.0000
# 6 0.0000 0.0000 0.0000 12.8725 0.0000 11.0152
#
#
#
# Elastic Compliance Matrix: (Units=1/GPa)
#
#
# Indices 1 2 3 4 5 6 
#
# 1 0.016193 -0.002374 0.001878 0.000000 0.004023 0.000000
# 2 -0.002374 0.010027 -0.006573 0.000000 -0.003452 0.000000
# 3 0.001878 -0.006573 0.020012 0.000000 0.016069 0.000000
# 4 0.000000 0.000000 0.000000 -0.202274 0.000000 0.236380
# 5 0.004023 -0.003452 0.016069 0.000000 0.056113 0.000000
# 6 0.000000 0.000000 0.000000 0.236380 0.000000 -0.185453
#
#
# Mechanical properties :
#
#
# Convention : Reuss Voigt Hill
#
# Bulk Modulus (GPa) = 31.15755 45.45797 38.30776
# Shear Modulus (GPa) = -19.19040 23.19414 2.00187
#
# Velocity S-wave (km/s) = -2.98077 3.27699 0.96273
# Velocity P-wave (km/s) = 1.60593 5.94683 4.35568
#
# Compressibility (1/GPa) = 0.03209495
#
# Stress axis : x y z
#
# Youngs Moduli (GPa) = 61.75651 99.73450 49.96927
#
# Poissons Ratio (x) = 0.23676 -0.09385
# Poissons Ratio (y) = 0.14660 0.32843
# Poissons Ratio (z) = -0.11599 0.65551
#
# Static dielectric constant tensor:
#      x y z
#    x 3.787230 0.000000 -0.056130 
#    y 0.000000 4.090460 0.000000 
#    z -0.056130 0.000000 4.096890 
# 
# 
# High freq. dielectric constant tensor:
#      x y z
#    x 1.845270 0.000000 -0.006960 
#    y 0.000000 1.833230 0.000000 
#    z -0.006960 0.000000 1.861230 
# 
# From -- ./inp_files/80838.got.cif
#   From: 2010.06.25/outbox.cif.g09.slc.cpg/sg12_41_cif.got.tgz:80838.got - 2010.06.28 00:19:55.
