data_PCOD8108453
_publ_section_title
;
Structure prediction by ZEFSAII (Michael W. Deem and Ramdas Pophale) SiO2 
 PCOD8108453
Probable space group: C 2/M
;
_chemical_formula_sum "Si O2"
_cell_formula_units_Z 48
_cell_length_a 28.015623
_cell_length_b 14.216418
_cell_length_c 9.534447
_cell_angle_alpha 90.000000
_cell_angle_beta 37.030347
_cell_angle_gamma 90.000000
_cell_volume 2286.936415
_symmetry_space_group_name_H-M "C 2/M"
_symmetry_group_IT_number 12
_symmetry_cell_setting 'monoclinic'
loop_
_space_group_symop_operation_xyz
x,y,z
-x,y,-z
-x,-y,-z
x,-y,z
1/2+x,1/2+y,z
1/2-x,1/2+y,-z
1/2-x,1/2-y,-z
1/2+x,1/2-y,z
loop_
_atom_site_type_symbol
_atom_site_label
_atom_site_fract_x
_atom_site_fract_y
_atom_site_fract_z
Si Si1 0.877668 0.605815 0.763945
Si Si2 0.042887 0.236046 0.770913
Si Si3 0.572365 0.699122 0.413406
Si Si4 0.698591 0.818918 0.525052
Si Si5 0.084602 0.395403 0.007836
Si Si6 0.775064 0.893765 0.066739
O O1 0.910785 0.500000 0.655144
O O2 0.934171 0.685685 0.564434
O O3 0.874363 0.625707 0.938131
O O4 0.792728 0.618024 0.890389
O O5 0.056381 0.165019 0.609646
O O6 0.131290 0.263568 0.601106
O O7 0.985208 0.323717 0.868324
O O8 0.000000 0.181489 0.000000
O O9 0.500000 0.654010 0.500000
O O10 0.654593 0.672640 0.150367
O O11 0.750000 0.750000 0.500000
O O12 0.751313 0.868263 0.281476
O O13 0.656080 0.893049 0.727479
O O14 0.047557 0.500000 0.092440
O O15 0.806363 0.000000 0.994743
#
# Coordination Sequence:
#
# PCOD8108453 Si02
#       6
#     8   8   8   8   8   8
#     4  10  21  38  63  97 129 161 204 258 320 381
#     4  10  23  38  58  91 122 159 201 252 319 383
#     4  12  23  40  65  88 124 167 213 264 316 369
#     4  11  23  38  63  89 125 166 206 255 313 371
#     4  10  21  38  61  93 130 162 197 249 320 389
#     4  11  25  42  64  93 126 169 219 261 307 369
#
# _framework density 20.988778
#
# number of rings (size 3 to 8) (size 9 to 14) (size 15 to 20)
#    0.000    1.333    3.333    2.000    4.667    5.000 
#    0.000    0.000    0.000    0.500    0.000    0.000 
#    0.000    0.000    0.000    0.000    0.000    0.000 
#
# Total GULP energy -297394.939535 kJ/mol
# GULP energy per Si atom -12391.455814 kJ/mol
# Density = 2.094101 g / cm^3
# Si number density = 20.988778 Si / 1000 Ang^3
#
#
#
# Elastic Constant Matrix: (Units=GPa)
#
#
# Indices 1 2 3 4 5 6 
#
# 1 144.3866 29.9900 48.9605 0.0000 9.7596 0.0000
# 2 29.9900 40.3889 19.0419 0.0000 -3.8730 0.0000
# 3 48.9605 19.0419 140.6201 0.0000 22.2499 0.0000
# 4 0.0000 0.0000 0.0000 15.7591 0.0000 0.3919
# 5 9.7596 -3.8730 22.2499 0.0000 39.6833 0.0000
# 6 0.0000 0.0000 0.0000 0.3919 0.0000 20.6362
#
#
#
# Elastic Compliance Matrix: (Units=1/GPa)
#
#
# Indices 1 2 3 4 5 6 
#
# 1 0.008946 -0.005819 -0.002073 0.000000 -0.001606 0.000000
# 2 -0.005819 0.031184 -0.003187 0.000000 0.006262 0.000000
# 3 -0.002073 -0.003187 0.009035 0.000000 -0.004867 0.000000
# 4 0.000000 0.000000 0.000000 0.063486 0.000000 -0.001206
# 5 -0.001606 0.006262 -0.004867 0.000000 0.028934 0.000000
# 6 0.000000 0.000000 0.000000 -0.001206 0.000000 0.048481
#
#
# Mechanical properties :
#
#
# Convention : Reuss Voigt Hill
#
# Bulk Modulus (GPa) = 37.02953 57.93118 47.48036
# Shear Modulus (GPa) = 22.60131 30.37594 26.48862
#
# Velocity S-wave (km/s) = 3.28507 3.80840 3.55637
# Velocity P-wave (km/s) = 5.66301 6.85561 6.28765
#
# Compressibility (1/GPa) = 0.02700547
#
# Stress axis : x y z
#
# Youngs Moduli (GPa) = 111.78226 32.06817 110.68467
#
# Poissons Ratio (x) = 0.18662 0.22941
# Poissons Ratio (y) = 0.65052 0.35278
# Poissons Ratio (z) = 0.23168 0.10221
#
# Static dielectric constant tensor:
#      x y z
#    x 4.193940 0.000000 0.364130 
#    y 0.000000 3.558100 0.000000 
#    z 0.364130 0.000000 3.974070 
# 
# 
# High freq. dielectric constant tensor:
#      x y z
#    x 1.846300 0.000000 0.015200 
#    y 0.000000 1.780670 0.000000 
#    z 0.015200 0.000000 1.834850 
# 
# From -- ./inp_files/104923.got.cif
#   From: 2010.06.25/outbox.cif.g09.slc.cpg/sg12_53_cif.got.tgz:104923.got - 2010.06.28 00:19:55.
