data_PCOD8108083
_publ_section_title
;
Structure prediction by ZEFSAII (Michael W. Deem and Ramdas Pophale) SiO2 
 PCOD8108083
Probable space group: C 2/M
;
_chemical_formula_sum "Si O2"
_cell_formula_units_Z 64
_cell_length_a 20.415919
_cell_length_b 8.815529
_cell_length_c 20.409102
_cell_angle_alpha 90.000000
_cell_angle_beta 122.936974
_cell_angle_gamma 90.000000
_cell_volume 3082.779613
_symmetry_space_group_name_H-M "C 2/M"
_symmetry_group_IT_number 12
_symmetry_cell_setting 'monoclinic'
loop_
_space_group_symop_operation_xyz
x,y,z
-x,y,-z
-x,-y,-z
x,-y,z
1/2+x,1/2+y,z
1/2-x,1/2+y,-z
1/2-x,1/2-y,-z
1/2+x,1/2-y,z
loop_
_atom_site_type_symbol
_atom_site_label
_atom_site_fract_x
_atom_site_fract_y
_atom_site_fract_z
Si Si1 0.270107 0.671472 0.113023
Si Si2 0.049787 0.178265 0.326841
Si Si3 0.985701 0.321814 0.917514
Si Si4 0.172385 0.320140 0.487489
Si Si5 0.638036 0.671309 0.971701
Si Si6 0.867160 0.820825 0.762507
Si Si7 0.612084 0.177914 0.730173
Si Si8 0.306018 0.821425 0.355059
O O1 0.264060 0.500000 0.136979
O O2 0.183425 0.734158 0.052338
O O3 0.310800 0.780976 0.187229
O O4 0.317705 0.675752 0.072247
O O5 0.095932 0.264389 0.408793
O O6 0.084020 0.226100 0.275330
O O7 0.959708 0.225217 0.281847
O O8 0.058433 0.000000 0.342810
O O9 0.987743 0.500000 0.909005
O O10 0.903969 0.258006 0.846407
O O11 0.054666 0.246993 0.912661
O O12 0.000000 0.272766 0.000000
O O13 0.178686 0.500000 0.486075
O O14 0.250000 0.250000 0.500000
O O15 0.164380 0.264060 0.558285
O O16 0.627914 0.500000 0.991356
O O17 0.779739 0.754474 0.707586
O O18 0.868722 0.000000 0.774011
O O19 0.630093 0.224071 0.664679
O O20 0.593993 0.000000 0.727417
O O21 0.295096 0.000000 0.350909
#
# Coordination Sequence:
#
# PCOD8108083 Si02
#       8
#     8   8   8   8   8   8   8   8
#     4  10  21  38  60  86 119 153 193 250 306 355
#     4  11  23  41  65  94 127 162 203 256 307 356
#     4  11  25  40  55  85 124 156 195 255 311 352
#     4  11  21  40  67  95 125 161 205 251 303 364
#     4  10  21  38  60  84 110 155 204 244 296 364
#     4  10  21  41  65  87 117 163 212 252 298 367
#     4  11  23  39  61  91 124 163 206 247 300 365
#     4   9  21  41  63  90 124 163 204 249 300 364
#
# _framework density 20.760484999999999
#
# number of rings (size 3 to 8) (size 9 to 14) (size 15 to 20)
#    0.000    1.625    1.250    3.000    1.750    7.000 
#    0.000    5.625    0.000    0.000    0.000    0.000 
#    0.000    0.000    0.000    0.000    0.000    0.000 
#
# Total GULP energy -396927.636414 kJ/mol
# GULP energy per Si atom -12403.988638 kJ/mol
# Density = 2.071323 g / cm^3
# Si number density = 20.760485 Si / 1000 Ang^3
#
#
#
# Elastic Constant Matrix: (Units=GPa)
#
#
# Indices 1 2 3 4 5 6 
#
# 1 53.2549 20.6230 6.0937 0.0000 -4.0769 0.0000
# 2 20.6230 72.4944 32.8085 0.0000 -8.0589 0.0000
# 3 6.0937 32.8085 106.7415 0.0000 -1.2068 0.0000
# 4 0.0000 0.0000 0.0000 37.6207 0.0000 5.6746
# 5 -4.0769 -8.0589 -1.2068 0.0000 24.3980 0.0000
# 6 0.0000 0.0000 0.0000 5.6746 0.0000 29.2510
#
#
#
# Elastic Compliance Matrix: (Units=1/GPa)
#
#
# Indices 1 2 3 4 5 6 
#
# 1 0.021209 -0.006182 0.000707 0.000000 0.001537 0.000000
# 2 -0.006182 0.018473 -0.005271 0.000000 0.004808 0.000000
# 3 0.000707 -0.005271 0.010936 0.000000 -0.001082 0.000000
# 4 0.000000 0.000000 0.000000 0.027382 0.000000 -0.005312
# 5 0.001537 0.004808 -0.001082 0.000000 0.042778 0.000000
# 6 0.000000 0.000000 0.000000 -0.005312 0.000000 0.035217
#
#
# Mechanical properties :
#
#
# Convention : Reuss Voigt Hill
#
# Bulk Modulus (GPa) = 34.33495 39.06015 36.69755
# Shear Modulus (GPa) = 26.71003 29.78497 28.24750
#
# Velocity S-wave (km/s) = 3.59078 3.79185 3.69268
# Velocity P-wave (km/s) = 5.81087 6.16655 5.99135
#
# Compressibility (1/GPa) = 0.02912484
#
# Stress axis : x y z
#
# Youngs Moduli (GPa) = 47.15088 54.13409 91.44269
#
# Poissons Ratio (x) = 0.33468 -0.06464
# Poissons Ratio (y) = 0.29151 0.48195
# Poissons Ratio (z) = -0.03333 0.28532
#
# Static dielectric constant tensor:
#      x y z
#    x 3.821530 0.000000 -0.011120 
#    y 0.000000 3.686600 0.000000 
#    z -0.011120 0.000000 4.062290 
# 
# 
# High freq. dielectric constant tensor:
#      x y z
#    x 1.815170 0.000000 0.002260 
#    y 0.000000 1.806240 0.000000 
#    z 0.002260 0.000000 1.821680 
# 
# From -- ./inp_files/320091.got.cif
#   From: 2010.06.25/outbox.cif.g09.slc.cpg/sg12_161_cif.got.tgz:320091.got - 2010.06.28 00:19:55.
