data_PCOD8108110
_publ_section_title
;
Structure prediction by ZEFSAII (Michael W. Deem and Ramdas Pophale) SiO2 
 PCOD8108110
Probable space group: C 2/M
;
_chemical_formula_sum "Si O2"
_cell_formula_units_Z 56
_cell_length_a 9.065691
_cell_length_b 25.702923
_cell_length_c 18.676039
_cell_angle_alpha 90.000000
_cell_angle_beta 41.639269
_cell_angle_gamma 90.000000
_cell_volume 2891.498953
_symmetry_space_group_name_H-M "C 2/M"
_symmetry_group_IT_number 12
_symmetry_cell_setting 'monoclinic'
loop_
_space_group_symop_operation_xyz
x,y,z
-x,y,-z
-x,-y,-z
x,-y,z
1/2+x,1/2+y,z
1/2-x,1/2+y,-z
1/2-x,1/2-y,-z
1/2+x,1/2-y,z
loop_
_atom_site_type_symbol
_atom_site_label
_atom_site_fract_x
_atom_site_fract_y
_atom_site_fract_z
Si Si1 0.962636 0.061522 0.723667
Si Si2 0.606952 0.267062 0.244130
Si Si3 0.649486 0.440063 0.506791
Si Si4 0.631585 0.789445 0.384844
Si Si5 0.573462 0.139547 0.894295
Si Si6 0.412674 0.906817 0.608023
Si Si7 0.246203 0.794115 0.938664
O O1 0.729199 0.091518 0.815405
O O2 0.067137 0.082856 0.612171
O O3 0.154378 0.076078 0.713513
O O4 0.913029 0.000000 0.744873
O O5 0.618248 0.246437 0.320517
O O6 0.382112 0.299038 0.318607
O O7 0.806934 0.305068 0.153513
O O8 0.610526 0.222287 0.182731
O O9 0.500000 0.412366 0.500000
O O10 0.590020 0.500000 0.528908
O O11 0.914494 0.431870 0.397519
O O12 0.500000 0.764028 0.500000
O O13 0.538917 0.845946 0.400221
O O14 0.351528 0.150675 0.927513
O O15 0.500000 0.125907 0.000000
O O16 0.500000 0.928009 0.500000
O O17 0.250000 0.750000 0.000000
O O18 0.000000 0.805874 0.000000
#
# Coordination Sequence:
#
# PCOD8108110 Si02
#       7
#     8   8   8   8   8   8   8
#     4  10  21  38  60  85 116 152 192 240 294 343
#     4  12  21  38  59  82 120 156 190 233 292 338
#     4   9  18  35  58  86 119 150 191 241 285 342
#     4  11  23  37  54  87 127 159 186 229 280 357
#     4  12  24  39  61  85 114 148 199 252 293 345
#     4   9  18  34  58  84 114 155 197 230 275 343
#     4  12  21  38  62  88 111 147 198 250 289 338
#
# _framework density 19.367118999999999
#
# number of rings (size 3 to 8) (size 9 to 14) (size 15 to 20)
#    0.000    1.286    5.714    0.857    0.000    3.143 
#    0.000    0.000    0.000    0.429    0.000    0.000 
#    0.000    0.000    0.000    0.000    0.000    0.000 
#
# Total GULP energy -346975.655341 kJ/mol
# GULP energy per Si atom -12391.987691 kJ/mol
# Density = 1.932304 g / cm^3
# Si number density = 19.367119 Si / 1000 Ang^3
#
#
#
# Elastic Constant Matrix: (Units=GPa)
#
#
# Indices 1 2 3 4 5 6 
#
# 1 143.3011 37.4271 48.7238 -0.0001 -22.4222 0.0000
# 2 37.4271 67.6700 29.9984 -0.0001 -6.9908 0.0000
# 3 48.7238 29.9984 98.9584 -0.0001 -3.2971 0.0000
# 4 -0.0001 -0.0001 -0.0001 26.2882 0.0002 -12.6655
# 5 -22.4222 -6.9908 -3.2971 0.0002 29.2457 -0.0001
# 6 0.0000 0.0000 0.0000 -12.6655 -0.0001 25.4287
#
#
#
# Elastic Compliance Matrix: (Units=1/GPa)
#
#
# Indices 1 2 3 4 5 6 
#
# 1 0.010145 -0.003252 -0.003790 0.000000 0.006573 0.000000
# 2 -0.003252 0.018481 -0.003952 0.000000 0.001479 0.000000
# 3 -0.003790 -0.003952 0.013090 0.000000 -0.002375 0.000000
# 4 0.000000 0.000000 0.000000 0.050050 0.000000 0.024929
# 5 0.006573 0.001479 -0.002375 0.000000 0.039319 0.000000
# 6 0.000000 0.000000 0.000000 0.024929 0.000000 0.051742
#
#
# Mechanical properties :
#
#
# Convention : Reuss Voigt Hill
#
# Bulk Modulus (GPa) = 50.68903 60.24758 55.46831
# Shear Modulus (GPa) = 23.65287 29.11121 26.38204
#
# Velocity S-wave (km/s) = 3.49849 3.88122 3.69481
# Velocity P-wave (km/s) = 6.52294 7.15967 6.84871
#
# Compressibility (1/GPa) = 0.01972813
#
# Stress axis : x y z
#
# Youngs Moduli (GPa) = 98.57262 54.11036 76.39219
#
# Poissons Ratio (x) = 0.17595 0.28955
# Poissons Ratio (y) = 0.32052 0.30190
# Poissons Ratio (z) = 0.37362 0.21384
#
# Static dielectric constant tensor:
#      x y z
#    x 3.923220 0.000000 -0.077580 
#    y 0.000000 3.205090 0.000000 
#    z -0.077580 0.000000 3.885590 
# 
# 
# High freq. dielectric constant tensor:
#      x y z
#    x 1.767000 0.000000 -0.018480 
#    y 0.000000 1.726320 0.000000 
#    z -0.018480 0.000000 1.743390 
# 
# From -- ./inp_files/125355.got.cif
#   From: 2010.06.25/outbox.cif.g09.slc.cpg/sg12_63_cif.got.tgz:125355.got - 2010.06.28 00:19:55.
