data_PCOD8108650
_publ_section_title
;
Structure prediction by ZEFSAII (Michael W. Deem and Ramdas Pophale) SiO2 
 PCOD8108650
Probable space group: C 2/M
;
_chemical_formula_sum "Si O2"
_cell_formula_units_Z 56
_cell_length_a 9.166652
_cell_length_b 17.763902
_cell_length_c 29.996331
_cell_angle_alpha 90.000000
_cell_angle_beta 145.790350
_cell_angle_gamma 90.000000
_cell_volume 2746.158524
_symmetry_space_group_name_H-M "C 2/M"
_symmetry_group_IT_number 12
_symmetry_cell_setting 'monoclinic'
loop_
_space_group_symop_operation_xyz
x,y,z
-x,y,-z
-x,-y,-z
x,-y,z
1/2+x,1/2+y,z
1/2-x,1/2+y,-z
1/2-x,1/2-y,-z
1/2+x,1/2-y,z
loop_
_atom_site_type_symbol
_atom_site_label
_atom_site_fract_x
_atom_site_fract_y
_atom_site_fract_z
Si Si1 0.919548 0.322764 0.782538
Si Si2 0.906790 0.082097 0.927249
Si Si3 0.356892 0.910693 0.507849
Si Si4 0.588040 0.911831 0.657813
Si Si5 0.883818 0.166682 0.205045
Si Si6 0.736799 0.589221 0.650467
Si Si7 0.450822 0.085897 0.038914
O O1 0.174335 0.360065 0.867196
O O2 0.990119 0.240511 0.783792
O O3 0.702972 0.318064 0.766230
O O4 0.817341 0.373193 0.716769
O O5 0.826603 0.000000 0.886544
O O6 0.000000 0.068524 0.000000
O O7 0.156681 0.116878 0.965883
O O8 0.500000 0.877482 0.500000
O O9 0.488610 0.876706 0.585842
O O10 0.057440 0.886457 0.433682
O O11 0.385572 0.000000 0.514773
O O12 0.419523 0.879847 0.656686
O O13 0.892359 0.896039 0.740239
O O14 0.542008 0.000000 0.645062
O O15 0.642289 0.138872 0.114866
O O16 0.763043 0.500000 0.662875
O O17 0.469952 0.000000 0.062388
O O18 0.500000 0.089214 0.000000
#
# Coordination Sequence:
#
# PCOD8108650 Si02
#       7
#     8   8   8   8   8   8   8
#     4  12  26  41  60  86 122 164 203 248 300 359
#     4  10  21  41  65  90 117 152 199 250 302 355
#     4   9  17  33  60  93 124 156 197 245 296 350
#     4  10  21  38  63  92 124 158 199 249 298 354
#     4  12  26  42  59  86 123 162 205 247 300 359
#     4  10  21  38  63  93 123 158 200 247 299 354
#     4  10  23  41  65  91 118 153 198 250 302 357
#
# _framework density 20.392120999999999
#
# number of rings (size 3 to 8) (size 9 to 14) (size 15 to 20)
#    0.000    1.571    1.429    3.000    4.000    5.714 
#    0.000    0.714    0.000    0.000    0.000    0.000 
#    0.000    0.000    0.000    0.000    0.000    0.000 
#
# Total GULP energy -347159.027113 kJ/mol
# GULP energy per Si atom -12398.536683 kJ/mol
# Density = 2.034571 g / cm^3
# Si number density = 20.392121 Si / 1000 Ang^3
#
#
#
# Elastic Constant Matrix: (Units=GPa)
#
#
# Indices 1 2 3 4 5 6 
#
# 1 165.2134 23.8841 37.4054 0.0250 3.7265 -0.0026
# 2 23.8841 38.5904 19.4405 0.0413 -3.8427 -0.0028
# 3 37.4054 19.4405 79.5671 0.1088 -5.0628 -0.0069
# 4 0.0250 0.0413 0.1088 -137.9298 0.0173 17.1422
# 5 3.7265 -3.8427 -5.0628 0.0173 35.0975 -0.0020
# 6 -0.0026 -0.0028 -0.0069 17.1422 -0.0020 23.8942
#
#
#
# Elastic Compliance Matrix: (Units=1/GPa)
#
#
# Indices 1 2 3 4 5 6 
#
# 1 0.007159 -0.003235 -0.002671 -0.000002 -0.001499 0.000001
# 2 -0.003235 0.031183 -0.005913 0.000004 0.002905 -0.000001
# 3 -0.002671 -0.005913 0.015386 0.000010 0.001856 -0.000003
# 4 -0.000002 0.000004 0.000010 -0.006657 0.000006 0.004776
# 5 -0.001499 0.002905 0.001856 0.000006 0.029237 -0.000001
# 6 0.000001 -0.000001 -0.000003 0.004776 -0.000001 0.038425
#
#
# Mechanical properties :
#
#
# Convention : Reuss Voigt Hill
#
# Bulk Modulus (GPa) = 33.23239 49.42566 41.32902
# Shear Modulus (GPa) = 33.69231 -2.27822 15.70704
#
# Velocity S-wave (km/s) = 4.06916 -1.05813 2.77835
# Velocity P-wave (km/s) = 6.19754 4.77466 5.53204
#
# Compressibility (1/GPa) = 0.03009113
#
# Stress axis : x y z
#
# Youngs Moduli (GPa) = 139.68719 32.06837 64.99268
#
# Poissons Ratio (x) = 0.10373 0.17357
# Poissons Ratio (y) = 0.45185 0.38433
# Poissons Ratio (z) = 0.37304 0.18964
#
# Static dielectric constant tensor:
#      x y z
#    x 4.206610 0.000000 0.099340 
#    y 0.000000 3.521180 0.000000 
#    z 0.099340 0.000000 3.864510 
# 
# 
# High freq. dielectric constant tensor:
#      x y z
#    x 1.823970 0.000000 0.001100 
#    y 0.000000 1.767370 0.000000 
#    z 0.001100 0.000000 1.803190 
# 
# From -- ./inp_files/257133.got.cif
#   From: 2010.06.25/outbox.cif.g09.slc.cpg/sg12_129_cif.got.tgz:257133.got - 2010.06.28 00:19:55.
