data_PCOD8108839
_publ_section_title
;
Structure prediction by ZEFSAII (Michael W. Deem and Ramdas Pophale) SiO2 
 PCOD8108839
Probable space group: C 2/M
;
_chemical_formula_sum "Si O2"
_cell_formula_units_Z 48
_cell_length_a 16.242485
_cell_length_b 13.576937
_cell_length_c 9.499749
_cell_angle_alpha 90.000000
_cell_angle_beta 81.888639
_cell_angle_gamma 90.000000
_cell_volume 2073.956847
_symmetry_space_group_name_H-M "C 2/M"
_symmetry_group_IT_number 12
_symmetry_cell_setting 'monoclinic'
loop_
_space_group_symop_operation_xyz
x,y,z
-x,y,-z
-x,-y,-z
x,-y,z
1/2+x,1/2+y,z
1/2-x,1/2+y,-z
1/2-x,1/2-y,-z
1/2+x,1/2-y,z
loop_
_atom_site_type_symbol
_atom_site_label
_atom_site_fract_x
_atom_site_fract_y
_atom_site_fract_z
Si Si1 0.168530 0.883144 0.884850
Si Si2 0.740416 0.617103 0.152864
Si Si3 0.042204 0.884181 0.690991
Si Si4 0.336950 0.110315 0.709002
Si Si5 0.380060 0.693348 0.600947
Si Si6 0.089240 0.611611 0.005964
O O1 0.081983 0.851645 0.831149
O O2 0.246622 0.847112 0.773315
O O3 0.175384 0.000000 0.883664
O O4 0.177103 0.845569 0.043928
O O5 0.747155 0.500000 0.145596
O O6 0.704820 0.651400 0.310847
O O7 0.833349 0.662205 0.099455
O O8 0.107455 0.856565 0.552338
O O9 0.955873 0.829156 0.688895
O O10 0.024613 0.000000 0.689504
O O11 0.373704 0.187795 0.586724
O O12 0.394123 0.112190 0.832587
O O13 0.334695 0.000000 0.643958
O O14 0.083184 0.500000 0.951277
O O15 0.000000 0.664717 0.000000
#
# Coordination Sequence:
#
# PCOD8108839 Si02
#       6
#     8   8   8   8   8   8
#     4   8  17  35  58  80 111 152 182 222 288 340
#     4   9  17  32  56  88 117 144 186 234 275 335
#     4  10  21  39  58  80 116 154 182 227 293 343
#     4   9  19  37  56  77 111 151 189 231 282 335
#     4  11  21  34  55  87 112 148 192 234 280 327
#     4   8  15  31  54  79 113 151 180 222 287 334
#
# _framework density 23.144164
#
# number of rings (size 3 to 8) (size 9 to 14) (size 15 to 20)
#    0.000    2.833    0.000    4.000    0.000    4.000 
#    6.000    4.167    0.000    0.000    0.000    1.167 
#    0.000    0.000    0.000    0.000    0.000    0.000 
#
# Total GULP energy -297429.005814 kJ/mol
# GULP energy per Si atom -12392.875242 kJ/mol
# Density = 2.309149 g / cm^3
# Si number density = 23.144164 Si / 1000 Ang^3
#
#
#
# Elastic Constant Matrix: (Units=GPa)
#
#
# Indices 1 2 3 4 5 6 
#
# 1 78.2614 4.1524 22.3504 0.0000 -7.6231 0.0000
# 2 4.1524 47.1810 3.8502 0.0000 -10.5047 0.0000
# 3 22.3504 3.8502 41.8142 0.0000 -15.4004 0.0000
# 4 0.0000 0.0000 0.0000 8.4768 0.0000 -10.0030
# 5 -7.6231 -10.5047 -15.4004 0.0000 24.5969 0.0000
# 6 0.0000 0.0000 0.0000 -10.0030 0.0000 22.8684
#
#
#
# Elastic Compliance Matrix: (Units=1/GPa)
#
#
# Indices 1 2 3 4 5 6 
#
# 1 0.015115 -0.000849 -0.008330 0.000000 -0.000894 0.000000
# 2 -0.000849 0.023597 0.002464 0.000000 0.011357 0.000000
# 3 -0.008330 0.002464 0.035843 0.000000 0.020912 0.000000
# 4 0.000000 0.000000 0.000000 0.243820 0.000000 0.106650
# 5 -0.000894 0.011357 0.020912 0.000000 0.058322 0.000000
# 6 0.000000 0.000000 0.000000 0.106650 0.000000 0.090379
#
#
# Mechanical properties :
#
#
# Convention : Reuss Voigt Hill
#
# Bulk Modulus (GPa) = 16.36006 25.32918 20.84462
# Shear Modulus (GPa) = 9.98239 20.31534 15.14887
#
# Velocity S-wave (km/s) = 2.07906 2.96594 2.56118
# Velocity P-wave (km/s) = 3.58433 4.76413 4.21571
#
# Compressibility (1/GPa) = 0.06112447
#
# Stress axis : x y z
#
# Youngs Moduli (GPa) = 66.16100 42.37769 27.89930
#
# Poissons Ratio (x) = 0.03600 0.23240
# Poissons Ratio (y) = 0.05620 -0.06875
# Poissons Ratio (z) = 0.55113 -0.10443
#
# Static dielectric constant tensor:
#      x y z
#    x 4.449360 0.000000 0.048810 
#    y 0.000000 4.164150 0.000000 
#    z 0.048810 0.000000 3.769270 
# 
# 
# High freq. dielectric constant tensor:
#      x y z
#    x 1.915540 0.000000 -0.002570 
#    y 0.000000 1.919980 0.000000 
#    z -0.002570 0.000000 1.875100 
# 
# From -- ./inp_files/142847.got.cif
#   From: 2010.06.25/outbox.cif.g09.slc.cpg/sg12_72_cif.got.tgz:142847.got - 2010.06.28 00:19:55.
