data_PCOD8108505
_publ_section_title
;
Structure prediction by ZEFSAII (Michael W. Deem and Ramdas Pophale) SiO2 
 PCOD8108505
Probable space group: C 2/M
;
_chemical_formula_sum "Si O2"
_cell_formula_units_Z 40
_cell_length_a 16.723613
_cell_length_b 21.999440
_cell_length_c 4.933132
_cell_angle_alpha 90.000000
_cell_angle_beta 86.361184
_cell_angle_gamma 90.000000
_cell_volume 1811.290181
_symmetry_space_group_name_H-M "C 2/M"
_symmetry_group_IT_number 12
_symmetry_cell_setting 'monoclinic'
loop_
_space_group_symop_operation_xyz
x,y,z
-x,y,-z
-x,-y,-z
x,-y,z
1/2+x,1/2+y,z
1/2-x,1/2+y,-z
1/2-x,1/2-y,-z
1/2+x,1/2-y,z
loop_
_atom_site_type_symbol
_atom_site_label
_atom_site_fract_x
_atom_site_fract_y
_atom_site_fract_z
Si Si1 0.906159 0.566585 0.067033
Si Si2 0.144423 0.306422 0.822806
Si Si3 0.242648 0.432009 0.258392
Si Si4 0.913490 0.762026 0.653942
Si Si5 0.699948 0.363803 0.230661
O O1 0.882119 0.500000 0.203024
O O2 0.851479 0.575003 0.807114
O O3 0.887726 0.625541 0.254030
O O4 0.000000 0.565098 0.000000
O O5 0.145808 0.265768 0.554981
O O6 0.236913 0.312997 0.896142
O O7 0.088960 0.277620 0.070858
O O8 0.261770 0.500000 0.348823
O O9 0.265941 0.387140 0.492870
O O10 0.301250 0.417451 0.990052
O O11 0.886156 0.831290 0.723296
O O12 0.000000 0.762381 0.500000
#
# Coordination Sequence:
#
# PCOD8108505 Si02
#       5
#     8   8   8   8   8
#     4   9  18  34  55  82 116 151 189 233 282 338
#     4  11  22  38  58  85 118 157 198 240 291 350
#     4  10  21  38  62  89 118 155 196 242 294 352
#     4  12  24  39  60  86 119 156 199 249 298 347
#     4  11  22  39  62  87 119 156 198 243 292 355
#
# _framework density 22.083707
#
# number of rings (size 3 to 8) (size 9 to 14) (size 15 to 20)
#    0.000    1.400    0.000    7.200    0.000    0.800 
#    0.000    4.000    0.000   32.400    0.000    0.000 
#    0.000    0.000    0.000    0.000    0.000    0.000 
#
# Total GULP energy -247818.244189 kJ/mol
# GULP energy per Si atom -12390.912209 kJ/mol
# Density = 2.203344 g / cm^3
# Si number density = 22.083707 Si / 1000 Ang^3
#
#
#
# Elastic Constant Matrix: (Units=GPa)
#
#
# Indices 1 2 3 4 5 6 
#
# 1 32.7580 30.5885 14.0781 0.0000 -5.8673 0.0000
# 2 30.5885 96.4967 28.8645 0.0000 0.2785 0.0000
# 3 14.0781 28.8645 103.8608 0.0000 3.6928 0.0000
# 4 0.0000 0.0000 0.0000 8.3371 0.0000 -3.0606
# 5 -5.8673 0.2785 3.6928 0.0000 23.2257 0.0000
# 6 0.0000 0.0000 0.0000 -3.0606 0.0000 18.6762
#
#
#
# Elastic Compliance Matrix: (Units=1/GPa)
#
#
# Indices 1 2 3 4 5 6 
#
# 1 0.047231 -0.014134 -0.002921 0.000000 0.012565 0.000000
# 2 -0.014134 0.015536 -0.002281 0.000000 -0.003394 0.000000
# 3 -0.002921 -0.002281 0.010744 0.000000 -0.002419 0.000000
# 4 0.000000 0.000000 0.000000 0.127624 0.000000 0.020915
# 5 0.012565 -0.003394 -0.002419 0.000000 0.046655 0.000000
# 6 0.000000 0.000000 0.000000 0.020915 0.000000 0.056972
#
#
# Mechanical properties :
#
#
# Convention : Reuss Voigt Hill
#
# Bulk Modulus (GPa) = 28.70384 42.24198 35.47291
# Shear Modulus (GPa) = 14.08265 20.68674 17.38470
#
# Velocity S-wave (km/s) = 2.52800 3.06395 2.80878
# Velocity P-wave (km/s) = 4.64188 5.62909 5.15915
#
# Compressibility (1/GPa) = 0.03483855
#
# Stress axis : x y z
#
# Youngs Moduli (GPa) = 21.17257 64.36829 93.07446
#
# Poissons Ratio (x) = 0.90980 0.27184
# Poissons Ratio (y) = 0.29926 0.21230
# Poissons Ratio (z) = 0.06184 0.14683
#
# Static dielectric constant tensor:
#      x y z
#    x 3.720990 0.000000 -0.157750 
#    y 0.000000 4.369020 0.000000 
#    z -0.157750 0.000000 4.048300 
# 
# 
# High freq. dielectric constant tensor:
#      x y z
#    x 1.835480 0.000000 -0.002040 
#    y 0.000000 1.877730 0.000000 
#    z -0.002040 0.000000 1.867880 
# 
# From -- ./inp_files/15736.got.cif
#   From: 2010.06.25/outbox.cif.g09.slc.cpg/sg12_8_cif.got.tgz:15736.got - 2010.06.28 00:19:55.
