data_PCOD8108018
_publ_section_title
;
Structure prediction by ZEFSAII (Michael W. Deem and Ramdas Pophale) SiO2 
 PCOD8108018
Probable space group: C 2/M
;
_chemical_formula_sum "Si O2"
_cell_formula_units_Z 64
_cell_length_a 30.823385
_cell_length_b 9.078287
_cell_length_c 14.285458
_cell_angle_alpha 90.000000
_cell_angle_beta 123.967718
_cell_angle_gamma 90.000000
_cell_volume 3315.259811
_symmetry_space_group_name_H-M "C 2/M"
_symmetry_group_IT_number 12
_symmetry_cell_setting 'monoclinic'
loop_
_space_group_symop_operation_xyz
x,y,z
-x,y,-z
-x,-y,-z
x,-y,z
1/2+x,1/2+y,z
1/2-x,1/2+y,-z
1/2-x,1/2-y,-z
1/2+x,1/2-y,z
loop_
_atom_site_type_symbol
_atom_site_label
_atom_site_fract_x
_atom_site_fract_y
_atom_site_fract_z
Si Si1 0.358117 0.174312 0.921649
Si Si2 0.682417 0.671244 0.501897
Si Si3 0.803674 0.328595 0.042652
Si Si4 0.966963 0.168665 0.048730
Si Si5 0.998930 0.830325 0.292894
Si Si6 0.594325 0.827371 0.505892
Si Si7 0.405482 0.170125 0.276505
Si Si8 0.803310 0.328853 0.667380
O O1 0.329779 0.229419 0.793737
O O2 0.361067 0.000000 0.929153
O O3 0.325739 0.234009 0.971269
O O4 0.416275 0.232748 0.996372
O O5 0.668251 0.500000 0.482439
O O6 0.647149 0.750205 0.536161
O O7 0.741851 0.701531 0.602867
O O8 0.671188 0.737314 0.386070
O O9 0.791400 0.500000 0.019615
O O10 0.845876 0.296189 0.174944
O O11 0.750000 0.250000 0.000000
O O12 0.001537 0.186502 0.183928
O O13 0.949673 0.000000 0.013305
O O14 0.000000 0.225479 0.000000
O O15 0.943381 0.773318 0.262676
O O16 0.044923 0.734116 0.391203
O O17 0.005877 0.000000 0.331290
O O18 0.587058 0.792400 0.606071
O O19 0.598927 0.000000 0.492296
O O20 0.419500 0.000000 0.272131
O O21 0.814678 0.500000 0.662308
#
# Coordination Sequence:
#
# PCOD8108018 Si02
#       8
#     8   8   8   8   8   8   8   8
#     4  10  21  39  63  90 119 155 198 244 293 349
#     4  10  21  38  59  85 118 155 193 240 289 342
#     4  10  22  39  61  89 122 157 198 243 292 352
#     4  10  23  41  60  87 122 156 194 242 296 354
#     4  11  23  40  62  88 117 151 194 244 296 348
#     4  11  24  39  60  86 116 153 195 242 292 347
#     4  10  22  42  62  84 117 156 195 239 293 352
#     4   9  20  38  59  85 118 154 193 237 291 347
#
# _framework density 19.304670999999999
#
# number of rings (size 3 to 8) (size 9 to 14) (size 15 to 20)
#    0.000    1.875    1.250    1.500    3.500    5.250 
#    0.000    0.000    0.000    0.000    0.000    0.000 
#    0.000    0.000    0.000    0.000    0.000    0.000 
#
# Total GULP energy -396953.278809 kJ/mol
# GULP energy per Si atom -12404.789963 kJ/mol
# Density = 1.926073 g / cm^3
# Si number density = 19.304671 Si / 1000 Ang^3
#
#
#
# Elastic Constant Matrix: (Units=GPa)
#
#
# Indices 1 2 3 4 5 6 
#
# 1 95.2813 33.3087 15.0722 0.0000 -11.3741 0.0000
# 2 33.3087 58.4090 24.2734 0.0000 -7.3317 0.0000
# 3 15.0722 24.2734 92.0675 0.0000 -15.0063 0.0000
# 4 0.0000 0.0000 0.0000 29.4357 0.0000 4.7852
# 5 -11.3741 -7.3317 -15.0063 0.0000 28.4835 0.0000
# 6 0.0000 0.0000 0.0000 4.7852 0.0000 37.7554
#
#
#
# Elastic Compliance Matrix: (Units=1/GPa)
#
#
# Indices 1 2 3 4 5 6 
#
# 1 0.013448 -0.007348 0.000331 0.000000 0.003653 0.000000
# 2 -0.007348 0.023405 -0.004884 0.000000 0.000518 0.000000
# 3 0.000331 -0.004884 0.013031 0.000000 0.005740 0.000000
# 4 0.000000 0.000000 0.000000 0.034687 0.000000 -0.004396
# 5 0.003653 0.000518 0.005740 0.000000 0.039724 0.000000
# 6 0.000000 0.000000 0.000000 -0.004396 0.000000 0.027043
#
#
# Mechanical properties :
#
#
# Convention : Reuss Voigt Hill
#
# Bulk Modulus (GPa) = 38.33891 43.45182 40.89536
# Shear Modulus (GPa) = 27.19861 30.67513 28.93687
#
# Velocity S-wave (km/s) = 3.75762 3.99055 3.87584
# Velocity P-wave (km/s) = 6.22329 6.61740 6.42337
#
# Compressibility (1/GPa) = 0.02608316
#
# Stress axis : x y z
#
# Youngs Moduli (GPa) = 74.36277 42.72536 76.74283
#
# Poissons Ratio (x) = 0.31394 -0.02542
# Poissons Ratio (y) = 0.54640 0.37477
# Poissons Ratio (z) = -0.02463 0.20865
#
# Static dielectric constant tensor:
#      x y z
#    x 3.659870 0.000000 -0.259510 
#    y 0.000000 3.519770 0.000000 
#    z -0.259510 0.000000 3.807680 
# 
# 
# High freq. dielectric constant tensor:
#      x y z
#    x 1.757190 0.000000 -0.004880 
#    y 0.000000 1.750660 0.000000 
#    z -0.004880 0.000000 1.764070 
# 
# From -- ./inp_files/249906.got.cif
#   From: 2010.06.25/outbox.cif.g09.slc.cpg/sg12_125_cif.got.tgz:249906.got - 2010.06.28 00:19:55.
