data_PCOD8108348
_publ_section_title
;
Structure prediction by ZEFSAII (Michael W. Deem and Ramdas Pophale) SiO2 
 PCOD8108348
Probable space group: C 2/M
;
_chemical_formula_sum "Si O2"
_cell_formula_units_Z 56
_cell_length_a 29.028766
_cell_length_b 8.344476
_cell_length_c 11.205017
_cell_angle_alpha 90.000000
_cell_angle_beta 70.432533
_cell_angle_gamma 90.000000
_cell_volume 2557.439001
_symmetry_space_group_name_H-M "C 2/M"
_symmetry_group_IT_number 12
_symmetry_cell_setting 'monoclinic'
loop_
_space_group_symop_operation_xyz
x,y,z
-x,y,-z
-x,-y,-z
x,-y,z
1/2+x,1/2+y,z
1/2-x,1/2+y,-z
1/2-x,1/2-y,-z
1/2+x,1/2-y,z
loop_
_atom_site_type_symbol
_atom_site_label
_atom_site_fract_x
_atom_site_fract_y
_atom_site_fract_z
Si Si1 0.976587 0.685087 0.398308
Si Si2 0.981314 0.313950 0.888243
Si Si3 0.324308 0.687265 0.255084
Si Si4 0.782555 0.316778 0.635533
Si Si5 0.623796 0.682093 0.560103
Si Si6 0.375656 0.316260 0.978901
Si Si7 0.709343 0.315878 0.122034
O O1 0.991087 0.500000 0.384438
O O2 0.918065 0.705952 0.458293
O O3 0.000000 0.761949 0.500000
O O4 0.994649 0.762094 0.254972
O O5 0.994826 0.500000 0.878291
O O6 0.923706 0.289843 0.925900
O O7 0.000000 0.238624 0.000000
O O8 0.314005 0.500000 0.248184
O O9 0.271790 0.756214 0.345981
O O10 0.368439 0.723880 0.307473
O O11 0.341759 0.757645 0.113636
O O12 0.789351 0.500000 0.586942
O O13 0.823306 0.204578 0.543258
O O14 0.789907 0.306177 0.769956
O O15 0.606909 0.500000 0.555863
O O16 0.390525 0.500000 0.994822
O O17 0.345016 0.304925 0.884792
O O18 0.720685 0.500000 0.148047
O O19 0.750000 0.250000 0.000000
#
# Coordination Sequence:
#
# PCOD8108348 Si02
#       7
#     8   8   8   8   8   8   8
#     4  10  23  43  62  84 118 160 202 249 310 370
#     4  10  22  40  62  90 120 152 201 255 301 360
#     4   9  19  38  60  87 123 160 195 241 295 357
#     4  11  22  39  61  85 123 165 201 242 297 356
#     4  11  23  39  62  90 119 153 203 252 298 357
#     4  10  21  38  61  88 120 156 197 242 299 358
#     4  11  22  38  59  88 123 160 202 248 295 354
#
# _framework density 21.896905
#
# number of rings (size 3 to 8) (size 9 to 14) (size 15 to 20)
#    0.000    1.714    1.429    2.571    2.000    2.286 
#    0.000    2.857    0.000    0.000    0.000    0.000 
#    0.000    0.000    0.000    0.000    0.000    0.000 
#
# Total GULP energy -347070.601291 kJ/mol
# GULP energy per Si atom -12395.378618 kJ/mol
# Density = 2.184707 g / cm^3
# Si number density = 21.896905 Si / 1000 Ang^3
#
#
#
# Elastic Constant Matrix: (Units=GPa)
#
#
# Indices 1 2 3 4 5 6 
#
# 1 134.3928 14.9699 35.9818 0.0000 0.9741 0.0000
# 2 14.9699 24.2718 3.9190 0.0000 7.0517 0.0000
# 3 35.9818 3.9190 95.6923 0.0000 3.1625 0.0000
# 4 0.0000 0.0000 0.0000 23.8180 0.0000 -4.2083
# 5 0.9741 7.0517 3.1625 0.0000 37.8969 0.0000
# 6 0.0000 0.0000 0.0000 -4.2083 0.0000 32.5597
#
#
#
# Elastic Compliance Matrix: (Units=1/GPa)
#
#
# Indices 1 2 3 4 5 6 
#
# 1 0.008862 -0.005251 -0.003151 0.000000 0.001012 0.000000
# 2 -0.005251 0.046888 0.000339 0.000000 -0.008618 0.000000
# 3 -0.003151 0.000339 0.011653 0.000000 -0.000954 0.000000
# 4 0.000000 0.000000 0.000000 0.042966 0.000000 0.005553
# 5 0.001012 -0.008618 -0.000954 0.000000 0.028045 0.000000
# 6 0.000000 0.000000 0.000000 0.005553 0.000000 0.031431
#
#
# Mechanical properties :
#
#
# Convention : Reuss Voigt Hill
#
# Bulk Modulus (GPa) = 19.50196 40.45538 29.97867
# Shear Modulus (GPa) = 24.62309 32.15400 28.38854
#
# Velocity S-wave (km/s) = 3.35700 3.83616 3.60455
# Velocity P-wave (km/s) = 4.89403 6.17552 5.57174
#
# Compressibility (1/GPa) = 0.05127690
#
# Stress axis : x y z
#
# Youngs Moduli (GPa) = 112.84147 21.32752 85.81838
#
# Poissons Ratio (x) = 0.11199 0.27038
# Poissons Ratio (y) = 0.59254 -0.02909
# Poissons Ratio (z) = 0.35552 -0.00723
#
# Static dielectric constant tensor:
#      x y z
#    x 4.087170 0.000000 0.474520 
#    y 0.000000 3.549270 0.000000 
#    z 0.474520 0.000000 4.776180 
# 
# 
# High freq. dielectric constant tensor:
#      x y z
#    x 1.870230 0.000000 0.005900 
#    y 0.000000 1.827050 0.000000 
#    z 0.005900 0.000000 1.870390 
# 
# From -- ./inp_files/180733.got.cif
#   From: 2010.06.25/outbox.cif.g09.slc.cpg/sg12_91_cif.got.tgz:180733.got - 2010.06.28 00:19:55.
