data_PCOD8108660
_publ_section_title
;
Structure prediction by ZEFSAII (Michael W. Deem and Ramdas Pophale) SiO2 
 PCOD8108660
Probable space group: C 2/M
;
_chemical_formula_sum "Si O2"
_cell_formula_units_Z 48
_cell_length_a 17.139132
_cell_length_b 13.508837
_cell_length_c 18.184509
_cell_angle_alpha 90.000000
_cell_angle_beta 150.619077
_cell_angle_gamma 90.000000
_cell_volume 2065.608402
_symmetry_space_group_name_H-M "C 2/M"
_symmetry_group_IT_number 12
_symmetry_cell_setting 'monoclinic'
loop_
_space_group_symop_operation_xyz
x,y,z
-x,y,-z
-x,-y,-z
x,-y,z
1/2+x,1/2+y,z
1/2-x,1/2+y,-z
1/2-x,1/2-y,-z
1/2+x,1/2-y,z
loop_
_atom_site_type_symbol
_atom_site_label
_atom_site_fract_x
_atom_site_fract_y
_atom_site_fract_z
Si Si1 0.077953 0.225981 0.937230
Si Si2 0.664507 0.885876 0.465309
Si Si3 0.175034 0.384997 0.765483
Si Si4 0.278858 0.223529 0.342149
Si Si5 0.894683 0.113156 0.530415
Si Si6 0.164632 0.115251 0.866185
O O1 0.067212 0.169917 0.850380
O O2 0.904378 0.249044 0.826829
O O3 0.167031 0.153044 0.066306
O O4 0.165774 0.331831 0.003953
O O5 0.474683 0.866576 0.302566
O O6 0.724684 0.851798 0.593436
O O7 0.759389 0.839726 0.473927
O O8 0.710580 0.000000 0.499153
O O9 0.194447 0.500000 0.762046
O O10 0.138071 0.326296 0.660019
O O11 0.379085 0.322522 0.443682
O O12 0.066060 0.126443 0.709475
O O13 0.863129 0.000000 0.482635
O O14 0.191829 0.000000 0.908325
#
# Coordination Sequence:
#
# PCOD8108660 Si02
#       6
#     8   8   8   8   8   8
#     4  11  24  38  63  94 129 170 209 256 318 379
#     4  10  21  38  63  93 125 164 209 259 314 373
#     4  11  25  42  63  95 134 170 205 253 319 389
#     4  12  23  38  63  94 132 165 209 260 317 377
#     4  10  22  41  66  94 124 165 216 266 312 366
#     4  10  22  41  64  93 128 166 212 264 315 371
#
# _framework density 23.237704999999998
#
# number of rings (size 3 to 8) (size 9 to 14) (size 15 to 20)
#    0.000    1.333    1.667    3.500    4.667    4.667 
#    0.000    0.833    0.000    6.000    0.000    0.000 
#    0.000    0.000    0.000    0.000    0.000    0.000 
#
# Total GULP energy -297684.065974 kJ/mol
# GULP energy per Si atom -12403.502749 kJ/mol
# Density = 2.318481 g / cm^3
# Si number density = 23.237705 Si / 1000 Ang^3
#
#
#
# Elastic Constant Matrix: (Units=GPa)
#
#
# Indices 1 2 3 4 5 6 
#
# 1 56.4147 24.8110 14.5360 -0.0004 3.8891 -0.0006
# 2 24.8110 108.9089 41.8502 -0.0019 -0.2089 -0.0024
# 3 14.5360 41.8502 97.7121 -0.0003 -3.3222 -0.0006
# 4 -0.0004 -0.0019 -0.0003 39.4742 -0.0005 -4.3980
# 5 3.8891 -0.2089 -3.3222 -0.0005 35.3726 -0.0003
# 6 -0.0006 -0.0024 -0.0006 -4.3980 -0.0003 24.7765
#
#
#
# Elastic Compliance Matrix: (Units=1/GPa)
#
#
# Indices 1 2 3 4 5 6 
#
# 1 0.020012 -0.004056 -0.001319 0.000000 -0.002348 0.000000
# 2 -0.004056 0.011818 -0.004455 0.000001 0.000097 0.000001
# 3 -0.001319 -0.004455 0.012382 0.000000 0.001282 0.000000
# 4 0.000000 0.000001 0.000000 0.025844 0.000000 0.004588
# 5 -0.002348 0.000097 0.001282 0.000000 0.028650 0.000000
# 6 0.000000 0.000001 0.000000 0.004588 0.000000 0.041175
#
#
# Mechanical properties :
#
#
# Convention : Reuss Voigt Hill
#
# Bulk Modulus (GPa) = 40.73283 47.27003 44.00143
# Shear Modulus (GPa) = 29.81050 32.04721 30.92886
#
# Velocity S-wave (km/s) = 3.58558 3.71766 3.65221
# Velocity P-wave (km/s) = 5.89140 6.23009 6.06311
#
# Compressibility (1/GPa) = 0.02455022
#
# Stress axis : x y z
#
# Youngs Moduli (GPa) = 49.97068 84.61537 80.76186
#
# Poissons Ratio (x) = 0.34324 0.10656
# Poissons Ratio (y) = 0.20270 0.35979
# Poissons Ratio (z) = 0.06594 0.37696
#
# Static dielectric constant tensor:
#      x y z
#    x 4.079820 0.000000 0.081760 
#    y 0.000000 4.254460 0.000000 
#    z 0.081760 0.000000 4.105590 
# 
# 
# High freq. dielectric constant tensor:
#      x y z
#    x 1.909240 0.000000 0.006750 
#    y 0.000000 1.929590 0.000000 
#    z 0.006750 0.000000 1.923470 
# 
# From -- ./inp_files/278235.got.cif
#   From: 2010.06.25/outbox.cif.g09.slc.cpg/sg12_140_cif.got.tgz:278235.got - 2010.06.28 00:19:55.
