data_PCOD8108471
_publ_section_title
;
Structure prediction by ZEFSAII (Michael W. Deem and Ramdas Pophale) SiO2 
 PCOD8108471
Probable space group: C 2/M
;
_chemical_formula_sum "Si O2"
_cell_formula_units_Z 56
_cell_length_a 16.243313
_cell_length_b 16.609203
_cell_length_c 22.149652
_cell_angle_alpha 90.000000
_cell_angle_beta 153.548209
_cell_angle_gamma 90.000000
_cell_volume 2661.852969
_symmetry_space_group_name_H-M "C 2/M"
_symmetry_group_IT_number 12
_symmetry_cell_setting 'monoclinic'
loop_
_space_group_symop_operation_xyz
x,y,z
-x,y,-z
-x,-y,-z
x,-y,z
1/2+x,1/2+y,z
1/2-x,1/2+y,-z
1/2-x,1/2-y,-z
1/2+x,1/2-y,z
loop_
_atom_site_type_symbol
_atom_site_label
_atom_site_fract_x
_atom_site_fract_y
_atom_site_fract_z
Si Si1 0.485554 0.093050 0.558533
Si Si2 0.437069 0.587485 0.700099
Si Si3 0.736527 0.707736 0.927126
Si Si4 0.166470 0.590372 0.353396
Si Si5 0.929407 0.406913 0.845261
Si Si6 0.535729 0.633758 0.638924
Si Si7 0.434769 0.801203 0.287131
O O1 0.500000 0.127581 0.500000
O O2 0.277957 0.110211 0.444293
O O3 0.624392 0.138729 0.696699
O O4 0.542955 0.000000 0.597078
O O5 0.460862 0.500000 0.747912
O O6 0.547949 0.656154 0.808533
O O7 0.516140 0.577679 0.684622
O O8 0.727006 0.772830 0.865716
O O9 0.750000 0.750000 0.000000
O O10 0.904509 0.647999 0.021058
O O11 0.126987 0.500000 0.351436
O O12 0.069888 0.602150 0.226034
O O13 0.387059 0.604908 0.491464
O O14 0.090496 0.654600 0.350502
O O15 0.959176 0.500000 0.884058
O O16 0.740341 0.372673 0.747484
O O17 0.484486 0.723702 0.626103
#
# Coordination Sequence:
#
# PCOD8108471 Si02
#       7
#     8   8   8   8   8   8   8
#     4  10  22  41  66  96 126 165 225 286 338 395
#     4  10  21  38  62  86 121 170 215 271 336 395
#     4  11  24  41  62  90 133 175 223 262 313 398
#     4  11  21  38  65  95 130 170 219 274 331 400
#     4  11  24  42  65  96 134 179 221 265 325 400
#     4  11  23  37  63  98 132 163 216 279 339 398
#     4  11  23  39  63  94 128 174 216 265 339 394
#
# _framework density 21.037977000000001
#
# number of rings (size 3 to 8) (size 9 to 14) (size 15 to 20)
#    0.000    1.286    2.857    3.000    2.000    5.714 
#    0.000    3.571    0.000    0.000    0.000    7.000 
#    0.000    0.000    0.000    0.000    0.000    0.000 
#
# Total GULP energy -347075.919637 kJ/mol
# GULP energy per Si atom -12395.568558 kJ/mol
# Density = 2.099009 g / cm^3
# Si number density = 21.037977 Si / 1000 Ang^3
#
#
#
# Elastic Constant Matrix: (Units=GPa)
#
#
# Indices 1 2 3 4 5 6 
#
# 1 89.6597 56.8808 29.0532 0.0128 -7.4238 0.0000
# 2 56.8808 133.5980 59.9967 -0.0161 -7.9530 0.0032
# 3 29.0532 59.9967 101.2863 -0.0073 -14.7560 -0.0009
# 4 0.0128 -0.0161 -0.0073 31.6665 0.0050 -11.9005
# 5 -7.4238 -7.9530 -14.7560 0.0050 37.1885 0.0002
# 6 0.0000 0.0032 -0.0009 -11.9005 0.0002 32.5600
#
#
#
# Elastic Compliance Matrix: (Units=1/GPa)
#
#
# Indices 1 2 3 4 5 6 
#
# 1 0.015402 -0.006244 -0.000495 -0.000011 0.001543 -0.000003
# 2 -0.006244 0.012731 -0.005875 0.000008 -0.000855 0.000002
# 3 -0.000495 -0.005875 0.014113 0.000000 0.004245 0.000001
# 4 -0.000011 0.000008 0.000000 0.036607 -0.000005 0.013380
# 5 0.001543 -0.000855 0.004245 -0.000005 0.028700 -0.000002
# 6 -0.000003 0.000002 0.000001 0.013380 -0.000002 0.035603
#
#
# Mechanical properties :
#
#
# Convention : Reuss Voigt Hill
#
# Bulk Modulus (GPa) = 58.75401 68.48948 63.62175
# Shear Modulus (GPa) = 28.72646 32.19057 30.45852
#
# Velocity S-wave (km/s) = 3.69922 3.91591 3.80911
# Velocity P-wave (km/s) = 6.79955 7.28503 7.04647
#
# Compressibility (1/GPa) = 0.01702012
#
# Stress axis : x y z
#
# Youngs Moduli (GPa) = 64.92484 78.54994 70.85584
#
# Poissons Ratio (x) = 0.49044 0.03506
# Poissons Ratio (y) = 0.40537 0.41625
# Poissons Ratio (z) = 0.03213 0.46145
#
# Static dielectric constant tensor:
#      x y z
#    x 3.732550 0.000000 -0.199150 
#    y 0.000000 4.004440 -0.000050 
#    z -0.199150 -0.000050 3.801040 
# 
# 
# High freq. dielectric constant tensor:
#      x y z
#    x 1.815510 0.000000 -0.017240 
#    y 0.000000 1.840490 -0.000010 
#    z -0.017240 -0.000010 1.811130 
# 
# From -- ./inp_files/311738.got.cif
#   From: 2010.06.25/outbox.cif.g09.slc.cpg/sg12_156_cif.got.tgz:311738.got - 2010.06.28 00:19:55.
