data_PCOD8108019
_publ_section_title
;
Structure prediction by ZEFSAII (Michael W. Deem and Ramdas Pophale) SiO2 
 PCOD8108019
Probable space group: C 2/M
;
_chemical_formula_sum "Si O2"
_cell_formula_units_Z 56
_cell_length_a 23.646192
_cell_length_b 14.270731
_cell_length_c 9.532094
_cell_angle_alpha 90.000000
_cell_angle_beta 122.984311
_cell_angle_gamma 90.000000
_cell_volume 2698.139221
_symmetry_space_group_name_H-M "C 2/M"
_symmetry_group_IT_number 12
_symmetry_cell_setting 'monoclinic'
loop_
_space_group_symop_operation_xyz
x,y,z
-x,y,-z
-x,-y,-z
x,-y,z
1/2+x,1/2+y,z
1/2-x,1/2+y,-z
1/2-x,1/2-y,-z
1/2+x,1/2-y,z
loop_
_atom_site_type_symbol
_atom_site_label
_atom_site_fract_x
_atom_site_fract_y
_atom_site_fract_z
Si Si1 0.199465 0.106150 0.156511
Si Si2 0.147064 0.102884 0.552913
Si Si3 0.364732 0.892809 0.889041
Si Si4 0.504116 0.391961 0.340442
Si Si5 0.263375 0.141506 0.515989
Si Si6 0.436572 0.709496 0.010733
Si Si7 0.241080 0.888163 0.911341
O O1 0.261336 0.108538 0.351366
O O2 0.230216 0.150470 0.054101
O O3 0.176287 0.000000 0.096103
O O4 0.135090 0.163149 0.130087
O O5 0.078705 0.149525 0.401842
O O6 0.201520 0.089294 0.505664
O O7 0.122654 0.000000 0.570906
O O8 0.180955 0.154333 0.732818
O O9 0.332269 0.885353 0.688748
O O10 0.388922 0.000000 0.945694
O O11 0.428057 0.822347 0.989036
O O12 0.312003 0.858513 0.937507
O O13 0.500000 0.377962 0.500000
O O14 0.491658 0.500000 0.277502
O O15 0.450973 0.326184 0.188189
O O16 0.250000 0.250000 0.500000
O O17 0.500000 0.677632 0.000000
O O18 0.238083 0.000000 0.901337
#
# Coordination Sequence:
#
# PCOD8108019 Si02
#       7
#     8   8   8   8   8   8   8
#     4  11  21  36  59  90 121 144 178 241 304 353
#     4   9  17  33  56  78 110 150 180 221 283 347
#     4  10  22  43  62  80 114 159 201 243 289 340
#     4  10  21  38  59  85 119 155 187 227 288 355
#     4  11  20  35  55  86 113 144 186 235 290 348
#     4  12  25  38  56  87 120 157 204 238 277 343
#     4   8  17  35  61  88 111 143 188 234 293 351
#
# _framework density 20.755043000000001
#
# number of rings (size 3 to 8) (size 9 to 14) (size 15 to 20)
#    0.000    1.857    1.429    4.286    0.000    5.429 
#    2.571    0.000    0.000    0.429    0.000    0.000 
#    0.000    0.000    0.000    0.000    0.000    0.000 
#
# Total GULP energy -346981.882379 kJ/mol
# GULP energy per Si atom -12392.210085 kJ/mol
# Density = 2.070780 g / cm^3
# Si number density = 20.755043 Si / 1000 Ang^3
#
#
#
# Elastic Constant Matrix: (Units=GPa)
#
#
# Indices 1 2 3 4 5 6 
#
# 1 60.3941 10.7472 37.3474 0.0000 -5.1492 0.0000
# 2 10.7472 77.5164 30.7662 0.0000 4.4148 0.0000
# 3 37.3474 30.7662 132.9664 0.0000 -10.4742 0.0000
# 4 0.0000 0.0000 0.0000 22.4813 0.0000 7.2850
# 5 -5.1492 4.4148 -10.4742 0.0000 28.0317 0.0000
# 6 0.0000 0.0000 0.0000 7.2850 0.0000 25.7526
#
#
#
# Elastic Compliance Matrix: (Units=1/GPa)
#
#
# Indices 1 2 3 4 5 6 
#
# 1 0.020152 -0.000781 -0.005336 0.000000 0.001831 0.000000
# 2 -0.000781 0.014591 -0.003451 0.000000 -0.003731 0.000000
# 3 -0.005336 -0.003451 0.010080 0.000000 0.003330 0.000000
# 4 0.000000 0.000000 0.000000 0.048970 0.000000 -0.013853
# 5 0.001831 -0.003731 0.003330 0.000000 0.037842 0.000000
# 6 0.000000 0.000000 0.000000 -0.013853 0.000000 0.042750
#
#
# Mechanical properties :
#
#
# Convention : Reuss Voigt Hill
#
# Bulk Modulus (GPa) = 38.92627 47.62205 43.27416
# Shear Modulus (GPa) = 24.74239 28.05419 26.39829
#
# Velocity S-wave (km/s) = 3.45645 3.68051 3.57024
# Velocity P-wave (km/s) = 5.89281 6.40751 6.15554
#
# Compressibility (1/GPa) = 0.02568959
#
# Stress axis : x y z
#
# Youngs Moduli (GPa) = 49.62186 68.53645 99.20580
#
# Poissons Ratio (x) = 0.05350 0.52931
# Poissons Ratio (y) = 0.03874 0.34233
# Poissons Ratio (z) = 0.26476 0.23650
#
# Static dielectric constant tensor:
#      x y z
#    x 3.950540 0.000000 -0.311540 
#    y 0.000000 3.783380 0.000000 
#    z -0.311540 0.000000 4.172240 
# 
# 
# High freq. dielectric constant tensor:
#      x y z
#    x 1.791610 0.000000 -0.007480 
#    y 0.000000 1.794900 0.000000 
#    z -0.007480 0.000000 1.815470 
# 
# From -- ./inp_files/96769.got.cif
#   From: 2010.06.25/outbox.cif.g09.slc.cpg/sg12_49_cif.got.tgz:96769.got - 2010.06.28 00:19:55.
