data_PCOD8108619
_publ_section_title
;
Structure prediction by ZEFSAII (Michael W. Deem and Ramdas Pophale) SiO2 
 PCOD8108619
Probable space group: C 2/M
;
_chemical_formula_sum "Si O2"
_cell_formula_units_Z 40
_cell_length_a 20.209653
_cell_length_b 18.237996
_cell_length_c 6.612522
_cell_angle_alpha 90.000000
_cell_angle_beta 49.000910
_cell_angle_gamma 90.000000
_cell_volume 1839.454127
_symmetry_space_group_name_H-M "C 2/M"
_symmetry_group_IT_number 12
_symmetry_cell_setting 'monoclinic'
loop_
_space_group_symop_operation_xyz
x,y,z
-x,y,-z
-x,-y,-z
x,-y,z
1/2+x,1/2+y,z
1/2-x,1/2+y,-z
1/2-x,1/2-y,-z
1/2+x,1/2-y,z
loop_
_atom_site_type_symbol
_atom_site_label
_atom_site_fract_x
_atom_site_fract_y
_atom_site_fract_z
Si Si1 0.179292 0.183846 0.539753
Si Si2 0.901469 0.857830 0.687261
Si Si3 0.749227 0.583145 0.744819
Si Si4 0.855956 0.274608 0.042344
Si Si5 0.398851 0.917640 0.756297
O O1 0.119234 0.137898 0.509625
O O2 0.236546 0.131646 0.571318
O O3 0.116425 0.238174 0.797117
O O4 0.249146 0.229303 0.262434
O O5 0.000000 0.887876 0.500000
O O6 0.835821 0.909759 0.940878
O O7 0.894276 0.773962 0.782548
O O8 0.757815 0.500000 0.655054
O O9 0.837239 0.606120 0.691131
O O10 0.886009 0.358927 0.962129
O O11 0.500000 0.916103 0.500000
O O12 0.372488 0.000000 0.881969
#
# Coordination Sequence:
#
# PCOD8108619 Si02
#       5
#     8   8   8   8   8
#     4  10  22  38  63  91 123 157 203 246 298 358
#     4  11  23  41  64  90 121 161 201 247 303 357
#     4  10  23  41  62  89 123 160 200 249 299 355
#     4  10  21  38  63  89 121 156 199 247 300 350
#     4  10  21  40  63  88 123 163 201 244 299 360
#
# _framework density 21.74558
#
# number of rings (size 3 to 8) (size 9 to 14) (size 15 to 20)
#    0.000    1.800    2.000    1.200    5.600    5.200 
#    3.600    1.000    0.000    3.600    0.000    0.000 
#    0.000    0.000    0.000    0.000    0.000    0.000 
#
# Total GULP energy -247880.519579 kJ/mol
# GULP energy per Si atom -12394.025979 kJ/mol
# Density = 2.169609 g / cm^3
# Si number density = 21.745580 Si / 1000 Ang^3
#
#
#
# Elastic Constant Matrix: (Units=GPa)
#
#
# Indices 1 2 3 4 5 6 
#
# 1 112.4938 -4.2579 42.5005 0.0000 -14.8105 0.0000
# 2 -4.2579 76.6830 19.3972 0.0000 0.4938 0.0000
# 3 42.5005 19.3972 75.9538 0.0000 -4.0658 0.0000
# 4 0.0000 0.0000 0.0000 31.3930 0.0000 -6.5873
# 5 -14.8105 0.4938 -4.0658 0.0000 31.1106 0.0000
# 6 0.0000 0.0000 0.0000 -6.5873 0.0000 9.6338
#
#
#
# Elastic Compliance Matrix: (Units=1/GPa)
#
#
# Indices 1 2 3 4 5 6 
#
# 1 0.012392 0.002506 -0.007312 0.000000 0.004904 0.000000
# 2 0.002506 0.014463 -0.005080 0.000000 0.000300 0.000000
# 3 -0.007312 -0.005080 0.018502 0.000000 -0.000982 0.000000
# 4 0.000000 0.000000 0.000000 0.037190 0.000000 0.025430
# 5 0.004904 0.000300 -0.000982 0.000000 0.034345 0.000000
# 6 0.000000 0.000000 0.000000 0.025430 0.000000 0.121189
#
#
# Mechanical properties :
#
#
# Convention : Reuss Voigt Hill
#
# Bulk Modulus (GPa) = 39.08356 42.26779 40.67568
# Shear Modulus (GPa) = 18.77011 28.26019 23.51515
#
# Velocity S-wave (km/s) = 2.94116 3.60888 3.29200
# Velocity P-wave (km/s) = 5.43563 6.07001 5.76156
#
# Compressibility (1/GPa) = 0.02558620
#
# Stress axis : x y z
#
# Youngs Moduli (GPa) = 80.69559 69.14260 54.04858
#
# Poissons Ratio (x) = -0.17327 0.39518
# Poissons Ratio (y) = -0.20222 0.27455
# Poissons Ratio (z) = 0.59002 0.35123
#
# Static dielectric constant tensor:
#      x y z
#    x 3.834650 0.000000 0.071350 
#    y 0.000000 3.996110 0.000000 
#    z 0.071350 0.000000 3.882400 
# 
# 
# High freq. dielectric constant tensor:
#      x y z
#    x 1.840670 0.000000 -0.000110 
#    y 0.000000 1.852700 0.000000 
#    z -0.000110 0.000000 1.849860 
# 
# From -- ./inp_files/21118.got.cif
#   From: 2010.06.25/outbox.cif.g09.slc.cpg/sg12_11_cif.got.tgz:21118.got - 2010.06.28 00:19:55.
