data_PCOD8108695
_publ_section_title
;
Structure prediction by ZEFSAII (Michael W. Deem and Ramdas Pophale) SiO2 
 PCOD8108695
Probable space group: C 2/M
;
_chemical_formula_sum "Si O2"
_cell_formula_units_Z 48
_cell_length_a 17.267591
_cell_length_b 15.160837
_cell_length_c 17.619309
_cell_angle_alpha 90.000000
_cell_angle_beta 31.486375
_cell_angle_gamma 90.000000
_cell_volume 2409.130524
_symmetry_space_group_name_H-M "C 2/M"
_symmetry_group_IT_number 12
_symmetry_cell_setting 'monoclinic'
loop_
_space_group_symop_operation_xyz
x,y,z
-x,y,-z
-x,-y,-z
x,-y,z
1/2+x,1/2+y,z
1/2-x,1/2+y,-z
1/2-x,1/2-y,-z
1/2+x,1/2-y,z
loop_
_atom_site_type_symbol
_atom_site_label
_atom_site_fract_x
_atom_site_fract_y
_atom_site_fract_z
Si Si1 0.039286 0.749956 0.879479
Si Si2 0.618552 0.400724 0.558788
Si Si3 0.951143 0.096860 0.847014
Si Si4 0.652760 0.162449 0.076781
Si Si5 0.582664 0.899470 0.613941
Si Si6 0.628889 0.760317 0.448331
O O1 0.216181 0.745934 0.723876
O O2 0.976279 0.841472 0.898733
O O3 0.959654 0.668986 0.900804
O O4 0.000000 0.742285 0.000000
O O5 0.562775 0.500000 0.584828
O O6 0.543292 0.365587 0.698959
O O7 0.795120 0.400599 0.421968
O O8 0.576620 0.332104 0.528575
O O9 0.010872 0.000000 0.818598
O O10 0.778224 0.087233 0.965856
O O11 0.563658 0.144898 0.228917
O O12 0.750000 0.250000 0.000000
O O13 0.645521 0.840006 0.493600
O O14 0.551643 0.000000 0.611997
O O15 0.500000 0.790384 0.500000
#
# Coordination Sequence:
#
# PCOD8108695 Si02
#       6
#     8   8   8   8   8   8
#     4  11  24  39  57  88 127 161 200 250 313 378
#     4  10  21  41  68  90 116 161 215 267 308 358
#     4  10  21  39  64  90 118 156 204 254 308 369
#     4  10  21  38  64  87 119 160 208 252 300 362
#     4  11  22  41  67  93 121 161 214 265 308 361
#     4  12  25  39  63  91 126 167 206 255 317 373
#
# _framework density 19.924199999999999
#
# number of rings (size 3 to 8) (size 9 to 14) (size 15 to 20)
#    0.000    1.333    3.333    3.000    7.000    1.000 
#    0.000    0.000    0.000    2.500    0.000    0.000 
#    0.000    0.000    0.000    0.000    0.000    0.000 
#
# Total GULP energy -297522.314712 kJ/mol
# GULP energy per Si atom -12396.763113 kJ/mol
# Density = 1.987885 g / cm^3
# Si number density = 19.924200 Si / 1000 Ang^3
#
#
#
# Elastic Constant Matrix: (Units=GPa)
#
#
# Indices 1 2 3 4 5 6 
#
# 1 83.2038 23.4610 36.6212 0.0005 0.4247 0.0001
# 2 23.4610 79.1259 16.2209 0.0008 15.1981 0.0000
# 3 36.6212 16.2209 125.1769 0.0028 2.3782 -0.0006
# 4 0.0005 0.0008 0.0028 23.0004 -0.0011 -5.6873
# 5 0.4247 15.1981 2.3782 -0.0011 37.6009 0.0001
# 6 0.0001 0.0000 -0.0006 -5.6873 0.0001 16.9405
#
#
#
# Elastic Compliance Matrix: (Units=1/GPa)
#
#
# Indices 1 2 3 4 5 6 
#
# 1 0.014813 -0.003921 -0.003857 0.000000 0.001661 0.000000
# 2 -0.003921 0.015098 -0.000695 -0.000001 -0.006014 0.000000
# 3 -0.003857 -0.000695 0.009212 -0.000001 -0.000258 0.000000
# 4 0.000000 -0.000001 -0.000001 0.047414 0.000002 0.015918
# 5 0.001661 -0.006014 -0.000258 0.000002 0.029024 0.000000
# 6 0.000000 0.000000 0.000000 0.015918 0.000000 0.064374
#
#
# Mechanical properties :
#
#
# Convention : Reuss Voigt Hill
#
# Bulk Modulus (GPa) = 45.09035 48.90143 46.99589
# Shear Modulus (GPa) = 24.47692 29.58859 27.03275
#
# Velocity S-wave (km/s) = 3.50880 3.85783 3.68745
# Velocity P-wave (km/s) = 6.25265 6.66639 6.46283
#
# Compressibility (1/GPa) = 0.02217769
#
# Stress axis : x y z
#
# Youngs Moduli (GPa) = 67.50640 66.23271 108.55225
#
# Poissons Ratio (x) = 0.25967 0.41871
# Poissons Ratio (y) = 0.26466 0.07547
# Poissons Ratio (z) = 0.26039 0.04605
#
# Static dielectric constant tensor:
#      x y z
#    x 3.450750 0.000000 -0.301230 
#    y 0.000000 3.830600 0.000000 
#    z -0.301230 0.000000 3.899600 
# 
# 
# High freq. dielectric constant tensor:
#      x y z
#    x 1.747760 0.000000 -0.014160 
#    y 0.000000 1.779430 0.000000 
#    z -0.014160 0.000000 1.796140 
# 
# From -- ./inp_files/216224.got.cif
#   From: 2010.06.25/outbox.cif.g09.slc.cpg/sg12_109_cif.got.tgz:216224.got - 2010.06.28 00:19:55.
