data_PCOD8108088
_publ_section_title
;
Structure prediction by ZEFSAII (Michael W. Deem and Ramdas Pophale) SiO2 
 PCOD8108088
Probable space group: C 2/M
;
_chemical_formula_sum "Si O2"
_cell_formula_units_Z 64
_cell_length_a 30.409462
_cell_length_b 8.974306
_cell_length_c 17.637392
_cell_angle_alpha 90.000000
_cell_angle_beta 42.297153
_cell_angle_gamma 90.000000
_cell_volume 3239.242038
_symmetry_space_group_name_H-M "C 2/M"
_symmetry_group_IT_number 12
_symmetry_cell_setting 'monoclinic'
loop_
_space_group_symop_operation_xyz
x,y,z
-x,y,-z
-x,-y,-z
x,-y,z
1/2+x,1/2+y,z
1/2-x,1/2+y,-z
1/2-x,1/2-y,-z
1/2+x,1/2-y,z
loop_
_atom_site_type_symbol
_atom_site_label
_atom_site_fract_x
_atom_site_fract_y
_atom_site_fract_z
Si Si1 0.365098 0.827006 0.070382
Si Si2 0.516353 0.824885 0.392995
Si Si3 0.349005 0.675416 0.830392
Si Si4 0.274241 0.325817 0.078515
Si Si5 0.818448 0.825284 0.422894
Si Si6 0.903500 0.169912 0.172548
Si Si7 0.018486 0.166230 0.131983
Si Si8 0.072457 0.170795 0.607885
O O1 0.301778 0.737494 0.122439
O O2 0.385774 0.779439 0.127646
O O3 0.348942 0.000000 0.088347
O O4 0.424842 0.788614 0.937918
O O5 0.500000 0.779335 0.500000
O O6 0.580018 0.742492 0.278637
O O7 0.452166 0.776857 0.427638
O O8 0.528034 0.000000 0.370156
O O9 0.352578 0.500000 0.811351
O O10 0.295170 0.746449 0.844170
O O11 0.326352 0.710812 0.945311
O O12 0.260684 0.500000 0.102334
O O13 0.750000 0.750000 0.500000
O O14 0.860488 0.776346 0.297650
O O15 0.855711 0.778739 0.453636
O O16 0.808594 0.000000 0.436588
O O17 0.978438 0.184701 0.104475
O O18 0.888325 0.000000 0.167814
O O19 0.975046 0.187764 0.260489
O O20 0.049818 0.000000 0.092667
O O21 0.073454 0.000000 0.577955
#
# Coordination Sequence:
#
# PCOD8108088 Si02
#       8
#     8   8   8   8   8   8   8   8
#     4  12  23  32  48  81 117 146 183 226 274 328
#     4  11  24  40  58  85 119 155 195 238 290 345
#     4  10  21  39  63  87 111 144 189 238 289 340
#     4  10  21  38  60  84 113 150 188 230 284 349
#     4   9  19  37  60  84 109 143 186 232 282 336
#     4   9  19  36  54  74 106 148 186 223 275 336
#     4   9  18  34  56  78 106 145 187 227 276 338
#     4   9  19  37  60  85 109 142 191 236 280 336
#
# _framework density 19.757709999999999
#
# number of rings (size 3 to 8) (size 9 to 14) (size 15 to 20)
#    0.000    2.125    0.000    4.875    0.000    9.000 
#    2.250    2.500    0.000    0.000    0.000    0.000 
#    0.000    0.000    0.000    0.000    0.000    0.000 
#
# Total GULP energy -396732.623194 kJ/mol
# GULP energy per Si atom -12397.894475 kJ/mol
# Density = 1.971274 g / cm^3
# Si number density = 19.757710 Si / 1000 Ang^3
#
#
#
# Elastic Constant Matrix: (Units=GPa)
#
#
# Indices 1 2 3 4 5 6 
#
# 1 131.4859 48.2035 29.3687 0.0043 -5.1762 0.0028
# 2 48.2035 79.8640 27.8779 0.0456 -4.2785 -0.0222
# 3 29.3687 27.8779 42.2501 0.0096 -11.6903 -0.0019
# 4 0.0043 0.0456 0.0096 30.5497 -0.0110 -5.8651
# 5 -5.1762 -4.2785 -11.6903 -0.0110 28.7594 0.0043
# 6 0.0028 -0.0222 -0.0019 -5.8651 0.0043 35.2772
#
#
#
# Elastic Compliance Matrix: (Units=1/GPa)
#
#
# Indices 1 2 3 4 5 6 
#
# 1 0.010258 -0.004780 -0.004127 0.000006 -0.000542 -0.000003
# 2 -0.004780 0.018619 -0.009503 -0.000023 -0.001953 0.000008
# 3 -0.004127 -0.009503 0.036293 0.000007 0.012596 -0.000004
# 4 0.000006 -0.000023 0.000007 0.033813 0.000013 0.005622
# 5 -0.000542 -0.001953 0.012596 0.000013 0.039503 -0.000003
# 6 -0.000003 0.000008 -0.000004 0.005622 -0.000003 0.029282
#
#
# Mechanical properties :
#
#
# Convention : Reuss Voigt Hill
#
# Bulk Modulus (GPa) = 35.27307 51.61113 43.44210
# Shear Modulus (GPa) = 23.36045 28.79393 26.07719
#
# Velocity S-wave (km/s) = 3.44226 3.82167 3.63691
# Velocity P-wave (km/s) = 5.80434 6.75665 6.29852
#
# Compressibility (1/GPa) = 0.02835024
#
# Stress axis : x y z
#
# Youngs Moduli (GPa) = 97.48330 53.70849 27.55378
#
# Poissons Ratio (x) = 0.25673 0.11370
# Poissons Ratio (y) = 0.46598 0.26185
# Poissons Ratio (z) = 0.40227 0.51040
#
# Static dielectric constant tensor:
#      x y z
#    x 3.931680 -0.000010 -0.088780 
#    y -0.000010 3.513180 0.000020 
#    z -0.088780 0.000020 3.450080 
# 
# 
# High freq. dielectric constant tensor:
#      x y z
#    x 1.787560 0.000000 -0.004360 
#    y 0.000000 1.763570 0.000000 
#    z -0.004360 0.000000 1.750970 
# 
# From -- ./inp_files/295582.got.cif
#   From: 2010.06.25/outbox.cif.g09.slc.cpg/sg12_148_cif.got.tgz:295582.got - 2010.06.28 00:19:55.
