data_PCOD8108433
_publ_section_title
;
Structure prediction by ZEFSAII (Michael W. Deem and Ramdas Pophale) SiO2 
 PCOD8108433
Probable space group: C 2/M
;
_chemical_formula_sum "Si O2"
_cell_formula_units_Z 40
_cell_length_a 21.151851
_cell_length_b 9.047381
_cell_length_c 28.280666
_cell_angle_alpha 90.000000
_cell_angle_beta 159.897999
_cell_angle_gamma 90.000000
_cell_volume 1860.077053
_symmetry_space_group_name_H-M "C 2/M"
_symmetry_group_IT_number 12
_symmetry_cell_setting 'monoclinic'
loop_
_space_group_symop_operation_xyz
x,y,z
-x,y,-z
-x,-y,-z
x,-y,z
1/2+x,1/2+y,z
1/2-x,1/2+y,-z
1/2-x,1/2-y,-z
1/2+x,1/2-y,z
loop_
_atom_site_type_symbol
_atom_site_label
_atom_site_fract_x
_atom_site_fract_y
_atom_site_fract_z
Si Si1 0.827201 0.324558 0.663838
Si Si2 0.577022 0.329754 0.356671
Si Si3 0.063130 0.171395 0.094673
Si Si4 0.924629 0.832225 0.347012
Si Si5 0.082177 0.826735 0.908821
O O1 0.851086 0.500000 0.682362
O O2 0.968575 0.259028 0.723356
O O3 0.617700 0.276932 0.505141
O O4 0.891694 0.248837 0.757612
O O5 0.622193 0.500000 0.376513
O O6 0.750000 0.250000 0.500000
O O7 0.419985 0.319235 0.286370
O O8 0.255881 0.238421 0.247888
O O9 0.913116 0.199248 0.030944
O O10 0.099966 0.000000 0.112949
O O11 0.000000 0.241953 0.000000
O O12 0.894905 0.000000 0.342270
O O13 0.083753 0.000000 0.897829
O O14 0.250000 0.750000 0.000000
#
# Coordination Sequence:
#
# PCOD8108433 Si02
#       5
#     8   8   8   8   8
#     4  10  21  38  61  91 127 165 208 259 314 371
#     4   9  17  31  53  88 126 162 204 248 304 365
#     4  10  24  44  64  90 124 165 208 256 315 377
#     4   9  20  37  60  92 125 161 206 256 309 367
#     4  11  25  44  65  92 126 165 210 258 316 379
#
# _framework density 21.504486
#
# number of rings (size 3 to 8) (size 9 to 14) (size 15 to 20)
#    0.000    2.200    0.000    3.000    2.800    7.600 
#    0.000    4.000    0.000    0.000    0.000    0.000 
#    0.000    0.000    0.000    0.000    0.000    0.000 
#
# Total GULP energy -247868.785307 kJ/mol
# GULP energy per Si atom -12393.439265 kJ/mol
# Density = 2.145554 g / cm^3
# Si number density = 21.504486 Si / 1000 Ang^3
#
#
#
# Elastic Constant Matrix: (Units=GPa)
#
#
# Indices 1 2 3 4 5 6 
#
# 1 115.8224 56.2713 55.1121 -0.0042 -4.5424 -0.0009
# 2 56.2713 101.2785 40.4253 -0.0218 4.8054 0.0026
# 3 55.1121 40.4253 99.4926 -0.0255 4.2282 0.0066
# 4 -0.0042 -0.0218 -0.0255 34.4092 0.0038 1.3419
# 5 -4.5424 4.8054 4.2282 0.0038 31.5954 -0.0004
# 6 -0.0009 0.0026 0.0066 1.3419 -0.0004 33.5666
#
#
#
# Elastic Compliance Matrix: (Units=1/GPa)
#
#
# Indices 1 2 3 4 5 6 
#
# 1 0.014355 -0.005867 -0.005726 -0.000007 0.003722 0.000002
# 2 -0.005867 0.014225 -0.002416 0.000007 -0.002684 -0.000001
# 3 -0.005726 -0.002416 0.014305 0.000009 -0.002370 -0.000003
# 4 -0.000007 0.000007 0.000009 0.029107 -0.000007 -0.001164
# 5 0.003722 -0.002684 -0.002370 -0.000007 0.032911 0.000001
# 6 0.000002 -0.000001 -0.000003 -0.001164 0.000001 0.029838
#
#
# Mechanical properties :
#
#
# Convention : Reuss Voigt Hill
#
# Bulk Modulus (GPa) = 67.26080 68.91232 68.08656
# Shear Modulus (GPa) = 29.81252 30.89989 30.35621
#
# Velocity S-wave (km/s) = 3.72740 3.79476 3.76123
# Velocity P-wave (km/s) = 7.06188 7.16348 7.11286
#
# Compressibility (1/GPa) = 0.01486750
#
# Stress axis : x y z
#
# Youngs Moduli (GPa) = 69.66288 70.29830 69.90456
#
# Poissons Ratio (x) = 0.41242 0.40028
# Poissons Ratio (y) = 0.40870 0.16889
# Poissons Ratio (z) = 0.39889 0.16984
#
# Static dielectric constant tensor:
#      x y z
#    x 4.349720 0.000020 -0.221810 
#    y 0.000020 3.876610 -0.000090 
#    z -0.221810 -0.000090 3.687370 
# 
# 
# High freq. dielectric constant tensor:
#      x y z
#    x 1.850270 0.000000 -0.006220 
#    y 0.000000 1.843100 -0.000010 
#    z -0.006220 -0.000010 1.827270 
# 
# From -- ./inp_files/380893.got.cif
#   From: 2010.06.25/outbox.cif.g09.slc.cpg/sg12_191_cif.got.tgz:380893.got - 2010.06.28 00:19:55.
