data_PCOD8108302
_publ_section_title
;
Structure prediction by ZEFSAII (Michael W. Deem and Ramdas Pophale) SiO2 
 PCOD8108302
Probable space group: C 2/M
;
_chemical_formula_sum "Si O2"
_cell_formula_units_Z 64
_cell_length_a 9.254519
_cell_length_b 14.905367
_cell_length_c 31.923432
_cell_angle_alpha 90.000000
_cell_angle_beta 137.336430
_cell_angle_gamma 90.000000
_cell_volume 2984.273508
_symmetry_space_group_name_H-M "C 2/M"
_symmetry_group_IT_number 12
_symmetry_cell_setting 'monoclinic'
loop_
_space_group_symop_operation_xyz
x,y,z
-x,y,-z
-x,-y,-z
x,-y,z
1/2+x,1/2+y,z
1/2-x,1/2+y,-z
1/2-x,1/2-y,-z
1/2+x,1/2-y,z
loop_
_atom_site_type_symbol
_atom_site_label
_atom_site_fract_x
_atom_site_fract_y
_atom_site_fract_z
Si Si1 0.647690 0.394136 0.492879
Si Si2 0.929012 0.598574 0.728163
Si Si3 0.200905 0.605671 0.012208
Si Si4 0.512289 0.665947 0.374859
Si Si5 0.324116 0.157669 0.298189
Si Si6 0.540519 0.759953 0.819838
Si Si7 0.130763 0.401884 0.606821
Si Si8 0.007454 0.268468 0.905393
O O1 0.500000 0.363207 0.500000
O O2 0.623927 0.500000 0.479803
O O3 0.579046 0.340500 0.437161
O O4 0.889021 0.365281 0.554604
O O5 0.021596 0.500000 0.755925
O O6 0.671955 0.593855 0.675589
O O7 0.036148 0.660006 0.785892
O O8 0.994710 0.629855 0.695706
O O9 0.268420 0.500000 0.020728
O O10 0.390826 0.667923 0.070932
O O11 0.000000 0.611309 0.000000
O O12 0.147736 0.652467 0.956174
O O13 0.397901 0.759397 0.342277
O O14 0.714737 0.659626 0.387658
O O15 0.103571 0.177274 0.227043
O O16 0.289544 0.085794 0.327850
O O17 0.780877 0.729526 0.880112
O O18 0.456079 0.794299 0.846509
O O19 0.137188 0.500000 0.587108
#
# Coordination Sequence:
#
# PCOD8108302 Si02
#       8
#     8   8   8   8   8   8   8   8
#     4  10  21  38  61  87 119 159 203 256 320 384
#     4  11  23  40  63  90 123 163 211 260 310 380
#     4  10  22  41  69 101 132 174 218 258 316 377
#     4  11  22  39  62  88 119 156 202 261 320 374
#     4  11  24  42  61  86 124 164 205 250 312 380
#     4  11  23  41  64  92 128 174 210 251 321 364
#     4  11  23  39  61  88 118 155 203 259 314 371
#     4  11  22  43  67  95 137 173 207 272 314 363
#
# _framework density 21.445757
#
# number of rings (size 3 to 8) (size 9 to 14) (size 15 to 20)
#    0.000    1.250    2.500    4.125    1.750    3.500 
#    0.000    3.125    0.000    0.000    0.000    0.000 
#    0.000    0.000    0.000    0.000    0.000    0.000 
#
# Total GULP energy -396748.379464 kJ/mol
# GULP energy per Si atom -12398.386858 kJ/mol
# Density = 2.139695 g / cm^3
# Si number density = 21.445757 Si / 1000 Ang^3
#
#
#
# Elastic Constant Matrix: (Units=GPa)
#
#
# Indices 1 2 3 4 5 6 
#
# 1 116.7695 23.6349 40.6588 0.0000 4.3493 0.0000
# 2 23.6349 77.6053 13.8466 0.0000 -1.3963 0.0000
# 3 40.6588 13.8466 90.5418 0.0000 -7.1162 0.0000
# 4 0.0000 0.0000 0.0000 18.2119 0.0000 2.6840
# 5 4.3493 -1.3963 -7.1162 0.0000 45.6876 0.0000
# 6 0.0000 0.0000 0.0000 2.6840 0.0000 21.8749
#
#
#
# Elastic Compliance Matrix: (Units=1/GPa)
#
#
# Indices 1 2 3 4 5 6 
#
# 1 0.010729 -0.002483 -0.004580 0.000000 -0.001811 0.000000
# 2 -0.002483 0.013822 -0.000959 0.000000 0.000509 0.000000
# 3 -0.004580 -0.000959 0.013445 0.000000 0.002501 0.000000
# 4 0.000000 0.000000 0.000000 0.055920 0.000000 -0.006861
# 5 -0.001811 0.000509 0.002501 0.000000 0.022465 0.000000
# 6 0.000000 0.000000 0.000000 -0.006861 0.000000 0.046556
#
#
# Mechanical properties :
#
#
# Convention : Reuss Voigt Hill
#
# Bulk Modulus (GPa) = 45.55531 49.02192 47.28862
# Shear Modulus (GPa) = 26.83859 30.93997 28.88928
#
# Velocity S-wave (km/s) = 3.54144 3.80242 3.67425
# Velocity P-wave (km/s) = 6.16528 6.49508 6.33233
#
# Compressibility (1/GPa) = 0.02195134
#
# Stress axis : x y z
#
# Youngs Moduli (GPa) = 93.20743 72.34785 74.37854
#
# Poissons Ratio (x) = 0.17962 0.34069
# Poissons Ratio (y) = 0.23141 0.07132
# Poissons Ratio (z) = 0.42693 0.06937
#
# Static dielectric constant tensor:
#      x y z
#    x 3.855340 0.000000 0.041980 
#    y 0.000000 3.823020 0.000000 
#    z 0.041980 0.000000 3.853130 
# 
# 
# High freq. dielectric constant tensor:
#      x y z
#    x 1.850750 0.000000 -0.004780 
#    y 0.000000 1.833350 0.000000 
#    z -0.004780 0.000000 1.846090 
# 
# From -- ./inp_files/372615.got.cif
#   From: 2010.06.25/outbox.cif.g09.slc.cpg/sg12_187_cif.got.tgz:372615.got - 2010.06.28 00:19:55.
