data_PCOD8108688
_publ_section_title
;
Structure prediction by ZEFSAII (Michael W. Deem and Ramdas Pophale) SiO2 
 PCOD8108688
Probable space group: C 2/M
;
_chemical_formula_sum "Si O2"
_cell_formula_units_Z 56
_cell_length_a 20.987787
_cell_length_b 17.395427
_cell_length_c 21.023680
_cell_angle_alpha 90.000000
_cell_angle_beta 19.718546
_cell_angle_gamma 90.000000
_cell_volume 2589.736258
_symmetry_space_group_name_H-M "C 2/M"
_symmetry_group_IT_number 12
_symmetry_cell_setting 'monoclinic'
loop_
_space_group_symop_operation_xyz
x,y,z
-x,y,-z
-x,-y,-z
x,-y,z
1/2+x,1/2+y,z
1/2-x,1/2+y,-z
1/2-x,1/2-y,-z
1/2+x,1/2-y,z
loop_
_atom_site_type_symbol
_atom_site_label
_atom_site_fract_x
_atom_site_fract_y
_atom_site_fract_z
Si Si1 0.616322 0.360938 0.799427
Si Si2 0.433462 0.701261 0.672736
Si Si3 0.585758 0.085281 0.576295
Si Si4 0.604666 0.911815 0.968015
Si Si5 0.543826 0.773194 0.219872
Si Si6 0.779395 0.633100 0.779615
Si Si7 0.647130 0.200834 0.727925
O O1 0.712354 0.385748 0.642163
O O2 0.749889 0.383353 0.732909
O O3 0.580255 0.269507 0.836163
O O4 0.406351 0.393955 0.006180
O O5 0.484103 0.709303 0.699866
O O6 0.336423 0.777718 0.736929
O O7 0.639204 0.684169 0.450782
O O8 0.308423 0.627555 0.774480
O O9 0.485388 0.141887 0.721343
O O10 0.447573 0.079431 0.645567
O O11 0.613213 0.000000 0.580211
O O12 0.480021 0.873964 0.140871
O O13 0.635205 0.000000 0.957187
O O14 0.500000 0.900993 0.000000
O O15 0.385639 0.769308 0.313640
O O16 0.750000 0.750000 0.000000
#
# Coordination Sequence:
#
# PCOD8108688 Si02
#       7
#     8   8   8   8   8   8   8
#     4  11  21  37  66  96 127 168 217 259 318 392
#     4  11  22  39  66  96 123 165 220 270 324 387
#     4  11  25  42  62  93 133 169 211 270 327 378
#     4  11  25  43  63  94 134 170 214 279 343 392
#     4  11  22  44  68  93 126 172 221 266 319 386
#     4  10  21  38  63  97 128 169 214 258 317 393
#     4  12  22  39  70  94 127 166 222 270 323 392
#
# _framework density 21.623823000000002
#
# number of rings (size 3 to 8) (size 9 to 14) (size 15 to 20)
#    0.000    1.000    5.714    2.571    0.000    4.571 
#    0.000    2.857    0.000    0.000    0.000    0.000 
#    0.000    0.000    0.000    0.000    0.000    0.000 
#
# Total GULP energy -346958.891442 kJ/mol
# GULP energy per Si atom -12391.388980 kJ/mol
# Density = 2.157461 g / cm^3
# Si number density = 21.623823 Si / 1000 Ang^3
#
#
#
# Elastic Constant Matrix: (Units=GPa)
#
#
# Indices 1 2 3 4 5 6 
#
# 1 55.3104 13.2174 15.2276 0.0141 -7.1957 0.0045
# 2 13.2174 109.6023 33.0557 0.0073 2.7632 0.0218
# 3 15.2276 33.0557 97.4580 0.0178 -1.2359 0.0232
# 4 0.0141 0.0073 0.0178 22.5384 0.0087 -0.8641
# 5 -7.1957 2.7632 -1.2359 0.0087 36.9865 -0.0097
# 6 0.0045 0.0218 0.0232 -0.8641 -0.0097 22.4188
#
#
#
# Elastic Compliance Matrix: (Units=1/GPa)
#
#
# Indices 1 2 3 4 5 6 
#
# 1 0.019669 -0.001735 -0.002436 -0.000011 0.003875 0.000001
# 2 -0.001735 0.010345 -0.003253 0.000000 -0.001219 -0.000007
# 3 -0.002436 -0.003253 0.011747 -0.000007 0.000162 -0.000009
# 4 -0.000011 0.000000 -0.000007 0.044434 -0.000012 0.001713
# 5 0.003875 -0.001219 0.000162 -0.000012 0.027887 0.000012
# 6 0.000001 -0.000007 -0.000009 0.001713 0.000012 0.044671
#
#
# Mechanical properties :
#
#
# Convention : Reuss Voigt Hill
#
# Bulk Modulus (GPa) = 37.15647 42.81911 39.98779
# Shear Modulus (GPa) = 27.38636 29.78010 28.58323
#
# Velocity S-wave (km/s) = 3.56264 3.71508 3.63966
# Velocity P-wave (km/s) = 5.84325 6.18443 6.01626
#
# Compressibility (1/GPa) = 0.02691322
#
# Stress axis : x y z
#
# Youngs Moduli (GPa) = 50.84124 96.66495 85.12922
#
# Poissons Ratio (x) = 0.16772 0.20734
# Poissons Ratio (y) = 0.08821 0.27694
# Poissons Ratio (z) = 0.12383 0.31447
#
# Static dielectric constant tensor:
#      x y z
#    x 3.969440 -0.000070 -0.073220 
#    y -0.000070 3.676430 0.000280 
#    z -0.073220 0.000280 4.056770 
# 
# 
# High freq. dielectric constant tensor:
#      x y z
#    x 1.844720 -0.000010 -0.006100 
#    y -0.000010 1.822290 0.000020 
#    z -0.006100 0.000020 1.866260 
# 
# From -- ./inp_files/322675.got.cif
#   From: 2010.06.25/outbox.cif.g09.slc.cpg/sg12_162_cif.got.tgz:322675.got - 2010.06.28 00:19:55.
