data_PCOD8108801
_publ_section_title
;
Structure prediction by ZEFSAII (Michael W. Deem and Ramdas Pophale) SiO2 
 PCOD8108801
Probable space group: C 2/M
;
_chemical_formula_sum "Si O2"
_cell_formula_units_Z 44
_cell_length_a 24.355280
_cell_length_b 13.516427
_cell_length_c 8.765548
_cell_angle_alpha 90.000000
_cell_angle_beta 48.001502
_cell_angle_gamma 90.000000
_cell_volume 2144.459315
_symmetry_space_group_name_H-M "C 2/M"
_symmetry_group_IT_number 12
_symmetry_cell_setting 'monoclinic'
loop_
_space_group_symop_operation_xyz
x,y,z
-x,y,-z
-x,-y,-z
x,-y,z
1/2+x,1/2+y,z
1/2-x,1/2+y,-z
1/2-x,1/2-y,-z
1/2+x,1/2-y,z
loop_
_atom_site_type_symbol
_atom_site_label
_atom_site_fract_x
_atom_site_fract_y
_atom_site_fract_z
Si Si1 0.626343 0.613436 0.883045
Si Si2 0.889455 0.385955 0.370599
Si Si3 0.000000 0.753654 0.000000
Si Si4 0.584004 0.886132 0.336442
Si Si5 0.698767 0.237110 0.951294
Si Si6 0.753021 0.611896 0.414614
O O1 0.606791 0.500000 0.956574
O O2 0.552197 0.676236 0.003044
O O3 0.673224 0.622211 0.640448
O O4 0.672856 0.655977 0.938927
O O5 0.910834 0.500000 0.297923
O O6 0.875484 0.370845 0.576465
O O7 0.815350 0.354564 0.419802
O O8 0.956229 0.316480 0.196548
O O9 0.500000 0.847442 0.500000
O O10 0.626430 0.825984 0.127640
O O11 0.584850 0.000000 0.283561
O O12 0.750000 0.250000 0.000000
O O13 0.745033 0.181458 0.735181
O O14 0.767194 0.500000 0.335099
#
# Coordination Sequence:
#
# PCOD8108801 Si02
#       6
#     8   8   4   8   8   8
#     4  11  25  43  63  91 126 170 218 261 301 367
#     4  10  21  38  66  98 125 157 203 268 320 369
#     4  12  22  38  70  88 128 164 212 254 310 378
#     4  10  22  39  60  94 132 158 191 250 325 384
#     4  12  24  39  65  92 125 165 208 259 320 373
#     4  10  22  42  65  91 121 157 213 266 313 370
#
# _framework density 20.517990999999999
#
# number of rings (size 3 to 8) (size 9 to 14) (size 15 to 20)
#    0.000    1.273    1.818    3.818    2.545    2.909 
#    0.000    0.000    0.000    1.636    0.000    0.000 
#    0.000    0.000    0.000    0.000    0.000    0.000 
#
# Total GULP energy -272922.978181 kJ/mol
# GULP energy per Si atom -12405.589917 kJ/mol
# Density = 2.047129 g / cm^3
# Si number density = 20.517991 Si / 1000 Ang^3
#
#
#
# Elastic Constant Matrix: (Units=GPa)
#
#
# Indices 1 2 3 4 5 6 
#
# 1 108.9504 27.1989 12.9617 0.0000 8.7277 0.0000
# 2 27.1989 102.5282 33.3390 0.0000 3.4792 0.0000
# 3 12.9617 33.3390 61.4281 0.0000 -2.9471 0.0000
# 4 0.0000 0.0000 0.0000 34.8373 0.0000 0.7242
# 5 8.7277 3.4792 -2.9471 0.0000 32.9575 0.0000
# 6 0.0000 0.0000 0.0000 0.7242 0.0000 31.2283
#
#
#
# Elastic Compliance Matrix: (Units=1/GPa)
#
#
# Indices 1 2 3 4 5 6 
#
# 1 0.010064 -0.002252 -0.001022 0.000000 -0.002519 0.000000
# 2 -0.002252 0.012459 -0.006348 0.000000 -0.001287 0.000000
# 3 -0.001022 -0.006348 0.020072 0.000000 0.002736 0.000000
# 4 0.000000 0.000000 0.000000 0.028719 0.000000 -0.000666
# 5 -0.002519 -0.001287 0.002736 0.000000 0.031390 0.000000
# 6 0.000000 0.000000 0.000000 -0.000666 0.000000 0.032038
#
#
# Mechanical properties :
#
#
# Convention : Reuss Voigt Hill
#
# Bulk Modulus (GPa) = 42.82761 46.65621 44.74191
# Shear Modulus (GPa) = 30.90838 33.09842 32.00340
#
# Velocity S-wave (km/s) = 3.88545 4.02075 3.95368
# Velocity P-wave (km/s) = 6.40683 6.65911 6.53419
#
# Compressibility (1/GPa) = 0.02334942
#
# Stress axis : x y z
#
# Youngs Moduli (GPa) = 99.36349 80.26495 49.82175
#
# Poissons Ratio (x) = 0.18075 0.05093
# Poissons Ratio (y) = 0.22376 0.31628
# Poissons Ratio (z) = 0.10157 0.50955
#
# Static dielectric constant tensor:
#      x y z
#    x 3.667020 0.000000 -0.036640 
#    y 0.000000 3.884070 0.000000 
#    z -0.036640 0.000000 3.722100 
# 
# 
# High freq. dielectric constant tensor:
#      x y z
#    x 1.803170 0.000000 -0.004030 
#    y 0.000000 1.812320 0.000000 
#    z -0.004030 0.000000 1.799130 
# 
# From -- ./inp_files/96140.got.cif
#   From: 2010.06.25/outbox.cif.g09.slc.cpg/sg12_49_cif.got.tgz:96140.got - 2010.06.28 00:19:55.
