data_PCOD8108556
_publ_section_title
;
Structure prediction by ZEFSAII (Michael W. Deem and Ramdas Pophale) SiO2 
 PCOD8108556
Probable space group: C 2/M
;
_chemical_formula_sum "Si O2"
_cell_formula_units_Z 56
_cell_length_a 26.782253
_cell_length_b 8.766003
_cell_length_c 12.552550
_cell_angle_alpha 90.000000
_cell_angle_beta 67.963675
_cell_angle_gamma 90.000000
_cell_volume 2731.713809
_symmetry_space_group_name_H-M "C 2/M"
_symmetry_group_IT_number 12
_symmetry_cell_setting 'monoclinic'
loop_
_space_group_symop_operation_xyz
x,y,z
-x,y,-z
-x,-y,-z
x,-y,z
1/2+x,1/2+y,z
1/2-x,1/2+y,-z
1/2-x,1/2-y,-z
1/2+x,1/2-y,z
loop_
_atom_site_type_symbol
_atom_site_label
_atom_site_fract_x
_atom_site_fract_y
_atom_site_fract_z
Si Si1 0.642635 0.177544 0.220819
Si Si2 0.900368 0.680091 0.335229
Si Si3 0.553997 0.677885 0.898367
Si Si4 0.439877 0.181235 0.532430
Si Si5 0.713644 0.321282 0.618666
Si Si6 0.751325 0.675290 0.196942
Si Si7 0.864520 0.327416 0.013368
O O1 0.598739 0.237541 0.341205
O O2 0.696307 0.277016 0.184696
O O3 0.618422 0.202912 0.122354
O O4 0.656463 0.000000 0.229297
O O5 0.893879 0.500000 0.342243
O O6 0.944955 0.729556 0.213339
O O7 0.916563 0.741858 0.438885
O O8 0.845455 0.753158 0.339605
O O9 0.554300 0.500000 0.871242
O O10 0.500000 0.730399 0.000000
O O11 0.604576 0.713334 0.933570
O O12 0.500000 0.248415 0.500000
O O13 0.442585 0.000000 0.529662
O O14 0.710580 0.500000 0.604424
O O15 0.750000 0.250000 0.500000
O O16 0.740686 0.283887 0.708892
O O17 0.747738 0.500000 0.237409
O O18 0.800415 0.698817 0.075396
O O19 0.879552 0.500000 0.035105
#
# Coordination Sequence:
#
# PCOD8108556 Si02
#       7
#     8   8   8   8   8   8   8
#     4  10  21  38  62  91 124 164 208 254 311 372
#     4  11  22  39  65  94 124 161 208 256 312 375
#     4  11  25  42  62  90 125 165 210 261 320 375
#     4   9  20  38  61  90 121 155 202 254 302 359
#     4  12  24  39  62  90 126 167 208 257 312 369
#     4  11  22  38  59  90 127 161 206 255 308 375
#     4  10  22  39  63  93 123 161 210 257 308 376
#
# _framework density 20.499950999999999
#
# number of rings (size 3 to 8) (size 9 to 14) (size 15 to 20)
#    0.000    1.429    1.429    3.857    2.000    3.429 
#    0.000    0.714    0.000    2.143    0.000    0.000 
#    0.000    0.000    0.000    0.000    0.000    0.000 
#
# Total GULP energy -347329.441278 kJ/mol
# GULP energy per Si atom -12404.622903 kJ/mol
# Density = 2.045329 g / cm^3
# Si number density = 20.499951 Si / 1000 Ang^3
#
#
#
# Elastic Constant Matrix: (Units=GPa)
#
#
# Indices 1 2 3 4 5 6 
#
# 1 69.6221 16.7620 28.3231 0.0000 -5.7364 0.0000
# 2 16.7620 73.3361 35.3565 0.0000 -5.2854 0.0000
# 3 28.3231 35.3565 148.3784 0.0000 1.3769 0.0000
# 4 0.0000 0.0000 0.0000 27.1735 0.0000 -3.4446
# 5 -5.7364 -5.2854 1.3769 0.0000 36.1572 0.0000
# 6 0.0000 0.0000 0.0000 -3.4446 0.0000 17.0159
#
#
#
# Elastic Compliance Matrix: (Units=1/GPa)
#
#
# Indices 1 2 3 4 5 6 
#
# 1 0.016147 -0.002290 -0.002558 0.000000 0.002324 0.000000
# 2 -0.002290 0.015940 -0.003381 0.000000 0.002096 0.000000
# 3 -0.002558 -0.003381 0.008045 0.000000 -0.001206 0.000000
# 4 0.000000 0.000000 0.000000 0.037770 0.000000 0.007646
# 5 0.002324 0.002096 -0.001206 0.000000 0.028378 0.000000
# 6 0.000000 0.000000 0.000000 0.007646 0.000000 0.060316
#
#
# Mechanical properties :
#
#
# Convention : Reuss Voigt Hill
#
# Bulk Modulus (GPa) = 42.23979 50.24666 46.24322
# Shear Modulus (GPa) = 26.18567 30.12898 28.15733
#
# Velocity S-wave (km/s) = 3.57788 3.83784 3.71014
# Velocity P-wave (km/s) = 6.14149 6.64850 6.40002
#
# Compressibility (1/GPa) = 0.02367436
#
# Stress axis : x y z
#
# Youngs Moduli (GPa) = 61.93216 62.73481 124.30715
#
# Poissons Ratio (x) = 0.14365 0.31799
# Poissons Ratio (y) = 0.14181 0.42024
# Poissons Ratio (z) = 0.15843 0.21209
#
# Static dielectric constant tensor:
#      x y z
#    x 3.657630 0.000000 -0.072960 
#    y 0.000000 3.539190 0.000000 
#    z -0.072960 0.000000 3.980340 
# 
# 
# High freq. dielectric constant tensor:
#      x y z
#    x 1.800400 0.000000 -0.001820 
#    y 0.000000 1.787050 0.000000 
#    z -0.001820 0.000000 1.821680 
# 
# From -- ./inp_files/180815.got.cif
#   From: 2010.06.25/outbox.cif.g09.slc.cpg/sg12_91_cif.got.tgz:180815.got - 2010.06.28 00:19:55.
