data_PCOD8108169
_publ_section_title
;
Structure prediction by ZEFSAII (Michael W. Deem and Ramdas Pophale) SiO2 
 PCOD8108169
Probable space group: C 2/M
;
_chemical_formula_sum "Si O2"
_cell_formula_units_Z 48
_cell_length_a 24.517423
_cell_length_b 8.845320
_cell_length_c 20.085479
_cell_angle_alpha 90.000000
_cell_angle_beta 36.006254
_cell_angle_gamma 90.000000
_cell_volume 2560.675150
_symmetry_space_group_name_H-M "C 2/M"
_symmetry_group_IT_number 12
_symmetry_cell_setting 'monoclinic'
loop_
_space_group_symop_operation_xyz
x,y,z
-x,y,-z
-x,-y,-z
x,-y,z
1/2+x,1/2+y,z
1/2-x,1/2+y,-z
1/2-x,1/2-y,-z
1/2+x,1/2-y,z
loop_
_atom_site_type_symbol
_atom_site_label
_atom_site_fract_x
_atom_site_fract_y
_atom_site_fract_z
Si Si1 0.305306 0.675704 0.265332
Si Si2 0.686921 0.823203 0.506717
Si Si3 0.005086 0.176815 0.126015
Si Si4 0.483332 0.821227 0.743836
Si Si5 0.329902 0.176151 0.105428
Si Si6 0.698987 0.677068 0.112626
O O1 0.302844 0.500000 0.247876
O O2 0.223639 0.718469 0.397239
O O3 0.402558 0.717952 0.203294
O O4 0.287999 0.776817 0.217728
O O5 0.750000 0.750000 0.500000
O O6 0.581597 0.765105 0.617602
O O7 0.692701 0.000000 0.513842
O O8 0.028894 0.270792 0.168117
O O9 0.015660 0.000000 0.130814
O O10 0.076875 0.227291 0.998223
O O11 0.403774 0.745234 0.777788
O O12 0.472189 0.000000 0.751204
O O13 0.253740 0.216799 0.125511
O O14 0.355180 0.000000 0.079903
O O15 0.692467 0.500000 0.106361
O O16 0.750000 0.750000 0.000000
#
# Coordination Sequence:
#
# PCOD8108169 Si02
#       6
#     8   8   8   8   8   8
#     4  10  22  39  58  85 119 156 195 234 290 353
#     4  10  21  38  60  87 118 153 195 240 286 345
#     4  11  21  35  59  87 119 155 190 235 292 351
#     4  11  22  36  59  90 119 150 194 242 289 343
#     4  11  24  39  57  85 118 153 195 242 294 347
#     4  11  23  39  60  85 116 153 196 242 293 348
#
# _framework density 18.745056000000002
#
# number of rings (size 3 to 8) (size 9 to 14) (size 15 to 20)
#    0.000    1.333    3.333    2.500    0.000    6.667 
#    0.000    0.833    0.000    5.000    0.000    0.000 
#    0.000    0.000    0.000    0.000    0.000    0.000 
#
# Total GULP energy -297746.456656 kJ/mol
# GULP energy per Si atom -12406.102361 kJ/mol
# Density = 1.870239 g / cm^3
# Si number density = 18.745056 Si / 1000 Ang^3
#
#
#
# Elastic Constant Matrix: (Units=GPa)
#
#
# Indices 1 2 3 4 5 6 
#
# 1 82.1958 40.5808 40.4054 -0.0020 -6.5801 0.0028
# 2 40.5808 63.7908 32.0445 -0.0038 -8.1710 0.0049
# 3 40.4054 32.0445 124.5868 -0.0017 -11.2958 0.0046
# 4 -0.0020 -0.0038 -0.0017 28.5595 0.0005 0.3170
# 5 -6.5801 -8.1710 -11.2958 0.0005 31.3979 -0.0017
# 6 0.0028 0.0049 0.0046 0.3170 -0.0017 34.5371
#
#
#
# Elastic Compliance Matrix: (Units=1/GPa)
#
#
# Indices 1 2 3 4 5 6 
#
# 1 0.018981 -0.010312 -0.003500 0.000000 0.000035 0.000000
# 2 -0.010312 0.023905 -0.002518 0.000002 0.003154 -0.000002
# 3 -0.003500 -0.002518 0.010010 0.000000 0.002212 -0.000001
# 4 0.000000 0.000002 0.000000 0.035018 0.000000 -0.000321
# 5 0.000035 0.003154 0.002212 0.000000 0.033473 0.000001
# 6 0.000000 -0.000002 -0.000001 -0.000321 0.000001 0.028957
#
#
# Mechanical properties :
#
#
# Convention : Reuss Voigt Hill
#
# Bulk Modulus (GPa) = 49.41927 55.18166 52.30046
# Shear Modulus (GPa) = 26.35042 29.40174 27.87608
#
# Velocity S-wave (km/s) = 3.75337 3.96473 3.86050
# Velocity P-wave (km/s) = 6.72345 7.10357 6.91612
#
# Compressibility (1/GPa) = 0.02023502
#
# Stress axis : x y z
#
# Youngs Moduli (GPa) = 52.68555 41.83189 99.89981
#
# Poissons Ratio (x) = 0.43136 0.34968
# Poissons Ratio (y) = 0.54328 0.25158
# Poissons Ratio (z) = 0.18441 0.10535
#
# Static dielectric constant tensor:
#      x y z
#    x 3.481940 -0.000010 -0.102210 
#    y -0.000010 3.477750 0.000000 
#    z -0.102210 0.000000 3.668960 
# 
# 
# High freq. dielectric constant tensor:
#      x y z
#    x 1.724940 0.000000 -0.004720 
#    y 0.000000 1.735070 0.000000 
#    z -0.004720 0.000000 1.732750 
# 
# From -- ./inp_files/327184.got.cif
#   From: 2010.06.25/outbox.cif.g09.slc.cpg/sg12_164_cif.got.tgz:327184.got - 2010.06.28 00:19:55.
