data_PCOD8108697
_publ_section_title
;
Structure prediction by ZEFSAII (Michael W. Deem and Ramdas Pophale) SiO2 
 PCOD8108697
Probable space group: C 2/M
;
_chemical_formula_sum "Si O2"
_cell_formula_units_Z 44
_cell_length_a 19.298193
_cell_length_b 11.983159
_cell_length_c 11.955788
_cell_angle_alpha 90.000000
_cell_angle_beta 124.381084
_cell_angle_gamma 90.000000
_cell_volume 2281.802254
_symmetry_space_group_name_H-M "C 2/M"
_symmetry_group_IT_number 12
_symmetry_cell_setting 'monoclinic'
loop_
_space_group_symop_operation_xyz
x,y,z
-x,y,-z
-x,-y,-z
x,-y,z
1/2+x,1/2+y,z
1/2-x,1/2+y,-z
1/2-x,1/2-y,-z
1/2+x,1/2-y,z
loop_
_atom_site_type_symbol
_atom_site_label
_atom_site_fract_x
_atom_site_fract_y
_atom_site_fract_z
Si Si1 0.388936 0.266916 0.630392
Si Si2 0.056313 0.000000 0.238102
Si Si3 0.251335 0.737476 0.677677
Si Si4 0.187328 0.217126 0.845778
Si Si5 0.030733 0.631508 0.652736
Si Si6 0.797010 0.000000 0.790668
Si Si7 0.368727 0.500000 0.091253
O O1 0.423977 0.391778 0.669669
O O2 0.339351 0.231489 0.698294
O O3 0.326318 0.268313 0.469853
O O4 0.463757 0.179429 0.680510
O O5 0.108695 0.000000 0.171478
O O6 0.959307 0.000000 0.115799
O O7 0.243369 0.805572 0.786047
O O8 0.245944 0.605772 0.699491
O O9 0.120950 0.314528 0.758814
O O10 0.139098 0.105912 0.835728
O O11 0.250000 0.250000 0.000000
O O12 0.039177 0.500000 0.678891
O O13 0.000000 0.661363 0.500000
O O14 0.800834 0.000000 0.929146
#
# Coordination Sequence:
#
# PCOD8108697 Si02
#       7
#     8   4   8   8   8   4   4
#     4  10  21  41  64  94 125 162 203 261 315 367
#     4  10  21  39  62  95 122 156 208 259 317 367
#     4  10  22  39  62  93 126 164 207 255 310 370
#     4  12  25  41  62  94 130 165 210 257 310 371
#     4  11  24  42  69  92 123 165 212 259 306 371
#     4  10  21  38  64  88 121 166 216 253 293 377
#     4  12  23  39  64  86 125 170 203 258 311 367
#
# _framework density 19.283003999999998
#
# number of rings (size 3 to 8) (size 9 to 14) (size 15 to 20)
#    0.000    1.273    5.455    0.273    3.818    0.727 
#    3.273    2.727    0.000    1.091    0.000    0.000 
#    0.000    0.000    0.000    0.000    0.000    0.000 
#
# Total GULP energy -272850.813343 kJ/mol
# GULP energy per Si atom -12402.309697 kJ/mol
# Density = 1.923911 g / cm^3
# Si number density = 19.283004 Si / 1000 Ang^3
#
#
#
# Elastic Constant Matrix: (Units=GPa)
#
#
# Indices 1 2 3 4 5 6 
#
# 1 111.3455 40.0729 45.1701 0.0000 -8.4185 0.0000
# 2 40.0729 109.2356 40.5605 0.0000 -0.6582 0.0000
# 3 45.1701 40.5605 112.0608 0.0000 -3.1273 0.0000
# 4 0.0000 0.0000 0.0000 25.4595 0.0000 0.7953
# 5 -8.4185 -0.6582 -3.1273 0.0000 35.6556 0.0000
# 6 0.0000 0.0000 0.0000 0.7953 0.0000 32.8837
#
#
#
# Elastic Compliance Matrix: (Units=1/GPa)
#
#
# Indices 1 2 3 4 5 6 
#
# 1 0.011669 -0.002940 -0.003573 0.000000 0.002387 0.000000
# 2 -0.002940 0.011317 -0.002932 0.000000 -0.000742 0.000000
# 3 -0.003573 -0.002932 0.011428 0.000000 0.000105 0.000000
# 4 0.000000 0.000000 0.000000 0.039308 0.000000 -0.000951
# 5 0.002387 -0.000742 0.000105 0.000000 0.028605 0.000000
# 6 0.000000 0.000000 0.000000 -0.000951 0.000000 0.030433
#
#
# Mechanical properties :
#
#
# Convention : Reuss Voigt Hill
#
# Bulk Modulus (GPa) = 64.41252 64.91655 64.66453
# Shear Modulus (GPa) = 31.88269 32.58898 32.23583
#
# Velocity S-wave (km/s) = 4.07062 4.11546 4.09311
# Velocity P-wave (km/s) = 7.45450 7.50473 7.47966
#
# Compressibility (1/GPa) = 0.01552493
#
# Stress axis : x y z
#
# Youngs Moduli (GPa) = 85.69701 88.36131 87.50353
#
# Poissons Ratio (x) = 0.25975 0.31265
# Poissons Ratio (y) = 0.25192 0.25656
# Poissons Ratio (z) = 0.30619 0.25908
#
# Static dielectric constant tensor:
#      x y z
#    x 3.891930 0.000000 -0.116870 
#    y 0.000000 3.661640 0.000000 
#    z -0.116870 0.000000 3.403870 
# 
# 
# High freq. dielectric constant tensor:
#      x y z
#    x 1.769420 0.000000 -0.000470 
#    y 0.000000 1.745550 0.000000 
#    z -0.000470 0.000000 1.745030 
# 
# From -- ./inp_files/154115.got.cif
#   From: 2010.06.25/outbox.cif.g09.slc.cpg/sg12_78_cif.got.tgz:154115.got - 2010.06.28 00:19:55.
