data_PCOD8108310
_publ_section_title
;
Structure prediction by ZEFSAII (Michael W. Deem and Ramdas Pophale) SiO2 
 PCOD8108310
Probable space group: C 2/M
;
_chemical_formula_sum "Si O2"
_cell_formula_units_Z 64
_cell_length_a 30.641204
_cell_length_b 8.926209
_cell_length_c 25.723867
_cell_angle_alpha 90.000000
_cell_angle_beta 27.353024
_cell_angle_gamma 90.000000
_cell_volume 3232.718748
_symmetry_space_group_name_H-M "C 2/M"
_symmetry_group_IT_number 12
_symmetry_cell_setting 'monoclinic'
loop_
_space_group_symop_operation_xyz
x,y,z
-x,y,-z
-x,-y,-z
x,-y,z
1/2+x,1/2+y,z
1/2-x,1/2+y,-z
1/2-x,1/2-y,-z
1/2+x,1/2-y,z
loop_
_atom_site_type_symbol
_atom_site_label
_atom_site_fract_x
_atom_site_fract_y
_atom_site_fract_z
Si Si1 0.331742 0.672932 0.502083
Si Si2 0.220492 0.176808 0.262987
Si Si3 0.868576 0.325816 0.735714
Si Si4 0.844250 0.323774 0.879206
Si Si5 0.639142 0.327347 0.713441
Si Si6 0.481625 0.670318 0.255452
Si Si7 0.897697 0.174601 0.128851
Si Si8 0.415176 0.825793 0.513465
O O1 0.335272 0.500000 0.515839
O O2 0.224116 0.720971 0.604958
O O3 0.391019 0.701846 0.387445
O O4 0.373235 0.776425 0.503085
O O5 0.207478 0.234997 0.217919
O O6 0.319710 0.233091 0.180297
O O7 0.132596 0.235286 0.389714
O O8 0.220342 0.000000 0.263565
O O9 0.842681 0.500000 0.759785
O O10 0.862894 0.267696 0.800809
O O11 0.973196 0.294231 0.602940
O O12 0.832198 0.500000 0.893939
O O13 0.932454 0.279259 0.821852
O O14 0.750000 0.250000 0.000000
O O15 0.672127 0.500000 0.674370
O O16 0.549398 0.297834 0.770946
O O17 0.607673 0.285736 0.804775
O O18 0.517211 0.500000 0.224708
O O19 0.879217 0.000000 0.138153
O O20 0.000000 0.224993 0.000000
O O21 0.391722 0.000000 0.546146
#
# Coordination Sequence:
#
# PCOD8108310 Si02
#       8
#     8   8   8   8   8   8   8   8
#     4  11  21  34  58  91 125 156 194 250 308 356
#     4  12  25  39  61  94 127 157 196 251 313 361
#     4  10  23  42  64  89 120 162 207 246 296 367
#     4  11  24  43  65  90 120 161 208 255 305 357
#     4  10  21  38  61  87 120 163 203 242 298 366
#     4  10  22  39  60  90 124 159 201 250 303 362
#     4  10  22  41  63  85 115 161 210 250 292 352
#     4  11  21  38  63  89 121 161 204 244 297 368
#
# _framework density 19.797575999999999
#
# number of rings (size 3 to 8) (size 9 to 14) (size 15 to 20)
#    0.000    1.375    2.500    3.000    0.000    5.750 
#    0.000    2.500    0.000    0.000    0.000    0.000 
#    0.000    0.000    0.000    0.000    0.000    0.000 
#
# Total GULP energy -396987.945170 kJ/mol
# GULP energy per Si atom -12405.873287 kJ/mol
# Density = 1.975252 g / cm^3
# Si number density = 19.797576 Si / 1000 Ang^3
#
#
#
# Elastic Constant Matrix: (Units=GPa)
#
#
# Indices 1 2 3 4 5 6 
#
# 1 148.2577 59.2083 51.7163 0.0021 -10.9028 0.0005
# 2 59.2083 85.9355 59.1271 0.0300 -9.4045 -0.0126
# 3 51.7163 59.1271 113.3871 0.0142 -17.7527 -0.0046
# 4 0.0021 0.0300 0.0142 29.6287 -0.0221 -1.9754
# 5 -10.9028 -9.4045 -17.7527 -0.0221 9.1304 0.0090
# 6 0.0005 -0.0126 -0.0046 -1.9754 0.0090 31.6569
#
#
#
# Elastic Compliance Matrix: (Units=1/GPa)
#
#
# Indices 1 2 3 4 5 6 
#
# 1 0.009556 -0.005580 -0.000808 0.000008 0.004093 -0.000003
# 2 -0.005580 0.021408 -0.008926 -0.000018 -0.001969 0.000007
# 3 -0.000808 -0.008926 0.017614 0.000018 0.024089 -0.000007
# 4 0.000008 -0.000018 0.000018 0.033892 0.000107 0.002115
# 5 0.004093 -0.001969 0.024089 0.000107 0.159220 -0.000036
# 6 -0.000003 0.000007 -0.000007 0.002115 -0.000036 0.031721
#
#
# Mechanical properties :
#
#
# Convention : Reuss Voigt Hill
#
# Bulk Modulus (GPa) = 55.71437 76.40927 66.06182
# Shear Modulus (GPa) = 16.12781 25.91844 21.02313
#
# Velocity S-wave (km/s) = 2.85728 3.62217 3.26222
# Velocity P-wave (km/s) = 6.25208 7.49484 6.90149
#
# Compressibility (1/GPa) = 0.01794869
#
# Stress axis : x y z
#
# Youngs Moduli (GPa) = 104.64160 46.71230 56.77257
#
# Poissons Ratio (x) = 0.26068 0.04587
# Poissons Ratio (y) = 0.58395 0.50677
# Poissons Ratio (z) = 0.08455 0.41697
#
# Static dielectric constant tensor:
#      x y z
#    x -1.323520 -0.001390 1.144050 
#    y -0.001390 3.664460 0.000400 
#    z 1.144050 0.000400 3.424410 
# 
# 
# High freq. dielectric constant tensor:
#      x y z
#    x 1.786610 0.000000 0.001680 
#    y 0.000000 1.769890 0.000010 
#    z 0.001680 0.000010 1.769140 
# 
# From -- ./inp_files/353369.got.cif
#   From: 2010.06.25/outbox.cif.g09.slc.cpg/sg12_177_cif.got.tgz:353369.got - 2010.06.28 00:19:55.
