data_PCOD8108194
_publ_section_title
;
Structure prediction by ZEFSAII (Michael W. Deem and Ramdas Pophale) SiO2 
 PCOD8108194
Probable space group: C 2/M
;
_chemical_formula_sum "Si O2"
_cell_formula_units_Z 56
_cell_length_a 10.208144
_cell_length_b 15.100061
_cell_length_c 17.664191
_cell_angle_alpha 90.000000
_cell_angle_beta 81.720592
_cell_angle_gamma 90.000000
_cell_volume 2694.443619
_symmetry_space_group_name_H-M "C 2/M"
_symmetry_group_IT_number 12
_symmetry_cell_setting 'monoclinic'
loop_
_space_group_symop_operation_xyz
x,y,z
-x,y,-z
-x,-y,-z
x,-y,z
1/2+x,1/2+y,z
1/2-x,1/2+y,-z
1/2-x,1/2-y,-z
1/2+x,1/2-y,z
loop_
_atom_site_type_symbol
_atom_site_label
_atom_site_fract_x
_atom_site_fract_y
_atom_site_fract_z
Si Si1 0.167733 0.327638 0.912327
Si Si2 0.609949 0.739083 0.550751
Si Si3 0.070262 0.606407 0.660652
Si Si4 0.865044 0.667453 0.918826
Si Si5 0.709637 0.398935 0.244277
Si Si6 0.577039 0.393110 0.690506
Si Si7 0.183403 0.401312 0.233361
O O1 0.263783 0.244797 0.908063
O O2 0.229645 0.391889 0.844820
O O3 0.017647 0.299544 0.903214
O O4 0.166002 0.374002 0.995708
O O5 0.500000 0.709587 0.500000
O O6 0.750000 0.750000 0.500000
O O7 0.574055 0.837309 0.583922
O O8 0.614611 0.659976 0.611720
O O9 0.071974 0.500000 0.645198
O O10 0.192791 0.641000 0.701153
O O11 0.941962 0.642770 0.715872
O O12 0.835231 0.597116 0.855744
O O13 0.694974 0.500000 0.265066
O O14 0.563968 0.357522 0.266078
O O15 0.579563 0.500000 0.675715
O O16 0.679014 0.360679 0.747814
O O17 0.183856 0.500000 0.263018
#
# Coordination Sequence:
#
# PCOD8108194 Si02
#       7
#     8   8   8   8   8   8   8
#     4  10  22  37  56  87 123 161 204 253 305 353
#     4  12  26  42  64  94 117 156 205 238 312 385
#     4  10  22  40  62  91 122 153 199 254 305 364
#     4  10  22  37  56  87 123 161 203 254 306 351
#     4  10  21  38  60  88 118 161 207 248 305 359
#     4  10  24  42  62  91 126 159 201 256 306 364
#     4  10  21  38  60  88 118 159 205 248 307 358
#
# _framework density 20.78351
#
# number of rings (size 3 to 8) (size 9 to 14) (size 15 to 20)
#    0.000    1.714    1.429    1.714    6.000    1.714 
#    0.000    1.429    0.000    2.571    0.000    0.000 
#    0.000    0.000    0.000    0.000    0.000    0.000 
#
# Total GULP energy -346939.329250 kJ/mol
# GULP energy per Si atom -12390.690330 kJ/mol
# Density = 2.073621 g / cm^3
# Si number density = 20.783510 Si / 1000 Ang^3
#
#
#
# Elastic Constant Matrix: (Units=GPa)
#
#
# Indices 1 2 3 4 5 6 
#
# 1 184.6749 22.5814 63.4648 0.0000 2.0442 0.0000
# 2 22.5814 53.1920 28.3868 0.0000 -0.3703 0.0000
# 3 63.4648 28.3868 126.1057 0.0000 -0.4709 0.0000
# 4 0.0000 0.0000 0.0000 33.3557 0.0000 -2.2668
# 5 2.0442 -0.3703 -0.4709 0.0000 44.4874 0.0000
# 6 0.0000 0.0000 0.0000 -2.2668 0.0000 14.0478
#
#
#
# Elastic Compliance Matrix: (Units=1/GPa)
#
#
# Indices 1 2 3 4 5 6 
#
# 1 0.006616 -0.001175 -0.003067 0.000000 -0.000346 0.000000
# 2 -0.001175 0.021576 -0.004265 0.000000 0.000188 0.000000
# 3 -0.003067 -0.004265 0.010434 0.000000 0.000216 0.000000
# 4 0.000000 0.000000 0.000000 0.030312 0.000000 0.004891
# 5 -0.000346 0.000188 0.000216 0.000000 0.022498 0.000000
# 6 0.000000 0.000000 0.000000 0.004891 0.000000 0.071975
#
#
# Mechanical properties :
#
#
# Convention : Reuss Voigt Hill
#
# Bulk Modulus (GPa) = 46.26684 65.87099 56.06891
# Shear Modulus (GPa) = 26.64841 35.01414 30.83128
#
# Velocity S-wave (km/s) = 3.58465 4.10897 3.85574
# Velocity P-wave (km/s) = 6.28034 7.36710 6.84532
#
# Compressibility (1/GPa) = 0.02161375
#
# Stress axis : x y z
#
# Youngs Moduli (GPa) = 151.14304 46.34815 95.84018
#
# Poissons Ratio (x) = 0.05444 0.29391
# Poissons Ratio (y) = 0.17754 0.40875
# Poissons Ratio (z) = 0.46350 0.19767
#
# Static dielectric constant tensor:
#      x y z
#    x 4.414420 0.000000 0.034560 
#    y 0.000000 3.450630 0.000000 
#    z 0.034560 0.000000 3.864780 
# 
# 
# High freq. dielectric constant tensor:
#      x y z
#    x 1.840150 0.000000 0.002290 
#    y 0.000000 1.791450 0.000000 
#    z 0.002290 0.000000 1.817850 
# 
# From -- ./inp_files/300149.got.cif
#   From: 2010.06.25/outbox.cif.g09.slc.cpg/sg12_151_cif.got.tgz:300149.got - 2010.06.28 00:19:55.
