data_PCOD8108051
_publ_section_title
;
Structure prediction by ZEFSAII (Michael W. Deem and Ramdas Pophale) SiO2 
 PCOD8108051
Probable space group: C 2/M
;
_chemical_formula_sum "Si O2"
_cell_formula_units_Z 48
_cell_length_a 14.404608
_cell_length_b 13.237739
_cell_length_c 28.853591
_cell_angle_alpha 90.000000
_cell_angle_beta 155.880395
_cell_angle_gamma 90.000000
_cell_volume 2248.324342
_symmetry_space_group_name_H-M "C 2/M"
_symmetry_group_IT_number 12
_symmetry_cell_setting 'monoclinic'
loop_
_space_group_symop_operation_xyz
x,y,z
-x,y,-z
-x,-y,-z
x,-y,z
1/2+x,1/2+y,z
1/2-x,1/2+y,-z
1/2-x,1/2-y,-z
1/2+x,1/2-y,z
loop_
_atom_site_type_symbol
_atom_site_label
_atom_site_fract_x
_atom_site_fract_y
_atom_site_fract_z
Si Si1 0.378020 0.886571 0.898950
Si Si2 0.673611 0.887188 0.944608
Si Si3 0.604589 0.386091 0.496926
Si Si4 0.991516 0.266352 0.712157
Si Si5 0.675205 0.617318 0.186412
Si Si6 0.202790 0.271410 0.277404
O O1 0.571096 0.886595 0.948760
O O2 0.154603 0.829755 0.776682
O O3 0.296782 0.000000 0.873897
O O4 0.500000 0.837786 0.000000
O O5 0.525231 0.825989 0.841375
O O6 0.693720 0.000000 0.934053
O O7 0.924712 0.838974 0.061380
O O8 0.500000 0.395234 0.500000
O O9 0.688186 0.500000 0.520299
O O10 0.415596 0.348314 0.374230
O O11 0.802886 0.300233 0.587927
O O12 0.169208 0.360787 0.788209
O O13 0.858600 0.240098 0.698338
O O14 0.670778 0.500000 0.196927
O O15 0.765386 0.676749 0.273223
#
# Coordination Sequence:
#
# PCOD8108051 Si02
#       6
#     8   8   8   8   8   8
#     4  10  21  38  61  89 123 162 203 246 301 371
#     4  10  21  38  59  88 122 158 201 251 306 366
#     4   9  20  40  62  88 122 162 206 254 308 365
#     4  11  23  38  64  90 122 161 206 252 309 365
#     4  11  24  40  59  92 134 161 197 259 320 366
#     4  11  22  39  65  87 119 165 211 251 303 372
#
# _framework density 21.349233000000002
#
# number of rings (size 3 to 8) (size 9 to 14) (size 15 to 20)
#    0.000    1.667    1.667    2.500    2.333    4.667 
#    0.000    2.500    0.000    3.000    0.000    0.000 
#    0.000    0.000    0.000    0.000    0.000    0.000 
#
# Total GULP energy -297320.918395 kJ/mol
# GULP energy per Si atom -12388.371600 kJ/mol
# Density = 2.130064 g / cm^3
# Si number density = 21.349233 Si / 1000 Ang^3
#
#
#
# Elastic Constant Matrix: (Units=GPa)
#
#
# Indices 1 2 3 4 5 6 
#
# 1 32.0899 5.2233 4.8043 -0.0023 6.7724 0.0004
# 2 5.2233 96.2137 54.3172 -0.0012 -10.0899 -0.0002
# 3 4.8043 54.3172 116.4689 -0.0036 1.7281 0.0020
# 4 -0.0023 -0.0012 -0.0036 31.8257 -0.0010 -2.3085
# 5 6.7724 -10.0899 1.7281 -0.0010 28.6588 -0.0006
# 6 0.0004 -0.0002 0.0020 -2.3085 -0.0006 19.3949
#
#
#
# Elastic Compliance Matrix: (Units=1/GPa)
#
#
# Indices 1 2 3 4 5 6 
#
# 1 0.033484 -0.002776 0.000045 0.000002 -0.008893 -0.000001
# 2 -0.002776 0.015215 -0.007077 0.000000 0.006439 0.000001
# 3 0.000045 -0.007077 0.011932 0.000001 -0.003222 -0.000001
# 4 0.000002 0.000000 0.000001 0.031695 0.000001 0.003773
# 5 -0.008893 0.006439 -0.003222 0.000001 0.039456 0.000002
# 6 -0.000001 0.000001 -0.000001 0.003773 0.000002 0.052009
#
#
# Mechanical properties :
#
#
# Convention : Reuss Voigt Hill
#
# Bulk Modulus (GPa) = 24.38037 41.49579 32.93808
# Shear Modulus (GPa) = 23.03322 28.00440 25.51881
#
# Velocity S-wave (km/s) = 3.28819 3.62571 3.46107
# Velocity P-wave (km/s) = 5.08536 6.08330 5.60658
#
# Compressibility (1/GPa) = 0.04101661
#
# Stress axis : x y z
#
# Youngs Moduli (GPa) = 29.86473 65.72628 83.80681
#
# Poissons Ratio (x) = 0.18246 -0.00380
# Poissons Ratio (y) = 0.08290 0.59307
# Poissons Ratio (z) = -0.00135 0.46512
#
# Static dielectric constant tensor:
#      x y z
#    x 3.726380 0.000000 0.135730 
#    y 0.000000 4.056790 -0.000010 
#    z 0.135730 -0.000010 4.067780 
# 
# 
# High freq. dielectric constant tensor:
#      x y z
#    x 1.823470 0.000000 0.013290 
#    y 0.000000 1.835590 0.000000 
#    z 0.013290 0.000000 1.840700 
# 
# From -- ./inp_files/142726.got.cif
#   From: 2010.06.25/outbox.cif.g09.slc.cpg/sg12_72_cif.got.tgz:142726.got - 2010.06.28 00:19:55.
