data_PCOD8108840
_publ_section_title
;
Structure prediction by ZEFSAII (Michael W. Deem and Ramdas Pophale) SiO2 
 PCOD8108840
Probable space group: C 2/M
;
_chemical_formula_sum "Si O2"
_cell_formula_units_Z 48
_cell_length_a 31.653450
_cell_length_b 14.496908
_cell_length_c 15.069319
_cell_angle_alpha 90.000000
_cell_angle_beta 161.072583
_cell_angle_gamma 90.000000
_cell_volume 2243.008268
_symmetry_space_group_name_H-M "C 2/M"
_symmetry_group_IT_number 12
_symmetry_cell_setting 'monoclinic'
loop_
_space_group_symop_operation_xyz
x,y,z
-x,y,-z
-x,-y,-z
x,-y,z
1/2+x,1/2+y,z
1/2-x,1/2+y,-z
1/2-x,1/2-y,-z
1/2+x,1/2-y,z
loop_
_atom_site_type_symbol
_atom_site_label
_atom_site_fract_x
_atom_site_fract_y
_atom_site_fract_z
Si Si1 0.871067 0.601809 0.015183
Si Si2 0.351274 0.661008 0.294963
Si Si3 0.858555 0.330351 0.418751
Si Si4 0.258539 0.763596 0.657243
Si Si5 0.847774 0.893800 0.706654
Si Si6 0.868244 0.898792 0.138433
O O1 0.834887 0.500000 0.906742
O O2 0.022536 0.597975 0.344782
O O3 0.778216 0.624336 0.913815
O O4 0.862442 0.680621 0.923029
O O5 0.386811 0.764053 0.392780
O O6 0.477758 0.602168 0.576829
O O7 0.332570 0.664876 0.151706
O O8 0.855356 0.273065 0.504686
O O9 0.716416 0.375282 0.117541
O O10 0.207885 0.840249 0.488571
O O11 0.317059 0.670884 0.729894
O O12 0.791035 0.000000 0.602911
O O13 0.000000 0.902624 0.000000
O O14 0.829267 0.000000 0.092721
#
# Coordination Sequence:
#
# PCOD8108840 Si02
#       6
#     8   8   8   8   8   8
#     4  11  22  38  60  88 121 158 199 242 293 351
#     4  10  21  39  58  81 115 159 202 246 295 345
#     4  11  23  38  58  86 120 155 194 241 294 350
#     4  10  22  40  59  86 122 154 187 235 297 353
#     4  10  21  39  64  89 113 148 194 238 283 346
#     4  11  22  38  58  83 115 154 202 249 295 344
#
# _framework density 21.399833000000001
#
# number of rings (size 3 to 8) (size 9 to 14) (size 15 to 20)
#    0.000    1.500    0.000    6.500    0.000    4.667 
#    0.000    5.000    0.000    5.500    0.000    0.000 
#    0.000    0.000    0.000    0.000    0.000    0.000 
#
# Total GULP energy -297390.905353 kJ/mol
# GULP energy per Si atom -12391.287723 kJ/mol
# Density = 2.135113 g / cm^3
# Si number density = 21.399833 Si / 1000 Ang^3
#
#
#
# Elastic Constant Matrix: (Units=GPa)
#
#
# Indices 1 2 3 4 5 6 
#
# 1 90.5895 37.1953 43.4931 0.0000 -0.1395 0.0000
# 2 37.1953 125.3947 25.0087 0.0000 4.6586 0.0000
# 3 43.4931 25.0087 113.3290 0.0000 4.2776 0.0000
# 4 0.0000 0.0000 0.0000 26.3807 0.0000 0.4748
# 5 -0.1395 4.6586 4.2776 0.0000 16.4614 0.0000
# 6 0.0000 0.0000 0.0000 0.4748 0.0000 23.4465
#
#
#
# Elastic Compliance Matrix: (Units=1/GPa)
#
#
# Indices 1 2 3 4 5 6 
#
# 1 0.014900 -0.003505 -0.005036 0.000000 0.002427 0.000000
# 2 -0.003505 0.009226 -0.000597 0.000000 -0.002486 0.000000
# 3 -0.005036 -0.000597 0.010991 0.000000 -0.002730 0.000000
# 4 0.000000 0.000000 0.000000 0.037920 0.000000 -0.000768
# 5 0.002427 -0.002486 -0.002730 0.000000 0.062181 0.000000
# 6 0.000000 0.000000 0.000000 -0.000768 0.000000 0.042666
#
#
# Mechanical properties :
#
#
# Convention : Reuss Voigt Hill
#
# Bulk Modulus (GPa) = 59.38159 60.07859 59.73009
# Shear Modulus (GPa) = 24.78003 28.16545 26.47274
#
# Velocity S-wave (km/s) = 3.40656 3.63182 3.52099
# Velocity P-wave (km/s) = 6.57889 6.76181 6.67098
#
# Compressibility (1/GPa) = 0.01684024
#
# Stress axis : x y z
#
# Youngs Moduli (GPa) = 67.11490 108.38947 90.98009
#
# Poissons Ratio (x) = 0.37995 0.45820
# Poissons Ratio (y) = 0.23527 0.05430
# Poissons Ratio (z) = 0.33801 0.06469
#
# Static dielectric constant tensor:
#      x y z
#    x 3.771790 0.000000 -0.129130 
#    y 0.000000 4.165470 0.000000 
#    z -0.129130 0.000000 3.891210 
# 
# 
# High freq. dielectric constant tensor:
#      x y z
#    x 1.829830 0.000000 -0.003390 
#    y 0.000000 1.853480 0.000000 
#    z -0.003390 0.000000 1.837850 
# 
# From -- ./inp_files/251518.got.cif
#   From: 2010.06.25/outbox.cif.g09.slc.cpg/sg12_126_cif.got.tgz:251518.got - 2010.06.28 00:19:55.
