data_PCOD8108924
_publ_section_title
;
Structure prediction by ZEFSAII (Michael W. Deem and Ramdas Pophale) SiO2 
 PCOD8108924
Probable space group: C 2/M
;
_chemical_formula_sum "Si O2"
_cell_formula_units_Z 64
_cell_length_a 15.109196
_cell_length_b 8.633412
_cell_length_c 28.538517
_cell_angle_alpha 90.000000
_cell_angle_beta 57.356773
_cell_angle_gamma 90.000000
_cell_volume 3134.663124
_symmetry_space_group_name_H-M "C 2/M"
_symmetry_group_IT_number 12
_symmetry_cell_setting 'monoclinic'
loop_
_space_group_symop_operation_xyz
x,y,z
-x,y,-z
-x,-y,-z
x,-y,z
1/2+x,1/2+y,z
1/2-x,1/2+y,-z
1/2-x,1/2-y,-z
1/2+x,1/2-y,z
loop_
_atom_site_type_symbol
_atom_site_label
_atom_site_fract_x
_atom_site_fract_y
_atom_site_fract_z
Si Si1 0.451714 0.682162 0.294080
Si Si2 0.374751 0.677178 0.217278
Si Si3 0.100444 0.826799 0.003412
Si Si4 0.098780 0.316811 0.503753
Si Si5 0.951374 0.678930 0.885623
Si Si6 0.336286 0.316510 0.418519
Si Si7 0.325338 0.175786 0.778081
Si Si8 0.732162 0.680241 0.112348
O O1 0.437995 0.500000 0.298644
O O2 0.400922 0.748126 0.260813
O O3 0.390472 0.751550 0.356224
O O4 0.573896 0.722179 0.261609
O O5 0.414105 0.500000 0.201329
O O6 0.428723 0.780429 0.161145
O O7 0.249429 0.685318 0.245940
O O8 0.197044 0.760631 0.946935
O O9 0.129031 0.000000 0.013175
O O10 0.075777 0.713856 0.053090
O O11 0.000000 0.833194 0.000000
O O12 0.089168 0.500000 0.509221
O O13 0.213311 0.265730 0.450935
O O14 0.096886 0.251705 0.557134
O O15 0.000000 0.253706 0.500000
O O16 0.926491 0.500000 0.882963
O O17 0.887196 0.790337 0.869075
O O18 0.344695 0.500000 0.419782
O O19 0.255154 0.240775 0.840919
O O20 0.359805 0.000000 0.779149
O O21 0.759646 0.500000 0.108032
#
# Coordination Sequence:
#
# PCOD8108924 Si02
#       8
#     8   8   8   8   8   8   8   8
#     4  10  21  39  60  83 118 162 200 241 297 357
#     4  10  22  40  61  85 117 156 195 242 303 359
#     4  11  24  41  60  84 115 149 190 240 296 361
#     4   9  18  34  58  87 120 158 201 244 294 351
#     4  12  24  39  61  87 115 148 193 243 296 359
#     4   9  19  35  56  85 120 158 201 245 294 346
#     4  11  23  39  61  89 117 152 201 250 297 355
#     4  12  24  40  61  84 115 152 192 241 302 361
#
# _framework density 20.416867
#
# number of rings (size 3 to 8) (size 9 to 14) (size 15 to 20)
#    0.000    1.500    1.250    4.125    0.000    6.750 
#    0.000    2.500    0.000    0.000    0.000    0.000 
#    0.000    0.000    0.000    0.000    0.000    0.000 
#
# Total GULP energy -396797.554249 kJ/mol
# GULP energy per Si atom -12399.923570 kJ/mol
# Density = 2.037040 g / cm^3
# Si number density = 20.416867 Si / 1000 Ang^3
#
#
#
# Elastic Constant Matrix: (Units=GPa)
#
#
# Indices 1 2 3 4 5 6 
#
# 1 124.2700 14.0382 48.8530 0.0000 6.1855 0.0000
# 2 14.0382 41.0971 16.5907 0.0000 6.8611 0.0000
# 3 48.8530 16.5907 145.9378 0.0000 7.9440 0.0000
# 4 0.0000 0.0000 0.0000 26.6686 0.0000 1.0235
# 5 6.1855 6.8611 7.9440 0.0000 13.8556 0.0000
# 6 0.0000 0.0000 0.0000 1.0235 0.0000 26.6096
#
#
#
# Elastic Compliance Matrix: (Units=1/GPa)
#
#
# Indices 1 2 3 4 5 6 
#
# 1 0.009462 -0.001791 -0.002872 0.000000 -0.001691 0.000000
# 2 -0.001791 0.027686 -0.001905 0.000000 -0.011819 0.000000
# 3 -0.002872 -0.001905 0.008164 0.000000 -0.002455 0.000000
# 4 0.000000 0.000000 0.000000 0.037553 0.000000 -0.001444
# 5 -0.001691 -0.011819 -0.002455 0.000000 0.080188 0.000000
# 6 0.000000 0.000000 0.000000 -0.001444 0.000000 0.037636
#
#
# Mechanical properties :
#
#
# Convention : Reuss Voigt Hill
#
# Bulk Modulus (GPa) = 31.07708 52.25207 41.66458
# Shear Modulus (GPa) = 22.26675 28.88161 25.57418
#
# Velocity S-wave (km/s) = 3.30601 3.76519 3.54305
# Velocity P-wave (km/s) = 5.46144 6.67461 6.09827
#
# Compressibility (1/GPa) = 0.03217805
#
# Stress axis : x y z
#
# Youngs Moduli (GPa) = 105.68074 36.11897 122.49157
#
# Poissons Ratio (x) = 0.06467 0.35179
# Poissons Ratio (y) = 0.18923 0.23332
# Poissons Ratio (z) = 0.30351 0.06880
#
# Static dielectric constant tensor:
#      x y z
#    x 3.827450 0.000000 0.125910 
#    y 0.000000 3.638350 0.000000 
#    z 0.125910 0.000000 3.703670 
# 
# 
# High freq. dielectric constant tensor:
#      x y z
#    x 1.807280 0.000000 0.001680 
#    y 0.000000 1.791130 0.000000 
#    z 0.001680 0.000000 1.794430 
# 
# From -- ./inp_files/374988.got.cif
#   From: 2010.06.25/outbox.cif.g09.slc.cpg/sg12_188_cif.got.tgz:374988.got - 2010.06.28 00:19:55.
