data_PCOD8108563
_publ_section_title
;
Structure prediction by ZEFSAII (Michael W. Deem and Ramdas Pophale) SiO2 
 PCOD8108563
Probable space group: C 2/M
;
_chemical_formula_sum "Si O2"
_cell_formula_units_Z 52
_cell_length_a 22.320389
_cell_length_b 11.378819
_cell_length_c 13.022724
_cell_angle_alpha 90.000000
_cell_angle_beta 125.796697
_cell_angle_gamma 90.000000
_cell_volume 2682.710869
_symmetry_space_group_name_H-M "C 2/M"
_symmetry_group_IT_number 12
_symmetry_cell_setting 'monoclinic'
loop_
_space_group_symop_operation_xyz
x,y,z
-x,y,-z
-x,-y,-z
x,-y,z
1/2+x,1/2+y,z
1/2-x,1/2+y,-z
1/2-x,1/2-y,-z
1/2+x,1/2-y,z
loop_
_atom_site_type_symbol
_atom_site_label
_atom_site_fract_x
_atom_site_fract_y
_atom_site_fract_z
Si Si1 0.778743 0.753194 0.368885
Si Si2 0.728721 0.864346 0.844061
Si Si3 0.824694 0.000000 0.366273
Si Si4 0.870484 0.235910 0.660818
Si Si5 0.997470 0.635761 0.116815
Si Si6 0.906697 0.000000 0.239130
Si Si7 0.071271 0.000000 0.339798
Si Si8 0.362745 0.262563 0.086503
O O1 0.797209 0.660571 0.298067
O O2 0.844290 0.739695 0.517901
O O3 0.700121 0.722523 0.337893
O O4 0.774388 0.883352 0.314006
O O5 0.662638 0.833454 0.855646
O O6 0.749338 0.000000 0.877413
O O7 0.799587 0.782126 0.937911
O O8 0.883756 0.000000 0.334559
O O9 0.863995 0.000000 0.514004
O O10 0.922949 0.341036 0.751353
O O11 0.918414 0.116255 0.718908
O O12 0.976704 0.500000 0.112057
O O13 0.936487 0.717352 0.107710
O O14 0.000000 0.668933 0.000000
O O15 0.874429 0.885964 0.153250
O O16 0.994471 0.000000 0.321989
#
# Coordination Sequence:
#
# PCOD8108563 Si02
#       8
#     8   8   4   8   8   4   4   8
#     4  10  22  39  61  89 125 158 205 249 297 357
#     4  11  23  39  61  89 120 159 199 249 304 356
#     4  10  21  38  62  92 116 169 210 247 297 360
#     4  10  22  40  61  90 122 161 200 250 301 357
#     4  11  24  43  63  87 118 160 201 245 303 369
#     4  12  19  40  64  90 121 162 200 257 304 363
#     4  10  21  38  64  88 126 160 202 254 305 359
#     4  11  23  41  61  89 122 155 201 253 303 361
#
# _framework density 19.383378
#
# number of rings (size 3 to 8) (size 9 to 14) (size 15 to 20)
#    0.000    1.385    3.846    1.615    2.154    0.615 
#    1.385    1.538    0.000    1.846    0.000    0.000 
#    0.000    0.000    0.000    0.000    0.000    0.000 
#
# Total GULP energy -322494.573364 kJ/mol
# GULP energy per Si atom -12403.637437 kJ/mol
# Density = 1.933926 g / cm^3
# Si number density = 19.383378 Si / 1000 Ang^3
#
#
#
# Elastic Constant Matrix: (Units=GPa)
#
#
# Indices 1 2 3 4 5 6 
#
# 1 92.3358 32.1330 43.9505 0.0000 -9.2483 0.0000
# 2 32.1330 87.7985 37.9523 0.0000 -12.6996 0.0000
# 3 43.9505 37.9523 79.0375 0.0000 -6.6774 0.0000
# 4 0.0000 0.0000 0.0000 22.5132 0.0000 0.9977
# 5 -9.2483 -12.6996 -6.6774 0.0000 25.8400 0.0000
# 6 0.0000 0.0000 0.0000 0.9977 0.0000 37.0446
#
#
#
# Elastic Compliance Matrix: (Units=1/GPa)
#
#
# Indices 1 2 3 4 5 6 
#
# 1 0.015274 -0.002071 -0.007282 0.000000 0.002567 0.000000
# 2 -0.002071 0.015430 -0.005806 0.000000 0.005342 0.000000
# 3 -0.007282 -0.005806 0.019453 0.000000 -0.000433 0.000000
# 4 0.000000 0.000000 0.000000 0.044471 0.000000 -0.001198
# 5 0.002567 0.005342 -0.000433 0.000000 0.042132 0.000000
# 6 0.000000 0.000000 0.000000 -0.001198 0.000000 0.027027
#
#
# Mechanical properties :
#
#
# Convention : Reuss Voigt Hill
#
# Bulk Modulus (GPa) = 50.40723 54.13816 52.27269
# Shear Modulus (GPa) = 24.91041 26.75531 25.83286
#
# Velocity S-wave (km/s) = 3.58878 3.71930 3.65462
# Velocity P-wave (km/s) = 6.57528 6.81433 6.69587
#
# Compressibility (1/GPa) = 0.01983842
#
# Stress axis : x y z
#
# Youngs Moduli (GPa) = 65.47057 64.80782 51.40555
#
# Poissons Ratio (x) = 0.13421 0.37434
# Poissons Ratio (y) = 0.13559 0.29848
# Poissons Ratio (z) = 0.47677 0.37630
#
# Static dielectric constant tensor:
#      x y z
#    x 3.461950 0.000000 -0.049430 
#    y 0.000000 3.695110 0.000000 
#    z -0.049430 0.000000 3.529630 
# 
# 
# High freq. dielectric constant tensor:
#      x y z
#    x 1.759070 0.000000 -0.005420 
#    y 0.000000 1.761560 0.000000 
#    z -0.005420 0.000000 1.753650 
# 
# From -- ./inp_files/165568.got.cif
#   From: 2010.06.25/outbox.cif.g09.slc.cpg/sg12_83_cif.got.tgz:165568.got - 2010.06.28 00:19:55.
