data_PCOD8108594
_publ_section_title
;
Structure prediction by ZEFSAII (Michael W. Deem and Ramdas Pophale) SiO2 
 PCOD8108594
Probable space group: C 2/M
;
_chemical_formula_sum "Si O2"
_cell_formula_units_Z 56
_cell_length_a 21.499527
_cell_length_b 28.176863
_cell_length_c 9.100674
_cell_angle_alpha 90.000000
_cell_angle_beta 151.611395
_cell_angle_gamma 90.000000
_cell_volume 2621.194659
_symmetry_space_group_name_H-M "C 2/M"
_symmetry_group_IT_number 12
_symmetry_cell_setting 'monoclinic'
loop_
_space_group_symop_operation_xyz
x,y,z
-x,y,-z
-x,-y,-z
x,-y,z
1/2+x,1/2+y,z
1/2-x,1/2+y,-z
1/2-x,1/2-y,-z
1/2+x,1/2-y,z
loop_
_atom_site_type_symbol
_atom_site_label
_atom_site_fract_x
_atom_site_fract_y
_atom_site_fract_z
Si Si1 0.058576 0.145065 0.844831
Si Si2 0.110015 0.446169 0.328788
Si Si3 0.880382 0.765210 0.854649
Si Si4 0.704082 0.360552 0.855614
Si Si5 0.639902 0.054466 0.716766
Si Si6 0.863733 0.274681 0.143488
Si Si7 0.896269 0.946699 0.904829
O O1 0.138065 0.160739 0.866012
O O2 0.902053 0.146407 0.494653
O O3 0.102677 0.178427 0.073201
O O4 0.094336 0.090044 0.943165
O O5 0.062247 0.500000 0.255917
O O6 0.124989 0.423422 0.521574
O O7 0.249081 0.444193 0.533140
O O8 0.000000 0.419902 0.000000
O O9 0.750000 0.750000 0.500000
O O10 0.877830 0.738872 0.003782
O O11 0.000000 0.748579 0.000000
O O12 0.751319 0.414998 0.969990
O O13 0.833251 0.330690 0.084755
O O14 0.500000 0.057973 0.500000
O O15 0.690673 0.000000 0.818325
O O16 0.000000 0.261899 0.500000
O O17 0.750000 0.250000 0.000000
O O18 0.925988 0.000000 0.024220
O O19 0.000000 0.930600 0.000000
#
# Coordination Sequence:
#
# PCOD8108594 Si02
#       7
#     8   8   8   8   8   8   8
#     4  11  23  41  66  96 135 178 222 277 339 405
#     4   9  18  35  58  85 122 170 218 267 327 391
#     4  12  26  46  71 102 135 172 223 287 346 404
#     4  11  23  40  67  97 130 180 228 271 339 414
#     4  10  21  39  63  94 134 177 228 287 335 389
#     4  12  24  44  73 100 134 177 223 273 344 422
#     4  10  21  38  62  93 132 178 224 271 331 398
#
# _framework density 21.364303
#
# number of rings (size 3 to 8) (size 9 to 14) (size 15 to 20)
#    0.000    1.286    2.857    3.429    0.000    1.714 
#    0.000    6.429    0.000    0.000    0.000    0.000 
#    0.000    0.000    0.000    0.000    0.000    0.000 
#
# Total GULP energy -347093.235980 kJ/mol
# GULP energy per Si atom -12396.186999 kJ/mol
# Density = 2.131568 g / cm^3
# Si number density = 21.364303 Si / 1000 Ang^3
#
#
#
# Elastic Constant Matrix: (Units=GPa)
#
#
# Indices 1 2 3 4 5 6 
#
# 1 127.3999 39.9352 60.5502 0.0000 8.3992 0.0000
# 2 39.9352 101.0064 58.3074 0.0000 -7.6751 0.0000
# 3 60.5502 58.3074 167.2131 0.0000 -0.2013 0.0000
# 4 0.0000 0.0000 0.0000 30.4745 0.0000 -4.3108
# 5 8.3992 -7.6751 -0.2013 0.0000 35.9781 0.0000
# 6 0.0000 0.0000 0.0000 -4.3108 0.0000 24.6632
#
#
#
# Elastic Compliance Matrix: (Units=1/GPa)
#
#
# Indices 1 2 3 4 5 6 
#
# 1 0.010193 -0.002657 -0.002768 0.000000 -0.002962 0.000000
# 2 -0.002657 0.013340 -0.003685 0.000000 0.003446 0.000000
# 3 -0.002768 -0.003685 0.008268 0.000000 -0.000094 0.000000
# 4 0.000000 0.000000 0.000000 0.033646 0.000000 0.005881
# 5 -0.002962 0.003446 -0.000094 0.000000 0.029221 0.000000
# 6 0.000000 0.000000 0.000000 0.005881 0.000000 0.041574
#
#
# Mechanical properties :
#
#
# Convention : Reuss Voigt Hill
#
# Bulk Modulus (GPa) = 73.63929 79.24500 76.44215
# Shear Modulus (GPa) = 31.44853 34.01160 32.73007
#
# Velocity S-wave (km/s) = 3.84084 3.99429 3.91832
# Velocity P-wave (km/s) = 7.36292 7.64495 7.50526
#
# Compressibility (1/GPa) = 0.01357971
#
# Stress axis : x y z
#
# Youngs Moduli (GPa) = 98.10544 74.96129 120.95224
#
# Poissons Ratio (x) = 0.19919 0.33480
# Poissons Ratio (y) = 0.26069 0.44575
# Poissons Ratio (z) = 0.27156 0.27626
#
# Static dielectric constant tensor:
#      x y z
#    x 3.807170 0.000000 0.149070 
#    y 0.000000 3.882850 0.000000 
#    z 0.149070 0.000000 3.952710 
# 
# 
# High freq. dielectric constant tensor:
#      x y z
#    x 1.842150 0.000000 0.014020 
#    y 0.000000 1.831490 0.000000 
#    z 0.014020 0.000000 1.836960 
# 
# From -- ./inp_files/91607.got.cif
#   From: 2010.06.25/outbox.cif.g09.slc.cpg/sg12_46_cif.got.tgz:91607.got - 2010.06.28 00:19:55.
