data_PCOD8108205
_publ_section_title
;
Structure prediction by ZEFSAII (Michael W. Deem and Ramdas Pophale) SiO2 
 PCOD8108205
Probable space group: C 2/M
;
_chemical_formula_sum "Si O2"
_cell_formula_units_Z 56
_cell_length_a 21.501207
_cell_length_b 17.967830
_cell_length_c 9.302321
_cell_angle_alpha 90.000000
_cell_angle_beta 53.590113
_cell_angle_gamma 90.000000
_cell_volume 2892.231892
_symmetry_space_group_name_H-M "C 2/M"
_symmetry_group_IT_number 12
_symmetry_cell_setting 'monoclinic'
loop_
_space_group_symop_operation_xyz
x,y,z
-x,y,-z
-x,-y,-z
x,-y,z
1/2+x,1/2+y,z
1/2-x,1/2+y,-z
1/2-x,1/2-y,-z
1/2+x,1/2-y,z
loop_
_atom_site_type_symbol
_atom_site_label
_atom_site_fract_x
_atom_site_fract_y
_atom_site_fract_z
Si Si1 0.168772 0.159689 0.253071
Si Si2 0.819569 0.197726 0.445240
Si Si3 0.515195 0.720833 0.811843
Si Si4 0.201070 0.587033 0.114946
Si Si5 0.186443 0.082184 0.797022
Si Si6 0.074265 0.699944 0.294867
Si Si7 0.443619 0.583444 0.784491
O O1 0.192018 0.156319 0.387794
O O2 0.141465 0.243289 0.252111
O O3 0.096765 0.105014 0.312278
O O4 0.245946 0.135281 0.064616
O O5 0.750000 0.250000 0.500000
O O6 0.897423 0.247701 0.338098
O O7 0.829240 0.136883 0.309866
O O8 0.454545 0.778089 0.825436
O O9 0.510696 0.640778 0.735845
O O10 0.500000 0.713017 0.000000
O O11 0.201247 0.500000 0.068789
O O12 0.231901 0.596331 0.235754
O O13 0.113680 0.618773 0.231530
O O14 0.184221 0.000000 0.733703
O O15 0.121046 0.091969 0.005805
O O16 0.000000 0.699789 0.500000
O O17 0.477160 0.500000 0.728453
#
# Coordination Sequence:
#
# PCOD8108205 Si02
#       7
#     8   8   8   8   8   8   8
#     4  10  21  38  60  88 123 155 197 244 294 359
#     4  12  24  36  57  87 119 152 194 244 295 346
#     4  11  23  38  58  87 117 154 199 239 297 357
#     4  10  22  41  65  88 117 162 206 243 293 354
#     4   9  19  36  57  85 114 150 191 235 288 348
#     4  11  22  39  63  89 121 154 202 253 298 346
#     4   9  19  37  61  85 116 150 189 235 289 356
#
# _framework density 19.362209
#
# number of rings (size 3 to 8) (size 9 to 14) (size 15 to 20)
#    0.000    1.714    2.857    2.571    2.000    2.286 
#    0.000    0.714    0.000    0.429    0.000    0.000 
#    0.000    0.000    0.000    0.000    0.000    0.000 
#
# Total GULP energy -347153.579551 kJ/mol
# GULP energy per Si atom -12398.342127 kJ/mol
# Density = 1.931814 g / cm^3
# Si number density = 19.362209 Si / 1000 Ang^3
#
#
#
# Elastic Constant Matrix: (Units=GPa)
#
#
# Indices 1 2 3 4 5 6 
#
# 1 108.6685 46.6154 38.5374 0.0000 2.8545 0.0000
# 2 46.6154 71.8300 30.9532 0.0000 -8.1908 0.0000
# 3 38.5374 30.9532 68.6008 0.0000 9.0288 0.0000
# 4 0.0000 0.0000 0.0000 18.4999 0.0000 -1.3501
# 5 2.8545 -8.1908 9.0288 0.0000 40.6424 0.0000
# 6 0.0000 0.0000 0.0000 -1.3501 0.0000 20.9418
#
#
#
# Elastic Compliance Matrix: (Units=1/GPa)
#
#
# Indices 1 2 3 4 5 6 
#
# 1 0.013922 -0.007351 -0.004307 0.000000 -0.001502 0.000000
# 2 -0.007351 0.022382 -0.006831 0.000000 0.006544 0.000000
# 3 -0.004307 -0.006831 0.020829 0.000000 -0.005701 0.000000
# 4 0.000000 0.000000 0.000000 0.054310 0.000000 0.003501
# 5 -0.001502 0.006544 -0.005701 0.000000 0.027296 0.000000
# 6 0.000000 0.000000 0.000000 0.003501 0.000000 0.047977
#
#
# Mechanical properties :
#
#
# Convention : Reuss Voigt Hill
#
# Bulk Modulus (GPa) = 49.61102 53.47904 51.54503
# Shear Modulus (GPa) = 21.70035 24.88305 23.29170
#
# Velocity S-wave (km/s) = 3.35140 3.58877 3.47211
# Velocity P-wave (km/s) = 6.37606 6.69721 6.53861
#
# Compressibility (1/GPa) = 0.02015681
#
# Stress axis : x y z
#
# Youngs Moduli (GPa) = 71.82768 44.67884 48.01015
#
# Poissons Ratio (x) = 0.32842 0.20676
# Poissons Ratio (y) = 0.52798 0.32795
# Poissons Ratio (z) = 0.30933 0.30520
#
# Static dielectric constant tensor:
#      x y z
#    x 3.753580 0.000000 0.068280 
#    y 0.000000 3.395260 0.000000 
#    z 0.068280 0.000000 3.474900 
# 
# 
# High freq. dielectric constant tensor:
#      x y z
#    x 1.761550 0.000000 0.005910 
#    y 0.000000 1.735000 0.000000 
#    z 0.005910 0.000000 1.749120 
# 
# From -- ./inp_files/75848.got.cif
#   From: 2010.06.25/outbox.cif.g09.slc.cpg/sg12_38_cif.got.tgz:75848.got - 2010.06.28 00:19:55.
