data_PCOD8108224
_publ_section_title
;
Structure prediction by ZEFSAII (Michael W. Deem and Ramdas Pophale) SiO2 
 PCOD8108224
Probable space group: C 2/M
;
_chemical_formula_sum "Si O2"
_cell_formula_units_Z 32
_cell_length_a 12.559104
_cell_length_b 26.914876
_cell_length_c 9.918721
_cell_angle_alpha 90.000000
_cell_angle_beta 23.547612
_cell_angle_gamma 90.000000
_cell_volume 1339.477586
_symmetry_space_group_name_H-M "C 2/M"
_symmetry_group_IT_number 12
_symmetry_cell_setting 'monoclinic'
loop_
_space_group_symop_operation_xyz
x,y,z
-x,y,-z
-x,-y,-z
x,-y,z
1/2+x,1/2+y,z
1/2-x,1/2+y,-z
1/2-x,1/2-y,-z
1/2+x,1/2-y,z
loop_
_atom_site_type_symbol
_atom_site_label
_atom_site_fract_x
_atom_site_fract_y
_atom_site_fract_z
Si Si1 0.108000 0.056045 0.517599
Si Si2 0.715405 0.443465 0.848428
Si Si3 0.375990 0.299382 0.793304
Si Si4 0.611032 0.150301 0.733389
O O1 0.343127 0.090927 0.302029
O O2 0.000000 0.077026 0.500000
O O3 0.220557 0.000000 0.371459
O O4 0.863249 0.057813 0.904517
O O5 0.744844 0.500000 0.761017
O O6 0.000000 0.416201 0.500000
O O7 0.500000 0.416568 0.000000
O O8 0.500000 0.291605 0.500000
O O9 0.607328 0.321589 0.623072
O O10 0.250000 0.250000 0.000000
O O11 0.129253 0.338811 0.091092
O O12 0.500000 0.173625 0.000000
#
# Coordination Sequence:
#
# PCOD8108224 Si02
#       4
#     8   8   8   8
#     4  10  21  38  63  94 129 175 227 265 300 371
#     4   9  19  36  55  77 113 163 213 262 317 362
#     4  10  21  40  65  89 118 156 200 256 323 384
#     4  10  21  38  60  89 126 162 197 254 323 372
#
# _framework density 23.889911999999999
#
# number of rings (size 3 to 8) (size 9 to 14) (size 15 to 20)
#    0.000    2.250    0.000    3.000    0.000    4.500 
#    0.000   12.500    0.000    0.750    0.000    0.000 
#    0.000    0.000    0.000    0.000    0.000    0.000 
#
# Total GULP energy -198255.135247 kJ/mol
# GULP energy per Si atom -12390.945953 kJ/mol
# Density = 2.383554 g / cm^3
# Si number density = 23.889912 Si / 1000 Ang^3
#
#
#
# Elastic Constant Matrix: (Units=GPa)
#
#
# Indices 1 2 3 4 5 6 
#
# 1 88.7216 19.0913 68.5591 0.0001 -10.2406 -0.0001
# 2 19.0913 123.8902 48.5892 0.0000 -15.4386 0.0000
# 3 68.5591 48.5892 166.7331 0.0000 -40.7791 0.0002
# 4 0.0001 0.0000 0.0000 22.2716 -0.0001 -7.8168
# 5 -10.2406 -15.4386 -40.7791 -0.0001 42.7897 0.0000
# 6 -0.0001 0.0000 0.0002 -7.8168 0.0000 22.7074
#
#
#
# Elastic Compliance Matrix: (Units=1/GPa)
#
#
# Indices 1 2 3 4 5 6 
#
# 1 0.016883 0.000028 -0.007771 0.000000 -0.003355 0.000000
# 2 0.000028 0.009145 -0.002436 0.000000 0.000985 0.000000
# 3 -0.007771 -0.002436 0.012039 0.000000 0.008735 0.000000
# 4 0.000000 0.000000 0.000000 0.051071 0.000000 0.017580
# 5 -0.003355 0.000985 0.008735 0.000000 0.031247 0.000000
# 6 0.000000 0.000000 0.000000 0.017580 0.000000 0.050090
#
#
# Mechanical properties :
#
#
# Convention : Reuss Voigt Hill
#
# Bulk Modulus (GPa) = 56.46482 72.42490 64.44486
# Shear Modulus (GPa) = 25.41485 33.76075 29.58780
#
# Velocity S-wave (km/s) = 3.26518 3.76331 3.52306
# Velocity P-wave (km/s) = 6.15646 7.01892 6.60179
#
# Compressibility (1/GPa) = 0.01771014
#
# Stress axis : x y z
#
# Youngs Moduli (GPa) = 59.23212 109.34479 83.06341
#
# Poissons Ratio (x) = -0.00306 0.64546
# Poissons Ratio (y) = -0.00166 0.20232
# Poissons Ratio (z) = 0.46028 0.26633
#
# Static dielectric constant tensor:
#      x y z
#    x 9.336300 0.000020 -3.772350 
#    y 0.000020 4.003980 -0.000010 
#    z -3.772350 -0.000010 7.008820 
# 
# 
# High freq. dielectric constant tensor:
#      x y z
#    x 1.919690 0.000000 -0.017880 
#    y 0.000000 1.916230 0.000000 
#    z -0.017880 0.000000 1.966190 
# 
# From -- ./inp_files/150066.got.cif
#   From: 2010.06.25/outbox.cif.g09.slc.cpg/sg12_76_cif.got.tgz:150066.got - 2010.06.28 00:19:55.
