data_PCOD8108441
_publ_section_title
;
Structure prediction by ZEFSAII (Michael W. Deem and Ramdas Pophale) SiO2 
 PCOD8108441
Probable space group: C 2/M
;
_chemical_formula_sum "Si O2"
_cell_formula_units_Z 56
_cell_length_a 23.621380
_cell_length_b 19.369616
_cell_length_c 7.443767
_cell_angle_alpha 90.000000
_cell_angle_beta 50.629326
_cell_angle_gamma 90.000000
_cell_volume 2632.881562
_symmetry_space_group_name_H-M "C 2/M"
_symmetry_group_IT_number 12
_symmetry_cell_setting 'monoclinic'
loop_
_space_group_symop_operation_xyz
x,y,z
-x,y,-z
-x,-y,-z
x,-y,z
1/2+x,1/2+y,z
1/2-x,1/2+y,-z
1/2-x,1/2-y,-z
1/2+x,1/2-y,z
loop_
_atom_site_type_symbol
_atom_site_label
_atom_site_fract_x
_atom_site_fract_y
_atom_site_fract_z
Si Si1 0.142260 0.261061 0.853580
Si Si2 0.420878 0.814130 0.662417
Si Si3 0.739301 0.371842 0.371470
Si Si4 0.699813 0.075742 0.106508
Si Si5 0.512667 0.577402 0.265603
Si Si6 0.591927 0.697910 0.602662
Si Si7 0.179135 0.889156 0.858253
O O1 0.204463 0.314430 0.668420
O O2 0.090983 0.242245 0.787891
O O3 0.181529 0.193628 0.854938
O O4 0.091122 0.293124 0.108189
O O5 0.500000 0.851281 0.500000
O O6 0.359102 0.866781 0.717168
O O7 0.425117 0.745939 0.532153
O O8 0.671847 0.334191 0.408853
O O9 0.711282 0.415120 0.600830
O O10 0.778464 0.419842 0.146694
O O11 0.772325 0.082502 0.078632
O O12 0.665421 0.000000 0.206240
O O13 0.500000 0.590339 0.500000
O O14 0.485845 0.500000 0.265721
O O15 0.466544 0.635894 0.255010
O O16 0.597603 0.582990 0.045570
#
# Coordination Sequence:
#
# PCOD8108441 Si02
#       7
#     8   8   8   8   8   8   8
#     4  10  21  38  61  92 120 149 201 256 294 348
#     4  11  23  39  63  91 117 152 198 250 305 356
#     4  10  22  38  61  90 118 153 202 252 298 350
#     4  11  24  41  61  86 119 157 198 248 304 359
#     4  11  24  39  57  88 128 166 203 242 290 356
#     4  11  21  39  64  87 120 160 199 244 297 349
#     4  11  21  39  63  86 118 160 201 243 290 350
#
# _framework density 21.269472
#
# number of rings (size 3 to 8) (size 9 to 14) (size 15 to 20)
#    0.000    1.286    0.000    7.714    0.000   10.571 
#    0.000    7.143    0.000    2.571    0.000    6.000 
#    0.000    0.000    0.000    0.000    0.000    0.000 
#
# Total GULP energy -347234.502606 kJ/mol
# GULP energy per Si atom -12401.232236 kJ/mol
# Density = 2.122106 g / cm^3
# Si number density = 21.269472 Si / 1000 Ang^3
#
#
#
# Elastic Constant Matrix: (Units=GPa)
#
#
# Indices 1 2 3 4 5 6 
#
# 1 106.7161 46.6845 48.7826 0.0000 -14.6389 0.0000
# 2 46.6845 97.7673 56.0843 0.0000 -5.1191 0.0000
# 3 48.7826 56.0843 102.1027 0.0000 -11.3381 0.0000
# 4 0.0000 0.0000 0.0000 8.1230 0.0000 -5.9785
# 5 -14.6389 -5.1191 -11.3381 0.0000 31.6362 0.0000
# 6 0.0000 0.0000 0.0000 -5.9785 0.0000 -3.0003
#
#
#
# Elastic Compliance Matrix: (Units=1/GPa)
#
#
# Indices 1 2 3 4 5 6 
#
# 1 0.013423 -0.004057 -0.003716 0.000000 0.004223 0.000000
# 2 -0.004057 0.016169 -0.007146 0.000000 -0.001822 0.000000
# 3 -0.003716 -0.007146 0.015804 0.000000 0.002788 0.000000
# 4 0.000000 0.000000 0.000000 0.049910 0.000000 -0.099453
# 5 0.004223 -0.001822 0.002788 0.000000 0.034268 0.000000
# 6 0.000000 0.000000 0.000000 -0.099453 0.000000 -0.135126
#
#
# Mechanical properties :
#
#
# Convention : Reuss Voigt Hill
#
# Bulk Modulus (GPa) = 64.26877 67.74320 66.00599
# Shear Modulus (GPa) = 169.64830 17.68742 93.66786
#
# Velocity S-wave (km/s) = 8.94061 2.88685 6.64336
# Velocity P-wave (km/s) = 11.69878 6.55980 9.48400
#
# Compressibility (1/GPa) = 0.01555966
#
# Stress axis : x y z
#
# Youngs Moduli (GPa) = 74.49663 61.84549 63.27422
#
# Poissons Ratio (x) = 0.25090 0.23513
# Poissons Ratio (y) = 0.30223 0.45214
# Poissons Ratio (z) = 0.27683 0.44193
#
# Static dielectric constant tensor:
#      x y z
#    x 3.801240 0.000000 -0.012550 
#    y 0.000000 3.866950 0.000000 
#    z -0.012550 0.000000 4.082060 
# 
# 
# High freq. dielectric constant tensor:
#      x y z
#    x 1.831580 0.000000 0.004840 
#    y 0.000000 1.820800 0.000000 
#    z 0.004840 0.000000 1.848360 
# 
# From -- ./inp_files/105948.got.cif
#   From: 2010.06.25/outbox.cif.g09.slc.cpg/sg12_53_cif.got.tgz:105948.got - 2010.06.28 00:19:55.
