data_PCOD8108868
_publ_section_title
;
Structure prediction by ZEFSAII (Michael W. Deem and Ramdas Pophale) SiO2 
 PCOD8108868
Probable space group: C 2/M
;
_chemical_formula_sum "Si O2"
_cell_formula_units_Z 48
_cell_length_a 19.305180
_cell_length_b 8.590274
_cell_length_c 16.556527
_cell_angle_alpha 90.000000
_cell_angle_beta 111.933735
_cell_angle_gamma 90.000000
_cell_volume 2546.939158
_symmetry_space_group_name_H-M "C 2/M"
_symmetry_group_IT_number 12
_symmetry_cell_setting 'monoclinic'
loop_
_space_group_symop_operation_xyz
x,y,z
-x,y,-z
-x,-y,-z
x,-y,z
1/2+x,1/2+y,z
1/2-x,1/2+y,-z
1/2-x,1/2-y,-z
1/2+x,1/2-y,z
loop_
_atom_site_type_symbol
_atom_site_label
_atom_site_fract_x
_atom_site_fract_y
_atom_site_fract_z
Si Si1 0.167640 0.816265 0.970541
Si Si2 0.917787 0.318477 0.216400
Si Si3 0.425131 0.684605 0.734993
Si Si4 0.222301 0.316963 0.404240
Si Si5 0.295280 0.818371 0.287521
Si Si6 0.854022 0.182702 0.864160
O O1 0.114288 0.770094 0.874725
O O2 0.175114 0.000000 0.977122
O O3 0.250000 0.750000 0.000000
O O4 0.130800 0.753471 0.038824
O O5 0.910129 0.500000 0.195342
O O6 0.872952 0.274114 0.278201
O O7 0.002622 0.269621 0.268862
O O8 0.436590 0.500000 0.736368
O O9 0.354523 0.730207 0.650292
O O10 0.411398 0.746464 0.821192
O O11 0.208229 0.500000 0.403966
O O12 0.250000 0.250000 0.500000
O O13 0.285728 0.280734 0.364935
O O14 0.230345 0.772052 0.196511
O O15 0.291019 0.000000 0.308684
O O16 0.863472 0.000000 0.867537
#
# Coordination Sequence:
#
# PCOD8108868 Si02
#       6
#     8   8   8   8   8   8
#     4  11  20  33  53  80 111 151 199 242 283 330
#     4  11  22  37  55  82 118 154 189 235 288 333
#     4  10  21  39  59  82 114 151 188 232 286 337
#     4  11  22  39  64  91 114 142 182 227 276 338
#     4   9  18  36  58  80 112 151 187 228 282 337
#     4   8  16  33  54  75 106 151 192 230 280 331
#
# _framework density 18.846150999999999
#
# number of rings (size 3 to 8) (size 9 to 14) (size 15 to 20)
#    0.000    2.000    1.667    4.000    0.000    2.000 
#    0.000    6.667    0.000    5.000    0.000    0.000 
#    0.000    0.000    0.000    0.000    0.000    0.000 
#
# Total GULP energy -297545.409431 kJ/mol
# GULP energy per Si atom -12397.725393 kJ/mol
# Density = 1.880326 g / cm^3
# Si number density = 18.846151 Si / 1000 Ang^3
#
#
#
# Elastic Constant Matrix: (Units=GPa)
#
#
# Indices 1 2 3 4 5 6 
#
# 1 124.6759 15.1660 35.1561 0.0000 -7.2661 0.0000
# 2 15.1660 45.7151 10.6823 0.0000 -4.8476 0.0000
# 3 35.1561 10.6823 101.7225 0.0000 -7.5791 0.0000
# 4 0.0000 0.0000 0.0000 29.5946 0.0000 1.3793
# 5 -7.2661 -4.8476 -7.5791 0.0000 16.2971 0.0000
# 6 0.0000 0.0000 0.0000 1.3793 0.0000 31.5021
#
#
#
# Elastic Compliance Matrix: (Units=1/GPa)
#
#
# Indices 1 2 3 4 5 6 
#
# 1 0.009197 -0.002170 -0.002790 0.000000 0.002158 0.000000
# 2 -0.002170 0.023474 -0.001312 0.000000 0.005404 0.000000
# 3 -0.002790 -0.001312 0.011199 0.000000 0.003574 0.000000
# 4 0.000000 0.000000 0.000000 0.033859 0.000000 -0.001483
# 5 0.002158 0.005404 0.003574 0.000000 0.065592 0.000000
# 6 0.000000 0.000000 0.000000 -0.001483 0.000000 0.031809
#
#
# Mechanical properties :
#
#
# Convention : Reuss Voigt Hill
#
# Bulk Modulus (GPa) = 31.92327 43.79136 37.85731
# Shear Modulus (GPa) = 25.23751 29.55271 27.39511
#
# Velocity S-wave (km/s) = 3.66339 3.96422 3.81677
# Velocity P-wave (km/s) = 5.90504 6.65132 6.28926
#
# Compressibility (1/GPa) = 0.03132511
#
# Stress axis : x y z
#
# Youngs Moduli (GPa) = 108.72782 42.59956 89.29369
#
# Poissons Ratio (x) = 0.09246 0.24913
# Poissons Ratio (y) = 0.23599 0.11718
# Poissons Ratio (z) = 0.30335 0.05591
#
# Static dielectric constant tensor:
#      x y z
#    x 3.600160 0.000000 -0.287880 
#    y 0.000000 3.384920 0.000000 
#    z -0.287880 0.000000 3.589040 
# 
# 
# High freq. dielectric constant tensor:
#      x y z
#    x 1.733270 0.000000 -0.015780 
#    y 0.000000 1.725420 0.000000 
#    z -0.015780 0.000000 1.724020 
# 
# From -- ./inp_files/230347.got.cif
#   From: 2010.06.25/outbox.cif.g09.slc.cpg/sg12_116_cif.got.tgz:230347.got - 2010.06.28 00:19:55.
