data_PCOD8108810
_publ_section_title
;
Structure prediction by ZEFSAII (Michael W. Deem and Ramdas Pophale) SiO2 
 PCOD8108810
Probable space group: C 2/M
;
_chemical_formula_sum "Si O2"
_cell_formula_units_Z 40
_cell_length_a 19.017966
_cell_length_b 17.395456
_cell_length_c 5.469915
_cell_angle_alpha 90.000000
_cell_angle_beta 76.549400
_cell_angle_gamma 90.000000
_cell_volume 1759.955567
_symmetry_space_group_name_H-M "C 2/M"
_symmetry_group_IT_number 12
_symmetry_cell_setting 'monoclinic'
loop_
_space_group_symop_operation_xyz
x,y,z
-x,y,-z
-x,-y,-z
x,-y,z
1/2+x,1/2+y,z
1/2-x,1/2+y,-z
1/2-x,1/2-y,-z
1/2+x,1/2-y,z
loop_
_atom_site_type_symbol
_atom_site_label
_atom_site_fract_x
_atom_site_fract_y
_atom_site_fract_z
Si Si1 0.191990 0.709171 0.217389
Si Si2 0.418836 0.636370 0.092458
Si Si3 0.418723 0.816350 0.081338
Si Si4 0.841958 0.130859 0.636864
Si Si5 0.801056 0.412642 0.429480
O O1 0.164797 0.777751 0.414642
O O2 0.231347 0.638185 0.320673
O O3 0.250000 0.750000 0.000000
O O4 0.122422 0.673240 0.140837
O O5 0.419660 0.726945 0.148152
O O6 0.384106 0.596608 0.364459
O O7 0.500000 0.604772 0.000000
O O8 0.379444 0.615257 0.868508
O O9 0.375748 0.869264 0.308279
O O10 0.500000 0.848953 0.000000
O O11 0.762082 0.091571 0.723824
O O12 0.818465 0.500000 0.487902
#
# Coordination Sequence:
#
# PCOD8108810 Si02
#       5
#     8   8   8   8   8
#     4  11  21  41  67  92 127 176 225 281 333 390
#     4  10  21  38  68 101 129 163 220 284 341 394
#     4  10  22  39  61  93 132 173 216 274 331 401
#     4  11  21  39  67  95 130 172 222 279 334 396
#     4  12  25  40  62  95 132 177 227 274 333 402
#
# _framework density 22.727847000000001
#
# number of rings (size 3 to 8) (size 9 to 14) (size 15 to 20)
#    0.000    1.200    4.000    3.600    0.000    2.000 
#    0.000    1.000    0.000    3.600    0.000    0.000 
#    0.000    0.000    0.000    0.000    0.000    0.000 
#
# Total GULP energy -247823.853628 kJ/mol
# GULP energy per Si atom -12391.192681 kJ/mol
# Density = 2.267612 g / cm^3
# Si number density = 22.727847 Si / 1000 Ang^3
#
#
#
# Elastic Constant Matrix: (Units=GPa)
#
#
# Indices 1 2 3 4 5 6 
#
# 1 173.0163 24.3493 61.6732 0.0000 -6.5184 0.0000
# 2 24.3493 77.1978 25.5459 0.0000 10.0182 0.0000
# 3 61.6732 25.5459 132.7257 0.0000 -8.9846 0.0000
# 4 0.0000 0.0000 0.0000 11.9348 0.0000 -0.7725
# 5 -6.5184 10.0182 -8.9846 0.0000 24.8925 0.0000
# 6 0.0000 0.0000 0.0000 -0.7725 0.0000 2.6752
#
#
#
# Elastic Compliance Matrix: (Units=1/GPa)
#
#
# Indices 1 2 3 4 5 6 
#
# 1 0.007075 -0.001446 -0.002915 0.000000 0.001382 0.000000
# 2 -0.001446 0.015311 -0.002786 0.000000 -0.007546 0.000000
# 3 -0.002915 -0.002786 0.009686 0.000000 0.003854 0.000000
# 4 0.000000 0.000000 0.000000 0.085384 0.000000 0.024655
# 5 0.001382 -0.007546 0.003854 0.000000 0.044963 0.000000
# 6 0.000000 0.000000 0.000000 0.024655 0.000000 0.380920
#
#
# Mechanical properties :
#
#
# Convention : Reuss Voigt Hill
#
# Bulk Modulus (GPa) = 56.25218 67.34185 61.79701
# Shear Modulus (GPa) = 8.87219 25.99194 17.43206
#
# Velocity S-wave (km/s) = 1.97791 3.38541 2.77247
# Velocity P-wave (km/s) = 5.47907 6.70636 6.12354
#
# Compressibility (1/GPa) = 0.01777709
#
# Stress axis : x y z
#
# Youngs Moduli (GPa) = 141.35028 65.31251 103.24060
#
# Poissons Ratio (x) = 0.09445 0.30099
# Poissons Ratio (y) = 0.20440 0.28761
# Poissons Ratio (z) = 0.41210 0.18195
#
# Static dielectric constant tensor:
#      x y z
#    x 4.521440 0.000000 -0.001690 
#    y 0.000000 3.741240 0.000000 
#    z -0.001690 0.000000 4.079890 
# 
# 
# High freq. dielectric constant tensor:
#      x y z
#    x 1.906630 0.000000 -0.001280 
#    y 0.000000 1.852970 0.000000 
#    z -0.001280 0.000000 1.898530 
# 
# From -- ./inp_files/15282.got.cif
#   From: 2010.06.25/outbox.cif.g09.slc.cpg/sg12_8_cif.got.tgz:15282.got - 2010.06.28 00:19:55.
