data_PCOD8108249
_publ_section_title
;
Structure prediction by ZEFSAII (Michael W. Deem and Ramdas Pophale) SiO2 
 PCOD8108249
Probable space group: C 2/M
;
_chemical_formula_sum "Si O2"
_cell_formula_units_Z 32
_cell_length_a 14.758982
_cell_length_b 14.758814
_cell_length_c 19.515219
_cell_angle_alpha 90.000000
_cell_angle_beta 21.876624
_cell_angle_gamma 90.000000
_cell_volume 1583.925942
_symmetry_space_group_name_H-M "C 2/M"
_symmetry_group_IT_number 12
_symmetry_cell_setting 'monoclinic'
loop_
_space_group_symop_operation_xyz
x,y,z
-x,y,-z
-x,-y,-z
x,-y,z
1/2+x,1/2+y,z
1/2-x,1/2+y,-z
1/2-x,1/2-y,-z
1/2+x,1/2-y,z
loop_
_atom_site_type_symbol
_atom_site_label
_atom_site_fract_x
_atom_site_fract_y
_atom_site_fract_z
Si Si1 0.052982 0.679397 0.162085
Si Si2 0.051611 0.743445 0.540272
Si Si3 0.670243 0.104135 0.817307
Si Si4 0.772515 0.603666 0.825388
O O1 0.177333 0.611978 0.128984
O O2 0.835925 0.735745 0.350506
O O3 0.964325 0.620968 0.159942
O O4 0.250000 0.750000 0.000000
O O5 0.000000 0.708970 0.500000
O O6 0.911605 0.836689 0.653802
O O7 0.969938 0.663431 0.647295
O O8 0.750929 0.000000 0.765213
O O9 0.500000 0.131510 0.000000
O O10 0.802658 0.500000 0.780834
O O11 0.500000 0.638545 0.000000
#
# Coordination Sequence:
#
# PCOD8108249 Si02
#       4
#     8   8   8   8
#     4  11  22  38  60  85 118 156 193 236 290 344
#     4  10  21  38  61  84 113 152 193 242 292 339
#     4  10  21  38  62  90 117 146 189 245 298 346
#     4  11  23  39  59  85 119 157 195 234 281 344
#
# _framework density 20.202964999999999
#
# number of rings (size 3 to 8) (size 9 to 14) (size 15 to 20)
#    0.000    1.500    0.000    6.750    0.000    6.000 
#    0.000    5.000    0.000    0.000    0.000    0.000 
#    0.000    0.000    0.000    0.000    0.000    0.000 
#
# Total GULP energy -198483.435892 kJ/mol
# GULP energy per Si atom -12405.214743 kJ/mol
# Density = 2.015698 g / cm^3
# Si number density = 20.202965 Si / 1000 Ang^3
#
#
#
# Elastic Constant Matrix: (Units=GPa)
#
#
# Indices 1 2 3 4 5 6 
#
# 1 99.6791 36.5433 50.3762 -0.0129 4.3701 -0.0063
# 2 36.5433 98.8125 57.3558 -0.0335 7.8793 0.0085
# 3 50.3762 57.3558 146.9201 -0.0764 -0.1895 -0.0162
# 4 -0.0129 -0.0335 -0.0764 8.2822 -0.0002 11.3630
# 5 4.3701 7.8793 -0.1895 -0.0002 35.2510 -0.0058
# 6 -0.0063 0.0085 -0.0162 11.3630 -0.0058 26.2394
#
#
#
# Elastic Compliance Matrix: (Units=1/GPa)
#
#
# Indices 1 2 3 4 5 6 
#
# 1 0.012744 -0.002711 -0.003312 -0.000059 -0.000992 0.000027
# 2 -0.002711 0.013977 -0.004530 0.000055 -0.002812 -0.000032
# 3 -0.003312 -0.004530 0.009713 0.000139 0.001475 -0.000053
# 4 -0.000059 0.000055 0.000139 0.297490 -0.000024 -0.128828
# 5 -0.000992 -0.002812 0.001475 -0.000024 0.029128 0.000018
# 6 0.000027 -0.000032 -0.000053 -0.128828 0.000018 0.093899
#
#
# Mechanical properties :
#
#
# Convention : Reuss Voigt Hill
#
# Bulk Modulus (GPa) = 65.25184 70.44026 67.84605
# Shear Modulus (GPa) = 10.34841 27.36361 18.85601
#
# Velocity S-wave (km/s) = 2.26569 3.68426 3.05836
# Velocity P-wave (km/s) = 6.26201 7.28288 6.79165
#
# Compressibility (1/GPa) = 0.01532524
#
# Stress axis : x y z
#
# Youngs Moduli (GPa) = 78.47032 71.54744 102.95725
#
# Poissons Ratio (x) = 0.19398 0.34104
# Poissons Ratio (y) = 0.21274 0.46643
# Poissons Ratio (z) = 0.25993 0.32413
#
# Static dielectric constant tensor:
#      x y z
#    x 2.767220 0.000210 0.127980 
#    y 0.000210 3.507530 0.000270 
#    z 0.127980 0.000270 3.806970 
# 
# 
# High freq. dielectric constant tensor:
#      x y z
#    x 1.802200 0.000000 0.004450 
#    y 0.000000 1.785500 0.000030 
#    z 0.004450 0.000030 1.796630 
# 
# From -- ./inp_files/56793.got.cif
#   From: 2010.06.25/outbox.cif.g09.slc.cpg/sg12_29_cif.got.tgz:56793.got - 2010.06.28 00:19:55.
