data_PCOD8108268
_publ_section_title
;
Structure prediction by ZEFSAII (Michael W. Deem and Ramdas Pophale) SiO2 
 PCOD8108268
Probable space group: C 2/M
;
_chemical_formula_sum "Si O2"
_cell_formula_units_Z 56
_cell_length_a 20.133455
_cell_length_b 8.699531
_cell_length_c 16.355420
_cell_angle_alpha 90.000000
_cell_angle_beta 91.776930
_cell_angle_gamma 90.000000
_cell_volume 2863.300695
_symmetry_space_group_name_H-M "C 2/M"
_symmetry_group_IT_number 12
_symmetry_cell_setting 'monoclinic'
loop_
_space_group_symop_operation_xyz
x,y,z
-x,y,-z
-x,-y,-z
x,-y,z
1/2+x,1/2+y,z
1/2-x,1/2+y,-z
1/2-x,1/2-y,-z
1/2+x,1/2-y,z
loop_
_atom_site_type_symbol
_atom_site_label
_atom_site_fract_x
_atom_site_fract_y
_atom_site_fract_z
Si Si1 0.676851 0.817841 0.486599
Si Si2 0.631992 0.182426 0.307962
Si Si3 0.878430 0.181920 0.358041
Si Si4 0.264079 0.317610 0.234125
Si Si5 0.511493 0.182396 0.752176
Si Si6 0.305337 0.682204 0.059991
Si Si7 0.946116 0.318692 0.064775
O O1 0.750000 0.750000 0.500000
O O2 0.644876 0.759484 0.400482
O O3 0.625934 0.760183 0.553714
O O4 0.683083 0.000000 0.488909
O O5 0.690750 0.246092 0.251832
O O6 0.562693 0.242814 0.269172
O O7 0.632822 0.000000 0.306878
O O8 0.813887 0.238502 0.306186
O O9 0.943325 0.237053 0.313371
O O10 0.880558 0.000000 0.368550
O O11 0.263841 0.500000 0.230258
O O12 0.289365 0.251141 0.149268
O O13 0.531117 0.235741 0.844213
O O14 0.517476 0.000000 0.743116
O O15 0.302608 0.500000 0.056787
O O16 0.377868 0.738216 0.036178
O O17 0.250000 0.750000 0.000000
O O18 0.935379 0.500000 0.061774
O O19 0.000000 0.266369 0.000000
#
# Coordination Sequence:
#
# PCOD8108268 Si02
#       7
#     8   8   8   8   8   8   8
#     4  11  21  36  59  88 119 152 198 247 296 348
#     4   9  19  36  59  85 113 152 197 238 286 350
#     4  11  21  38  61  84 117 157 196 239 296 351
#     4   9  18  35  60  84 111 153 197 236 285 346
#     4  10  21  38  61  86 115 153 199 242 288 352
#     4  11  23  39  62  90 122 157 197 244 295 353
#     4  10  22  39  61  89 120 155 198 248 301 358
#
# _framework density 19.557848
#
# number of rings (size 3 to 8) (size 9 to 14) (size 15 to 20)
#    0.000    1.857    2.857    1.286    2.000    0.857 
#    0.000    4.286    0.000    0.000    0.000    0.000 
#    0.000    0.000    0.000    0.000    0.000    0.000 
#
# Total GULP energy -347244.076023 kJ/mol
# GULP energy per Si atom -12401.574144 kJ/mol
# Density = 1.951333 g / cm^3
# Si number density = 19.557848 Si / 1000 Ang^3
#
#
#
# Elastic Constant Matrix: (Units=GPa)
#
#
# Indices 1 2 3 4 5 6 
#
# 1 169.2676 32.4166 65.8934 0.0000 -3.4313 0.0000
# 2 32.4166 42.7299 28.3601 0.0000 -1.2527 0.0000
# 3 65.8934 28.3601 121.8395 0.0000 -12.4687 0.0000
# 4 0.0000 0.0000 0.0000 23.6168 0.0000 -1.5092
# 5 -3.4313 -1.2527 -12.4687 0.0000 42.5844 0.0000
# 6 0.0000 0.0000 0.0000 -1.5092 0.0000 31.4481
#
#
#
# Elastic Compliance Matrix: (Units=1/GPa)
#
#
# Indices 1 2 3 4 5 6 
#
# 1 0.007974 -0.003747 -0.003491 0.000000 -0.000490 0.000000
# 2 -0.003747 0.029490 -0.004928 0.000000 -0.000877 0.000000
# 3 -0.003491 -0.004928 0.011545 0.000000 0.002954 0.000000
# 4 0.000000 0.000000 0.000000 0.042473 0.000000 0.002038
# 5 -0.000490 -0.000877 0.002954 0.000000 0.024282 0.000000
# 6 0.000000 0.000000 0.000000 0.002038 0.000000 0.031896
#
#
# Mechanical properties :
#
#
# Convention : Reuss Voigt Hill
#
# Bulk Modulus (GPa) = 40.52108 65.24191 52.88150
# Shear Modulus (GPa) = 27.74419 33.34099 30.54259
#
# Velocity S-wave (km/s) = 3.77048 4.13333 3.95606
# Velocity P-wave (km/s) = 6.30229 7.49733 6.92564
#
# Compressibility (1/GPa) = 0.02467851
#
# Stress axis : x y z
#
# Youngs Moduli (GPa) = 125.40195 33.90938 86.62092
#
# Poissons Ratio (x) = 0.12707 0.30236
# Poissons Ratio (y) = 0.46992 0.42682
# Poissons Ratio (z) = 0.43772 0.16709
#
# Static dielectric constant tensor:
#      x y z
#    x 3.724300 0.000000 -0.017800 
#    y 0.000000 3.288670 0.000000 
#    z -0.017800 0.000000 3.809950 
# 
# 
# High freq. dielectric constant tensor:
#      x y z
#    x 1.772880 0.000000 -0.005810 
#    y 0.000000 1.734880 0.000000 
#    z -0.005810 0.000000 1.774920 
# 
# From -- ./inp_files/231014.got.cif
#   From: 2010.06.25/outbox.cif.g09.slc.cpg/sg12_116_cif.got.tgz:231014.got - 2010.06.28 00:19:55.
