data_PCOD8108404
_publ_section_title
;
Structure prediction by ZEFSAII (Michael W. Deem and Ramdas Pophale) SiO2 
 PCOD8108404
Probable space group: C 2/M
;
_chemical_formula_sum "Si O2"
_cell_formula_units_Z 64
_cell_length_a 14.314958
_cell_length_b 25.369652
_cell_length_c 9.509220
_cell_angle_alpha 90.000000
_cell_angle_beta 108.810903
_cell_angle_gamma 90.000000
_cell_volume 3268.966275
_symmetry_space_group_name_H-M "C 2/M"
_symmetry_group_IT_number 12
_symmetry_cell_setting 'monoclinic'
loop_
_space_group_symop_operation_xyz
x,y,z
-x,y,-z
-x,-y,-z
x,-y,z
1/2+x,1/2+y,z
1/2-x,1/2+y,-z
1/2-x,1/2-y,-z
1/2+x,1/2-y,z
loop_
_atom_site_type_symbol
_atom_site_label
_atom_site_fract_x
_atom_site_fract_y
_atom_site_fract_z
Si Si1 0.903649 0.175931 0.047561
Si Si2 0.286681 0.853388 0.182529
Si Si3 0.172985 0.718933 0.554125
Si Si4 0.579849 0.941772 0.647206
Si Si5 0.094584 0.176893 0.623113
Si Si6 0.388370 0.204750 0.990012
Si Si7 0.810667 0.651883 0.688275
Si Si8 0.056789 0.558288 0.160161
O O1 0.922905 0.165305 0.220582
O O2 0.863776 0.235435 0.017837
O O3 0.817409 0.137371 0.947372
O O4 0.000000 0.166252 0.000000
O O5 0.270099 0.809343 0.292265
O O6 0.324323 0.905384 0.282808
O O7 0.368598 0.834015 0.110968
O O8 0.250000 0.750000 0.500000
O O9 0.095390 0.760303 0.583122
O O10 0.131280 0.675371 0.421293
O O11 0.500000 0.916913 0.500000
O O12 0.527400 0.948219 0.768252
O O13 0.614177 0.000000 0.609343
O O14 0.192319 0.147830 0.609783
O O15 0.000000 0.151719 0.500000
O O16 0.500000 0.196622 0.000000
O O17 0.319683 0.191229 0.824588
O O18 0.853708 0.594690 0.744962
O O19 0.100058 0.500000 0.144154
O O20 0.000000 0.583935 0.000000
#
# Coordination Sequence:
#
# PCOD8108404 Si02
#       8
#     8   8   8   8   8   8   8   8
#     4  11  24  38  57  82 117 158 202 242 284 338
#     4  12  21  39  62  83 116 163 197 237 293 350
#     4  10  23  35  55  81 116 152 197 236 282 340
#     4  10  22  39  60  91 122 148 187 240 297 354
#     4  11  24  38  53  80 119 156 196 244 287 338
#     4  11  22  35  58  85 116 154 196 241 285 351
#     4  11  21  37  57  84 116 154 194 234 290 354
#     4  10  21  38  61  90 118 143 184 241 297 354
#
# _framework density 19.578054000000002
#
# number of rings (size 3 to 8) (size 9 to 14) (size 15 to 20)
#    0.000    1.250    2.500    4.500    7.000    1.500 
#    0.000    0.000    0.000    0.750    0.000    0.000 
#    0.000    0.000    0.000    0.000    0.000    0.000 
#
# Total GULP energy -396661.817225 kJ/mol
# GULP energy per Si atom -12395.681788 kJ/mol
# Density = 1.953349 g / cm^3
# Si number density = 19.578054 Si / 1000 Ang^3
#
#
#
# Elastic Constant Matrix: (Units=GPa)
#
#
# Indices 1 2 3 4 5 6 
#
# 1 87.1984 36.0690 37.8858 0.0000 14.8593 0.0000
# 2 36.0690 76.6788 33.9965 0.0000 19.6827 0.0000
# 3 37.8858 33.9965 135.1728 0.0000 6.7810 0.0000
# 4 0.0000 0.0000 0.0000 30.9127 0.0000 7.2960
# 5 14.8593 19.6827 6.7810 0.0000 40.9337 0.0000
# 6 0.0000 0.0000 0.0000 7.2960 0.0000 24.3304
#
#
#
# Elastic Compliance Matrix: (Units=1/GPa)
#
#
# Indices 1 2 3 4 5 6 
#
# 1 0.015325 -0.005298 -0.002835 0.000000 -0.002546 0.000000
# 2 -0.005298 0.018452 -0.002831 0.000000 -0.006480 0.000000
# 3 -0.002835 -0.002831 0.008858 0.000000 0.000923 0.000000
# 4 0.000000 0.000000 0.000000 0.034813 0.000000 -0.010439
# 5 -0.002546 -0.006480 0.000923 0.000000 0.028317 0.000000
# 6 0.000000 0.000000 0.000000 -0.010439 0.000000 0.044231
#
#
# Mechanical properties :
#
#
# Convention : Reuss Voigt Hill
#
# Bulk Modulus (GPa) = 48.29199 57.21697 52.75448
# Shear Modulus (GPa) = 27.95981 31.97526 29.96754
#
# Velocity S-wave (km/s) = 3.78315 4.04570 3.91662
# Velocity P-wave (km/s) = 6.61837 7.14927 6.88894
#
# Compressibility (1/GPa) = 0.02070737
#
# Stress axis : x y z
#
# Youngs Moduli (GPa) = 65.25123 54.19401 112.89011
#
# Poissons Ratio (x) = 0.28715 0.32005
# Poissons Ratio (y) = 0.34573 0.31956
# Poissons Ratio (z) = 0.18499 0.15341
#
# Static dielectric constant tensor:
#      x y z
#    x 3.411400 0.000000 -0.067240 
#    y 0.000000 3.757780 0.000000 
#    z -0.067240 0.000000 4.217320 
# 
# 
# High freq. dielectric constant tensor:
#      x y z
#    x 1.745630 0.000000 -0.010400 
#    y 0.000000 1.729550 0.000000 
#    z -0.010400 0.000000 1.789070 
# 
# From -- ./inp_files/67036.got.cif
#   From: 2010.06.25/outbox.cif.g09.slc.cpg/sg12_34_cif.got.tgz:67036.got - 2010.06.28 00:19:55.
