data_PCOD8108703
_publ_section_title
;
Structure prediction by ZEFSAII (Michael W. Deem and Ramdas Pophale) SiO2 
 PCOD8108703
Probable space group: C 2/M
;
_chemical_formula_sum "Si O2"
_cell_formula_units_Z 60
_cell_length_a 13.499375
_cell_length_b 18.748687
_cell_length_c 26.715018
_cell_angle_alpha 90.000000
_cell_angle_beta 153.301912
_cell_angle_gamma 90.000000
_cell_volume 3037.847422
_symmetry_space_group_name_H-M "C 2/M"
_symmetry_group_IT_number 12
_symmetry_cell_setting 'monoclinic'
loop_
_space_group_symop_operation_xyz
x,y,z
-x,y,-z
-x,-y,-z
x,-y,z
1/2+x,1/2+y,z
1/2-x,1/2+y,-z
1/2-x,1/2-y,-z
1/2+x,1/2-y,z
loop_
_atom_site_type_symbol
_atom_site_label
_atom_site_fract_x
_atom_site_fract_y
_atom_site_fract_z
Si Si1 0.500000 0.851613 0.000000
Si Si2 0.422762 0.844724 0.787715
Si Si3 0.037980 0.206405 0.777285
Si Si4 0.860342 0.081009 0.756476
Si Si5 0.199797 0.581438 0.992390
Si Si6 0.420315 0.148514 0.591941
Si Si7 0.992554 0.804496 0.644161
Si Si8 0.744376 0.917248 0.384009
O O1 0.301246 0.799310 0.895978
O O2 0.433298 0.900226 0.017078
O O3 0.467070 0.768138 0.783251
O O4 0.225056 0.841636 0.738524
O O5 0.363419 0.901798 0.718360
O O6 0.633142 0.870256 0.914742
O O7 0.955599 0.219788 0.684306
O O8 0.924297 0.131900 0.739955
O O9 0.611745 0.095493 0.661214
O O10 0.037684 0.093762 0.881279
O O11 0.877060 0.000000 0.744685
O O12 0.146454 0.500000 0.954873
O O13 0.489714 0.230178 0.612542
O O14 0.377570 0.131339 0.630525
O O15 0.195546 0.139327 0.458415
O O16 0.000000 0.895477 0.500000
O O17 0.712735 0.000000 0.383107
#
# Coordination Sequence:
#
# PCOD8108703 Si02
#       8
#     4   8   8   8   8   8   8   8
#     4  10  21  38  64  90 121 164 206 256 313 372
#     4  12  22  41  64  91 126 158 209 264 310 369
#     4  11  23  40  63  93 126 161 209 261 310 373
#     4  10  23  43  63  90 127 169 205 253 318 373
#     4  10  22  40  64  91 125 165 208 259 315 375
#     4  11  22  41  65  86 126 167 206 251 311 376
#     4  11  23  39  63  95 119 161 209 257 311 368
#     4  11  23  39  60  90 123 163 207 253 309 367
#
# _framework density 19.750826
#
# number of rings (size 3 to 8) (size 9 to 14) (size 15 to 20)
#    0.000    1.200    5.333    1.000    0.000    4.267 
#    0.000    2.000    0.000    2.400    0.000    0.000 
#    0.000    0.000    0.000    0.000    0.000    0.000 
#
# Total GULP energy -372026.487718 kJ/mol
# GULP energy per Si atom -12400.882924 kJ/mol
# Density = 1.970587 g / cm^3
# Si number density = 19.750826 Si / 1000 Ang^3
#
#
#
# Elastic Constant Matrix: (Units=GPa)
#
#
# Indices 1 2 3 4 5 6 
#
# 1 82.3936 30.2016 40.6690 -0.0029 -2.1475 0.0005
# 2 30.2016 84.8535 41.7616 0.0022 1.6308 -0.0006
# 3 40.6690 41.7616 93.0997 0.0074 4.1724 0.0020
# 4 -0.0029 0.0022 0.0074 28.5192 0.0004 -1.2742
# 5 -2.1475 1.6308 4.1724 0.0004 37.8219 0.0002
# 6 0.0005 -0.0006 0.0020 -1.2742 0.0002 24.4420
#
#
#
# Elastic Compliance Matrix: (Units=1/GPa)
#
#
# Indices 1 2 3 4 5 6 
#
# 1 0.016115 -0.002908 -0.005810 0.000003 0.001681 0.000000
# 2 -0.002908 0.015649 -0.005740 0.000000 -0.000207 0.000001
# 3 -0.005810 -0.005740 0.015936 -0.000004 -0.001840 -0.000002
# 4 0.000003 0.000000 -0.000004 0.035146 0.000000 0.001832
# 5 0.001681 -0.000207 -0.001840 0.000000 0.026747 0.000000
# 6 0.000000 0.000001 -0.000002 0.001832 0.000000 0.041009
#
#
# Mechanical properties :
#
#
# Convention : Reuss Voigt Hill
#
# Bulk Modulus (GPa) = 53.23891 53.95677 53.59784
# Shear Modulus (GPa) = 26.91355 28.00428 27.45892
#
# Velocity S-wave (km/s) = 3.69542 3.76956 3.73267
# Velocity P-wave (km/s) = 6.72473 6.80618 6.76558
#
# Compressibility (1/GPa) = 0.01878325
#
# Stress axis : x y z
#
# Youngs Moduli (GPa) = 62.05552 63.90118 62.74915
#
# Poissons Ratio (x) = 0.18585 0.36458
# Poissons Ratio (y) = 0.18048 0.36018
# Poissons Ratio (z) = 0.36055 0.36679
#
# Static dielectric constant tensor:
#      x y z
#    x 3.447660 0.000000 0.105340 
#    y 0.000000 3.490510 -0.000010 
#    z 0.105340 -0.000010 3.727960 
# 
# 
# High freq. dielectric constant tensor:
#      x y z
#    x 1.762980 0.000000 0.003360 
#    y 0.000000 1.769900 0.000000 
#    z 0.003360 0.000000 1.777940 
# 
# From -- ./inp_files/336885.got.cif
#   From: 2010.06.25/outbox.cif.g09.slc.cpg/sg12_169_cif.got.tgz:336885.got - 2010.06.28 00:19:55.
