data_PCOD8108314
_publ_section_title
;
Structure prediction by ZEFSAII (Michael W. Deem and Ramdas Pophale) SiO2 
 PCOD8108314
Probable space group: C 2/M
;
_chemical_formula_sum "Si O2"
_cell_formula_units_Z 48
_cell_length_a 14.450230
_cell_length_b 13.924222
_cell_length_c 12.144927
_cell_angle_alpha 90.000000
_cell_angle_beta 111.794922
_cell_angle_gamma 90.000000
_cell_volume 2268.983194
_symmetry_space_group_name_H-M "C 2/M"
_symmetry_group_IT_number 12
_symmetry_cell_setting 'monoclinic'
loop_
_space_group_symop_operation_xyz
x,y,z
-x,y,-z
-x,-y,-z
x,-y,z
1/2+x,1/2+y,z
1/2-x,1/2+y,-z
1/2-x,1/2-y,-z
1/2+x,1/2-y,z
loop_
_atom_site_type_symbol
_atom_site_label
_atom_site_fract_x
_atom_site_fract_y
_atom_site_fract_z
Si Si1 0.762710 0.612995 0.834567
Si Si2 0.412681 0.732486 0.876461
Si Si3 0.906928 0.610239 0.312799
Si Si4 0.744680 0.608555 0.073623
Si Si5 0.092597 0.738763 0.360808
Si Si6 0.684310 0.282465 0.607778
O O1 0.774925 0.500000 0.833678
O O2 0.870859 0.658479 0.853856
O O3 0.675469 0.649152 0.712082
O O4 0.735858 0.649492 0.945822
O O5 0.321748 0.665921 0.869990
O O6 0.446564 0.705467 0.766216
O O7 0.500000 0.717721 0.000000
O O8 0.910608 0.500000 0.356451
O O9 0.857928 0.614835 0.168791
O O10 0.839465 0.672482 0.367385
O O11 0.018604 0.651468 0.356102
O O12 0.705337 0.500000 0.056058
O O13 0.204195 0.700435 0.387538
O O14 0.104746 0.807579 0.474733
#
# Coordination Sequence:
#
# PCOD8108314 Si02
#       6
#     8   8   8   8   8   8
#     4  10  21  38  61  87 122 166 209 257 313 376
#     4  11  22  37  64  92 128 165 206 264 332 378
#     4  11  22  40  69 101 129 164 216 272 323 375
#     4  10  21  39  63  93 124 163 216 266 317 382
#     4  10  22  38  59  95 128 168 208 258 312 387
#     4  10  22  41  61  88 137 172 206 256 324 382
#
# _framework density 21.154851000000001
#
# number of rings (size 3 to 8) (size 9 to 14) (size 15 to 20)
#    0.000    1.667    3.333    2.000    2.333    4.667 
#    0.000    5.000    0.000    3.000    0.000    0.000 
#    0.000    0.000    0.000    0.000    0.000    0.000 
#
# Total GULP energy -297341.062814 kJ/mol
# GULP energy per Si atom -12389.210951 kJ/mol
# Density = 2.110670 g / cm^3
# Si number density = 21.154851 Si / 1000 Ang^3
#
#
#
# Elastic Constant Matrix: (Units=GPa)
#
#
# Indices 1 2 3 4 5 6 
#
# 1 88.0293 45.3880 33.7289 0.0000 4.3408 0.0000
# 2 45.3880 62.3752 26.2977 0.0000 4.7261 0.0000
# 3 33.7289 26.2977 160.4287 0.0000 18.9073 0.0000
# 4 0.0000 0.0000 0.0000 26.4361 0.0000 6.5534
# 5 4.3408 4.7261 18.9073 0.0000 26.9412 0.0000
# 6 0.0000 0.0000 0.0000 6.5534 0.0000 16.4763
#
#
#
# Elastic Compliance Matrix: (Units=1/GPa)
#
#
# Indices 1 2 3 4 5 6 
#
# 1 0.018673 -0.012834 -0.001889 0.000000 0.000569 0.000000
# 2 -0.012834 0.026075 -0.001396 0.000000 -0.001527 0.000000
# 3 -0.001889 -0.001396 0.007407 0.000000 -0.004649 0.000000
# 4 0.000000 0.000000 0.000000 0.041965 0.000000 -0.016691
# 5 0.000569 -0.001527 -0.004649 0.000000 0.040557 0.000000
# 6 0.000000 0.000000 0.000000 -0.016691 0.000000 0.067332
#
#
# Mechanical properties :
#
#
# Convention : Reuss Voigt Hill
#
# Bulk Modulus (GPa) = 50.20910 57.96249 54.08579
# Shear Modulus (GPa) = 20.75667 27.66531 24.21099
#
# Velocity S-wave (km/s) = 3.13577 3.62021 3.38666
# Velocity P-wave (km/s) = 6.07424 6.70322 6.39647
#
# Compressibility (1/GPa) = 0.01991671
#
# Stress axis : x y z
#
# Youngs Moduli (GPa) = 53.55336 38.35054 135.00346
#
# Poissons Ratio (x) = 0.49220 0.25503
# Poissons Ratio (y) = 0.68732 0.18847
# Poissons Ratio (z) = 0.10116 0.05354
#
# Static dielectric constant tensor:
#      x y z
#    x 3.655820 0.000000 -0.064410 
#    y 0.000000 3.593620 0.000000 
#    z -0.064410 0.000000 4.782690 
# 
# 
# High freq. dielectric constant tensor:
#      x y z
#    x 1.809840 0.000000 -0.001670 
#    y 0.000000 1.792720 0.000000 
#    z -0.001670 0.000000 1.869630 
# 
# From -- ./inp_files/143162.got.cif
#   From: 2010.06.25/outbox.cif.g09.slc.cpg/sg12_72_cif.got.tgz:143162.got - 2010.06.28 00:19:55.
