data_PCOD8108328
_publ_section_title
;
Structure prediction by ZEFSAII (Michael W. Deem and Ramdas Pophale) SiO2 
 PCOD8108328
Probable space group: C 2/M
;
_chemical_formula_sum "Si O2"
_cell_formula_units_Z 56
_cell_length_a 19.964800
_cell_length_b 9.010804
_cell_length_c 19.274978
_cell_angle_alpha 90.000000
_cell_angle_beta 123.012215
_cell_angle_gamma 90.000000
_cell_volume 2907.727200
_symmetry_space_group_name_H-M "C 2/M"
_symmetry_group_IT_number 12
_symmetry_cell_setting 'monoclinic'
loop_
_space_group_symop_operation_xyz
x,y,z
-x,y,-z
-x,-y,-z
x,-y,z
1/2+x,1/2+y,z
1/2-x,1/2+y,-z
1/2-x,1/2-y,-z
1/2+x,1/2-y,z
loop_
_atom_site_type_symbol
_atom_site_label
_atom_site_fract_x
_atom_site_fract_y
_atom_site_fract_z
Si Si1 0.486244 0.175957 0.068982
Si Si2 0.332479 0.825895 0.064048
Si Si3 0.119105 0.831236 0.772161
Si Si4 0.385475 0.827185 0.748003
Si Si5 0.562399 0.672625 0.360492
Si Si6 0.795851 0.830874 0.320239
Si Si7 0.416803 0.175002 0.486227
O O1 0.398718 0.224874 0.045505
O O2 0.552786 0.236863 0.159997
O O3 0.494104 0.000000 0.070375
O O4 0.500000 0.243922 0.000000
O O5 0.362175 0.782471 0.156613
O O6 0.319490 0.000000 0.054037
O O7 0.250000 0.750000 0.000000
O O8 0.182311 0.802398 0.747231
O O9 0.031738 0.796249 0.693746
O O10 0.124799 0.000000 0.803280
O O11 0.395066 0.738979 0.682504
O O12 0.297470 0.798178 0.726888
O O13 0.402091 0.000000 0.742857
O O14 0.582631 0.500000 0.375596
O O15 0.598452 0.749936 0.448451
O O16 0.843986 0.719414 0.395925
O O17 0.816880 0.000000 0.353409
O O18 0.500000 0.231387 0.500000
O O19 0.417572 0.000000 0.497002
#
# Coordination Sequence:
#
# PCOD8108328 Si02
#       7
#     8   8   8   8   8   8   8
#     4   9  19  36  60  86 114 152 195 238 285 344
#     4  11  23  38  61  89 120 154 194 246 294 347
#     4  10  21  38  61  88 118 155 198 240 290 352
#     4  10  21  39  62  88 118 154 200 243 291 354
#     4  11  22  38  63  87 119 159 195 242 296 355
#     4  10  22  39  62  89 119 157 199 247 294 351
#     4  11  23  38  60  89 121 155 198 250 297 349
#
# _framework density 19.259028000000001
#
# number of rings (size 3 to 8) (size 9 to 14) (size 15 to 20)
#    0.000    1.714    2.857    1.286    2.000    2.857 
#    0.000    0.000    0.000    2.143    0.000    0.000 
#    0.000    0.000    0.000    0.000    0.000    0.000 
#
# Total GULP energy -347335.306720 kJ/mol
# GULP energy per Si atom -12404.832383 kJ/mol
# Density = 1.921519 g / cm^3
# Si number density = 19.259028 Si / 1000 Ang^3
#
#
#
# Elastic Constant Matrix: (Units=GPa)
#
#
# Indices 1 2 3 4 5 6 
#
# 1 139.5315 48.3841 50.6867 0.0000 -11.5008 0.0000
# 2 48.3841 66.9234 41.7485 0.0000 -1.3751 0.0000
# 3 50.6867 41.7485 104.3315 0.0000 -11.6314 0.0000
# 4 0.0000 0.0000 0.0000 32.6741 0.0000 1.7508
# 5 -11.5008 -1.3751 -11.6314 0.0000 34.9136 0.0000
# 6 0.0000 0.0000 0.0000 1.7508 0.0000 26.1173
#
#
#
# Elastic Compliance Matrix: (Units=1/GPa)
#
#
# Indices 1 2 3 4 5 6 
#
# 1 0.010266 -0.005899 -0.002364 0.000000 0.002362 0.000000
# 2 -0.005899 0.023431 -0.006879 0.000000 -0.003312 0.000000
# 3 -0.002364 -0.006879 0.013885 0.000000 0.003576 0.000000
# 4 0.000000 0.000000 0.000000 0.030716 0.000000 -0.002059
# 5 0.002362 -0.003312 0.003576 0.000000 0.030481 0.000000
# 6 0.000000 0.000000 0.000000 -0.002059 0.000000 0.038427
#
#
# Mechanical properties :
#
#
# Convention : Reuss Voigt Hill
#
# Bulk Modulus (GPa) = 57.81195 65.82499 61.81847
# Shear Modulus (GPa) = 27.28465 30.07214 28.67840
#
# Velocity S-wave (km/s) = 3.76802 3.95581 3.86306
# Velocity P-wave (km/s) = 7.00099 7.42412 7.21566
#
# Compressibility (1/GPa) = 0.01729746
#
# Stress axis : x y z
#
# Youngs Moduli (GPa) = 97.41293 42.67925 72.02260
#
# Poissons Ratio (x) = 0.25176 0.17023
# Poissons Ratio (y) = 0.57462 0.49546
# Poissons Ratio (z) = 0.23024 0.29360
#
# Static dielectric constant tensor:
#      x y z
#    x 3.657980 0.000000 -0.155070 
#    y 0.000000 3.412790 0.000000 
#    z -0.155070 0.000000 1.166550 
# 
# 
# High freq. dielectric constant tensor:
#      x y z
#    x 1.760520 0.000000 -0.003890 
#    y 0.000000 1.734980 0.000000 
#    z -0.003890 0.000000 1.755940 
# 
# From -- ./inp_files/280899.got.cif
#   From: 2010.06.25/outbox.cif.g09.slc.cpg/sg12_141_cif.got.tgz:280899.got - 2010.06.28 00:19:55.
