data_PCOD8108159
_publ_section_title
;
Structure prediction by ZEFSAII (Michael W. Deem and Ramdas Pophale) SiO2 
 PCOD8108159
Probable space group: C 2/M
;
_chemical_formula_sum "Si O2"
_cell_formula_units_Z 56
_cell_length_a 12.251308
_cell_length_b 18.594927
_cell_length_c 12.097925
_cell_angle_alpha 90.000000
_cell_angle_beta 92.325854
_cell_angle_gamma 90.000000
_cell_volume 2753.784162
_symmetry_space_group_name_H-M "C 2/M"
_symmetry_group_IT_number 12
_symmetry_cell_setting 'monoclinic'
loop_
_space_group_symop_operation_xyz
x,y,z
-x,y,-z
-x,-y,-z
x,-y,z
1/2+x,1/2+y,z
1/2-x,1/2+y,-z
1/2-x,1/2-y,-z
1/2+x,1/2-y,z
loop_
_atom_site_type_symbol
_atom_site_label
_atom_site_fract_x
_atom_site_fract_y
_atom_site_fract_z
Si Si1 0.609713 0.415345 0.750961
Si Si2 0.171711 0.084021 0.000477
Si Si3 0.713443 0.187510 0.632417
Si Si4 0.288392 0.155151 0.605492
Si Si5 0.493971 0.813213 0.736104
Si Si6 0.909433 0.578859 0.087982
Si Si7 0.902670 0.837516 0.793238
O O1 0.603655 0.500000 0.738355
O O2 0.693010 0.386628 0.663216
O O3 0.490760 0.381576 0.724218
O O4 0.647374 0.391196 0.874741
O O5 0.297890 0.101837 0.024316
O O6 0.099247 0.130902 0.082419
O O7 0.142914 0.000000 0.017008
O O8 0.711421 0.134896 0.524896
O O9 0.779883 0.259166 0.609203
O O10 0.590114 0.211140 0.657207
O O11 0.783031 0.149495 0.733476
O O12 0.404597 0.138348 0.668116
O O13 0.557643 0.863157 0.822405
O O14 0.438839 0.746047 0.797168
O O15 0.896195 0.500000 0.143478
O O16 0.000000 0.574834 0.000000
#
# Coordination Sequence:
#
# PCOD8108159 Si02
#       7
#     8   8   8   8   8   8   8
#     4  11  23  41  62  90 127 162 203 248 303 364
#     4  10  21  39  62  86 124 166 200 246 301 365
#     4  10  21  41  62  88 120 156 205 251 303 356
#     4  10  22  39  63  88 119 161 202 248 302 362
#     4  11  21  39  63  91 119 157 199 260 302 356
#     4  10  21  38  60  86 120 162 201 243 303 364
#     4  11  22  38  63  93 122 160 205 248 305 364
#
# _framework density 20.335654000000002
#
# number of rings (size 3 to 8) (size 9 to 14) (size 15 to 20)
#    0.000    1.571    2.857    2.143    0.000    4.571 
#    0.000    5.714    0.000    1.714    0.000    0.000 
#    0.000    0.000    0.000    0.000    0.000    0.000 
#
# Total GULP energy -347181.892322 kJ/mol
# GULP energy per Si atom -12399.353297 kJ/mol
# Density = 2.028937 g / cm^3
# Si number density = 20.335654 Si / 1000 Ang^3
#
#
#
# Elastic Constant Matrix: (Units=GPa)
#
#
# Indices 1 2 3 4 5 6 
#
# 1 104.0462 15.8005 0.7815 0.0000 -5.1216 0.0000
# 2 15.8005 60.4742 24.8489 0.0000 2.4597 0.0000
# 3 0.7815 24.8489 60.7079 0.0000 -6.1105 0.0000
# 4 0.0000 0.0000 0.0000 12.1255 0.0000 4.0424
# 5 -5.1216 2.4597 -6.1105 0.0000 27.9694 0.0000
# 6 0.0000 0.0000 0.0000 4.0424 0.0000 22.7933
#
#
#
# Elastic Compliance Matrix: (Units=1/GPa)
#
#
# Indices 1 2 3 4 5 6 
#
# 1 0.010239 -0.003398 0.001511 0.000000 0.002504 0.000000
# 2 -0.003398 0.021369 -0.009156 0.000000 -0.004502 0.000000
# 3 0.001511 -0.009156 0.020766 0.000000 0.005619 0.000000
# 4 0.000000 0.000000 0.000000 0.087653 0.000000 -0.015545
# 5 0.002504 -0.004502 0.005619 0.000000 0.037835 0.000000
# 6 0.000000 0.000000 0.000000 -0.015545 0.000000 0.046629
#
#
# Mechanical properties :
#
#
# Convention : Reuss Voigt Hill
#
# Bulk Modulus (GPa) = 33.01609 34.23222 33.62416
# Shear Modulus (GPa) = 19.47990 24.83080 22.15535
#
# Velocity S-wave (km/s) = 3.09838 3.49814 3.30431
# Velocity P-wave (km/s) = 5.39173 5.76074 5.57929
#
# Compressibility (1/GPa) = 0.03028826
#
# Stress axis : x y z
#
# Youngs Moduli (GPa) = 97.66543 46.79632 48.15509
#
# Poissons Ratio (x) = 0.15901 -0.07277
# Poissons Ratio (y) = 0.33186 0.44092
# Poissons Ratio (z) = -0.14758 0.42848
#
# Static dielectric constant tensor:
#      x y z
#    x 3.752730 0.000000 0.182170 
#    y 0.000000 3.551300 0.000000 
#    z 0.182170 0.000000 3.744450 
# 
# 
# High freq. dielectric constant tensor:
#      x y z
#    x 1.818700 0.000000 0.000670 
#    y 0.000000 1.772510 0.000000 
#    z 0.000670 0.000000 1.790000 
# 
# From -- ./inp_files/133228.got.cif
#   From: 2010.06.25/outbox.cif.g09.slc.cpg/sg12_67_cif.got.tgz:133228.got - 2010.06.28 00:19:55.
