data_PCOD8108173
_publ_section_title
;
Structure prediction by ZEFSAII (Michael W. Deem and Ramdas Pophale) SiO2 
 PCOD8108173
Probable space group: C 2/M
;
_chemical_formula_sum "Si O2"
_cell_formula_units_Z 48
_cell_length_a 24.420653
_cell_length_b 8.905756
_cell_length_c 19.367717
_cell_angle_alpha 90.000000
_cell_angle_beta 145.703621
_cell_angle_gamma 90.000000
_cell_volume 2373.450908
_symmetry_space_group_name_H-M "C 2/M"
_symmetry_group_IT_number 12
_symmetry_cell_setting 'monoclinic'
loop_
_space_group_symop_operation_xyz
x,y,z
-x,y,-z
-x,-y,-z
x,-y,z
1/2+x,1/2+y,z
1/2-x,1/2+y,-z
1/2-x,1/2-y,-z
1/2+x,1/2-y,z
loop_
_atom_site_type_symbol
_atom_site_label
_atom_site_fract_x
_atom_site_fract_y
_atom_site_fract_z
Si Si1 0.916487 0.674289 0.364063
Si Si2 0.799767 0.826715 0.859603
Si Si3 0.288609 0.323870 0.471299
Si Si4 0.453273 0.825395 0.106086
Si Si5 0.633732 0.327247 0.221042
Si Si6 0.011114 0.328125 0.319998
O O1 0.914358 0.500000 0.380857
O O2 0.808734 0.739066 0.267315
O O3 0.936676 0.702752 0.304393
O O4 0.000000 0.749807 0.500000
O O5 0.867578 0.810798 0.862863
O O6 0.793040 0.000000 0.876185
O O7 0.848691 0.731730 0.971735
O O8 0.274746 0.500000 0.462762
O O9 0.250000 0.250000 0.500000
O O10 0.227302 0.263256 0.343583
O O11 0.400073 0.283580 0.576004
O O12 0.536218 0.736693 0.152012
O O13 0.458498 0.792661 0.193081
O O14 0.466118 0.000000 0.102961
O O15 0.643729 0.500000 0.254078
O O16 0.049021 0.500000 0.361023
#
# Coordination Sequence:
#
# PCOD8108173 Si02
#       6
#     8   8   8   8   8   8
#     4   9  18  37  64  88 112 149 199 249 294 346
#     4  10  22  39  61  87 115 155 204 248 292 348
#     4  12  23  36  58  88 120 154 192 240 294 349
#     4  11  23  37  56  85 122 159 196 245 301 355
#     4  11  22  38  61  87 118 156 200 249 295 349
#     4  10  21  38  60  87 119 156 199 244 292 350
#
# _framework density 20.223717000000001
#
# number of rings (size 3 to 8) (size 9 to 14) (size 15 to 20)
#    0.000    1.500    1.667    4.000    0.000    7.333 
#    0.000    0.833    0.000    2.000    0.000    0.000 
#    0.000    0.000    0.000    0.000    0.000    0.000 
#
# Total GULP energy -297663.386999 kJ/mol
# GULP energy per Si atom -12402.641125 kJ/mol
# Density = 2.017769 g / cm^3
# Si number density = 20.223717 Si / 1000 Ang^3
#
#
#
# Elastic Constant Matrix: (Units=GPa)
#
#
# Indices 1 2 3 4 5 6 
#
# 1 106.6740 30.8139 51.6135 0.0000 1.5664 0.0000
# 2 30.8139 101.1110 46.3041 0.0000 -2.6295 0.0000
# 3 51.6135 46.3041 145.2106 0.0000 -3.2234 0.0000
# 4 0.0000 0.0000 0.0000 36.5501 0.0000 -0.6826
# 5 1.5664 -2.6295 -3.2234 0.0000 26.3593 0.0000
# 6 0.0000 0.0000 0.0000 -0.6826 0.0000 21.0500
#
#
#
# Elastic Compliance Matrix: (Units=1/GPa)
#
#
# Indices 1 2 3 4 5 6 
#
# 1 0.011682 -0.001967 -0.003554 0.000000 -0.001325 0.000000
# 2 -0.001967 0.011926 -0.003083 0.000000 0.000929 0.000000
# 3 -0.003554 -0.003083 0.009156 0.000000 0.001023 0.000000
# 4 0.000000 0.000000 0.000000 0.027376 0.000000 0.000888
# 5 -0.001325 0.000929 0.001023 0.000000 0.038234 0.000000
# 6 0.000000 0.000000 0.000000 0.000888 0.000000 0.047535
#
#
# Mechanical properties :
#
#
# Convention : Reuss Voigt Hill
#
# Bulk Modulus (GPa) = 64.28978 67.82875 66.05927
# Shear Modulus (GPa) = 29.70863 31.74281 30.72572
#
# Velocity S-wave (km/s) = 3.83691 3.96610 3.90204
# Velocity P-wave (km/s) = 7.17548 7.38818 7.28261
#
# Compressibility (1/GPa) = 0.01555457
#
# Stress axis : x y z
#
# Youngs Moduli (GPa) = 85.60400 83.85342 109.22091
#
# Poissons Ratio (x) = 0.16492 0.38821
# Poissons Ratio (y) = 0.16836 0.33674
# Poissons Ratio (z) = 0.30427 0.25853
#
# Static dielectric constant tensor:
#      x y z
#    x 3.640790 0.000000 -0.008490 
#    y 0.000000 3.206710 0.000000 
#    z -0.008490 0.000000 3.972140 
# 
# 
# High freq. dielectric constant tensor:
#      x y z
#    x 1.791540 0.000000 -0.004400 
#    y 0.000000 1.770260 0.000000 
#    z -0.004400 0.000000 1.801400 
# 
# From -- ./inp_files/327311.got.cif
#   From: 2010.06.25/outbox.cif.g09.slc.cpg/sg12_164_cif.got.tgz:327311.got - 2010.06.28 00:19:55.
