data_PCOD8108164
_publ_section_title
;
Structure prediction by ZEFSAII (Michael W. Deem and Ramdas Pophale) SiO2 
 PCOD8108164
Probable space group: C 2/M
;
_chemical_formula_sum "Si O2"
_cell_formula_units_Z 48
_cell_length_a 18.456819
_cell_length_b 8.837710
_cell_length_c 14.762386
_cell_angle_alpha 90.000000
_cell_angle_beta 94.051546
_cell_angle_gamma 90.000000
_cell_volume 2401.963749
_symmetry_space_group_name_H-M "C 2/M"
_symmetry_group_IT_number 12
_symmetry_cell_setting 'monoclinic'
loop_
_space_group_symop_operation_xyz
x,y,z
-x,y,-z
-x,-y,-z
x,-y,z
1/2+x,1/2+y,z
1/2-x,1/2+y,-z
1/2-x,1/2-y,-z
1/2+x,1/2-y,z
loop_
_atom_site_type_symbol
_atom_site_label
_atom_site_fract_x
_atom_site_fract_y
_atom_site_fract_z
Si Si1 0.325563 0.822554 0.979797
Si Si2 0.176803 0.675651 0.527101
Si Si3 0.566555 0.175159 0.355968
Si Si4 0.594151 0.323400 0.173555
Si Si5 0.927994 0.827799 0.128663
Si Si6 0.584957 0.324393 0.664788
O O1 0.386610 0.784880 0.059044
O O2 0.315185 0.000000 0.972430
O O3 0.250000 0.750000 0.000000
O O4 0.348306 0.761511 0.883791
O O5 0.190062 0.500000 0.547743
O O6 0.250000 0.750000 0.500000
O O7 0.114793 0.702564 0.447943
O O8 0.153524 0.757000 0.617893
O O9 0.602995 0.263973 0.276176
O O10 0.487000 0.236559 0.372105
O O11 0.560896 0.000000 0.329063
O O12 0.611659 0.500000 0.174663
O O13 0.513229 0.290919 0.130050
O O14 0.899432 0.801668 0.227661
O O15 0.913184 0.000000 0.095996
O O16 0.573897 0.500000 0.640699
#
# Coordination Sequence:
#
# PCOD8108164 Si02
#       6
#     8   8   8   8   8   8
#     4  12  25  39  58  84 116 154 192 233 283 339
#     4  11  24  39  57  83 117 155 192 236 287 339
#     4  10  21  38  60  87 117 149 190 238 284 333
#     4  10  21  39  63  88 115 149 188 234 286 338
#     4   9  20  39  61  86 116 148 186 234 284 335
#     4  10  21  38  62  88 115 150 190 235 285 337
#
# _framework density 19.983650000000001
#
# number of rings (size 3 to 8) (size 9 to 14) (size 15 to 20)
#    0.000    1.667    0.000    5.500    0.000   12.000 
#    0.000    1.667    0.000    0.000    0.000    0.000 
#    0.000    0.000    0.000    0.000    0.000    0.000 
#
# Total GULP energy -297752.352098 kJ/mol
# GULP energy per Si atom -12406.348004 kJ/mol
# Density = 1.993817 g / cm^3
# Si number density = 19.983650 Si / 1000 Ang^3
#
#
#
# Elastic Constant Matrix: (Units=GPa)
#
#
# Indices 1 2 3 4 5 6 
#
# 1 63.6279 31.5602 27.1998 0.0000 -36.4124 0.0000
# 2 31.5602 124.7657 40.1013 0.0000 -13.6420 0.0000
# 3 27.1998 40.1013 68.5315 0.0000 -29.3954 0.0000
# 4 0.0000 0.0000 0.0000 38.7700 0.0000 -4.3335
# 5 -36.4124 -13.6420 -29.3954 0.0000 36.9003 0.0000
# 6 0.0000 0.0000 0.0000 -4.3335 0.0000 38.7022
#
#
#
# Elastic Compliance Matrix: (Units=1/GPa)
#
#
# Indices 1 2 3 4 5 6 
#
# 1 0.041771 -0.007987 0.006848 0.000000 0.043721 0.000000
# 2 -0.007987 0.011450 -0.007739 0.000000 -0.009813 0.000000
# 3 0.006848 -0.007739 0.027455 0.000000 0.025768 0.000000
# 4 0.000000 0.000000 0.000000 0.026120 0.000000 0.002925
# 5 0.043721 -0.009813 0.025768 0.000000 0.087142 0.000000
# 6 0.000000 0.000000 0.000000 0.002925 0.000000 0.026166
#
#
# Mechanical properties :
#
#
# Convention : Reuss Voigt Hill
#
# Bulk Modulus (GPa) = 15.89316 50.51640 33.20478
# Shear Modulus (GPa) = 19.31754 33.41208 26.36481
#
# Velocity S-wave (km/s) = 3.11250 4.09341 3.63618
# Velocity P-wave (km/s) = 4.57025 6.90471 5.85501
#
# Compressibility (1/GPa) = 0.06292014
#
# Stress axis : x y z
#
# Youngs Moduli (GPa) = 23.94027 87.33758 36.42316
#
# Poissons Ratio (x) = 0.69755 -0.24944
# Poissons Ratio (y) = 0.19121 0.28189
# Poissons Ratio (z) = -0.16395 0.67593
#
# Static dielectric constant tensor:
#      x y z
#    x 3.563190 0.000000 -0.167630 
#    y 0.000000 3.692890 0.000000 
#    z -0.167630 0.000000 3.686500 
# 
# 
# High freq. dielectric constant tensor:
#      x y z
#    x 1.775640 0.000000 -0.012940 
#    y 0.000000 1.792860 0.000000 
#    z -0.012940 0.000000 1.789920 
# 
# From -- ./inp_files/221671.got.cif
#   From: 2010.06.25/outbox.cif.g09.slc.cpg/sg12_111_cif.got.tgz:221671.got - 2010.06.28 00:19:55.
