data_PCOD8108700
_publ_section_title
;
Structure prediction by ZEFSAII (Michael W. Deem and Ramdas Pophale) SiO2 
 PCOD8108700
Probable space group: C 2/M
;
_chemical_formula_sum "Si O2"
_cell_formula_units_Z 64
_cell_length_a 12.314644
_cell_length_b 13.741005
_cell_length_c 27.868806
_cell_angle_alpha 90.000000
_cell_angle_beta 142.730718
_cell_angle_gamma 90.000000
_cell_volume 2855.730490
_symmetry_space_group_name_H-M "C 2/M"
_symmetry_group_IT_number 12
_symmetry_cell_setting 'monoclinic'
loop_
_space_group_symop_operation_xyz
x,y,z
-x,y,-z
-x,-y,-z
x,-y,z
1/2+x,1/2+y,z
1/2-x,1/2+y,-z
1/2-x,1/2-y,-z
1/2+x,1/2-y,z
loop_
_atom_site_type_symbol
_atom_site_label
_atom_site_fract_x
_atom_site_fract_y
_atom_site_fract_z
Si Si1 0.160885 0.386435 0.957008
Si Si2 0.732915 0.111140 0.154779
Si Si3 0.197416 0.705956 0.768929
Si Si4 0.411455 0.115164 0.173607
Si Si5 0.689516 0.198200 0.406526
Si Si6 0.175900 0.891012 0.451086
Si Si7 0.558869 0.384592 0.868840
Si Si8 0.784652 0.110285 0.345397
O O1 0.196324 0.500000 0.962891
O O2 0.146591 0.339386 0.898458
O O3 0.980410 0.371273 0.924754
O O4 0.328363 0.342663 0.045815
O O5 0.805182 0.177800 0.223576
O O6 0.830595 0.140744 0.140081
O O7 0.774829 0.000000 0.184194
O O8 0.209303 0.655807 0.825715
O O9 0.368493 0.669335 0.799107
O O10 0.020027 0.677674 0.677447
O O11 0.618553 0.146078 0.254707
O O12 0.389956 0.000000 0.164873
O O13 0.739878 0.125924 0.467109
O O14 0.742880 0.309681 0.437470
O O15 0.805295 0.174829 0.400352
O O16 0.962193 0.877488 0.377009
O O17 0.227496 0.000000 0.451960
O O18 0.529698 0.500000 0.862737
O O19 0.753494 0.000000 0.351519
#
# Coordination Sequence:
#
# PCOD8108700 Si02
#       8
#     8   8   8   8   8   8   8   8
#     4   9  19  38  63  85 117 156 202 257 298 340
#     4  10  23  41  61  84 116 159 205 251 296 346
#     4  11  24  37  61  88 125 158 196 240 302 362
#     4   9  19  36  59  92 122 151 195 254 306 344
#     4  10  22  37  58  90 124 149 187 246 294 341
#     4  10  21  38  64  90 114 152 198 238 286 349
#     4  10  22  42  62  85 119 164 204 241 299 363
#     4   9  18  35  62  87 114 153 197 239 289 350
#
# _framework density 22.411079000000001
#
# number of rings (size 3 to 8) (size 9 to 14) (size 15 to 20)
#    0.000    2.250    0.000    1.500    3.500    6.500 
#    2.250    1.875    0.000    6.750    0.000    0.000 
#    0.000    0.000    0.000    0.000    0.000    0.000 
#
# Total GULP energy -396831.449066 kJ/mol
# GULP energy per Si atom -12400.982783 kJ/mol
# Density = 2.236007 g / cm^3
# Si number density = 22.411079 Si / 1000 Ang^3
#
#
#
# Elastic Constant Matrix: (Units=GPa)
#
#
# Indices 1 2 3 4 5 6 
#
# 1 72.3959 25.9014 13.2948 0.0000 -5.3468 0.0000
# 2 25.9014 63.0395 13.8393 0.0000 -11.1140 0.0000
# 3 13.2948 13.8393 58.7238 0.0000 -0.6090 0.0000
# 4 0.0000 0.0000 0.0000 27.4835 0.0000 -3.7861
# 5 -5.3468 -11.1140 -0.6090 0.0000 28.0536 0.0000
# 6 0.0000 0.0000 0.0000 -3.7861 0.0000 32.5033
#
#
#
# Elastic Compliance Matrix: (Units=1/GPa)
#
#
# Indices 1 2 3 4 5 6 
#
# 1 0.016482 -0.006158 -0.002273 0.000000 0.000652 0.000000
# 2 -0.006158 0.020323 -0.003325 0.000000 0.006806 0.000000
# 3 -0.002273 -0.003325 0.018313 0.000000 -0.001353 0.000000
# 4 0.000000 0.000000 0.000000 0.036979 0.000000 0.004307
# 5 0.000652 0.006806 -0.001353 0.000000 0.038437 0.000000
# 6 0.000000 0.000000 0.000000 0.004307 0.000000 0.031268
#
#
# Mechanical properties :
#
#
# Convention : Reuss Voigt Hill
#
# Bulk Modulus (GPa) = 31.63990 33.35891 32.49941
# Shear Modulus (GPa) = 25.52988 27.01632 26.27310
#
# Velocity S-wave (km/s) = 3.37881 3.47578 3.42764
# Velocity P-wave (km/s) = 5.41945 5.57005 5.49526
#
# Compressibility (1/GPa) = 0.03160566
#
# Stress axis : x y z
#
# Youngs Moduli (GPa) = 60.67324 49.20554 54.60576
#
# Poissons Ratio (x) = 0.30300 0.12414
# Poissons Ratio (y) = 0.37362 0.18155
# Poissons Ratio (z) = 0.13794 0.16360
#
# Static dielectric constant tensor:
#      x y z
#    x 3.890720 0.000000 -0.065490 
#    y 0.000000 4.135730 0.000000 
#    z -0.065490 0.000000 4.066500 
# 
# 
# High freq. dielectric constant tensor:
#      x y z
#    x 1.868990 0.000000 -0.004940 
#    y 0.000000 1.892360 0.000000 
#    z -0.004940 0.000000 1.881820 
# 
# From -- ./inp_files/358450.got.cif
#   From: 2010.06.25/outbox.cif.g09.slc.cpg/sg12_180_cif.got.tgz:358450.got - 2010.06.28 00:19:55.
