data_PCOD8108129
_publ_section_title
;
Structure prediction by ZEFSAII (Michael W. Deem and Ramdas Pophale) SiO2 
 PCOD8108129
Probable space group: C 2/M
;
_chemical_formula_sum "Si O2"
_cell_formula_units_Z 48
_cell_length_a 23.907163
_cell_length_b 8.738419
_cell_length_c 12.193571
_cell_angle_alpha 90.000000
_cell_angle_beta 76.727999
_cell_angle_gamma 90.000000
_cell_volume 2479.331539
_symmetry_space_group_name_H-M "C 2/M"
_symmetry_group_IT_number 12
_symmetry_cell_setting 'monoclinic'
loop_
_space_group_symop_operation_xyz
x,y,z
-x,y,-z
-x,-y,-z
x,-y,z
1/2+x,1/2+y,z
1/2-x,1/2+y,-z
1/2-x,1/2-y,-z
1/2+x,1/2-y,z
loop_
_atom_site_type_symbol
_atom_site_label
_atom_site_fract_x
_atom_site_fract_y
_atom_site_fract_z
Si Si1 0.589713 0.819105 0.465082
Si Si2 0.743249 0.321491 0.175589
Si Si3 0.039365 0.178164 0.085092
Si Si4 0.497322 0.181334 0.678713
Si Si5 0.162222 0.321426 0.043556
Si Si6 0.218565 0.681285 0.410598
O O1 0.557299 0.765703 0.369446
O O2 0.555143 0.767530 0.589205
O O3 0.653734 0.751204 0.438277
O O4 0.591471 0.000000 0.463052
O O5 0.738256 0.500000 0.202013
O O6 0.685839 0.267110 0.139110
O O7 0.750865 0.233021 0.286124
O O8 0.799325 0.280571 0.079197
O O9 0.003874 0.227427 0.207828
O O10 0.097652 0.273285 0.047763
O O11 0.054580 0.000000 0.082891
O O12 0.000000 0.219607 0.000000
O O13 0.496063 0.000000 0.701531
O O14 0.164772 0.500000 0.070260
O O15 0.219015 0.500000 0.418922
O O16 0.250000 0.750000 0.500000
#
# Coordination Sequence:
#
# PCOD8108129 Si02
#       6
#     8   8   8   8   8   8
#     4   8  17  34  57  82 105 133 175 227 274 322
#     4  10  21  38  60  86 113 142 183 233 282 332
#     4  11  24  38  52  78 116 150 182 227 280 327
#     4   9  17  35  61  82 101 133 180 228 274 325
#     4  10  21  38  61  85 109 144 188 230 276 334
#     4  11  22  36  54  80 115 152 188 225 272 328
#
# _framework density 19.360057000000001
#
# number of rings (size 3 to 8) (size 9 to 14) (size 15 to 20)
#    0.000    2.167    0.000    4.000    0.000    6.000 
#    0.000    9.167    0.000    0.000    0.000    0.000 
#    0.000    0.000    0.000    0.000    0.000    0.000 
#
# Total GULP energy -297667.616321 kJ/mol
# GULP energy per Si atom -12402.817347 kJ/mol
# Density = 1.931599 g / cm^3
# Si number density = 19.360057 Si / 1000 Ang^3
#
#
#
# Elastic Constant Matrix: (Units=GPa)
#
#
# Indices 1 2 3 4 5 6 
#
# 1 59.5005 21.1876 51.4295 0.0000 9.2759 0.0000
# 2 21.1876 48.4675 37.1494 0.0000 4.0178 0.0000
# 3 51.4295 37.1494 144.0437 0.0000 16.5692 0.0000
# 4 0.0000 0.0000 0.0000 32.9026 0.0000 4.2897
# 5 9.2759 4.0178 16.5692 0.0000 26.7305 0.0000
# 6 0.0000 0.0000 0.0000 4.2897 0.0000 28.0483
#
#
#
# Elastic Compliance Matrix: (Units=1/GPa)
#
#
# Indices 1 2 3 4 5 6 
#
# 1 0.025605 -0.005241 -0.007386 0.000000 -0.003520 0.000000
# 2 -0.005241 0.026790 -0.005152 0.000000 0.000985 0.000000
# 3 -0.007386 -0.005152 0.011332 0.000000 -0.003687 0.000000
# 4 0.000000 0.000000 0.000000 0.031011 0.000000 -0.004743
# 5 -0.003520 0.000985 -0.003687 0.000000 0.040769 0.000000
# 6 0.000000 0.000000 0.000000 -0.004743 0.000000 0.036378
#
#
# Mechanical properties :
#
#
# Convention : Reuss Voigt Hill
#
# Bulk Modulus (GPa) = 35.49633 52.39385 43.94509
# Shear Modulus (GPa) = 23.05931 27.01929 25.03930
#
# Velocity S-wave (km/s) = 3.45494 3.73985 3.60022
# Velocity P-wave (km/s) = 5.85578 6.76537 6.32694
#
# Compressibility (1/GPa) = 0.02817193
#
# Stress axis : x y z
#
# Youngs Moduli (GPa) = 39.05453 37.32709 88.24542
#
# Poissons Ratio (x) = 0.19562 0.65175
# Poissons Ratio (y) = 0.20467 0.45460
# Poissons Ratio (z) = 0.28844 0.19229
#
# Static dielectric constant tensor:
#      x y z
#    x 3.775260 0.000000 -0.275090 
#    y 0.000000 3.383070 0.000000 
#    z -0.275090 0.000000 4.027530 
# 
# 
# High freq. dielectric constant tensor:
#      x y z
#    x 1.751930 0.000000 -0.005830 
#    y 0.000000 1.743340 0.000000 
#    z -0.005830 0.000000 1.765730 
# 
# From -- ./inp_files/172193.got.cif
#   From: 2010.06.25/outbox.cif.g09.slc.cpg/sg12_87_cif.got.tgz:172193.got - 2010.06.28 00:19:55.
