data_PCOD8108359
_publ_section_title
;
Structure prediction by ZEFSAII (Michael W. Deem and Ramdas Pophale) SiO2 
 PCOD8108359
Probable space group: C 2/M
;
_chemical_formula_sum "Si O2"
_cell_formula_units_Z 48
_cell_length_a 26.911029
_cell_length_b 8.755824
_cell_length_c 15.119191
_cell_angle_alpha 90.000000
_cell_angle_beta 40.703611
_cell_angle_gamma 90.000000
_cell_volume 2323.276169
_symmetry_space_group_name_H-M "C 2/M"
_symmetry_group_IT_number 12
_symmetry_cell_setting 'monoclinic'
loop_
_space_group_symop_operation_xyz
x,y,z
-x,y,-z
-x,-y,-z
x,-y,z
1/2+x,1/2+y,z
1/2-x,1/2+y,-z
1/2-x,1/2-y,-z
1/2+x,1/2-y,z
loop_
_atom_site_type_symbol
_atom_site_label
_atom_site_fract_x
_atom_site_fract_y
_atom_site_fract_z
Si Si1 0.322333 0.821954 0.736691
Si Si2 0.411016 0.675214 0.122836
Si Si3 0.402666 0.679551 0.467752
Si Si4 0.832810 0.321377 0.390382
Si Si5 0.436524 0.178669 0.737047
Si Si6 0.851179 0.176393 0.010541
O O1 0.340595 0.727597 0.624058
O O2 0.378008 0.771018 0.739991
O O3 0.330575 0.000000 0.702481
O O4 0.237291 0.782776 0.883050
O O5 0.393865 0.500000 0.172569
O O6 0.374153 0.788154 0.242752
O O7 0.500000 0.707604 0.000000
O O8 0.374542 0.715506 0.078330
O O9 0.401358 0.500000 0.457345
O O10 0.383589 0.753809 0.399979
O O11 0.485727 0.732705 0.386899
O O12 0.824673 0.500000 0.416109
O O13 0.750000 0.250000 0.500000
O O14 0.401542 0.219738 0.878855
O O15 0.453978 0.000000 0.710167
O O16 0.867867 0.000000 0.965482
#
# Coordination Sequence:
#
# PCOD8108359 Si02
#       6
#     8   8   8   8   8   8
#     4  10  22  40  61  88 123 162 203 252 309 362
#     4  10  21  38  61  90 124 162 204 251 302 356
#     4  12  25  41  63  90 121 159 204 252 303 361
#     4  12  25  42  65  92 124 160 201 249 300 359
#     4  11  23  39  61  89 123 161 203 252 304 362
#     4  10  21  38  61  88 122 162 202 249 303 360
#
# _framework density 20.660478999999999
#
# number of rings (size 3 to 8) (size 9 to 14) (size 15 to 20)
#    0.000    1.167    0.000    6.500    0.000    7.667 
#    0.000    0.000    0.000    0.000    0.000    0.000 
#    0.000    0.000    0.000    0.000    0.000    0.000 
#
# Total GULP energy -297806.859331 kJ/mol
# GULP energy per Si atom -12408.619139 kJ/mol
# Density = 2.061346 g / cm^3
# Si number density = 20.660479 Si / 1000 Ang^3
#
#
#
# Elastic Constant Matrix: (Units=GPa)
#
#
# Indices 1 2 3 4 5 6 
#
# 1 94.1064 26.9715 12.3396 -0.0038 -9.0297 -0.0001
# 2 26.9715 105.5220 29.0905 0.0035 1.5435 -0.0019
# 3 12.3396 29.0905 73.6804 0.0021 8.8445 0.0008
# 4 -0.0038 0.0035 0.0021 110.6767 -0.0005 21.6068
# 5 -9.0297 1.5435 8.8445 -0.0005 30.9631 0.0003
# 6 -0.0001 -0.0019 0.0008 21.6068 0.0003 35.6517
#
#
#
# Elastic Compliance Matrix: (Units=1/GPa)
#
#
# Indices 1 2 3 4 5 6 
#
# 1 0.011982 -0.002732 -0.001412 0.000001 0.004034 -0.000001
# 2 -0.002732 0.011272 -0.003966 -0.000001 -0.000226 0.000001
# 3 -0.001412 -0.003966 0.015947 0.000000 -0.004769 0.000000
# 4 0.000001 -0.000001 0.000000 0.010248 0.000000 -0.006211
# 5 0.004034 -0.000226 -0.004769 0.000000 0.034846 0.000000
# 6 -0.000001 0.000001 0.000000 -0.006211 0.000000 0.031813
#
#
# Mechanical properties :
#
#
# Convention : Reuss Voigt Hill
#
# Bulk Modulus (GPa) = 43.51564 45.56801 44.54183
# Shear Modulus (GPa) = 35.71758 49.11877 42.41817
#
# Velocity S-wave (km/s) = 4.16238 4.88118 4.53604
# Velocity P-wave (km/s) = 6.64895 7.33971 7.00285
#
# Compressibility (1/GPa) = 0.02298024
#
# Stress axis : x y z
#
# Youngs Moduli (GPa) = 83.46180 88.71868 62.70855
#
# Poissons Ratio (x) = 0.24240 0.08855
# Poissons Ratio (y) = 0.22803 0.24867
# Poissons Ratio (z) = 0.11785 0.35182
#
# Static dielectric constant tensor:
#      x y z
#    x 3.923270 0.000000 -0.058180 
#    y 0.000000 3.722830 0.000000 
#    z -0.058180 0.000000 3.720720 
# 
# 
# High freq. dielectric constant tensor:
#      x y z
#    x 1.827890 0.000000 -0.003600 
#    y 0.000000 1.805210 0.000000 
#    z -0.003600 0.000000 1.820570 
# 
# From -- ./inp_files/244634.got.cif
#   From: 2010.06.25/outbox.cif.g09.slc.cpg/sg12_123_cif.got.tgz:244634.got - 2010.06.28 00:19:55.
