data_PCOD8108198
_publ_section_title
;
Structure prediction by ZEFSAII (Michael W. Deem and Ramdas Pophale) SiO2 
 PCOD8108198
Probable space group: C 2/M
;
_chemical_formula_sum "Si O2"
_cell_formula_units_Z 56
_cell_length_a 24.510550
_cell_length_b 13.966828
_cell_length_c 9.114374
_cell_angle_alpha 90.000000
_cell_angle_beta 112.568122
_cell_angle_gamma 90.000000
_cell_volume 2881.235729
_symmetry_space_group_name_H-M "C 2/M"
_symmetry_group_IT_number 12
_symmetry_cell_setting 'monoclinic'
loop_
_space_group_symop_operation_xyz
x,y,z
-x,y,-z
-x,-y,-z
x,-y,z
1/2+x,1/2+y,z
1/2-x,1/2+y,-z
1/2-x,1/2-y,-z
1/2+x,1/2-y,z
loop_
_atom_site_type_symbol
_atom_site_label
_atom_site_fract_x
_atom_site_fract_y
_atom_site_fract_z
Si Si1 0.059614 0.394219 0.012525
Si Si2 0.339024 0.106540 0.665902
Si Si3 0.608040 0.742361 0.855454
Si Si4 0.866748 0.111825 0.609516
Si Si5 0.000224 0.888736 0.671617
Si Si6 0.827907 0.724591 0.373302
Si Si7 0.695269 0.713896 0.195372
O O1 0.045950 0.500000 0.937616
O O2 0.090378 0.340608 0.912470
O O3 0.096639 0.398830 0.199114
O O4 0.000000 0.340670 0.000000
O O5 0.347367 0.144119 0.509437
O O6 0.302450 0.180612 0.728360
O O7 0.309445 0.000000 0.635302
O O8 0.553371 0.668614 0.803809
O O9 0.625859 0.770125 0.710368
O O10 0.664476 0.703580 0.004919
O O11 0.829116 0.170741 0.450658
O O12 0.840378 0.138853 0.740384
O O13 0.936503 0.139077 0.675026
O O14 0.857732 0.000000 0.566901
O O15 0.000000 0.863661 0.500000
O O16 0.013767 0.000000 0.712014
O O17 0.764137 0.690548 0.247868
#
# Coordination Sequence:
#
# PCOD8108198 Si02
#       7
#     8   8   8   8   8   8   8
#     4   9  20  37  57  82 112 145 186 230 280 343
#     4   9  19  37  58  80 108 146 190 233 277 327
#     4  11  23  36  60  83 121 154 184 235 304 335
#     4  10  21  39  62  87 115 152 197 242 288 342
#     4  10  21  38  60  88 120 151 192 239 290 354
#     4  11  22  37  57  86 116 151 196 236 281 348
#     4  10  23  38  56  85 116 152 197 235 283 345
#
# _framework density 19.436105999999999
#
# number of rings (size 3 to 8) (size 9 to 14) (size 15 to 20)
#    0.000    2.000    1.429    2.143    6.000    3.429 
#    0.000    1.429    0.000    8.143    0.000    0.000 
#    0.000    0.000    0.000    0.000    0.000    0.000 
#
# Total GULP energy -347063.791505 kJ/mol
# GULP energy per Si atom -12395.135411 kJ/mol
# Density = 1.939187 g / cm^3
# Si number density = 19.436106 Si / 1000 Ang^3
#
#
#
# Elastic Constant Matrix: (Units=GPa)
#
#
# Indices 1 2 3 4 5 6 
#
# 1 77.1235 16.8766 14.9832 0.0000 16.2792 0.0000
# 2 16.8766 87.6159 30.3663 0.0000 10.1226 0.0000
# 3 14.9832 30.3663 84.7028 0.0000 5.8863 0.0000
# 4 0.0000 0.0000 0.0000 19.3860 0.0000 3.2910
# 5 16.2792 10.1226 5.8863 0.0000 27.7099 0.0000
# 6 0.0000 0.0000 0.0000 3.2910 0.0000 20.8190
#
#
#
# Elastic Compliance Matrix: (Units=1/GPa)
#
#
# Indices 1 2 3 4 5 6 
#
# 1 0.015313 -0.001448 -0.001625 0.000000 -0.008122 0.000000
# 2 -0.001448 0.013582 -0.004392 0.000000 -0.003178 0.000000
# 3 -0.001625 -0.004392 0.013692 0.000000 -0.000349 0.000000
# 4 0.000000 0.000000 0.000000 0.053006 0.000000 -0.008379
# 5 -0.008122 -0.003178 -0.000349 0.000000 0.042095 0.000000
# 6 0.000000 0.000000 0.000000 -0.008379 0.000000 0.049358
#
#
# Mechanical properties :
#
#
# Convention : Reuss Voigt Hill
#
# Bulk Modulus (GPa) = 36.15771 41.54381 38.85076
# Shear Modulus (GPa) = 23.67475 26.06405 24.86940
#
# Velocity S-wave (km/s) = 3.49389 3.66596 3.58096
# Velocity P-wave (km/s) = 5.90932 6.27216 6.09344
#
# Compressibility (1/GPa) = 0.02765662
#
# Stress axis : x y z
#
# Youngs Moduli (GPa) = 65.30306 73.62811 73.03346
#
# Poissons Ratio (x) = 0.10661 0.11870
# Poissons Ratio (y) = 0.09456 0.32077
# Poissons Ratio (z) = 0.10613 0.32339
#
# Static dielectric constant tensor:
#      x y z
#    x 3.530730 0.000000 0.127720 
#    y 0.000000 3.646040 0.000000 
#    z 0.127720 0.000000 3.560320 
# 
# 
# High freq. dielectric constant tensor:
#      x y z
#    x 1.757500 0.000000 0.010230 
#    y 0.000000 1.752050 0.000000 
#    z 0.010230 0.000000 1.756190 
# 
# From -- ./inp_files/96514.got.cif
#   From: 2010.06.25/outbox.cif.g09.slc.cpg/sg12_49_cif.got.tgz:96514.got - 2010.06.28 00:19:55.
