data_PCOD8108548
_publ_section_title
;
Structure prediction by ZEFSAII (Michael W. Deem and Ramdas Pophale) SiO2 
 PCOD8108548
Probable space group: C 2/M
;
_chemical_formula_sum "Si O2"
_cell_formula_units_Z 40
_cell_length_a 10.057067
_cell_length_b 21.153541
_cell_length_c 19.629911
_cell_angle_alpha 90.000000
_cell_angle_beta 154.533681
_cell_angle_gamma 90.000000
_cell_volume 1795.649021
_symmetry_space_group_name_H-M "C 2/M"
_symmetry_group_IT_number 12
_symmetry_cell_setting 'monoclinic'
loop_
_space_group_symop_operation_xyz
x,y,z
-x,y,-z
-x,-y,-z
x,-y,z
1/2+x,1/2+y,z
1/2-x,1/2+y,-z
1/2-x,1/2-y,-z
1/2+x,1/2-y,z
loop_
_atom_site_type_symbol
_atom_site_label
_atom_site_fract_x
_atom_site_fract_y
_atom_site_fract_z
Si Si1 0.312689 0.817053 0.288364
Si Si2 0.641985 0.928050 0.134149
Si Si3 0.218984 0.870865 0.041939
Si Si4 0.311648 0.071304 0.481593
Si Si5 0.674955 0.217806 0.333148
O O1 0.509069 0.882020 0.384241
O O2 0.492226 0.769976 0.319353
O O3 0.261653 0.784463 0.337687
O O4 0.978541 0.831034 0.102917
O O5 0.398181 0.925000 0.083520
O O6 0.972302 0.898851 0.308874
O O7 0.712849 0.000000 0.148264
O O8 0.500000 0.895092 0.000000
O O9 0.473171 0.824439 0.190085
O O10 0.000000 0.900131 0.000000
O O11 0.500000 0.067093 0.500000
O O12 0.290354 0.000000 0.503887
O O13 0.000000 0.182983 0.500000
#
# Coordination Sequence:
#
# PCOD8108548 Si02
#       5
#     8   8   8   8   8
#     4  11  23  40  62  90 124 161 203 251 304 361
#     4  10  21  38  62  91 122 160 206 254 304 361
#     4  10  23  40  59  87 125 162 202 251 303 364
#     4  10  21  39  64  94 125 158 203 256 307 360
#     4  11  23  39  59  87 122 161 204 249 302 362
#
# _framework density 22.276069
#
# number of rings (size 3 to 8) (size 9 to 14) (size 15 to 20)
#    0.000    1.600    0.000    4.200    0.000    6.000 
#    0.000    3.000    0.000   10.800    0.000    1.400 
#    0.000    0.000    0.000    0.000    0.000    0.000 
#
# Total GULP energy -247942.556154 kJ/mol
# GULP energy per Si atom -12397.127808 kJ/mol
# Density = 2.222537 g / cm^3
# Si number density = 22.276069 Si / 1000 Ang^3
#
#
#
# Elastic Constant Matrix: (Units=GPa)
#
#
# Indices 1 2 3 4 5 6 
#
# 1 130.8125 40.1521 44.6258 -0.0302 12.4624 0.0537
# 2 40.1521 65.8313 40.8291 -0.4279 -6.3967 0.7176
# 3 44.6258 40.8291 190.5978 -1.0248 3.0567 2.0729
# 4 -0.0302 -0.4279 -1.0248 53.6166 0.2513 -56.7468
# 5 12.4624 -6.3967 3.0567 0.2513 38.3777 -0.4296
# 6 0.0537 0.7176 2.0729 -56.7468 -0.4296 127.9545
#
#
#
# Elastic Compliance Matrix: (Units=1/GPa)
#
#
# Indices 1 2 3 4 5 6 
#
# 1 0.010253 -0.006020 -0.001043 -0.000016 -0.004249 0.000025
# 2 -0.006020 0.021460 -0.003280 0.000057 0.005792 -0.000020
# 3 -0.001043 -0.003280 0.006206 0.000012 -0.000703 -0.000079
# 4 -0.000016 0.000057 0.000012 0.035150 -0.000042 0.015588
# 5 -0.004249 0.005792 -0.000703 -0.000042 0.028459 0.000058
# 6 0.000025 -0.000020 -0.000079 0.015588 0.000058 0.014730
#
#
# Mechanical properties :
#
#
# Convention : Reuss Voigt Hill
#
# Bulk Modulus (GPa) = 58.03026 70.93951 64.48489
# Shear Modulus (GPa) = 35.04162 61.43206 48.23684
#
# Velocity S-wave (km/s) = 3.97049 5.25714 4.65845
# Velocity P-wave (km/s) = 6.86489 8.29245 7.61221
#
# Compressibility (1/GPa) = 0.01723239
#
# Stress axis : x y z
#
# Youngs Moduli (GPa) = 97.53259 46.59916 161.14159
#
# Poissons Ratio (x) = 0.28052 0.16811
# Poissons Ratio (y) = 0.58713 0.52853
# Poissons Ratio (z) = 0.10175 0.15284
#
# Static dielectric constant tensor:
#      x y z
#    x 4.086520 0.000050 0.090640 
#    y 0.000050 3.677080 -0.000570 
#    z 0.090640 -0.000570 4.487200 
# 
# 
# High freq. dielectric constant tensor:
#      x y z
#    x 1.879890 0.000000 0.006430 
#    y 0.000000 1.839700 -0.000030 
#    z 0.006430 -0.000030 1.907740 
# 
# From -- ./inp_files/39152.got.cif
#   From: 2010.06.25/outbox.cif.g09.slc.cpg/sg12_20_cif.got.tgz:39152.got - 2010.06.28 00:19:55.
