data_PCOD8108832
_publ_section_title
;
Structure prediction by ZEFSAII (Michael W. Deem and Ramdas Pophale) SiO2 
 PCOD8108832
Probable space group: C 2/M
;
_chemical_formula_sum "Si O2"
_cell_formula_units_Z 64
_cell_length_a 21.928932
_cell_length_b 9.289823
_cell_length_c 23.999603
_cell_angle_alpha 90.000000
_cell_angle_beta 46.002698
_cell_angle_gamma 90.000000
_cell_volume 3517.084607
_symmetry_space_group_name_H-M "C 2/M"
_symmetry_group_IT_number 12
_symmetry_cell_setting 'monoclinic'
loop_
_space_group_symop_operation_xyz
x,y,z
-x,y,-z
-x,-y,-z
x,-y,z
1/2+x,1/2+y,z
1/2-x,1/2+y,-z
1/2-x,1/2-y,-z
1/2+x,1/2-y,z
loop_
_atom_site_type_symbol
_atom_site_label
_atom_site_fract_x
_atom_site_fract_y
_atom_site_fract_z
Si Si1 0.001508 0.665258 0.347819
Si Si2 0.836934 0.831846 0.957833
Si Si3 0.386658 0.664133 0.224229
Si Si4 0.690332 0.167227 0.496545
Si Si5 0.478683 0.328933 0.951619
Si Si6 0.269195 0.661342 0.638586
Si Si7 0.057034 0.840004 0.414032
Si Si8 0.028019 0.838923 0.222488
O O1 0.026648 0.500000 0.332416
O O2 0.903026 0.690838 0.420970
O O3 0.054318 0.740551 0.362317
O O4 0.030490 0.726640 0.270577
O O5 0.888173 0.777999 0.981480
O O6 0.897116 0.801469 0.867352
O O7 0.815946 0.000000 0.977180
O O8 0.750000 0.750000 0.000000
O O9 0.356302 0.500000 0.232882
O O10 0.444366 0.720457 0.136726
O O11 0.308119 0.770768 0.278538
O O12 0.438021 0.672611 0.249095
O O13 0.750000 0.250000 0.500000
O O14 0.700848 0.236174 0.429760
O O15 0.715214 0.000000 0.477250
O O16 0.475527 0.500000 0.955019
O O17 0.500000 0.266739 0.000000
O O18 0.245359 0.500000 0.632149
O O19 0.345215 0.650739 0.633254
O O20 0.000000 0.772867 0.500000
O O21 0.021023 0.000000 0.423318
O O22 0.039657 0.000000 0.238974
#
# Coordination Sequence:
#
# PCOD8108832 Si02
#       8
#     8   8   8   8   8   8   8   8
#     4  11  23  36  54  80 105 133 178 232 272 306
#     4   9  18  34  57  84 113 147 184 223 272 327
#     4   9  18  34  57  82 108 143 181 221 270 318
#     4  11  23  36  53  79 108 137 174 222 269 316
#     4   8  15  32  58  84 111 145 185 224 269 331
#     4  11  22  36  55  78 105 140 181 221 266 321
#     4  10  21  39  58  73 100 147 185 212 265 334
#     4   9  19  36  56  77 108 149 182 213 264 331
#
# _framework density 18.196891000000001
#
# number of rings (size 3 to 8) (size 9 to 14) (size 15 to 20)
#    0.000    2.250    1.250    3.375    0.000    5.750 
#    2.250    1.875    0.000    0.750    0.000    0.000 
#    0.000    0.000    0.000    0.000    0.000    0.000 
#
# Total GULP energy -396726.433730 kJ/mol
# GULP energy per Si atom -12397.701054 kJ/mol
# Density = 1.815547 g / cm^3
# Si number density = 18.196891 Si / 1000 Ang^3
#
#
#
# Elastic Constant Matrix: (Units=GPa)
#
#
# Indices 1 2 3 4 5 6 
#
# 1 111.9052 59.3779 55.4355 0.0000 6.3883 0.0001
# 2 59.3779 96.8659 52.1007 0.0003 0.4682 0.0002
# 3 55.4355 52.1007 87.1894 -0.0001 5.3063 0.0000
# 4 0.0000 0.0003 -0.0001 27.7111 0.0000 -6.0782
# 5 6.3883 0.4682 5.3063 0.0000 35.5821 0.0000
# 6 0.0001 0.0002 0.0000 -6.0782 0.0000 26.8050
#
#
#
# Elastic Compliance Matrix: (Units=1/GPa)
#
#
# Indices 1 2 3 4 5 6 
#
# 1 0.015221 -0.006152 -0.005894 0.000000 -0.001773 0.000000
# 2 -0.006152 0.017748 -0.006809 0.000000 0.001886 0.000000
# 3 -0.005894 -0.006809 0.019391 0.000000 -0.001744 0.000000
# 4 0.000000 0.000000 0.000000 0.037975 0.000000 0.008611
# 5 -0.001773 0.001886 -0.001744 0.000000 0.028658 0.000000
# 6 0.000000 0.000000 0.000000 0.008611 0.000000 0.039259
#
#
# Mechanical properties :
#
#
# Convention : Reuss Voigt Hill
#
# Bulk Modulus (GPa) = 68.25193 69.97650 69.11422
# Shear Modulus (GPa) = 24.89490 26.62273 25.75882
#
# Velocity S-wave (km/s) = 3.70278 3.82912 3.76648
# Velocity P-wave (km/s) = 7.47460 7.62156 7.54844
#
# Compressibility (1/GPa) = 0.01465160
#
# Stress axis : x y z
#
# Youngs Moduli (GPa) = 65.69786 56.34577 51.56971
#
# Poissons Ratio (x) = 0.34663 0.30394
# Poissons Ratio (y) = 0.40416 0.35112
# Poissons Ratio (z) = 0.38721 0.38364
#
# Static dielectric constant tensor:
#      x y z
#    x 3.496130 0.000000 0.101730 
#    y 0.000000 3.369030 0.000000 
#    z 0.101730 0.000000 3.378690 
# 
# 
# High freq. dielectric constant tensor:
#      x y z
#    x 1.706860 0.000000 0.000120 
#    y 0.000000 1.696350 0.000000 
#    z 0.000120 0.000000 1.702460 
# 
# From -- ./inp_files/346097.got.cif
#   From: 2010.06.25/outbox.cif.g09.slc.cpg/sg12_174_cif.got.tgz:346097.got - 2010.06.28 00:19:55.
