data_PCOD8108319
_publ_section_title
;
Structure prediction by ZEFSAII (Michael W. Deem and Ramdas Pophale) SiO2 
 PCOD8108319
Probable space group: C 2/M
;
_chemical_formula_sum "Si O2"
_cell_formula_units_Z 56
_cell_length_a 19.140533
_cell_length_b 9.158583
_cell_length_c 21.645871
_cell_angle_alpha 90.000000
_cell_angle_beta 54.312757
_cell_angle_gamma 90.000000
_cell_volume 3081.963896
_symmetry_space_group_name_H-M "C 2/M"
_symmetry_group_IT_number 12
_symmetry_cell_setting 'monoclinic'
loop_
_space_group_symop_operation_xyz
x,y,z
-x,y,-z
-x,-y,-z
x,-y,z
1/2+x,1/2+y,z
1/2-x,1/2+y,-z
1/2-x,1/2-y,-z
1/2+x,1/2-y,z
loop_
_atom_site_type_symbol
_atom_site_label
_atom_site_fract_x
_atom_site_fract_y
_atom_site_fract_z
Si Si1 0.977486 0.671812 0.693102
Si Si2 0.730596 0.830677 0.314749
Si Si3 0.562898 0.331399 0.410476
Si Si4 0.580073 0.328851 0.741087
Si Si5 0.864668 0.669255 0.058141
Si Si6 0.013953 0.670966 0.893114
Si Si7 0.713773 0.832906 0.182942
O O1 0.996000 0.500000 0.677716
O O2 0.975919 0.739734 0.625936
O O3 0.886971 0.700943 0.774698
O O4 0.052439 0.749553 0.692612
O O5 0.655592 0.732306 0.383052
O O6 0.818860 0.796837 0.304210
O O7 0.741427 0.786808 0.237671
O O8 0.703616 0.000000 0.333925
O O9 0.500000 0.312639 0.500000
O O10 0.572915 0.500000 0.385788
O O11 0.560866 0.500000 0.746653
O O12 0.526271 0.264860 0.825655
O O13 0.847225 0.500000 0.073239
O O14 0.918101 0.722474 0.090337
O O15 0.771758 0.745980 0.103880
O O16 0.918166 0.703212 0.968411
O O17 0.024893 0.500000 0.871966
O O18 0.734312 0.000000 0.160199
#
# Coordination Sequence:
#
# PCOD8108319 Si02
#       7
#     8   8   8   8   8   8   8
#     4  10  22  38  56  79 110 145 177 215 268 321
#     4   9  19  34  54  81 110 141 177 218 263 314
#     4  10  21  38  61  88 112 136 173 216 255 308
#     4  11  21  35  54  80 110 141 182 225 266 315
#     4   9  17  29  48  74 103 137 181 226 268 316
#     4   9  18  31  47  73 107 141 177 222 274 320
#     4   9  17  32  51  74 103 135 178 225 268 315
#
# _framework density 18.170231999999999
#
# number of rings (size 3 to 8) (size 9 to 14) (size 15 to 20)
#    0.000    2.429    1.429    3.000    0.000    5.714 
#    0.000    2.857    0.000    0.000    0.000    0.000 
#    0.000    0.000    0.000    0.000    0.000    0.000 
#
# Total GULP energy -347205.810954 kJ/mol
# GULP energy per Si atom -12400.207534 kJ/mol
# Density = 1.812888 g / cm^3
# Si number density = 18.170232 Si / 1000 Ang^3
#
#
#
# Elastic Constant Matrix: (Units=GPa)
#
#
# Indices 1 2 3 4 5 6 
#
# 1 99.6808 57.5971 41.8905 0.0000 -1.9341 0.0001
# 2 57.5971 99.0251 57.0631 -0.0001 -4.4397 0.0003
# 3 41.8905 57.0631 85.8002 0.0000 -9.8391 0.0000
# 4 0.0000 -0.0001 0.0000 32.7013 0.0000 -3.6125
# 5 -1.9341 -4.4397 -9.8391 0.0000 21.7815 0.0000
# 6 0.0001 0.0003 0.0000 -3.6125 0.0000 30.8521
#
#
#
# Elastic Compliance Matrix: (Units=1/GPa)
#
#
# Indices 1 2 3 4 5 6 
#
# 1 0.015484 -0.007491 -0.002737 0.000000 -0.001388 0.000000
# 2 -0.007491 0.020056 -0.009796 0.000000 -0.001002 0.000000
# 3 -0.002737 -0.009796 0.020301 0.000000 0.006931 0.000000
# 4 0.000000 0.000000 0.000000 0.030981 0.000000 0.003628
# 5 -0.001388 -0.001002 0.006931 0.000000 0.048714 0.000000
# 6 0.000000 0.000000 0.000000 0.003628 0.000000 0.032837
#
#
# Mechanical properties :
#
#
# Convention : Reuss Voigt Hill
#
# Bulk Modulus (GPa) = 63.32063 66.40083 64.86073
# Shear Modulus (GPa) = 23.39910 25.59733 24.49822
#
# Velocity S-wave (km/s) = 3.59245 3.75741 3.67585
# Velocity P-wave (km/s) = 7.22023 7.44629 7.33413
#
# Compressibility (1/GPa) = 0.01579264
#
# Stress axis : x y z
#
# Youngs Moduli (GPa) = 64.58405 49.86150 49.25911
#
# Poissons Ratio (x) = 0.37352 0.13481
# Poissons Ratio (y) = 0.48381 0.48253
# Poissons Ratio (z) = 0.17675 0.48843
#
# Static dielectric constant tensor:
#      x y z
#    x 3.382280 0.000000 -0.167720 
#    y 0.000000 3.364930 0.000000 
#    z -0.167720 0.000000 3.182040 
# 
# 
# High freq. dielectric constant tensor:
#      x y z
#    x 1.693030 0.000000 -0.012790 
#    y 0.000000 1.709120 0.000000 
#    z -0.012790 0.000000 1.690370 
# 
# From -- ./inp_files/313721.got.cif
#   From: 2010.06.25/outbox.cif.g09.slc.cpg/sg12_157_cif.got.tgz:313721.got - 2010.06.28 00:19:55.
