data_PCOD8108368
_publ_section_title
;
Structure prediction by ZEFSAII (Michael W. Deem and Ramdas Pophale) SiO2 
 PCOD8108368
Probable space group: C 2/M
;
_chemical_formula_sum "Si O2"
_cell_formula_units_Z 56
_cell_length_a 18.381095
_cell_length_b 9.339668
_cell_length_c 16.744277
_cell_angle_alpha 90.000000
_cell_angle_beta 81.557540
_cell_angle_gamma 90.000000
_cell_volume 2843.396563
_symmetry_space_group_name_H-M "C 2/M"
_symmetry_group_IT_number 12
_symmetry_cell_setting 'monoclinic'
loop_
_space_group_symop_operation_xyz
x,y,z
-x,y,-z
-x,-y,-z
x,-y,z
1/2+x,1/2+y,z
1/2-x,1/2+y,-z
1/2-x,1/2-y,-z
1/2+x,1/2-y,z
loop_
_atom_site_type_symbol
_atom_site_label
_atom_site_fract_x
_atom_site_fract_y
_atom_site_fract_z
Si Si1 0.546965 0.165451 0.272846
Si Si2 0.878437 0.662482 0.311626
Si Si3 0.649386 0.665533 0.138405
Si Si4 0.416422 0.334619 0.022767
Si Si5 0.680880 0.659647 0.534724
Si Si6 0.940950 0.160194 0.571427
Si Si7 0.313173 0.833797 0.155049
O O1 0.461176 0.185920 0.267142
O O2 0.592256 0.241014 0.196501
O O3 0.567680 0.234620 0.353600
O O4 0.569533 0.000000 0.272453
O O5 0.867742 0.500000 0.344230
O O6 0.864442 0.769343 0.386367
O O7 0.822764 0.694489 0.247990
O O8 0.640694 0.500000 0.165302
O O9 0.631087 0.689016 0.049028
O O10 0.732276 0.719466 0.142073
O O11 0.418850 0.500000 0.047508
O O12 0.500000 0.277069 0.000000
O O13 0.376700 0.250211 0.099323
O O14 0.703358 0.500000 0.558480
O O15 0.750000 0.750000 0.500000
O O16 0.636005 0.652000 0.460491
O O17 0.000000 0.224325 0.500000
O O18 0.965365 0.000000 0.595621
O O19 0.323302 0.000000 0.132562
#
# Coordination Sequence:
#
# PCOD8108368 Si02
#       7
#     8   8   8   8   8   8   8
#     4  11  23  37  59  88 117 150 195 248 292 339
#     4  10  22  40  58  83 118 154 195 242 293 346
#     4  10  22  39  59  85 119 155 192 236 290 352
#     4  10  21  38  61  89 118 151 191 237 288 342
#     4  11  24  40  61  86 116 154 195 242 294 348
#     4  10  21  40  62  84 113 154 198 238 291 353
#     4  10  22  39  60  85 116 155 193 234 287 346
#
# _framework density 19.694756000000002
#
# number of rings (size 3 to 8) (size 9 to 14) (size 15 to 20)
#    0.000    1.714    1.429    2.143    2.000    4.000 
#    0.000    0.000    0.000    0.000    0.000    0.000 
#    0.000    0.000    0.000    0.000    0.000    0.000 
#
# Total GULP energy -347305.464400 kJ/mol
# GULP energy per Si atom -12403.766586 kJ/mol
# Density = 1.964993 g / cm^3
# Si number density = 19.694756 Si / 1000 Ang^3
#
#
#
# Elastic Constant Matrix: (Units=GPa)
#
#
# Indices 1 2 3 4 5 6 
#
# 1 99.2773 30.9134 14.4786 0.0000 3.8634 0.0000
# 2 30.9134 96.4299 42.4119 0.0000 -7.2481 0.0000
# 3 14.4786 42.4119 62.3117 0.0000 -2.3248 0.0000
# 4 0.0000 0.0000 0.0000 32.9103 0.0000 -8.4083
# 5 3.8634 -7.2481 -2.3248 0.0000 35.4629 0.0000
# 6 0.0000 0.0000 0.0000 -8.4083 0.0000 30.2526
#
#
#
# Elastic Compliance Matrix: (Units=1/GPa)
#
#
# Indices 1 2 3 4 5 6 
#
# 1 0.011330 -0.003700 -0.000189 0.000000 -0.002003 0.000000
# 2 -0.003700 0.016211 -0.010060 0.000000 0.003057 0.000000
# 3 -0.000189 -0.010060 0.022920 0.000000 -0.000533 0.000000
# 4 0.000000 0.000000 0.000000 0.032708 0.000000 0.009091
# 5 -0.002003 0.003057 -0.000533 0.000000 0.029006 0.000000
# 6 0.000000 0.000000 0.000000 0.009091 0.000000 0.035582
#
#
# Mechanical properties :
#
#
# Convention : Reuss Voigt Hill
#
# Bulk Modulus (GPa) = 44.32048 48.18075 46.25061
# Shear Modulus (GPa) = 27.29624 31.07284 29.18454
#
# Velocity S-wave (km/s) = 3.72689 3.97636 3.85365
# Velocity P-wave (km/s) = 6.40876 6.75269 6.58297
#
# Compressibility (1/GPa) = 0.02256293
#
# Stress axis : x y z
#
# Youngs Moduli (GPa) = 88.25872 61.68831 43.63065
#
# Poissons Ratio (x) = 0.22822 0.00826
# Poissons Ratio (y) = 0.32651 0.43892
# Poissons Ratio (z) = 0.01671 0.62058
#
# Static dielectric constant tensor:
#      x y z
#    x 3.752370 0.000000 0.071560 
#    y 0.000000 7.189170 0.000000 
#    z 0.071560 0.000000 3.463300 
# 
# 
# High freq. dielectric constant tensor:
#      x y z
#    x 1.781010 0.000000 0.002260 
#    y 0.000000 1.767500 0.000000 
#    z 0.002260 0.000000 1.767030 
# 
# From -- ./inp_files/275268.got.cif
#   From: 2010.06.25/outbox.cif.g09.slc.cpg/sg12_138_cif.got.tgz:275268.got - 2010.06.28 00:19:55.
