data_PCOD8108087
_publ_section_title
;
Structure prediction by ZEFSAII (Michael W. Deem and Ramdas Pophale) SiO2 
 PCOD8108087
Probable space group: C 2/M
;
_chemical_formula_sum "Si O2"
_cell_formula_units_Z 48
_cell_length_a 20.431011
_cell_length_b 8.948809
_cell_length_c 26.397976
_cell_angle_alpha 90.000000
_cell_angle_beta 149.888687
_cell_angle_gamma 90.000000
_cell_volume 2421.329294
_symmetry_space_group_name_H-M "C 2/M"
_symmetry_group_IT_number 12
_symmetry_cell_setting 'monoclinic'
loop_
_space_group_symop_operation_xyz
x,y,z
-x,y,-z
-x,-y,-z
x,-y,z
1/2+x,1/2+y,z
1/2-x,1/2+y,-z
1/2-x,1/2-y,-z
1/2+x,1/2-y,z
loop_
_atom_site_type_symbol
_atom_site_label
_atom_site_fract_x
_atom_site_fract_y
_atom_site_fract_z
Si Si1 0.375654 0.325568 0.561312
Si Si2 0.383114 0.677527 0.887732
Si Si3 0.367205 0.171821 0.107116
Si Si4 0.385419 0.676985 0.773942
Si Si5 0.633656 0.673197 0.561599
Si Si6 0.125507 0.328485 0.770265
O O1 0.361802 0.500000 0.560467
O O2 0.250000 0.250000 0.500000
O O3 0.387519 0.283119 0.510653
O O4 0.501215 0.270749 0.675325
O O5 0.385861 0.500000 0.892629
O O6 0.400221 0.732785 0.841685
O O7 0.245859 0.735043 0.818012
O O8 0.500000 0.744873 0.000000
O O9 0.504218 0.248141 0.186248
O O10 0.337593 0.187160 0.146470
O O11 0.373932 0.000000 0.094869
O O12 0.250000 0.250000 0.000000
O O13 0.400102 0.500000 0.779927
O O14 0.245066 0.724091 0.659538
O O15 0.500000 0.711420 0.500000
O O16 0.673105 0.500000 0.594539
O O17 0.094178 0.500000 0.735371
#
# Coordination Sequence:
#
# PCOD8108087 Si02
#       6
#     8   8   8   8   8   8
#     4  11  23  38  58  83 112 148 188 231 281 335
#     4   9  18  35  58  83 112 146 185 228 275 329
#     4  11  23  39  60  85 115 151 189 231 281 335
#     4  11  22  36  59  88 115 147 188 234 284 337
#     4  10  22  40  59  81 114 153 190 232 283 336
#     4  10  21  38  60  84 112 148 189 233 279 327
#
# _framework density 19.823822
#
# number of rings (size 3 to 8) (size 9 to 14) (size 15 to 20)
#    0.000    1.667    0.000    4.500    0.000    9.667 
#    0.000    0.833    0.000    3.500    0.000    0.000 
#    0.000    0.000    0.000    0.000    0.000    0.000 
#
# Total GULP energy -297731.714515 kJ/mol
# GULP energy per Si atom -12405.488105 kJ/mol
# Density = 1.977870 g / cm^3
# Si number density = 19.823822 Si / 1000 Ang^3
#
#
#
# Elastic Constant Matrix: (Units=GPa)
#
#
# Indices 1 2 3 4 5 6 
#
# 1 105.0044 39.8121 20.0599 0.0007 10.9217 0.0004
# 2 39.8121 79.0547 43.3798 -0.0040 -4.0442 -0.0005
# 3 20.0599 43.3798 110.9240 -0.0078 4.4316 -0.0006
# 4 0.0007 -0.0040 -0.0078 39.2777 -0.0012 1.6169
# 5 10.9217 -4.0442 4.4316 -0.0012 37.3289 0.0001
# 6 0.0004 -0.0005 -0.0006 1.6169 0.0001 27.0104
#
#
#
# Elastic Compliance Matrix: (Units=1/GPa)
#
#
# Indices 1 2 3 4 5 6 
#
# 1 0.012463 -0.006832 0.000596 -0.000001 -0.004457 0.000000
# 2 -0.006832 0.020087 -0.006819 0.000001 0.004985 0.000000
# 3 0.000596 -0.006819 0.011666 0.000002 -0.002298 0.000000
# 4 -0.000001 0.000001 0.000002 0.025523 0.000001 -0.001528
# 5 -0.004457 0.004985 -0.002298 0.000001 0.028906 0.000000
# 6 0.000000 0.000000 0.000000 -0.001528 0.000000 0.037114
#
#
# Mechanical properties :
#
#
# Convention : Reuss Voigt Hill
#
# Bulk Modulus (GPa) = 55.22912 55.72075 55.47493
# Shear Modulus (GPa) = 29.77890 33.50549 31.64220
#
# Velocity S-wave (km/s) = 3.88000 4.11562 3.99954
# Velocity P-wave (km/s) = 6.92770 7.12414 7.02661
#
# Compressibility (1/GPa) = 0.01810639
#
# Stress axis : x y z
#
# Youngs Moduli (GPa) = 80.23509 49.78412 85.71882
#
# Poissons Ratio (x) = 0.34010 -0.05107
# Poissons Ratio (y) = 0.54813 0.58453
# Poissons Ratio (z) = -0.04781 0.33949
#
# Static dielectric constant tensor:
#      x y z
#    x 2.779850 0.000030 -0.772650 
#    y 0.000030 3.511810 0.000020 
#    z -0.772650 0.000020 3.098870 
# 
# 
# High freq. dielectric constant tensor:
#      x y z
#    x 1.793230 0.000000 0.001470 
#    y 0.000000 1.759920 0.000000 
#    z 0.001470 0.000000 1.787380 
# 
# From -- ./inp_files/365555.got.cif
#   From: 2010.06.25/outbox.cif.g09.slc.cpg/sg12_183_cif.got.tgz:365555.got - 2010.06.28 00:19:55.
