data_PCOD8108403
_publ_section_title
;
Structure prediction by ZEFSAII (Michael W. Deem and Ramdas Pophale) SiO2 
 PCOD8108403
Probable space group: C 2/M
;
_chemical_formula_sum "Si O2"
_cell_formula_units_Z 28
_cell_length_a 12.132167
_cell_length_b 26.743906
_cell_length_c 10.118063
_cell_angle_alpha 90.000000
_cell_angle_beta 23.795063
_cell_angle_gamma 90.000000
_cell_volume 1324.549000
_symmetry_space_group_name_H-M "C 2/M"
_symmetry_group_IT_number 12
_symmetry_cell_setting 'monoclinic'
loop_
_space_group_symop_operation_xyz
x,y,z
-x,y,-z
-x,-y,-z
x,-y,z
1/2+x,1/2+y,z
1/2-x,1/2+y,-z
1/2-x,1/2-y,-z
1/2+x,1/2-y,z
loop_
_atom_site_type_symbol
_atom_site_label
_atom_site_fract_x
_atom_site_fract_y
_atom_site_fract_z
Si Si1 0.723060 0.344180 0.491620
Si Si2 0.835579 0.305922 0.805003
Si Si3 0.207703 0.944750 0.385273
Si Si4 0.500000 0.290293 0.500000
O O1 0.706050 0.404523 0.506053
O O2 0.705069 0.324089 0.360525
O O3 0.011817 0.325242 0.230899
O O4 0.476542 0.324061 0.853407
O O5 0.839333 0.245033 0.783399
O O6 0.000000 0.329585 0.500000
O O7 0.000000 0.927629 0.500000
O O8 0.130100 0.000000 0.526531
O O9 0.500000 0.946477 0.000000
#
# Coordination Sequence:
#
# PCOD8108403 Si02
#       4
#     8   8   8   4
#     4  12  21  40  61  85 120 155 193 243 292 343
#     4  10  25  37  57  84 124 159 198 229 281 349
#     4  10  21  38  61  90 116 144 190 248 303 344
#     4  10  24  36  61  88 119 158 194 244 284 348
#
# _framework density 21.139268999999999
#
# number of rings (size 3 to 8) (size 9 to 14) (size 15 to 20)
#    0.857    0.571    1.429    4.286    0.000    2.286 
#    0.000    0.000    0.000    5.143    0.000    0.000 
#    0.000    0.000    0.000    0.000    0.000    0.000 
#
# Total GULP energy -173597.869969 kJ/mol
# GULP energy per Si atom -12399.847855 kJ/mol
# Density = 2.109116 g / cm^3
# Si number density = 21.139269 Si / 1000 Ang^3
#
#
#
# Elastic Constant Matrix: (Units=GPa)
#
#
# Indices 1 2 3 4 5 6 
#
# 1 83.0787 23.5768 -5.5393 0.0027 -5.4753 -0.0025
# 2 23.5768 137.3343 6.0380 0.0002 3.8682 -0.0001
# 3 -5.5393 6.0380 44.3527 0.0065 -15.3768 -0.0090
# 4 0.0027 0.0002 0.0065 23.3939 -0.0036 -0.2665
# 5 -5.4753 3.8682 -15.3768 -0.0036 29.0351 0.0042
# 6 -0.0025 -0.0001 -0.0090 -0.2665 0.0042 29.2304
#
#
#
# Elastic Compliance Matrix: (Units=1/GPa)
#
#
# Indices 1 2 3 4 5 6 
#
# 1 0.013334 -0.002587 0.003685 -0.000002 0.004811 0.000002
# 2 -0.002587 0.007908 -0.002369 0.000000 -0.002796 -0.000001
# 3 0.003685 -0.002369 0.029005 -0.000006 0.016371 0.000007
# 4 -0.000002 0.000000 -0.000006 0.042751 0.000002 0.000390
# 5 0.004811 -0.002796 0.016371 0.000002 0.044391 -0.000001
# 6 0.000002 -0.000001 0.000007 0.000390 -0.000001 0.034215
#
#
# Mechanical properties :
#
#
# Convention : Reuss Voigt Hill
#
# Bulk Modulus (GPa) = 20.96153 34.76854 27.86503
# Shear Modulus (GPa) = 26.30938 32.37788 29.34363
#
# Velocity S-wave (km/s) = 3.53168 3.91787 3.72978
# Velocity P-wave (km/s) = 5.15440 6.07860 5.63547
#
# Compressibility (1/GPa) = 0.04770644
#
# Stress axis : x y z
#
# Youngs Moduli (GPa) = 74.99864 126.44693 34.47658
#
# Poissons Ratio (x) = 0.32706 -0.12705
# Poissons Ratio (y) = 0.19399 0.08168
# Poissons Ratio (z) = -0.27638 0.29956
#
# Static dielectric constant tensor:
#      x y z
#    x 3.616800 0.000020 -0.052690 
#    y 0.000020 4.174620 -0.000020 
#    z -0.052690 -0.000020 3.583490 
# 
# 
# High freq. dielectric constant tensor:
#      x y z
#    x 1.816730 0.000000 -0.014180 
#    y 0.000000 1.823890 0.000000 
#    z -0.014180 0.000000 1.833020 
# 
# From -- ./inp_files/149985.got.cif
#   From: 2010.06.25/outbox.cif.g09.slc.cpg/sg12_75_cif.got.tgz:149985.got - 2010.06.28 00:19:55.
