data_PCOD8108564
_publ_section_title
;
Structure prediction by ZEFSAII (Michael W. Deem and Ramdas Pophale) SiO2 
 PCOD8108564
Probable space group: C 2/M
;
_chemical_formula_sum "Si O2"
_cell_formula_units_Z 56
_cell_length_a 29.226457
_cell_length_b 13.989849
_cell_length_c 9.883735
_cell_angle_alpha 90.000000
_cell_angle_beta 46.752013
_cell_angle_gamma 90.000000
_cell_volume 2943.589680
_symmetry_space_group_name_H-M "C 2/M"
_symmetry_group_IT_number 12
_symmetry_cell_setting 'monoclinic'
loop_
_space_group_symop_operation_xyz
x,y,z
-x,y,-z
-x,-y,-z
x,-y,z
1/2+x,1/2+y,z
1/2-x,1/2+y,-z
1/2-x,1/2-y,-z
1/2+x,1/2-y,z
loop_
_atom_site_type_symbol
_atom_site_label
_atom_site_fract_x
_atom_site_fract_y
_atom_site_fract_z
Si Si1 0.926905 0.203002 0.625441
Si Si2 0.747998 0.387271 0.181999
Si Si3 0.575464 0.296115 0.850497
Si Si4 0.147653 0.750054 0.972618
Si Si5 0.937552 0.000000 0.539373
Si Si6 0.750488 0.389277 0.859708
Si Si7 0.438617 0.500000 0.214678
Si Si8 0.353704 0.763490 0.537011
O O1 0.912973 0.259489 0.517182
O O2 0.000000 0.196247 0.500000
O O3 0.898797 0.094521 0.662149
O O4 0.895561 0.260652 0.809169
O O5 0.740806 0.500000 0.224685
O O6 0.811551 0.347267 0.125160
O O7 0.688858 0.332309 0.365162
O O8 0.752611 0.361470 0.013697
O O9 0.600444 0.271896 0.947312
O O10 0.596364 0.402420 0.758025
O O11 0.614203 0.224794 0.674363
O O12 0.500000 0.281311 0.000000
O O13 0.193210 0.839606 0.899654
O O14 0.952791 0.000000 0.347206
O O15 0.000000 0.000000 0.500000
O O16 0.742295 0.500000 0.854128
O O17 0.813815 0.356581 0.656044
O O18 0.500000 0.500000 0.000000
#
# Coordination Sequence:
#
# PCOD8108564 Si02
#       8
#     8   8   8   8   4   8   4   8
#     4  11  21  33  57  84 117 153 202 240 283 353
#     4  10  21  38  64  90 117 151 199 259 300 336
#     4  11  25  39  58  84 129 162 190 239 301 357
#     4  11  22  39  59  90 117 159 198 241 298 358
#     4  10  22  32  52  86 114 160 202 226 277 356
#     4  10  21  38  62  92 119 150 198 259 298 333
#     4  10  22  36  48  80 126 160 186 230 293 350
#     4  11  20  39  60  87 118 159 196 240 296 355
#
# _framework density 19.02439
#
# number of rings (size 3 to 8) (size 9 to 14) (size 15 to 20)
#    0.000    1.429    4.286    1.714   10.000    2.286 
#    0.000    2.143    0.000    5.143    0.000    0.000 
#    0.000    0.000    0.000    0.000    0.000    0.000 
#
# Total GULP energy -347043.494506 kJ/mol
# GULP energy per Si atom -12394.410518 kJ/mol
# Density = 1.898109 g / cm^3
# Si number density = 19.024390 Si / 1000 Ang^3
#
#
#
# Elastic Constant Matrix: (Units=GPa)
#
#
# Indices 1 2 3 4 5 6 
#
# 1 103.7568 18.9360 11.5448 0.0000 3.3505 0.0000
# 2 18.9360 59.2140 8.7682 0.0000 -2.1138 0.0000
# 3 11.5448 8.7682 80.6152 0.0000 -4.6793 0.0000
# 4 0.0000 0.0000 0.0000 23.0035 0.0000 -0.1066
# 5 3.3505 -2.1138 -4.6793 0.0000 28.8938 0.0000
# 6 0.0000 0.0000 0.0000 -0.1066 0.0000 16.4881
#
#
#
# Elastic Compliance Matrix: (Units=1/GPa)
#
#
# Indices 1 2 3 4 5 6 
#
# 1 0.010414 -0.003206 -0.001238 0.000000 -0.001643 0.000000
# 2 -0.003206 0.018178 -0.001433 0.000000 0.001470 0.000000
# 3 -0.001238 -0.001433 0.012861 0.000000 0.002122 0.000000
# 4 0.000000 0.000000 0.000000 0.043473 0.000000 0.000281
# 5 -0.001643 0.001470 0.002122 0.000000 0.035251 0.000000
# 6 0.000000 0.000000 0.000000 0.000281 0.000000 0.060652
#
#
# Mechanical properties :
#
#
# Convention : Reuss Voigt Hill
#
# Bulk Modulus (GPa) = 33.67046 35.78712 34.72879
# Shear Modulus (GPa) = 24.69377 27.29956 25.99667
#
# Velocity S-wave (km/s) = 3.60669 3.79222 3.70062
# Velocity P-wave (km/s) = 5.92295 6.16657 6.04599
#
# Compressibility (1/GPa) = 0.02969962
#
# Stress axis : x y z
#
# Youngs Moduli (GPa) = 96.02709 55.01280 77.75512
#
# Poissons Ratio (x) = 0.17634 0.09626
# Poissons Ratio (y) = 0.30782 0.11140
# Poissons Ratio (z) = 0.11888 0.07882
#
# Static dielectric constant tensor:
#      x y z
#    x 3.541270 0.000000 -0.025090 
#    y 0.000000 3.635160 0.000000 
#    z -0.025090 0.000000 3.596380 
# 
# 
# High freq. dielectric constant tensor:
#      x y z
#    x 1.740510 0.000000 -0.002330 
#    y 0.000000 1.717070 0.000000 
#    z -0.002330 0.000000 1.743530 
# 
# From -- ./inp_files/86403.got.cif
#   From: 2010.06.25/outbox.cif.g09.slc.cpg/sg12_44_cif.got.tgz:86403.got - 2010.06.28 00:19:55.
