data_PCOD8108538
_publ_section_title
;
Structure prediction by ZEFSAII (Michael W. Deem and Ramdas Pophale) SiO2 
 PCOD8108538
Probable space group: C 2/M
;
_chemical_formula_sum "Si O2"
_cell_formula_units_Z 56
_cell_length_a 12.570799
_cell_length_b 14.566496
_cell_length_c 20.074063
_cell_angle_alpha 90.000000
_cell_angle_beta 50.532492
_cell_angle_gamma 90.000000
_cell_volume 2837.672158
_symmetry_space_group_name_H-M "C 2/M"
_symmetry_group_IT_number 12
_symmetry_cell_setting 'monoclinic'
loop_
_space_group_symop_operation_xyz
x,y,z
-x,y,-z
-x,-y,-z
x,-y,z
1/2+x,1/2+y,z
1/2-x,1/2+y,-z
1/2-x,1/2-y,-z
1/2+x,1/2-y,z
loop_
_atom_site_type_symbol
_atom_site_label
_atom_site_fract_x
_atom_site_fract_y
_atom_site_fract_z
Si Si1 0.322137 0.733531 0.158408
Si Si2 0.035576 0.400855 0.852021
Si Si3 0.387563 0.099568 0.318446
Si Si4 0.925417 0.896196 0.596326
Si Si5 0.002363 0.892407 0.179276
Si Si6 0.296922 0.822591 0.033071
Si Si7 0.519135 0.727638 0.300991
O O1 0.346335 0.826015 0.189798
O O2 0.416402 0.651045 0.150923
O O3 0.362092 0.762126 0.067011
O O4 0.160078 0.716912 0.229268
O O5 0.098303 0.500000 0.846515
O O6 0.999574 0.399216 0.787418
O O7 0.908783 0.385541 0.952271
O O8 0.237391 0.109082 0.346482
O O9 0.414083 0.187126 0.355076
O O10 0.399754 0.000000 0.350920
O O11 0.978137 0.831939 0.634294
O O12 0.000000 0.861058 0.500000
O O13 0.972589 0.000000 0.593997
O O14 0.167126 0.885525 0.104570
O O15 0.966817 0.836011 0.260503
O O16 0.962361 0.000000 0.201566
O O17 0.250000 0.750000 0.000000
#
# Coordination Sequence:
#
# PCOD8108538 Si02
#       7
#     8   8   8   8   8   8   8
#     4  11  22  37  56  80 114 146 188 243 283 328
#     4  11  20  35  57  79 106 145 190 235 284 331
#     4  10  21  39  60  85 115 148 188 231 282 339
#     4  10  21  38  62  91 119 147 183 229 281 336
#     4  11  23  38  56  82 113 150 193 238 285 335
#     4  11  22  37  55  75 111 151 193 238 287 334
#     4  11  20  38  63  85 114 152 189 231 278 338
#
# _framework density 19.734486
#
# number of rings (size 3 to 8) (size 9 to 14) (size 15 to 20)
#    0.000    1.286    4.286    2.143    0.000    4.571 
#    0.000    2.143    0.000    0.429    0.000    0.000 
#    0.000    0.000    0.000    0.000    0.000    0.000 
#
# Total GULP energy -346869.917705 kJ/mol
# GULP energy per Si atom -12388.211347 kJ/mol
# Density = 1.968957 g / cm^3
# Si number density = 19.734486 Si / 1000 Ang^3
#
#
#
# Elastic Constant Matrix: (Units=GPa)
#
#
# Indices 1 2 3 4 5 6 
#
# 1 69.9579 59.0503 17.9560 0.0000 10.6968 0.0000
# 2 59.0503 159.6852 30.4385 0.0000 10.8150 0.0000
# 3 17.9560 30.4385 80.1745 0.0000 5.8261 0.0000
# 4 0.0000 0.0000 0.0000 22.3140 0.0000 5.9697
# 5 10.6968 10.8150 5.8261 0.0000 12.1778 0.0000
# 6 0.0000 0.0000 0.0000 5.9697 0.0000 28.5146
#
#
#
# Elastic Compliance Matrix: (Units=1/GPa)
#
#
# Indices 1 2 3 4 5 6 
#
# 1 0.022766 -0.007281 -0.001400 0.000000 -0.012861 0.000000
# 2 -0.007281 0.009379 -0.001854 0.000000 -0.001047 0.000000
# 3 -0.001400 -0.001854 0.013760 0.000000 -0.003707 0.000000
# 4 0.000000 0.000000 0.000000 0.047474 0.000000 -0.009939
# 5 -0.012861 -0.001047 -0.003707 0.000000 0.096117 0.000000
# 6 0.000000 0.000000 0.000000 -0.009939 0.000000 0.037151
#
#
# Mechanical properties :
#
#
# Convention : Reuss Voigt Hill
#
# Bulk Modulus (GPa) = 40.26589 58.30081 49.28335
# Shear Modulus (GPa) = 19.53177 26.09281 22.81229
#
# Velocity S-wave (km/s) = 3.14941 3.64014 3.40363
# Velocity P-wave (km/s) = 5.80286 6.87563 6.36189
#
# Compressibility (1/GPa) = 0.02483492
#
# Stress axis : x y z
#
# Youngs Moduli (GPa) = 43.92586 106.62141 72.67669
#
# Poissons Ratio (x) = 0.77627 0.10174
# Poissons Ratio (y) = 0.31981 0.13475
# Poissons Ratio (z) = 0.06149 0.19768
#
# Static dielectric constant tensor:
#      x y z
#    x 3.139770 0.000000 0.158670 
#    y 0.000000 3.658610 0.000000 
#    z 0.158670 0.000000 3.349050 
# 
# 
# High freq. dielectric constant tensor:
#      x y z
#    x 1.758450 0.000000 0.002340 
#    y 0.000000 1.775090 0.000000 
#    z 0.002340 0.000000 1.754230 
# 
# From -- ./inp_files/263226.got.cif
#   From: 2010.06.25/outbox.cif.g09.slc.cpg/sg12_132_cif.got.tgz:263226.got - 2010.06.28 00:19:55.
