data_PCOD8108591
_publ_section_title
;
Structure prediction by ZEFSAII (Michael W. Deem and Ramdas Pophale) SiO2 
 PCOD8108591
Probable space group: C 2/M
;
_chemical_formula_sum "Si O2"
_cell_formula_units_Z 48
_cell_length_a 11.645866
_cell_length_b 17.426824
_cell_length_c 11.462352
_cell_angle_alpha 90.000000
_cell_angle_beta 73.843483
_cell_angle_gamma 90.000000
_cell_volume 2234.413100
_symmetry_space_group_name_H-M "C 2/M"
_symmetry_group_IT_number 12
_symmetry_cell_setting 'monoclinic'
loop_
_space_group_symop_operation_xyz
x,y,z
-x,y,-z
-x,-y,-z
x,-y,z
1/2+x,1/2+y,z
1/2-x,1/2+y,-z
1/2-x,1/2-y,-z
1/2+x,1/2-y,z
loop_
_atom_site_type_symbol
_atom_site_label
_atom_site_fract_x
_atom_site_fract_y
_atom_site_fract_z
Si Si1 0.287628 0.415735 0.503827
Si Si2 0.543835 0.586304 0.749609
Si Si3 0.315527 0.654931 0.731901
Si Si4 0.281433 0.910101 0.810665
Si Si5 0.360116 0.910490 0.042949
Si Si6 0.124995 0.311056 0.405568
O O1 0.228622 0.500000 0.498868
O O2 0.409039 0.410684 0.395881
O O3 0.318859 0.409329 0.630743
O O4 0.201786 0.346563 0.489081
O O5 0.504970 0.500000 0.796481
O O6 0.428944 0.642097 0.786427
O O7 0.648098 0.615496 0.807995
O O8 0.196051 0.643348 0.841613
O O9 0.314159 0.736811 0.669240
O O10 0.381787 0.872384 0.698096
O O11 0.298469 0.000000 0.789390
O O12 0.302081 0.884750 0.936998
O O13 0.333834 0.000000 0.076368
O O14 0.500000 0.893972 0.000000
O O15 0.000000 0.289157 0.500000
#
# Coordination Sequence:
#
# PCOD8108591 Si02
#       6
#     8   8   8   8   8   8
#     4  10  21  38  62  93 127 167 215 263 311 374
#     4   9  18  36  62  92 124 161 206 260 314 371
#     4  12  23  37  62  96 132 165 206 257 326 379
#     4   9  21  43  66  90 126 168 219 265 302 368
#     4  10  23  43  66  94 126 168 217 263 309 370
#     4  11  24  39  62  93 131 170 207 255 323 385
#
# _framework density 21.482151000000002
#
# number of rings (size 3 to 8) (size 9 to 14) (size 15 to 20)
#    0.000    1.833    0.000    5.000    2.333    5.333 
#    0.000    2.500    0.000    0.000    0.000    0.000 
#    0.000    0.000    0.000    0.000    0.000    0.000 
#
# Total GULP energy -297550.329487 kJ/mol
# GULP energy per Si atom -12397.930395 kJ/mol
# Density = 2.143326 g / cm^3
# Si number density = 21.482151 Si / 1000 Ang^3
#
#
#
# Elastic Constant Matrix: (Units=GPa)
#
#
# Indices 1 2 3 4 5 6 
#
# 1 110.5711 46.9283 64.7129 0.0000 0.6513 0.0000
# 2 46.9283 90.5901 45.0373 0.0000 -5.3485 0.0000
# 3 64.7129 45.0373 116.6555 0.0000 0.2663 0.0000
# 4 0.0000 0.0000 0.0000 19.7687 0.0000 -14.0670
# 5 0.6513 -5.3485 0.2663 0.0000 35.2979 0.0000
# 6 0.0000 0.0000 0.0000 -14.0670 0.0000 19.3505
#
#
#
# Elastic Compliance Matrix: (Units=1/GPa)
#
#
# Indices 1 2 3 4 5 6 
#
# 1 0.014714 -0.004478 -0.006431 0.000000 -0.000901 0.000000
# 2 -0.004478 0.015183 -0.003383 0.000000 0.002409 0.000000
# 3 -0.006431 -0.003383 0.013447 0.000000 -0.000495 0.000000
# 4 0.000000 0.000000 0.000000 0.104794 0.000000 0.076181
# 5 -0.000901 0.002409 -0.000495 0.000000 0.028716 0.000000
# 6 0.000000 0.000000 0.000000 0.076181 0.000000 0.107059
#
#
# Mechanical properties :
#
#
# Convention : Reuss Voigt Hill
#
# Bulk Modulus (GPa) = 67.75595 70.13041 68.94318
# Shear Modulus (GPa) = 15.75219 25.62593 20.68906
#
# Velocity S-wave (km/s) = 2.71083 3.45758 3.10672
# Velocity P-wave (km/s) = 6.43484 6.97543 6.71058
#
# Compressibility (1/GPa) = 0.01475885
#
# Stress axis : x y z
#
# Youngs Moduli (GPa) = 67.96306 65.86513 74.36513
#
# Poissons Ratio (x) = 0.29495 0.47827
# Poissons Ratio (y) = 0.30434 0.25157
# Poissons Ratio (z) = 0.43710 0.22282
#
# Static dielectric constant tensor:
#      x y z
#    x 3.783230 0.000000 0.176880 
#    y 0.000000 3.775350 0.000000 
#    z 0.176880 0.000000 3.910170 
# 
# 
# High freq. dielectric constant tensor:
#      x y z
#    x 1.834220 0.000000 0.009650 
#    y 0.000000 1.834820 0.000000 
#    z 0.009650 0.000000 1.841290 
# 
# From -- ./inp_files/131635.got.cif
#   From: 2010.06.25/outbox.cif.g09.slc.cpg/sg12_66_cif.got.tgz:131635.got - 2010.06.28 00:19:55.
