data_PCOD8108066
_publ_section_title
;
Structure prediction by ZEFSAII (Michael W. Deem and Ramdas Pophale) SiO2 
 PCOD8108066
Probable space group: C 2/M
;
_chemical_formula_sum "Si O2"
_cell_formula_units_Z 48
_cell_length_a 24.525271
_cell_length_b 8.563182
_cell_length_c 18.761052
_cell_angle_alpha 90.000000
_cell_angle_beta 34.875525
_cell_angle_gamma 90.000000
_cell_volume 2252.925822
_symmetry_space_group_name_H-M "C 2/M"
_symmetry_group_IT_number 12
_symmetry_cell_setting 'monoclinic'
loop_
_space_group_symop_operation_xyz
x,y,z
-x,y,-z
-x,-y,-z
x,-y,z
1/2+x,1/2+y,z
1/2-x,1/2+y,-z
1/2-x,1/2-y,-z
1/2+x,1/2-y,z
loop_
_atom_site_type_symbol
_atom_site_label
_atom_site_fract_x
_atom_site_fract_y
_atom_site_fract_z
Si Si1 0.339514 0.182902 0.443536
Si Si2 0.473094 0.682576 0.817455
Si Si3 0.718709 0.681489 0.232854
Si Si4 0.080832 0.180960 0.507234
Si Si5 0.106950 0.318494 0.232432
Si Si6 0.583202 0.683537 0.962907
O O1 0.250000 0.250000 0.500000
O O2 0.433142 0.215773 0.296744
O O3 0.342861 0.273912 0.514564
O O4 0.328734 0.000000 0.469126
O O5 0.498100 0.500000 0.786347
O O6 0.395317 0.725038 0.840113
O O7 0.436778 0.729999 0.934147
O O8 0.728658 0.500000 0.206652
O O9 0.628751 0.716913 0.380193
O O10 0.699933 0.768718 0.177929
O O11 0.815514 0.741177 0.166294
O O12 0.986269 0.282849 0.619883
O O13 0.051834 0.000000 0.544768
O O14 0.112131 0.500000 0.209069
O O15 0.592130 0.500000 0.942633
O O16 0.500000 0.748988 0.000000
#
# Coordination Sequence:
#
# PCOD8108066 Si02
#       6
#     8   8   8   8   8   8
#     4  11  22  36  58  87 120 159 202 247 298 357
#     4  10  21  40  63  88 121 158 198 252 305 356
#     4  11  24  40  62  91 123 163 203 249 303 360
#     4  10  21  38  59  90 126 158 198 248 303 361
#     4  11  22  38  63  93 123 160 202 250 304 362
#     4  10  24  44  64  89 120 159 204 251 302 360
#
# _framework density 21.305627999999999
#
# number of rings (size 3 to 8) (size 9 to 14) (size 15 to 20)
#    0.000    1.500    0.000    7.000    2.333    7.000 
#    0.000    0.000    0.000    0.000    0.000    0.000 
#    0.000    0.000    0.000    0.000    0.000    0.000 
#
# Total GULP energy -297669.968119 kJ/mol
# GULP energy per Si atom -12402.915338 kJ/mol
# Density = 2.125714 g / cm^3
# Si number density = 21.305628 Si / 1000 Ang^3
#
#
#
# Elastic Constant Matrix: (Units=GPa)
#
#
# Indices 1 2 3 4 5 6 
#
# 1 136.5633 22.9434 27.9026 0.0001 -7.9977 -0.0006
# 2 22.9434 66.4127 23.6030 0.0099 7.7215 -0.0108
# 3 27.9026 23.6030 39.6347 0.0219 8.0849 -0.0115
# 4 0.0001 0.0099 0.0219 29.7563 -0.0051 -6.0474
# 5 -7.9977 7.7215 8.0849 -0.0051 34.1840 0.0016
# 6 -0.0006 -0.0108 -0.0115 -6.0474 0.0016 31.7650
#
#
#
# Elastic Compliance Matrix: (Units=1/GPa)
#
#
# Indices 1 2 3 4 5 6 
#
# 1 0.009085 -0.001317 -0.006416 0.000005 0.003940 -0.000002
# 2 -0.001317 0.019386 -0.010151 0.000001 -0.002286 0.000003
# 3 -0.006416 -0.010151 0.037437 -0.000024 -0.008062 0.000006
# 4 0.000005 0.000001 -0.000024 0.034959 0.000012 0.006655
# 5 0.003940 -0.002286 -0.008062 0.000012 0.032599 -0.000003
# 6 -0.000002 0.000003 0.000006 0.006655 -0.000003 0.032748
#
#
# Mechanical properties :
#
#
# Convention : Reuss Voigt Hill
#
# Bulk Modulus (GPa) = 33.17775 43.50096 38.33935
# Shear Modulus (GPa) = 23.58178 30.35183 26.96681
#
# Velocity S-wave (km/s) = 3.33052 3.77847 3.56155
# Velocity P-wave (km/s) = 5.51325 6.28472 5.91158
#
# Compressibility (1/GPa) = 0.03014069
#
# Stress axis : x y z
#
# Youngs Moduli (GPa) = 110.06590 51.58427 26.71168
#
# Poissons Ratio (x) = 0.06792 0.17138
# Poissons Ratio (y) = 0.14493 0.27115
# Poissons Ratio (z) = 0.70616 0.52364
#
# Static dielectric constant tensor:
#      x y z
#    x 4.127090 0.000010 -0.013550 
#    y 0.000010 3.916690 0.000030 
#    z -0.013550 0.000030 3.707600 
# 
# 
# High freq. dielectric constant tensor:
#      x y z
#    x 1.852640 0.000000 -0.001530 
#    y 0.000000 1.838350 0.000000 
#    z -0.001530 0.000000 1.823770 
# 
# From -- ./inp_files/327142.got.cif
#   From: 2010.06.25/outbox.cif.g09.slc.cpg/sg12_164_cif.got.tgz:327142.got - 2010.06.28 00:19:55.
