data_PCOD8108286
_publ_section_title
;
Structure prediction by ZEFSAII (Michael W. Deem and Ramdas Pophale) SiO2 
 PCOD8108286
Probable space group: C 2/M
;
_chemical_formula_sum "Si O2"
_cell_formula_units_Z 64
_cell_length_a 19.130054
_cell_length_b 9.247896
_cell_length_c 30.150429
_cell_angle_alpha 90.000000
_cell_angle_beta 38.365023
_cell_angle_gamma 90.000000
_cell_volume 3310.646855
_symmetry_space_group_name_H-M "C 2/M"
_symmetry_group_IT_number 12
_symmetry_cell_setting 'monoclinic'
loop_
_space_group_symop_operation_xyz
x,y,z
-x,y,-z
-x,-y,-z
x,-y,z
1/2+x,1/2+y,z
1/2-x,1/2+y,-z
1/2-x,1/2-y,-z
1/2+x,1/2-y,z
loop_
_atom_site_type_symbol
_atom_site_label
_atom_site_fract_x
_atom_site_fract_y
_atom_site_fract_z
Si Si1 0.460149 0.333293 0.569343
Si Si2 0.532233 0.829779 0.935487
Si Si3 0.131926 0.829478 0.561701
Si Si4 0.368787 0.171283 0.938204
Si Si5 0.267596 0.336450 0.302713
Si Si6 0.976393 0.334172 0.702489
Si Si7 0.479987 0.834578 0.219317
Si Si8 0.731777 0.338004 0.798861
O O1 0.500000 0.300502 0.500000
O O2 0.425510 0.500000 0.592546
O O3 0.559397 0.291477 0.554031
O O4 0.352568 0.236545 0.632088
O O5 0.440581 0.778082 0.945154
O O6 0.654544 0.767027 0.865352
O O7 0.544195 0.000000 0.928136
O O8 0.500000 0.772771 0.000000
O O9 0.250000 0.750000 0.500000
O O10 0.071515 0.770662 0.635906
O O11 0.151375 0.000000 0.556754
O O12 0.434902 0.222194 0.860992
O O13 0.348183 0.000000 0.948164
O O14 0.250000 0.250000 0.000000
O O15 0.258905 0.500000 0.324826
O O16 0.364211 0.253337 0.281141
O O17 0.306724 0.332604 0.232559
O O18 0.006676 0.500000 0.675103
O O19 0.960475 0.316593 0.763033
O O20 0.859846 0.284426 0.738448
O O21 0.447828 0.000000 0.224771
O O22 0.721479 0.500000 0.823372
#
# Coordination Sequence:
#
# PCOD8108286 Si02
#       8
#     8   8   8   8   8   8   8   8
#     4  10  23  42  63  87 116 157 201 236 286 354
#     4  10  22  39  59  85 116 153 195 241 292 344
#     4  11  24  41  62  88 121 158 195 240 292 346
#     4  10  22  39  58  83 116 153 193 237 289 347
#     4  11  22  38  62  90 118 149 193 249 296 338
#     4  10  22  41  62  86 118 155 197 241 290 349
#     4  10  22  40  62  85 116 159 197 236 292 356
#     4  10  21  38  61  87 115 151 194 242 291 342
#
# _framework density 19.331569999999999
#
# number of rings (size 3 to 8) (size 9 to 14) (size 15 to 20)
#    0.000    1.750    2.500    0.750    3.500    3.500 
#    0.000    0.000    0.000    0.000    0.000    0.000 
#    0.000    0.000    0.000    0.000    0.000    0.000 
#
# Total GULP energy -396910.594062 kJ/mol
# GULP energy per Si atom -12403.456064 kJ/mol
# Density = 1.928757 g / cm^3
# Si number density = 19.331570 Si / 1000 Ang^3
#
#
#
# Elastic Constant Matrix: (Units=GPa)
#
#
# Indices 1 2 3 4 5 6 
#
# 1 86.4423 34.7657 43.7270 0.0002 0.3742 0.0002
# 2 34.7657 71.0423 52.8705 0.0007 -9.2617 0.0008
# 3 43.7270 52.8705 118.8110 0.0000 -4.5911 0.0002
# 4 0.0002 0.0007 0.0000 38.7315 0.0000 -10.1339
# 5 0.3742 -9.2617 -4.5911 0.0000 37.8372 0.0004
# 6 0.0002 0.0008 0.0002 -10.1339 0.0004 25.0274
#
#
#
# Elastic Compliance Matrix: (Units=1/GPa)
#
#
# Indices 1 2 3 4 5 6 
#
# 1 0.015411 -0.005246 -0.003409 0.000000 -0.001850 0.000000
# 2 -0.005246 0.023463 -0.008325 -0.000001 0.004785 -0.000001
# 3 -0.003409 -0.008325 0.013361 0.000000 -0.000383 0.000000
# 4 0.000000 -0.000001 0.000000 0.028878 0.000000 0.011693
# 5 -0.001850 0.004785 -0.000383 0.000000 0.027572 -0.000001
# 6 0.000000 -0.000001 0.000000 0.011693 -0.000001 0.044691
#
#
# Mechanical properties :
#
#
# Convention : Reuss Voigt Hill
#
# Bulk Modulus (GPa) = 54.72005 59.89132 57.30569
# Shear Modulus (GPa) = 25.84951 29.98136 27.91544
#
# Velocity S-wave (km/s) = 3.66069 3.94242 3.80417
# Velocity P-wave (km/s) = 6.79964 7.19527 7.00025
#
# Compressibility (1/GPa) = 0.01827484
#
# Stress axis : x y z
#
# Youngs Moduli (GPa) = 64.89075 42.62068 74.84317
#
# Poissons Ratio (x) = 0.22357 0.25513
# Poissons Ratio (y) = 0.34040 0.62310
# Poissons Ratio (z) = 0.22120 0.35483
#
# Static dielectric constant tensor:
#      x y z
#    x 3.725830 0.000000 0.135510 
#    y 0.000000 3.515670 0.000000 
#    z 0.135510 0.000000 3.510560 
# 
# 
# High freq. dielectric constant tensor:
#      x y z
#    x 1.761810 0.000000 0.000580 
#    y 0.000000 1.748600 0.000000 
#    z 0.000580 0.000000 1.756280 
# 
# From -- ./inp_files/377959.got.cif
#   From: 2010.06.25/outbox.cif.g09.slc.cpg/sg12_189_cif.got.tgz:377959.got - 2010.06.28 00:19:55.
