data_PCOD8108059
_publ_section_title
;
Structure prediction by ZEFSAII (Michael W. Deem and Ramdas Pophale) SiO2 
 PCOD8108059
Probable space group: C 2/M
;
_chemical_formula_sum "Si O2"
_cell_formula_units_Z 56
_cell_length_a 24.134156
_cell_length_b 21.042077
_cell_length_c 18.018156
_cell_angle_alpha 90.000000
_cell_angle_beta 17.646525
_cell_angle_gamma 90.000000
_cell_volume 2773.829405
_symmetry_space_group_name_H-M "C 2/M"
_symmetry_group_IT_number 12
_symmetry_cell_setting 'monoclinic'
loop_
_space_group_symop_operation_xyz
x,y,z
-x,y,-z
-x,-y,-z
x,-y,z
1/2+x,1/2+y,z
1/2-x,1/2+y,-z
1/2-x,1/2-y,-z
1/2+x,1/2-y,z
loop_
_atom_site_type_symbol
_atom_site_label
_atom_site_fract_x
_atom_site_fract_y
_atom_site_fract_z
Si Si1 0.542995 0.784315 0.604962
Si Si2 0.786763 0.180781 0.418942
Si Si3 0.904241 0.072064 0.371904
Si Si4 0.201397 0.160851 0.224481
Si Si5 0.166962 0.161628 0.098397
Si Si6 0.320477 0.929496 0.195690
Si Si7 0.388005 0.264163 0.071973
O O1 0.627060 0.828323 0.562346
O O2 0.502569 0.712058 0.684964
O O3 0.686833 0.786630 0.353900
O O4 0.346855 0.810618 0.828048
O O5 0.750000 0.250000 0.500000
O O6 0.778952 0.118982 0.481827
O O7 0.988392 0.180720 0.122819
O O8 0.832900 0.070723 0.546338
O O9 0.106400 0.102014 0.124984
O O10 0.911832 0.000000 0.329044
O O11 0.220609 0.143271 0.113859
O O12 0.235680 0.099121 0.229917
O O13 0.358548 0.210896 0.046556
O O14 0.000000 0.188304 0.500000
O O15 0.380899 0.000000 0.095056
O O16 0.500000 0.894119 0.000000
O O17 0.500000 0.236446 0.000000
#
# Coordination Sequence:
#
# PCOD8108059 Si02
#       7
#     8   8   8   8   8   8   8
#     4  10  21  38  59  89 120 151 201 255 307 348
#     4  11  22  38  65  90 115 156 204 254 301 356
#     4  11  24  42  59  86 125 166 202 246 306 361
#     4  12  21  32  55  86 120 156 193 237 296 356
#     4  11  22  37  56  88 127 159 194 247 302 366
#     4  10  23  39  56  79 118 164 203 238 287 362
#     4  10  22  37  58  88 121 150 196 258 308 350
#
# _framework density 20.188696
#
# number of rings (size 3 to 8) (size 9 to 14) (size 15 to 20)
#    0.000    1.286    4.286    1.286    8.000    0.857 
#    0.000    0.714    0.000    5.571    0.000    0.000 
#    0.000    0.000    0.000    0.000    0.000    0.000 
#
# Total GULP energy -347001.633415 kJ/mol
# GULP energy per Si atom -12392.915479 kJ/mol
# Density = 2.014275 g / cm^3
# Si number density = 20.188696 Si / 1000 Ang^3
#
#
#
# Elastic Constant Matrix: (Units=GPa)
#
#
# Indices 1 2 3 4 5 6 
#
# 1 95.3564 43.9934 4.4403 -0.0601 -13.8031 0.0727
# 2 43.9934 110.1115 16.1674 -0.0995 -7.8756 0.1054
# 3 4.4403 16.1674 99.9269 -0.0544 -4.6516 0.0972
# 4 -0.0601 -0.0995 -0.0544 19.0264 0.0743 -7.8333
# 5 -13.8031 -7.8756 -4.6516 0.0743 27.9066 -0.0690
# 6 0.0727 0.1054 0.0972 -7.8333 -0.0690 23.7717
#
#
#
# Elastic Compliance Matrix: (Units=1/GPa)
#
#
# Indices 1 2 3 4 5 6 
#
# 1 0.013604 -0.005121 0.000474 -0.000006 0.005362 -0.000007
# 2 -0.005121 0.011392 -0.001596 0.000030 0.000416 -0.000017
# 3 0.000474 -0.001596 0.010315 0.000004 0.001503 -0.000031
# 4 -0.000006 0.000030 0.000004 0.060809 -0.000106 0.020038
# 5 0.005362 0.000416 0.001503 -0.000106 0.038854 0.000053
# 6 -0.000007 -0.000017 -0.000031 0.020038 0.000053 0.048670
#
#
# Mechanical properties :
#
#
# Convention : Reuss Voigt Hill
#
# Bulk Modulus (GPa) = 43.81561 48.28856 46.05209
# Shear Modulus (GPa) = 24.54124 30.19384 27.36754
#
# Velocity S-wave (km/s) = 3.49032 3.87147 3.68582
# Velocity P-wave (km/s) = 6.16387 6.62985 6.40110
#
# Compressibility (1/GPa) = 0.02282292
#
# Stress axis : x y z
#
# Youngs Moduli (GPa) = 73.50852 87.78120 96.95071
#
# Poissons Ratio (x) = 0.44955 -0.04593
# Poissons Ratio (y) = 0.37645 0.15475
# Poissons Ratio (z) = -0.03482 0.14012
#
# Static dielectric constant tensor:
#      x y z
#    x 3.793360 -0.000260 -0.176180 
#    y -0.000260 3.527550 0.000520 
#    z -0.176180 0.000520 3.829240 
# 
# 
# High freq. dielectric constant tensor:
#      x y z
#    x 1.793620 -0.000020 -0.018610 
#    y -0.000020 1.742520 0.000030 
#    z -0.018610 0.000030 1.795260 
# 
# From -- ./inp_files/290808.got.cif
#   From: 2010.06.25/outbox.cif.g09.slc.cpg/sg12_146_cif.got.tgz:290808.got - 2010.06.28 00:19:55.
