data_PCOD8108216
_publ_section_title
;
Structure prediction by ZEFSAII (Michael W. Deem and Ramdas Pophale) SiO2 
 PCOD8108216
Probable space group: C 2/M
;
_chemical_formula_sum "Si O2"
_cell_formula_units_Z 48
_cell_length_a 11.060309
_cell_length_b 18.916747
_cell_length_c 12.359871
_cell_angle_alpha 90.000000
_cell_angle_beta 110.898882
_cell_angle_gamma 90.000000
_cell_volume 2415.865950
_symmetry_space_group_name_H-M "C 2/M"
_symmetry_group_IT_number 12
_symmetry_cell_setting 'monoclinic'
loop_
_space_group_symop_operation_xyz
x,y,z
-x,y,-z
-x,-y,-z
x,-y,z
1/2+x,1/2+y,z
1/2-x,1/2+y,-z
1/2-x,1/2-y,-z
1/2+x,1/2-y,z
loop_
_atom_site_type_symbol
_atom_site_label
_atom_site_fract_x
_atom_site_fract_y
_atom_site_fract_z
Si Si1 0.273032 0.832432 0.735001
Si Si2 0.385090 0.316186 0.748880
Si Si3 0.499012 0.080695 0.123070
Si Si4 0.368555 0.300167 0.506131
Si Si5 0.658021 0.311607 0.921348
Si Si6 0.789800 0.919032 0.888243
O O1 0.284343 0.747574 0.729953
O O2 0.407143 0.874377 0.769817
O O3 0.183080 0.854550 0.603387
O O4 0.214100 0.849519 0.832934
O O5 0.409533 0.337873 0.631523
O O6 0.514962 0.284409 0.846458
O O7 0.324685 0.386014 0.783415
O O8 0.361245 0.088321 0.135045
O O9 0.547478 0.000000 0.136364
O O10 0.500000 0.110470 0.000000
O O11 0.500000 0.263053 0.500000
O O12 0.250000 0.250000 0.500000
O O13 0.750000 0.250000 0.000000
O O14 0.634158 0.374481 0.997898
O O15 0.835828 0.000000 0.905974
#
# Coordination Sequence:
#
# PCOD8108216 Si02
#       6
#     8   8   8   8   8   8
#     4  11  22  36  64  90 121 156 206 253 307 370
#     4  11  24  38  60  88 128 163 206 254 305 372
#     4  10  21  38  60  89 123 157 197 252 317 381
#     4  10  22  41  62  91 126 169 212 260 314 369
#     4  12  22  35  59  93 126 156 201 251 310 372
#     4  11  24  40  60  90 128 165 202 252 318 379
#
# _framework density 19.868652999999998
#
# number of rings (size 3 to 8) (size 9 to 14) (size 15 to 20)
#    0.000    1.167    5.000    1.500    0.000    2.667 
#    0.000    0.833    0.000    3.000    0.000    0.000 
#    0.000    0.000    0.000    0.000    0.000    0.000 
#
# Total GULP energy -297436.271724 kJ/mol
# GULP energy per Si atom -12393.177988 kJ/mol
# Density = 1.982343 g / cm^3
# Si number density = 19.868653 Si / 1000 Ang^3
#
#
#
# Elastic Constant Matrix: (Units=GPa)
#
#
# Indices 1 2 3 4 5 6 
#
# 1 105.5199 22.5176 53.6771 0.0000 -7.0627 0.0000
# 2 22.5176 78.9693 48.8225 0.0000 -3.0121 0.0000
# 3 53.6771 48.8225 162.0428 0.0000 -9.0995 0.0000
# 4 0.0000 0.0000 0.0000 14.9844 0.0000 -2.1177
# 5 -7.0627 -3.0121 -9.0995 0.0000 38.2339 0.0000
# 6 0.0000 0.0000 0.0000 -2.1177 0.0000 31.3366
#
#
#
# Elastic Compliance Matrix: (Units=1/GPa)
#
#
# Indices 1 2 3 4 5 6 
#
# 1 0.011536 -0.001134 -0.003411 0.000000 0.001230 0.000000
# 2 -0.001134 0.015674 -0.004347 0.000000 -0.000009 0.000000
# 3 -0.003411 -0.004347 0.008672 0.000000 0.001091 0.000000
# 4 0.000000 0.000000 0.000000 0.067380 0.000000 0.004554
# 5 0.001230 -0.000009 0.001091 0.000000 0.026641 0.000000
# 6 0.000000 0.000000 0.000000 0.004554 0.000000 0.032219
#
#
# Mechanical properties :
#
#
# Convention : Reuss Voigt Hill
#
# Bulk Modulus (GPa) = 55.25388 66.28514 60.76951
# Shear Modulus (GPa) = 26.89056 31.67863 29.28459
#
# Velocity S-wave (km/s) = 3.68287 3.99733 3.84332
# Velocity P-wave (km/s) = 6.77899 7.39858 7.09555
#
# Compressibility (1/GPa) = 0.01809828
#
# Stress axis : x y z
#
# Youngs Moduli (GPa) = 86.68395 63.80047 115.31196
#
# Poissons Ratio (x) = 0.07234 0.39329
# Poissons Ratio (y) = 0.09829 0.50130
# Poissons Ratio (z) = 0.29565 0.27736
#
# Static dielectric constant tensor:
#      x y z
#    x 3.743030 0.000000 -0.019820 
#    y 0.000000 3.334240 0.000000 
#    z -0.019820 0.000000 4.343590 
# 
# 
# High freq. dielectric constant tensor:
#      x y z
#    x 1.794330 0.000000 -0.002610 
#    y 0.000000 1.729500 0.000000 
#    z -0.002610 0.000000 1.787120 
# 
# From -- ./inp_files/131739.got.cif
#   From: 2010.06.25/outbox.cif.g09.slc.cpg/sg12_66_cif.got.tgz:131739.got - 2010.06.28 00:19:55.
