data_PCOD8108877
_publ_section_title
;
Structure prediction by ZEFSAII (Michael W. Deem and Ramdas Pophale) SiO2 
 PCOD8108877
Probable space group: C 2/M
;
_chemical_formula_sum "Si O2"
_cell_formula_units_Z 64
_cell_length_a 15.170816
_cell_length_b 8.913641
_cell_length_c 32.977388
_cell_angle_alpha 90.000000
_cell_angle_beta 46.363493
_cell_angle_gamma 90.000000
_cell_volume 3227.440884
_symmetry_space_group_name_H-M "C 2/M"
_symmetry_group_IT_number 12
_symmetry_cell_setting 'monoclinic'
loop_
_space_group_symop_operation_xyz
x,y,z
-x,y,-z
-x,-y,-z
x,-y,z
1/2+x,1/2+y,z
1/2-x,1/2+y,-z
1/2-x,1/2-y,-z
1/2+x,1/2-y,z
loop_
_atom_site_type_symbol
_atom_site_label
_atom_site_fract_x
_atom_site_fract_y
_atom_site_fract_z
Si Si1 0.435145 0.676717 0.707762
Si Si2 0.150168 0.174509 0.004483
Si Si3 0.021524 0.829557 0.215286
Si Si4 0.875336 0.823786 0.419912
Si Si5 0.420739 0.823916 0.114656
Si Si6 0.680949 0.670487 0.778989
Si Si7 0.240734 0.326816 0.117246
Si Si8 0.095974 0.677144 0.504560
O O1 0.415544 0.500000 0.712422
O O2 0.473397 0.730252 0.740393
O O3 0.540594 0.728968 0.643857
O O4 0.310164 0.751942 0.734119
O O5 0.021519 0.249035 0.054166
O O6 0.142317 0.000000 0.017201
O O7 0.250000 0.250000 0.000000
O O8 0.187243 0.203830 0.946723
O O9 0.100155 0.722727 0.160207
O O10 0.881524 0.822071 0.245336
O O11 0.070315 0.000000 0.196506
O O12 0.930209 0.746644 0.442878
O O13 0.737170 0.777628 0.450884
O O14 0.881937 0.000000 0.425599
O O15 0.414689 0.754787 0.161201
O O16 0.291939 0.783337 0.135570
O O17 0.444699 0.000000 0.109733
O O18 0.697636 0.500000 0.788774
O O19 0.253068 0.500000 0.125911
O O20 0.080187 0.500000 0.513043
O O21 0.000000 0.735862 0.500000
#
# Coordination Sequence:
#
# PCOD8108877 Si02
#       8
#     8   8   8   8   8   8   8   8
#     4  10  21  39  59  83 118 159 198 240 296 353
#     4  11  24  40  58  84 115 147 189 241 297 360
#     4  10  22  39  60  85 115 153 194 240 297 359
#     4   9  19  35  56  84 120 158 197 243 293 344
#     4  12  24  39  60  84 113 151 192 239 301 362
#     4  11  23  39  61  88 116 152 200 249 297 353
#     4  11  23  39  60  85 113 146 190 242 294 353
#     4   9  18  34  58  87 119 157 200 243 291 346
#
# _framework density 19.829953
#
# number of rings (size 3 to 8) (size 9 to 14) (size 15 to 20)
#    0.000    1.625    1.250    3.375    0.000    8.250 
#    0.000    2.500    0.000    0.000    0.000    0.000 
#    0.000    0.000    0.000    0.000    0.000    0.000 
#
# Total GULP energy -396758.654414 kJ/mol
# GULP energy per Si atom -12398.707950 kJ/mol
# Density = 1.978482 g / cm^3
# Si number density = 19.829953 Si / 1000 Ang^3
#
#
#
# Elastic Constant Matrix: (Units=GPa)
#
#
# Indices 1 2 3 4 5 6 
#
# 1 129.2340 31.2631 51.8867 0.0000 -1.9240 -0.0007
# 2 31.2631 66.1003 54.7440 0.0009 1.1184 0.0005
# 3 51.8867 54.7440 138.8978 0.0000 -9.9033 -0.0008
# 4 0.0000 0.0009 0.0000 30.2985 0.0003 -0.9017
# 5 -1.9240 1.1184 -9.9033 0.0003 15.7682 -0.0004
# 6 -0.0007 0.0005 -0.0008 -0.9017 -0.0004 31.0711
#
#
#
# Elastic Compliance Matrix: (Units=1/GPa)
#
#
# Indices 1 2 3 4 5 6 
#
# 1 0.009328 -0.002225 -0.002633 0.000000 -0.000358 0.000000
# 2 -0.002225 0.023868 -0.009125 -0.000001 -0.007695 -0.000001
# 3 -0.002633 -0.009125 0.012356 0.000000 0.008086 0.000000
# 4 0.000000 -0.000001 0.000000 0.033033 0.000000 0.000959
# 5 -0.000358 -0.007695 0.008086 0.000000 0.068999 0.000001
# 6 0.000000 -0.000001 0.000000 0.000959 0.000001 0.032212
#
#
# Mechanical properties :
#
#
# Convention : Reuss Voigt Hill
#
# Bulk Modulus (GPa) = 56.86174 67.77998 62.32086
# Shear Modulus (GPa) = 23.40553 28.51679 25.96116
#
# Velocity S-wave (km/s) = 3.43929 3.79630 3.62220
# Velocity P-wave (km/s) = 6.67148 7.31236 6.99926
#
# Compressibility (1/GPa) = 0.01758652
#
# Stress axis : x y z
#
# Youngs Moduli (GPa) = 107.20380 41.89697 80.93220
#
# Poissons Ratio (x) = 0.09322 0.21311
# Poissons Ratio (y) = 0.23853 0.73848
# Poissons Ratio (z) = 0.28228 0.38229
#
# Static dielectric constant tensor:
#      x y z
#    x 3.707310 0.000000 -0.013900 
#    y 0.000000 3.571180 0.000000 
#    z -0.013900 0.000000 3.495530 
# 
# 
# High freq. dielectric constant tensor:
#      x y z
#    x 1.784600 0.000000 -0.000650 
#    y 0.000000 1.771950 0.000000 
#    z -0.000650 0.000000 1.769180 
# 
# From -- ./inp_files/375424.got.cif
#   From: 2010.06.25/outbox.cif.g09.slc.cpg/sg12_188_cif.got.tgz:375424.got - 2010.06.28 00:19:55.
