data_PCOD8108213
_publ_section_title
;
Structure prediction by ZEFSAII (Michael W. Deem and Ramdas Pophale) SiO2 
 PCOD8108213
Probable space group: C 2/M
;
_chemical_formula_sum "Si O2"
_cell_formula_units_Z 36
_cell_length_a 11.310162
_cell_length_b 15.456258
_cell_length_c 9.569325
_cell_angle_alpha 90.000000
_cell_angle_beta 72.451740
_cell_angle_gamma 90.000000
_cell_volume 1594.991905
_symmetry_space_group_name_H-M "C 2/M"
_symmetry_group_IT_number 12
_symmetry_cell_setting 'monoclinic'
loop_
_space_group_symop_operation_xyz
x,y,z
-x,y,-z
-x,-y,-z
x,-y,z
1/2+x,1/2+y,z
1/2-x,1/2+y,-z
1/2-x,1/2-y,-z
1/2+x,1/2-y,z
loop_
_atom_site_type_symbol
_atom_site_label
_atom_site_fract_x
_atom_site_fract_y
_atom_site_fract_z
Si Si1 0.500000 0.169526 0.500000
Si Si2 0.393683 0.675482 0.385988
Si Si3 0.346373 0.599949 0.688407
Si Si4 0.862809 0.602592 0.032924
Si Si5 0.290408 0.900366 0.752563
O O1 0.599113 0.227427 0.553464
O O2 0.576154 0.108570 0.368763
O O3 0.335176 0.613153 0.525989
O O4 0.533612 0.649572 0.296137
O O5 0.309432 0.665076 0.279514
O O6 0.363505 0.500000 0.717621
O O7 0.224966 0.636817 0.810619
O O8 0.874982 0.500000 0.035702
O O9 0.802768 0.630279 0.907476
O O10 0.000000 0.644103 0.000000
O O11 0.246231 0.000000 0.756767
#
# Coordination Sequence:
#
# PCOD8108213 Si02
#       5
#     4   8   8   8   8
#     4  10  23  40  59  88 132 158 190 248 313 348
#     4  10  21  38  60  89 120 158 198 245 301 358
#     4   9  17  34  59  86 121 158 197 246 300 355
#     4   9  20  36  56  88 124 155 196 254 304 344
#     4  11  22  38  64  92 116 157 211 247 288 357
#
# _framework density 22.570647000000001
#
# number of rings (size 3 to 8) (size 9 to 14) (size 15 to 20)
#    0.000    2.444    0.000    3.667    3.111    0.889 
#    0.000    7.778    0.000    0.000    0.000    0.000 
#    0.000    0.000    0.000    0.000    0.000    0.000 
#
# Total GULP energy -223211.439014 kJ/mol
# GULP energy per Si atom -12400.635501 kJ/mol
# Density = 2.251927 g / cm^3
# Si number density = 22.570647 Si / 1000 Ang^3
#
#
#
# Elastic Constant Matrix: (Units=GPa)
#
#
# Indices 1 2 3 4 5 6 
#
# 1 128.2266 7.2608 81.7622 0.0000 4.2452 0.0000
# 2 7.2608 37.5853 2.1589 0.0000 6.3521 0.0000
# 3 81.7622 2.1589 117.7830 0.0000 -15.2108 0.0000
# 4 0.0000 0.0000 0.0000 16.1854 0.0000 -0.9821
# 5 4.2452 6.3521 -15.2108 0.0000 50.4583 0.0000
# 6 0.0000 0.0000 0.0000 -0.9821 0.0000 17.3361
#
#
#
# Elastic Compliance Matrix: (Units=1/GPa)
#
#
# Indices 1 2 3 4 5 6 
#
# 1 0.015022 -0.001533 -0.010965 0.000000 -0.004376 0.000000
# 2 -0.001533 0.027450 0.000136 0.000000 -0.003285 0.000000
# 3 -0.010965 0.000136 0.016873 0.000000 0.005992 0.000000
# 4 0.000000 0.000000 0.000000 0.061997 0.000000 0.003512
# 5 -0.004376 -0.003285 0.005992 0.000000 0.022406 0.000000
# 6 0.000000 0.000000 0.000000 0.003512 0.000000 0.057882
#
#
# Mechanical properties :
#
#
# Convention : Reuss Voigt Hill
#
# Bulk Modulus (GPa) = 28.88294 51.77319 40.32806
# Shear Modulus (GPa) = 21.01780 29.62351 25.32065
#
# Velocity S-wave (km/s) = 3.05487 3.62675 3.35302
# Velocity P-wave (km/s) = 5.02667 6.36599 5.73556
#
# Compressibility (1/GPa) = 0.03462251
#
# Stress axis : x y z
#
# Youngs Moduli (GPa) = 66.56845 36.43039 59.26562
#
# Poissons Ratio (x) = 0.05583 0.64985
# Poissons Ratio (y) = 0.10202 -0.00809
# Poissons Ratio (z) = 0.72993 -0.00497
#
# Static dielectric constant tensor:
#      x y z
#    x 4.049100 0.000000 -0.153910 
#    y 0.000000 3.731460 0.000000 
#    z -0.153910 0.000000 4.115600 
# 
# 
# High freq. dielectric constant tensor:
#      x y z
#    x 1.891590 0.000000 -0.009100 
#    y 0.000000 1.868860 0.000000 
#    z -0.009100 0.000000 1.885440 
# 
# From -- ./inp_files/46792.got.cif
#   From: 2010.06.25/outbox.cif.g09.slc.cpg/sg12_24_cif.got.tgz:46792.got - 2010.06.28 00:19:55.
