data_PCOD8108065
_publ_section_title
;
Structure prediction by ZEFSAII (Michael W. Deem and Ramdas Pophale) SiO2 
 PCOD8108065
Probable space group: C 2/M
;
_chemical_formula_sum "Si O2"
_cell_formula_units_Z 44
_cell_length_a 14.950630
_cell_length_b 17.662936
_cell_length_c 12.017049
_cell_angle_alpha 90.000000
_cell_angle_beta 136.461309
_cell_angle_gamma 90.000000
_cell_volume 2185.955218
_symmetry_space_group_name_H-M "C 2/M"
_symmetry_group_IT_number 12
_symmetry_cell_setting 'monoclinic'
loop_
_space_group_symop_operation_xyz
x,y,z
-x,y,-z
-x,-y,-z
x,-y,z
1/2+x,1/2+y,z
1/2-x,1/2+y,-z
1/2-x,1/2-y,-z
1/2+x,1/2-y,z
loop_
_atom_site_type_symbol
_atom_site_label
_atom_site_fract_x
_atom_site_fract_y
_atom_site_fract_z
Si Si1 0.615480 0.627878 0.518306
Si Si2 0.821082 0.914605 0.661784
Si Si3 0.000000 0.842395 0.000000
Si Si4 0.193119 0.259899 0.067284
Si Si5 0.132943 0.703884 0.575629
Si Si6 0.153643 0.416404 0.121471
O O1 0.500000 0.602581 0.500000
O O2 0.597315 0.591471 0.379767
O O3 0.606205 0.717767 0.487115
O O4 0.757802 0.601460 0.689899
O O5 0.700345 0.855957 0.553430
O O6 0.768559 0.000000 0.626375
O O7 0.905791 0.897187 0.847187
O O8 0.059394 0.785565 0.960750
O O9 0.283213 0.225068 0.242311
O O10 0.182192 0.350623 0.060272
O O11 0.250000 0.250000 0.000000
O O12 0.000000 0.666770 0.500000
O O13 0.192469 0.500000 0.111304
O O14 0.000000 0.414708 0.000000
#
# Coordination Sequence:
#
# PCOD8108065 Si02
#       6
#     8   8   4   8   8   8
#     4  10  22  40  64  92 121 160 207 250 303 362
#     4  11  23  39  61  89 124 161 199 249 305 359
#     4  10  23  40  59  86 120 162 206 244 289 368
#     4  10  21  38  60  85 117 161 203 239 294 363
#     4   9  21  39  60  87 115 154 203 249 294 359
#     4  10  21  38  59  90 125 153 197 258 309 351
#
# _framework density 20.128499000000001
#
# number of rings (size 3 to 8) (size 9 to 14) (size 15 to 20)
#    0.000    2.000    0.909    1.364    7.636    3.273 
#    0.000    3.636    0.000    0.000    0.000    0.000 
#    0.000    0.000    0.000    0.000    0.000    0.000 
#
# Total GULP energy -272611.165853 kJ/mol
# GULP energy per Si atom -12391.416630 kJ/mol
# Density = 2.008269 g / cm^3
# Si number density = 20.128499 Si / 1000 Ang^3
#
#
#
# Elastic Constant Matrix: (Units=GPa)
#
#
# Indices 1 2 3 4 5 6 
#
# 1 126.0402 63.4178 26.1018 0.0000 -5.9843 0.0000
# 2 63.4178 154.6506 23.9130 0.0000 -10.2279 0.0000
# 3 26.1018 23.9130 44.7912 0.0000 5.9061 0.0000
# 4 0.0000 0.0000 0.0000 10.8437 0.0000 -5.9162
# 5 -5.9843 -10.2279 5.9061 0.0000 34.5253 0.0000
# 6 0.0000 0.0000 0.0000 -5.9162 0.0000 16.9206
#
#
#
# Elastic Compliance Matrix: (Units=1/GPa)
#
#
# Indices 1 2 3 4 5 6 
#
# 1 0.010767 -0.003606 -0.004557 0.000000 0.001577 0.000000
# 2 -0.003606 0.008530 -0.002765 0.000000 0.002375 0.000000
# 3 -0.004557 -0.002765 0.027285 0.000000 -0.006277 0.000000
# 4 0.000000 0.000000 0.000000 0.113959 0.000000 0.039845
# 5 0.001577 0.002375 -0.006277 0.000000 0.031015 0.000000
# 6 0.000000 0.000000 0.000000 0.039845 0.000000 0.073031
#
#
# Mechanical properties :
#
#
# Convention : Reuss Voigt Hill
#
# Bulk Modulus (GPa) = 40.44558 61.37190 50.90874
# Shear Modulus (GPa) = 16.96717 26.59455 21.78086
#
# Velocity S-wave (km/s) = 2.90650 3.63883 3.29308
# Velocity P-wave (km/s) = 5.60365 6.94341 6.30920
#
# Compressibility (1/GPa) = 0.02472458
#
# Stress axis : x y z
#
# Youngs Moduli (GPa) = 92.87500 117.23736 36.64951
#
# Poissons Ratio (x) = 0.42280 0.16702
# Poissons Ratio (y) = 0.33494 0.10135
# Poissons Ratio (z) = 0.42325 0.32421
#
# Static dielectric constant tensor:
#      x y z
#    x 3.602380 0.000000 0.332440 
#    y 0.000000 4.085460 0.000000 
#    z 0.332440 0.000000 3.640610 
# 
# 
# High freq. dielectric constant tensor:
#      x y z
#    x 1.775720 0.000000 0.009720 
#    y 0.000000 1.795790 0.000000 
#    z 0.009720 0.000000 1.779660 
# 
# From -- ./inp_files/145805.got.cif
#   From: 2010.06.25/outbox.cif.g09.slc.cpg/sg12_73_cif.got.tgz:145805.got - 2010.06.28 00:19:55.
