data_PCOD8108197
_publ_section_title
;
Structure prediction by ZEFSAII (Michael W. Deem and Ramdas Pophale) SiO2 
 PCOD8108197
Probable space group: C 2/M
;
_chemical_formula_sum "Si O2"
_cell_formula_units_Z 64
_cell_length_a 18.090563
_cell_length_b 8.842667
_cell_length_c 34.449723
_cell_angle_alpha 90.000000
_cell_angle_beta 144.827245
_cell_angle_gamma 90.000000
_cell_volume 3174.508605
_symmetry_space_group_name_H-M "C 2/M"
_symmetry_group_IT_number 12
_symmetry_cell_setting 'monoclinic'
loop_
_space_group_symop_operation_xyz
x,y,z
-x,y,-z
-x,-y,-z
x,-y,z
1/2+x,1/2+y,z
1/2-x,1/2+y,-z
1/2-x,1/2-y,-z
1/2+x,1/2-y,z
loop_
_atom_site_type_symbol
_atom_site_label
_atom_site_fract_x
_atom_site_fract_y
_atom_site_fract_z
Si Si1 0.706225 0.676593 0.245964
Si Si2 0.967732 0.323754 0.766695
Si Si3 0.267351 0.323144 0.896403
Si Si4 0.788886 0.174436 0.630252
Si Si5 0.574784 0.828479 0.601474
Si Si6 0.864395 0.673333 0.860712
Si Si7 0.307888 0.323110 0.487025
Si Si8 0.840011 0.325758 0.006934
O O1 0.672848 0.500000 0.233413
O O2 0.594156 0.765224 0.220067
O O3 0.843553 0.707943 0.324879
O O4 0.714558 0.733837 0.205495
O O5 0.937663 0.500000 0.749551
O O6 0.911816 0.237680 0.705528
O O7 0.117183 0.288202 0.832377
O O8 0.296136 0.500000 0.905645
O O9 0.334542 0.240262 0.889732
O O10 0.329946 0.260666 0.962200
O O11 0.661951 0.196488 0.601294
O O12 0.773298 0.264480 0.584030
O O13 0.813567 0.000000 0.631380
O O14 0.457548 0.714782 0.547680
O O15 0.522139 0.000000 0.580068
O O16 0.819466 0.500000 0.840229
O O17 0.014694 0.687669 0.915866
O O18 0.289979 0.500000 0.481927
O O19 0.250000 0.250000 0.500000
O O20 0.799566 0.500000 0.984089
O O21 0.750000 0.250000 0.000000
#
# Coordination Sequence:
#
# PCOD8108197 Si02
#       8
#     8   8   8   8   8   8   8   8
#     4  10  21  38  62  89 117 153 194 237 287 342
#     4  10  21  38  60  88 120 151 191 240 285 338
#     4  11  24  40  60  87 119 156 194 237 291 345
#     4  10  21  39  63  88 116 152 192 236 288 343
#     4   9  20  39  61  86 117 150 189 238 287 340
#     4  11  24  40  59  86 120 155 193 240 290 343
#     4  12  25  39  58  84 116 154 194 238 290 345
#     4  11  24  41  62  88 117 152 195 242 290 341
#
# _framework density 20.160601
#
# number of rings (size 3 to 8) (size 9 to 14) (size 15 to 20)
#    0.000    1.500    0.000    5.625    0.000   14.000 
#    0.000    1.250    0.000    0.000    0.000    0.000 
#    0.000    0.000    0.000    0.000    0.000    0.000 
#
# Total GULP energy -397010.919238 kJ/mol
# GULP energy per Si atom -12406.591226 kJ/mol
# Density = 2.011471 g / cm^3
# Si number density = 20.160601 Si / 1000 Ang^3
#
#
#
# Elastic Constant Matrix: (Units=GPa)
#
#
# Indices 1 2 3 4 5 6 
#
# 1 42.0324 12.4237 13.5963 0.0000 -21.3739 0.0000
# 2 12.4237 107.2257 34.8370 -0.0001 -1.1025 0.0001
# 3 13.5963 34.8370 83.7078 0.0000 -24.0765 0.0000
# 4 0.0000 -0.0001 0.0000 40.2126 0.0000 -3.7844
# 5 -21.3739 -1.1025 -24.0765 0.0000 34.2352 0.0000
# 6 0.0000 0.0001 0.0000 -3.7844 0.0000 38.4782
#
#
#
# Elastic Compliance Matrix: (Units=1/GPa)
#
#
# Indices 1 2 3 4 5 6 
#
# 1 0.037138 -0.005155 0.003428 0.000000 0.025431 0.000000
# 2 -0.005155 0.011850 -0.006155 0.000000 -0.007166 0.000000
# 3 0.003428 -0.006155 0.018189 0.000000 0.014734 0.000000
# 4 0.000000 0.000000 0.000000 0.025100 0.000000 0.002469
# 5 0.025431 -0.007166 0.014734 0.000000 0.055218 0.000000
# 6 0.000000 0.000000 0.000000 0.002469 0.000000 0.026232
#
#
# Mechanical properties :
#
#
# Convention : Reuss Voigt Hill
#
# Bulk Modulus (GPa) = 19.45094 39.40885 29.42990
# Shear Modulus (GPa) = 24.19811 34.05913 29.12862
#
# Velocity S-wave (km/s) = 3.46825 4.11468 3.80521
# Velocity P-wave (km/s) = 5.07023 6.49338 5.82543
#
# Compressibility (1/GPa) = 0.05141139
#
# Stress axis : x y z
#
# Youngs Moduli (GPa) = 26.92666 84.39158 54.97863
#
# Poissons Ratio (x) = 0.43505 -0.18846
# Poissons Ratio (y) = 0.13881 0.33840
# Poissons Ratio (z) = -0.09230 0.51944
#
# Static dielectric constant tensor:
#      x y z
#    x 3.537950 0.000000 -0.066510 
#    y 0.000000 3.791780 0.000000 
#    z -0.066510 0.000000 3.757040 
# 
# 
# High freq. dielectric constant tensor:
#      x y z
#    x 1.785940 0.000000 -0.006880 
#    y 0.000000 1.801890 0.000000 
#    z -0.006880 0.000000 1.800560 
# 
# From -- ./inp_files/378333.got.cif
#   From: 2010.06.25/outbox.cif.g09.slc.cpg/sg12_190_cif.got.tgz:378333.got - 2010.06.28 00:19:55.
