data_PCOD8108768
_publ_section_title
;
Structure prediction by ZEFSAII (Michael W. Deem and Ramdas Pophale) SiO2 
 PCOD8108768
Probable space group: C 2/M
;
_chemical_formula_sum "Si O2"
_cell_formula_units_Z 48
_cell_length_a 14.503715
_cell_length_b 34.211313
_cell_length_c 5.008837
_cell_angle_alpha 90.000000
_cell_angle_beta 114.163429
_cell_angle_gamma 90.000000
_cell_volume 2267.578895
_symmetry_space_group_name_H-M "C 2/M"
_symmetry_group_IT_number 12
_symmetry_cell_setting 'monoclinic'
loop_
_space_group_symop_operation_xyz
x,y,z
-x,y,-z
-x,-y,-z
x,-y,z
1/2+x,1/2+y,z
1/2-x,1/2+y,-z
1/2-x,1/2-y,-z
1/2+x,1/2-y,z
loop_
_atom_site_type_symbol
_atom_site_label
_atom_site_fract_x
_atom_site_fract_y
_atom_site_fract_z
Si Si1 0.607980 0.342001 0.598993
Si Si2 0.181468 0.414375 0.830245
Si Si3 0.389979 0.603328 0.897858
Si Si4 0.932121 0.336535 0.160545
Si Si5 0.771390 0.723184 0.781595
Si Si6 0.610750 0.044205 0.249233
O O1 0.500000 0.320387 0.500000
O O2 0.621487 0.368885 0.362860
O O3 0.692107 0.310577 0.677712
O O4 0.617586 0.369872 0.856834
O O5 0.290611 0.423154 0.816810
O O6 0.150417 0.368881 0.842775
O O7 0.105115 0.433036 0.524482
O O8 0.184105 0.435986 0.117788
O O9 0.500000 0.581176 0.000000
O O10 0.000000 0.324635 0.500000
O O11 0.879854 0.297978 0.962564
O O12 0.000000 0.354661 0.000000
O O13 0.750000 0.750000 0.500000
O O14 0.750000 0.750000 0.000000
O O15 0.647429 0.000000 0.344147
O O16 0.500000 0.045462 0.000000
#
# Coordination Sequence:
#
# PCOD8108768 Si02
#       6
#     8   8   8   8   8   8
#     4  10  21  40  62  84 115 155 210 265 315 373
#     4  12  22  40  70  93 130 171 211 263 323 373
#     4  10  21  38  65  94 117 152 208 271 312 358
#     4  12  26  42  65  96 131 167 219 273 329 391
#     4  12  26  42  63  88 127 170 211 269 331 391
#     4  11  24  41  62  97 136 174 214 251 305 386
#
# _framework density 21.167952
#
# number of rings (size 3 to 8) (size 9 to 14) (size 15 to 20)
#    0.000    0.833    1.667    6.500    2.333    3.333 
#    0.000    0.000    0.000    3.000    0.000    0.000 
#    0.000    0.000    0.000    0.000    0.000    0.000 
#
# Total GULP energy -297331.798931 kJ/mol
# GULP energy per Si atom -12388.824955 kJ/mol
# Density = 2.111977 g / cm^3
# Si number density = 21.167952 Si / 1000 Ang^3
#
#
#
# Elastic Constant Matrix: (Units=GPa)
#
#
# Indices 1 2 3 4 5 6 
#
# 1 119.5888 25.5600 30.6958 0.0000 -3.8926 0.0000
# 2 25.5600 79.9442 39.3210 0.0000 -2.6212 0.0000
# 3 30.6958 39.3210 129.4423 0.0000 -24.1033 0.0000
# 4 0.0000 0.0000 0.0000 33.5243 0.0000 -5.9504
# 5 -3.8926 -2.6212 -24.1033 0.0000 45.0789 0.0000
# 6 0.0000 0.0000 0.0000 -5.9504 0.0000 22.7124
#
#
#
# Elastic Compliance Matrix: (Units=1/GPa)
#
#
# Indices 1 2 3 4 5 6 
#
# 1 0.009223 -0.002191 -0.001552 0.000000 -0.000161 0.000000
# 2 -0.002191 0.015345 -0.004454 0.000000 -0.001679 0.000000
# 3 -0.001552 -0.004454 0.010410 0.000000 0.005173 0.000000
# 4 0.000000 0.000000 0.000000 0.031284 0.000000 0.008196
# 5 -0.000161 -0.001679 0.005173 0.000000 0.024838 0.000000
# 6 0.000000 0.000000 0.000000 0.008196 0.000000 0.046176
#
#
# Mechanical properties :
#
#
# Convention : Reuss Voigt Hill
#
# Bulk Modulus (GPa) = 53.80905 57.79209 55.80057
# Shear Modulus (GPa) = 31.27648 35.82304 33.54976
#
# Velocity S-wave (km/s) = 3.84805 4.11825 3.98544
# Velocity P-wave (km/s) = 6.72447 7.06925 6.89901
#
# Compressibility (1/GPa) = 0.01858423
#
# Stress axis : x y z
#
# Youngs Moduli (GPa) = 108.42107 65.16722 96.06366
#
# Poissons Ratio (x) = 0.14278 0.14904
# Poissons Ratio (y) = 0.23756 0.42791
# Poissons Ratio (z) = 0.16822 0.29028
#
# Static dielectric constant tensor:
#      x y z
#    x 4.253160 0.000000 0.122110 
#    y 0.000000 3.836840 0.000000 
#    z 0.122110 0.000000 4.346090 
# 
# 
# High freq. dielectric constant tensor:
#      x y z
#    x 1.845970 0.000000 -0.008040 
#    y 0.000000 1.799980 0.000000 
#    z -0.008040 0.000000 1.857830 
# 
# From -- ./inp_files/13250.got.cif
#   From: 2010.06.25/outbox.cif.g09.slc.cpg/sg12_7_cif.got.tgz:13250.got - 2010.06.28 00:19:55.
