data_PCOD8108733
_publ_section_title
;
Structure prediction by ZEFSAII (Michael W. Deem and Ramdas Pophale) SiO2 
 PCOD8108733
Probable space group: C 2/M
;
_chemical_formula_sum "Si O2"
_cell_formula_units_Z 64
_cell_length_a 22.254901
_cell_length_b 18.622003
_cell_length_c 8.944873
_cell_angle_alpha 90.000000
_cell_angle_beta 123.975570
_cell_angle_gamma 90.000000
_cell_volume 3074.151714
_symmetry_space_group_name_H-M "C 2/M"
_symmetry_group_IT_number 12
_symmetry_cell_setting 'monoclinic'
loop_
_space_group_symop_operation_xyz
x,y,z
-x,y,-z
-x,-y,-z
x,-y,z
1/2+x,1/2+y,z
1/2-x,1/2+y,-z
1/2-x,1/2-y,-z
1/2+x,1/2-y,z
loop_
_atom_site_type_symbol
_atom_site_label
_atom_site_fract_x
_atom_site_fract_y
_atom_site_fract_z
Si Si1 0.676214 0.329721 0.914224
Si Si2 0.464246 0.419679 0.294766
Si Si3 0.294322 0.915739 0.924640
Si Si4 0.797682 0.822860 0.720429
Si Si5 0.049774 0.299858 0.353402
Si Si6 0.892880 0.681311 0.238754
Si Si7 0.944919 0.844426 0.796276
Si Si8 0.328426 0.161220 0.678396
O O1 0.597273 0.362696 0.824276
O O2 0.665176 0.245859 0.861074
O O3 0.719501 0.371981 0.845767
O O4 0.718889 0.339346 0.129653
O O5 0.500000 0.398265 0.500000
O O6 0.432744 0.500000 0.254754
O O7 0.523248 0.413961 0.243855
O O8 0.353721 0.891113 0.129275
O O9 0.280173 0.000000 0.923710
O O10 0.321373 0.899520 0.794442
O O11 0.868233 0.866198 0.761526
O O12 0.729293 0.850799 0.533570
O O13 0.814296 0.738454 0.731860
O O14 0.083410 0.323972 0.557448
O O15 0.066415 0.216255 0.346620
O O16 0.090815 0.344602 0.280142
O O17 0.963426 0.310696 0.230609
O O18 0.000000 0.816085 0.000000
#
# Coordination Sequence:
#
# PCOD8108733 Si02
#       8
#     8   8   8   8   8   8   8   8
#     4  12  22  42  67  97 125 176 219 271 315 389
#     4  11  24  39  57  89 134 180 214 259 327 393
#     4  12  28  45  64  96 136 177 220 269 330 395
#     4  10  21  38  64  95 124 167 219 274 319 374
#     4  10  22  39  69 105 126 160 215 280 324 384
#     4  11  22  42  72 100 128 166 220 271 331 386
#     4  11  20  37  60  95 135 163 215 270 317 383
#     4  10  23  40  63  95 133 164 213 272 329 382
#
# _framework density 20.818752
#
# number of rings (size 3 to 8) (size 9 to 14) (size 15 to 20)
#    0.000    1.125    3.750    2.250    8.750    0.250 
#    0.000    5.625    0.000    0.000    0.000    0.000 
#    0.000    0.000    0.000    0.000    0.000    0.000 
#
# Total GULP energy -396889.804683 kJ/mol
# GULP energy per Si atom -12402.806396 kJ/mol
# Density = 2.077137 g / cm^3
# Si number density = 20.818752 Si / 1000 Ang^3
#
#
#
# Elastic Constant Matrix: (Units=GPa)
#
#
# Indices 1 2 3 4 5 6 
#
# 1 123.5592 34.9783 18.4746 0.0000 -9.3762 0.0000
# 2 34.9783 77.4079 34.9962 0.0000 -4.4845 0.0000
# 3 18.4746 34.9962 85.5036 0.0000 -9.0751 0.0000
# 4 0.0000 0.0000 0.000023918.5989 0.0000-8497.2658
# 5 -9.3762 -4.4845 -9.0751 0.0000 30.3251 0.0000
# 6 0.0000 0.0000 0.0000-8497.2658 0.0000 3041.1697
#
#
#
# Elastic Compliance Matrix: (Units=1/GPa)
#
#
# Indices 1 2 3 4 5 6 
#
# 1 0.009439 -0.004074 -0.000130 0.000000 0.002277 0.000000
# 2 -0.004074 0.017616 -0.006390 0.000000 -0.000567 0.000000
# 3 -0.000130 -0.006390 0.014701 0.000000 0.003414 0.000000
# 4 0.000000 0.000000 0.000000 0.005663 0.000000 0.015824
# 5 0.002277 -0.000567 0.003414 0.000000 0.034618 0.000000
# 6 0.000000 0.000000 0.000000 0.015824 0.000000 0.044542
#
#
# Mechanical properties :
#
#
# Convention : Reuss Voigt Hill
#
# Bulk Modulus (GPa) = 48.62140 51.48543 50.05342
# Shear Modulus (GPa) = 32.33661 5411.22018 2721.77839
#
# Velocity S-wave (km/s) = 3.94540 51.03771 36.19678
# Velocity P-wave (km/s) = 6.64531 59.14317 42.08369
#
# Compressibility (1/GPa) = 0.02056708
#
# Stress axis : x y z
#
# Youngs Moduli (GPa) = 105.94388 56.76752 68.02145
#
# Poissons Ratio (x) = 0.23130 0.00885
# Poissons Ratio (y) = 0.43166 0.43465
# Poissons Ratio (z) = 0.01379 0.36274
#
# Static dielectric constant tensor:
#      x y z
#    x 4.067430 0.000000 -0.023810 
#    y 0.000000 3.310300 0.000000 
#    z -0.023810 0.000000 3.781110 
# 
# 
# High freq. dielectric constant tensor:
#      x y z
#    x 1.836520 0.000000 -0.004070 
#    y 0.000000 1.766760 0.000000 
#    z -0.004070 0.000000 1.823600 
# 
# From -- ./inp_files/89628.got.cif
#   From: 2010.06.25/outbox.cif.g09.slc.cpg/sg12_45_cif.got.tgz:89628.got - 2010.06.28 00:19:55.
