data_PCOD8108467
_publ_section_title
;
Structure prediction by ZEFSAII (Michael W. Deem and Ramdas Pophale) SiO2 
 PCOD8108467
Probable space group: C 2/M
;
_chemical_formula_sum "Si O2"
_cell_formula_units_Z 32
_cell_length_a 22.501328
_cell_length_b 12.952091
_cell_length_c 15.542156
_cell_angle_alpha 90.000000
_cell_angle_beta 18.964559
_cell_angle_gamma 90.000000
_cell_volume 1472.042173
_symmetry_space_group_name_H-M "C 2/M"
_symmetry_group_IT_number 12
_symmetry_cell_setting 'monoclinic'
loop_
_space_group_symop_operation_xyz
x,y,z
-x,y,-z
-x,-y,-z
x,-y,z
1/2+x,1/2+y,z
1/2-x,1/2+y,-z
1/2-x,1/2-y,-z
1/2+x,1/2-y,z
loop_
_atom_site_type_symbol
_atom_site_label
_atom_site_fract_x
_atom_site_fract_y
_atom_site_fract_z
Si Si1 0.130432 0.821605 0.076776
Si Si2 0.611251 0.616155 0.433613
Si Si3 0.158382 0.811041 0.852143
Si Si4 0.040439 0.384166 0.274850
O O1 0.097241 0.697346 0.123410
O O2 0.015250 0.878146 0.308207
O O3 0.080645 0.857978 0.048413
O O4 0.343682 0.850110 0.799525
O O5 0.500000 0.646878 0.500000
O O6 0.687493 0.500000 0.321347
O O7 0.779503 0.693430 0.216386
O O8 0.326625 0.879625 0.589152
O O9 0.000000 0.815420 0.000000
O O10 0.089968 0.500000 0.176382
#
# Coordination Sequence:
#
# PCOD8108467 Si02
#       4
#     8   8   8   8
#     4  10  21  39  61  86 115 148 191 242 289 333
#     4  10  21  39  64  90 113 145 194 244 288 338
#     4  11  24  39  55  84 124 157 189 231 282 345
#     4  10  21  38  62  86 110 148 196 242 288 337
#
# _framework density 21.738506999999998
#
# number of rings (size 3 to 8) (size 9 to 14) (size 15 to 20)
#    0.000    1.750    0.000    6.000    0.000   11.000 
#    0.000    2.500    0.000    0.000    0.000    0.000 
#    0.000    0.000    0.000    0.000    0.000    0.000 
#
# Total GULP energy -198327.344318 kJ/mol
# GULP energy per Si atom -12395.459020 kJ/mol
# Density = 2.168903 g / cm^3
# Si number density = 21.738507 Si / 1000 Ang^3
#
#
#
# Elastic Constant Matrix: (Units=GPa)
#
#
# Indices 1 2 3 4 5 6 
#
# 1 162.2139 -9.2168 71.7481 -0.0001 -8.7057 -0.0003
# 2 -9.2168 107.8153 13.1516 -0.0004 -2.2421 -0.0001
# 3 71.7481 13.1516 94.3980 -0.0014 2.8260 0.0002
# 4 -0.0001 -0.0004 -0.0014 16.5940 0.0002 -5.7677
# 5 -8.7057 -2.2421 2.8260 0.0002 13.3388 0.0001
# 6 -0.0003 -0.0001 0.0002 -5.7677 0.0001 9.9269
#
#
#
# Elastic Compliance Matrix: (Units=1/GPa)
#
#
# Indices 1 2 3 4 5 6 
#
# 1 0.010586 0.002145 -0.008617 -0.000001 0.009096 0.000000
# 2 0.002145 0.009917 -0.003124 0.000000 0.003729 0.000000
# 3 -0.008617 -0.003124 0.017876 0.000002 -0.009937 0.000000
# 4 -0.000001 0.000000 0.000002 0.075513 -0.000002 0.043874
# 5 0.009096 0.003729 -0.009937 -0.000002 0.083638 -0.000001
# 6 0.000000 0.000000 0.000000 0.043874 -0.000001 0.126228
#
#
# Mechanical properties :
#
#
# Convention : Reuss Voigt Hill
#
# Bulk Modulus (GPa) = 52.11757 57.31034 54.71395
# Shear Modulus (GPa) = 14.31249 27.22155 20.76702
#
# Velocity S-wave (km/s) = 2.56870 3.54252 3.09416
# Velocity P-wave (km/s) = 5.72926 6.56912 6.16351
#
# Compressibility (1/GPa) = 0.01918739
#
# Stress axis : x y z
#
# Youngs Moduli (GPa) = 94.46225 100.83571 55.94140
#
# Poissons Ratio (x) = -0.21632 0.48207
# Poissons Ratio (y) = -0.20265 0.17475
# Poissons Ratio (z) = 0.81401 0.31500
#
# Static dielectric constant tensor:
#      x y z
#    x 3.755760 0.000000 0.169840 
#    y 0.000000 3.927610 0.000000 
#    z 0.169840 0.000000 3.726660 
# 
# 
# High freq. dielectric constant tensor:
#      x y z
#    x 1.837690 0.000000 0.021690 
#    y 0.000000 1.857690 0.000000 
#    z 0.021690 0.000000 1.844230 
# 
# From -- ./inp_files/44933.got.cif
#   From: 2010.06.25/outbox.cif.g09.slc.cpg/sg12_23_cif.got.tgz:44933.got - 2010.06.28 00:19:55.
