data_PCOD8108918
_publ_section_title
;
Structure prediction by ZEFSAII (Michael W. Deem and Ramdas Pophale) SiO2 
 PCOD8108918
Probable space group: C 2/M
;
_chemical_formula_sum "Si O2"
_cell_formula_units_Z 64
_cell_length_a 15.267065
_cell_length_b 8.750968
_cell_length_c 28.225915
_cell_angle_alpha 90.000000
_cell_angle_beta 57.466025
_cell_angle_gamma 90.000000
_cell_volume 3179.250161
_symmetry_space_group_name_H-M "C 2/M"
_symmetry_group_IT_number 12
_symmetry_cell_setting 'monoclinic'
loop_
_space_group_symop_operation_xyz
x,y,z
-x,y,-z
-x,-y,-z
x,-y,z
1/2+x,1/2+y,z
1/2-x,1/2+y,-z
1/2-x,1/2-y,-z
1/2+x,1/2-y,z
loop_
_atom_site_type_symbol
_atom_site_label
_atom_site_fract_x
_atom_site_fract_y
_atom_site_fract_z
Si Si1 0.455189 0.681416 0.292216
Si Si2 0.372307 0.679141 0.216547
Si Si3 0.099716 0.827149 0.002790
Si Si4 0.098553 0.319402 0.503944
Si Si5 0.950467 0.678094 0.886227
Si Si6 0.334567 0.319428 0.418974
Si Si7 0.311172 0.323557 0.772581
Si Si8 0.730977 0.673982 0.108894
O O1 0.453791 0.500000 0.291746
O O2 0.406381 0.742664 0.257717
O O3 0.388093 0.743171 0.355721
O O4 0.572518 0.742267 0.261580
O O5 0.391851 0.500000 0.204853
O O6 0.431438 0.770364 0.157276
O O7 0.251298 0.720542 0.246560
O O8 0.197687 0.785441 0.942359
O O9 0.113932 0.000000 0.017391
O O10 0.088349 0.712427 0.049607
O O11 0.000000 0.809393 0.000000
O O12 0.087948 0.500000 0.511084
O O13 0.212515 0.271823 0.450393
O O14 0.099374 0.251351 0.556741
O O15 0.000000 0.259181 0.500000
O O16 0.935821 0.500000 0.880623
O O17 0.887093 0.780656 0.867532
O O18 0.344055 0.500000 0.421506
O O19 0.310331 0.500000 0.757157
O O20 0.254635 0.303523 0.839604
O O21 0.753571 0.500000 0.087380
#
# Coordination Sequence:
#
# PCOD8108918 Si02
#       8
#     8   8   8   8   8   8   8   8
#     4   9  19  38  59  81 115 155 194 236 290 347
#     4  11  22  39  61  86 115 151 192 239 293 351
#     4  11  24  40  58  83 113 144 185 237 290 353
#     4   9  18  33  54  83 120 156 192 240 292 337
#     4  12  24  39  60  84 112 147 190 236 288 351
#     4   9  18  34  57  82 112 156 200 237 283 342
#     4  10  21  39  60  83 113 151 191 238 292 349
#     4  11  22  39  61  82 111 149 188 235 294 354
#
# _framework density 20.130533
#
# number of rings (size 3 to 8) (size 9 to 14) (size 15 to 20)
#    0.000    1.750    1.250    3.375    0.000    5.250 
#    0.000    3.125    0.000    0.000    0.000    0.000 
#    0.000    0.000    0.000    0.000    0.000    0.000 
#
# Total GULP energy -396767.564513 kJ/mol
# GULP energy per Si atom -12398.986391 kJ/mol
# Density = 2.008471 g / cm^3
# Si number density = 20.130533 Si / 1000 Ang^3
#
#
#
# Elastic Constant Matrix: (Units=GPa)
#
#
# Indices 1 2 3 4 5 6 
#
# 1 151.1927 34.0613 53.9576 0.0000 -2.7114 0.0001
# 2 34.0613 43.4052 26.4496 0.0001 5.8469 0.0001
# 3 53.9576 26.4496 110.6738 0.0000 -4.4162 0.0000
# 4 0.0000 0.0001 0.0000 23.4185 0.0000 1.0911
# 5 -2.7114 5.8469 -4.4162 0.0000 15.1820 0.0000
# 6 0.0001 0.0001 0.0000 1.0911 0.0000 35.2021
#
#
#
# Elastic Compliance Matrix: (Units=1/GPa)
#
#
# Indices 1 2 3 4 5 6 
#
# 1 0.008982 -0.005675 -0.002905 0.000000 0.002944 0.000000
# 2 -0.005675 0.033076 -0.005754 0.000000 -0.015425 0.000000
# 3 -0.002905 -0.005754 0.012035 0.000000 0.005198 0.000000
# 4 0.000000 0.000000 0.000000 0.042763 0.000000 -0.001326
# 5 0.002944 -0.015425 0.005198 0.000000 0.073846 0.000000
# 6 0.000000 0.000000 0.000000 -0.001326 0.000000 0.028448
#
#
# Mechanical properties :
#
#
# Convention : Reuss Voigt Hill
#
# Bulk Modulus (GPa) = 39.33147 59.35653 49.34400
# Shear Modulus (GPa) = 21.16024 27.48073 24.32048
#
# Velocity S-wave (km/s) = 3.24566 3.69877 3.47960
# Velocity P-wave (km/s) = 5.79883 6.91311 6.38034
#
# Compressibility (1/GPa) = 0.02542494
#
# Stress axis : x y z
#
# Youngs Moduli (GPa) = 111.33107 30.23368 83.09437
#
# Poissons Ratio (x) = 0.17157 0.24143
# Poissons Ratio (y) = 0.63177 0.47808
# Poissons Ratio (z) = 0.32347 0.17395
#
# Static dielectric constant tensor:
#      x y z
#    x 3.496820 0.000000 0.942740 
#    y 0.000000 3.420040 0.000000 
#    z 0.942740 0.000000 1.167170 
# 
# 
# High freq. dielectric constant tensor:
#      x y z
#    x 1.799430 0.000000 -0.003340 
#    y 0.000000 1.770040 0.000000 
#    z -0.003340 0.000000 1.780580 
# 
# From -- ./inp_files/374990.got.cif
#   From: 2010.06.25/outbox.cif.g09.slc.cpg/sg12_188_cif.got.tgz:374990.got - 2010.06.28 00:19:55.
