data_PCOD8108423
_publ_section_title
;
Structure prediction by ZEFSAII (Michael W. Deem and Ramdas Pophale) SiO2 
 PCOD8108423
Probable space group: C 2/M
;
_chemical_formula_sum "Si O2"
_cell_formula_units_Z 36
_cell_length_a 8.721393
_cell_length_b 12.594035
_cell_length_c 14.941744
_cell_angle_alpha 90.000000
_cell_angle_beta 92.742729
_cell_angle_gamma 90.000000
_cell_volume 1639.284228
_symmetry_space_group_name_H-M "C 2/M"
_symmetry_group_IT_number 12
_symmetry_cell_setting 'monoclinic'
loop_
_space_group_symop_operation_xyz
x,y,z
-x,y,-z
-x,-y,-z
x,-y,z
1/2+x,1/2+y,z
1/2-x,1/2+y,-z
1/2-x,1/2-y,-z
1/2+x,1/2-y,z
loop_
_atom_site_type_symbol
_atom_site_label
_atom_site_fract_x
_atom_site_fract_y
_atom_site_fract_z
Si Si1 0.342987 0.374871 0.148986
Si Si2 0.837014 0.623820 0.025357
Si Si3 0.187946 0.185471 0.201792
Si Si4 0.257303 0.120909 0.399340
Si Si5 0.000000 0.760946 0.500000
O O1 0.324023 0.500000 0.165063
O O2 0.225267 0.312218 0.212251
O O3 0.514228 0.337903 0.171883
O O4 0.297709 0.335532 0.046558
O O5 0.844182 0.500000 0.007275
O O6 0.800779 0.643483 0.127661
O O7 0.000000 0.674351 0.000000
O O8 0.230695 0.125191 0.292976
O O9 0.406946 0.187882 0.428633
O O10 0.108525 0.164482 0.445162
O O11 0.283697 0.000000 0.429541
#
# Coordination Sequence:
#
# PCOD8108423 Si02
#       5
#     8   8   8   8   4
#     4  11  24  41  61  90 129 170 211 255 304 358
#     4  10  21  38  61  90 128 172 213 255 305 359
#     4  12  23  40  65  93 124 165 213 258 306 365
#     4  11  23  43  69  95 126 161 204 258 314 376
#     4  10  24  44  66  96 126 160 202 252 324 386
#
# _framework density 21.960802999999999
#
# number of rings (size 3 to 8) (size 9 to 14) (size 15 to 20)
#    0.000    1.111    0.000    6.667    0.000    1.778 
#    0.000   12.222    0.000    0.000    0.000    0.000 
#    0.000    0.000    0.000    0.000    0.000    0.000 
#
# Total GULP energy -223219.198901 kJ/mol
# GULP energy per Si atom -12401.066606 kJ/mol
# Density = 2.191082 g / cm^3
# Si number density = 21.960803 Si / 1000 Ang^3
#
#
#
# Elastic Constant Matrix: (Units=GPa)
#
#
# Indices 1 2 3 4 5 6 
#
# 1 88.6431 31.4381 36.9950 0.0000 20.6898 0.0000
# 2 31.4381 90.6266 15.1076 0.0000 -3.2101 0.0000
# 3 36.9950 15.1076 105.3202 0.0000 11.9468 0.0000
# 4 0.0000 0.0000 0.0000 25.7076 0.0000 -0.4006
# 5 20.6898 -3.2101 11.9468 0.0000 27.2539 0.0000
# 6 0.0000 0.0000 0.0000 -0.4006 0.0000 21.0350
#
#
#
# Elastic Compliance Matrix: (Units=1/GPa)
#
#
# Indices 1 2 3 4 5 6 
#
# 1 0.018064 -0.006041 -0.004044 0.000000 -0.012652 0.000000
# 2 -0.006041 0.013445 -0.000533 0.000000 0.006403 0.000000
# 3 -0.004044 -0.000533 0.011208 0.000000 -0.001906 0.000000
# 4 0.000000 0.000000 0.000000 0.038911 0.000000 0.000741
# 5 -0.012652 0.006403 -0.001906 0.000000 0.047887 0.000000
# 6 0.000000 0.000000 0.000000 0.000741 0.000000 0.047554
#
#
# Mechanical properties :
#
#
# Convention : Reuss Voigt Hill
#
# Bulk Modulus (GPa) = 46.54850 50.18570 48.36710
# Shear Modulus (GPa) = 24.33511 28.20259 26.26885
#
# Velocity S-wave (km/s) = 3.33245 3.58749 3.46232
# Velocity P-wave (km/s) = 6.00409 6.32947 6.16893
#
# Compressibility (1/GPa) = 0.02148297
#
# Stress axis : x y z
#
# Youngs Moduli (GPa) = 55.35794 74.37483 89.22268
#
# Poissons Ratio (x) = 0.44926 0.36078
# Poissons Ratio (y) = 0.33439 0.04757
# Poissons Ratio (z) = 0.22385 0.03966
#
# Static dielectric constant tensor:
#      x y z
#    x 4.128670 0.000000 0.158600 
#    y 0.000000 4.425560 0.000000 
#    z 0.158600 0.000000 3.922270 
# 
# 
# High freq. dielectric constant tensor:
#      x y z
#    x 1.874790 0.000000 0.012940 
#    y 0.000000 1.890730 0.000000 
#    z 0.012940 0.000000 1.852170 
# 
# From -- ./inp_files/194132.got.cif
#   From: 2010.06.25/outbox.cif.g09.slc.cpg/sg12_98_cif.got.tgz:194132.got - 2010.06.28 00:19:55.
