data_PCOD8108760
_publ_section_title
;
Structure prediction by ZEFSAII (Michael W. Deem and Ramdas Pophale) SiO2 
 PCOD8108760
Probable space group: C 2/M
;
_chemical_formula_sum "Si O2"
_cell_formula_units_Z 48
_cell_length_a 18.788521
_cell_length_b 17.955541
_cell_length_c 14.888725
_cell_angle_alpha 90.000000
_cell_angle_beta 29.159583
_cell_angle_gamma 90.000000
_cell_volume 2447.343293
_symmetry_space_group_name_H-M "C 2/M"
_symmetry_group_IT_number 12
_symmetry_cell_setting 'monoclinic'
loop_
_space_group_symop_operation_xyz
x,y,z
-x,y,-z
-x,-y,-z
x,-y,z
1/2+x,1/2+y,z
1/2-x,1/2+y,-z
1/2-x,1/2-y,-z
1/2+x,1/2-y,z
loop_
_atom_site_type_symbol
_atom_site_label
_atom_site_fract_x
_atom_site_fract_y
_atom_site_fract_z
Si Si1 0.888689 0.588134 0.695836
Si Si2 0.143374 0.086879 0.606787
Si Si3 0.110366 0.328624 0.955963
Si Si4 0.925684 0.155678 0.987383
Si Si5 0.142821 0.082221 0.400865
Si Si6 0.023073 0.587885 0.733231
O O1 0.892848 0.500000 0.688703
O O2 0.000000 0.621707 0.500000
O O3 0.948107 0.617402 0.725263
O O4 0.724492 0.611929 0.856843
O O5 0.109143 0.105334 0.540678
O O6 0.307821 0.112371 0.449509
O O7 0.033830 0.134801 0.787637
O O8 0.119315 0.000000 0.655120
O O9 0.266437 0.353601 0.747410
O O10 0.110945 0.242248 0.978997
O O11 0.000000 0.349737 0.000000
O O12 0.070410 0.375273 0.086475
O O13 0.000000 0.134331 0.000000
O O14 0.000000 0.075179 0.500000
O O15 0.220379 0.000000 0.316822
O O16 0.010198 0.500000 0.758452
#
# Coordination Sequence:
#
# PCOD8108760 Si02
#       6
#     8   8   8   8   8   8
#     4  10  22  41  63  88 117 156 208 255 297 356
#     4  10  21  40  64  90 120 158 203 256 306 349
#     4  11  23  41  60  90 126 165 202 239 301 370
#     4  11  25  41  59  90 125 164 200 246 308 362
#     4  10  22  40  64  91 122 159 204 255 302 355
#     4  10  21  38  65  91 116 158 206 253 301 355
#
# _framework density 19.613105000000001
#
# number of rings (size 3 to 8) (size 9 to 14) (size 15 to 20)
#    0.000    1.667    1.667    2.000    2.333    5.333 
#    3.000    0.000    0.000    0.000    0.000    0.000 
#    0.000    0.000    0.000    0.000    0.000    0.000 
#
# Total GULP energy -297640.833271 kJ/mol
# GULP energy per Si atom -12401.701386 kJ/mol
# Density = 1.956846 g / cm^3
# Si number density = 19.613105 Si / 1000 Ang^3
#
#
#
# Elastic Constant Matrix: (Units=GPa)
#
#
# Indices 1 2 3 4 5 6 
#
# 1 119.6902 33.7906 52.0184 0.0013 15.8240 -0.0023
# 2 33.7906 53.5799 39.0689 0.0008 17.5505 -0.0010
# 3 52.0184 39.0689 120.6438 0.0034 24.8889 -0.0028
# 4 0.0013 0.0008 0.0034 31.5960 -0.0003 -2.2527
# 5 15.8240 17.5505 24.8889 -0.0003 37.8094 0.0004
# 6 -0.0023 -0.0010 -0.0028 -2.2527 0.0004 36.3077
#
#
#
# Elastic Compliance Matrix: (Units=1/GPa)
#
#
# Indices 1 2 3 4 5 6 
#
# 1 0.011086 -0.004492 -0.003238 0.000000 -0.000423 0.000000
# 2 -0.004492 0.028018 -0.005602 0.000000 -0.007438 0.000000
# 3 -0.003238 -0.005602 0.012362 -0.000001 -0.004182 0.000001
# 4 0.000000 0.000000 -0.000001 0.031790 0.000001 0.001972
# 5 -0.000423 -0.007438 -0.004182 0.000001 0.032831 -0.000001
# 6 0.000000 0.000000 0.000001 0.001972 -0.000001 0.027665
#
#
# Mechanical properties :
#
#
# Convention : Reuss Voigt Hill
#
# Bulk Modulus (GPa) = 40.31958 60.40775 50.36366
# Shear Modulus (GPa) = 27.98252 32.41170 30.19711
#
# Velocity S-wave (km/s) = 3.78130 4.06957 3.92808
# Velocity P-wave (km/s) = 6.29813 7.27657 6.80496
#
# Compressibility (1/GPa) = 0.02480185
#
# Stress axis : x y z
#
# Youngs Moduli (GPa) = 90.20122 35.69184 80.89343
#
# Poissons Ratio (x) = 0.16032 0.26195
# Poissons Ratio (y) = 0.40517 0.45316
# Poissons Ratio (z) = 0.29209 0.19994
#
# Static dielectric constant tensor:
#      x y z
#    x 3.958590 0.000000 -0.053000 
#    y 0.000000 3.508150 0.000000 
#    z -0.053000 0.000000 3.659310 
# 
# 
# High freq. dielectric constant tensor:
#      x y z
#    x 1.784270 0.000000 0.003980 
#    y 0.000000 1.754300 0.000000 
#    z 0.003980 0.000000 1.770640 
# 
# From -- ./inp_files/77704.got.cif
#   From: 2010.06.25/outbox.cif.g09.slc.cpg/sg12_39_cif.got.tgz:77704.got - 2010.06.28 00:19:55.
