data_PCOD8108933
_publ_section_title
;
Structure prediction by ZEFSAII (Michael W. Deem and Ramdas Pophale) SiO2 
 PCOD8108933
Probable space group: C 2/M
;
_chemical_formula_sum "Si O2"
_cell_formula_units_Z 64
_cell_length_a 13.327610
_cell_length_b 13.912562
_cell_length_c 16.451347
_cell_angle_alpha 90.000000
_cell_angle_beta 94.016636
_cell_angle_gamma 90.000000
_cell_volume 3042.935907
_symmetry_space_group_name_H-M "C 2/M"
_symmetry_group_IT_number 12
_symmetry_cell_setting 'monoclinic'
loop_
_space_group_symop_operation_xyz
x,y,z
-x,y,-z
-x,-y,-z
x,-y,z
1/2+x,1/2+y,z
1/2-x,1/2+y,-z
1/2-x,1/2-y,-z
1/2+x,1/2-y,z
loop_
_atom_site_type_symbol
_atom_site_label
_atom_site_fract_x
_atom_site_fract_y
_atom_site_fract_z
Si Si1 0.542436 0.274716 0.310749
Si Si2 0.655126 0.612643 0.696565
Si Si3 0.160518 0.888783 0.037794
Si Si4 0.399944 0.109034 0.323954
Si Si5 0.754099 0.765771 0.595218
Si Si6 0.867043 0.609968 0.135859
Si Si7 0.559356 0.764691 0.127625
Si Si8 0.253522 0.388821 0.128417
O O1 0.459301 0.355692 0.323750
O O2 0.503051 0.168840 0.332938
O O3 0.635545 0.300557 0.372996
O O4 0.574118 0.275679 0.218854
O O5 0.666443 0.500000 0.683055
O O6 0.727928 0.665568 0.637581
O O7 0.686681 0.646278 0.788689
O O8 0.263229 0.856971 0.089148
O O9 0.068023 0.826140 0.067180
O O10 0.135572 0.000000 0.053792
O O11 0.173128 0.868419 0.943034
O O12 0.322183 0.149807 0.384940
O O13 0.352398 0.119183 0.231676
O O14 0.426399 0.000000 0.347826
O O15 0.750000 0.750000 0.500000
O O16 0.893462 0.500000 0.113120
O O17 0.954228 0.680356 0.108347
O O18 0.647837 0.837673 0.111025
O O19 0.226295 0.500000 0.134058
#
# Coordination Sequence:
#
# PCOD8108933 Si02
#       8
#     8   8   8   8   8   8   8   8
#     4  10  22  39  62  89 118 153 198 241 292 354
#     4  10  23  43  63  86 122 162 199 241 295 356
#     4  10  22  38  56  84 123 160 200 252 299 343
#     4   9  20  38  61  88 122 156 193 240 292 352
#     4  11  23  41  64  93 122 149 191 245 295 358
#     4   9  19  36  59  88 116 152 202 251 294 346
#     4  11  20  35  62  86 117 155 207 244 300 349
#     4  10  21  39  60  84 119 161 203 249 296 347
#
# _framework density 21.032319000000001
#
# number of rings (size 3 to 8) (size 9 to 14) (size 15 to 20)
#    0.000    2.000    1.250    1.500    3.500    5.000 
#    2.250    3.125    0.000    2.250    0.000    0.000 
#    0.000    0.000    0.000    0.000    0.000    0.000 
#
# Total GULP energy -396966.076764 kJ/mol
# GULP energy per Si atom -12405.189899 kJ/mol
# Density = 2.098445 g / cm^3
# Si number density = 21.032319 Si / 1000 Ang^3
#
#
#
# Elastic Constant Matrix: (Units=GPa)
#
#
# Indices 1 2 3 4 5 6 
#
# 1 71.5524 28.1203 39.2027 0.0000 -17.1133 0.0000
# 2 28.1203 90.1996 33.2576 0.0000 -21.2916 0.0000
# 3 39.2027 33.2576 119.9656 0.0000 -15.9465 0.0000
# 4 0.0000 0.0000 0.0000 28.6184 0.0000 -8.2234
# 5 -17.1133 -21.2916 -15.9465 0.0000 22.6108 0.0000
# 6 0.0000 0.0000 0.0000 -8.2234 0.0000 22.9310
#
#
#
# Elastic Compliance Matrix: (Units=1/GPa)
#
#
# Indices 1 2 3 4 5 6 
#
# 1 0.019608 -0.002178 -0.004528 0.000000 0.009596 0.000000
# 2 -0.002178 0.015147 -0.001998 0.000000 0.011206 0.000000
# 3 -0.004528 -0.001998 0.010663 0.000000 0.002212 0.000000
# 4 0.000000 0.000000 0.000000 0.038957 0.000000 0.013971
# 5 0.009596 0.011206 0.002212 0.000000 0.063601 0.000000
# 6 0.000000 0.000000 0.000000 0.013971 0.000000 0.048619
#
#
# Mechanical properties :
#
#
# Convention : Reuss Voigt Hill
#
# Bulk Modulus (GPa) = 35.70141 53.65320 44.67731
# Shear Modulus (GPa) = 22.38730 26.90786 24.64758
#
# Velocity S-wave (km/s) = 3.26609 3.58069 3.42700
# Velocity P-wave (km/s) = 5.58879 6.53149 6.07844
#
# Compressibility (1/GPa) = 0.02801010
#
# Stress axis : x y z
#
# Youngs Moduli (GPa) = 51.00029 66.01783 93.77941
#
# Poissons Ratio (x) = 0.14380 0.42464
# Poissons Ratio (y) = 0.11109 0.18736
# Poissons Ratio (z) = 0.23093 0.13190
#
# Static dielectric constant tensor:
#      x y z
#    x 3.738370 0.000000 -0.046330 
#    y 0.000000 3.895920 0.000000 
#    z -0.046330 0.000000 3.714410 
# 
# 
# High freq. dielectric constant tensor:
#      x y z
#    x 1.824530 0.000000 -0.004780 
#    y 0.000000 1.833580 0.000000 
#    z -0.004780 0.000000 1.813340 
# 
# From -- ./inp_files/263331.got.cif
#   From: 2010.06.25/outbox.cif.g09.slc.cpg/sg12_132_cif.got.tgz:263331.got - 2010.06.28 00:19:55.
