data_PCOD8108823
_publ_section_title
;
Structure prediction by ZEFSAII (Michael W. Deem and Ramdas Pophale) SiO2 
 PCOD8108823
Probable space group: C 2/M
;
_chemical_formula_sum "Si O2"
_cell_formula_units_Z 56
_cell_length_a 15.084768
_cell_length_b 9.022606
_cell_length_c 24.150364
_cell_angle_alpha 90.000000
_cell_angle_beta 117.977649
_cell_angle_gamma 90.000000
_cell_volume 2902.814439
_symmetry_space_group_name_H-M "C 2/M"
_symmetry_group_IT_number 12
_symmetry_cell_setting 'monoclinic'
loop_
_space_group_symop_operation_xyz
x,y,z
-x,y,-z
-x,-y,-z
x,-y,z
1/2+x,1/2+y,z
1/2-x,1/2+y,-z
1/2-x,1/2-y,-z
1/2+x,1/2-y,z
loop_
_atom_site_type_symbol
_atom_site_label
_atom_site_fract_x
_atom_site_fract_y
_atom_site_fract_z
Si Si1 0.141376 0.831362 0.807140
Si Si2 0.176358 0.174568 0.409263
Si Si3 0.415114 0.675504 0.731518
Si Si4 0.978209 0.325648 0.930477
Si Si5 0.165627 0.830843 0.940265
Si Si6 0.317623 0.325392 0.814915
Si Si7 0.599102 0.825648 0.494197
O O1 0.189177 0.823955 0.882332
O O2 0.201854 0.721246 0.784926
O O3 0.028732 0.770186 0.771356
O O4 0.146747 0.000000 0.786651
O O5 0.134456 0.237686 0.339039
O O6 0.295391 0.213908 0.444576
O O7 0.108171 0.248825 0.436978
O O8 0.160727 0.000000 0.410929
O O9 0.409166 0.500000 0.729646
O O10 0.355328 0.735586 0.767063
O O11 0.978746 0.500000 0.920803
O O12 0.872462 0.257983 0.881469
O O13 0.060536 0.249868 0.916407
O O14 0.000000 0.284554 0.000000
O O15 0.158503 0.000000 0.958745
O O16 0.250000 0.750000 0.000000
O O17 0.332908 0.500000 0.826007
O O18 0.500000 0.769865 0.500000
O O19 0.588363 0.000000 0.481361
#
# Coordination Sequence:
#
# PCOD8108823 Si02
#       7
#     8   8   8   8   8   8   8
#     4  10  21  39  57  77 109 146 181 230 287 338
#     4   9  18  34  57  81 109 153 194 227 273 333
#     4   9  19  38  58  78 112 151 188 229 283 340
#     4  11  23  38  56  80 110 144 184 233 288 345
#     4  11  22  37  57  80 109 144 183 234 290 347
#     4  11  22  38  59  84 110 144 187 234 284 345
#     4   9  18  33  54  83 119 151 184 232 282 323
#
# _framework density 19.291620999999999
#
# number of rings (size 3 to 8) (size 9 to 14) (size 15 to 20)
#    0.000    2.000    1.429    2.143    0.000    7.143 
#    0.000    3.571    0.000    0.000    0.000    0.000 
#    0.000    0.000    0.000    0.000    0.000    0.000 
#
# Total GULP energy -347166.598343 kJ/mol
# GULP energy per Si atom -12398.807084 kJ/mol
# Density = 1.924771 g / cm^3
# Si number density = 19.291621 Si / 1000 Ang^3
#
#
#
# Elastic Constant Matrix: (Units=GPa)
#
#
# Indices 1 2 3 4 5 6 
#
# 1 153.4314 43.6026 57.6766 0.0000 -7.7298 0.0000
# 2 43.6026 59.7073 42.3575 0.0000 -9.0794 0.0000
# 3 57.6766 42.3575 132.5846 0.0000 -5.1115 0.0000
# 4 0.0000 0.0000 0.0000 22.7541 0.0000 0.0046
# 5 -7.7298 -9.0794 -5.1115 0.0000 22.2663 0.0000
# 6 0.0000 0.0000 0.0000 0.0046 0.0000 35.5111
#
#
#
# Elastic Compliance Matrix: (Units=1/GPa)
#
#
# Indices 1 2 3 4 5 6 
#
# 1 0.008733 -0.004664 -0.002286 0.000000 0.000605 0.000000
# 2 -0.004664 0.025394 -0.005798 0.000000 0.007405 0.000000
# 3 -0.002286 -0.005798 0.010359 0.000000 -0.000780 0.000000
# 4 0.000000 0.000000 0.000000 0.043948 0.000000 -0.000006
# 5 0.000605 0.007405 -0.000780 0.000000 0.047961 0.000000
# 6 0.000000 0.000000 0.000000 -0.000006 0.000000 0.028160
#
#
# Mechanical properties :
#
#
# Convention : Reuss Voigt Hill
#
# Bulk Modulus (GPa) = 52.65962 70.33296 61.49629
# Shear Modulus (GPa) = 25.46085 29.57876 27.51981
#
# Velocity S-wave (km/s) = 3.63683 3.91991 3.78102
# Velocity P-wave (km/s) = 6.70755 7.55146 7.14198
#
# Compressibility (1/GPa) = 0.01898988
#
# Stress axis : x y z
#
# Youngs Moduli (GPa) = 114.51378 39.37996 96.53464
#
# Poissons Ratio (x) = 0.18366 0.22063
# Poissons Ratio (y) = 0.53406 0.55974
# Poissons Ratio (z) = 0.26173 0.22834
#
# Static dielectric constant tensor:
#      x y z
#    x 3.643980 0.000000 -0.005400 
#    y 0.000000 3.359670 0.000000 
#    z -0.005400 0.000000 3.599800 
# 
# 
# High freq. dielectric constant tensor:
#      x y z
#    x 1.761790 0.000000 0.002700 
#    y 0.000000 1.736430 0.000000 
#    z 0.002700 0.000000 1.747400 
# 
# From -- ./inp_files/339044.got.cif
#   From: 2010.06.25/outbox.cif.g09.slc.cpg/sg12_170_cif.got.tgz:339044.got - 2010.06.28 00:19:55.
