data_PCOD8108978
_publ_section_title
;
Structure prediction by ZEFSAII (Michael W. Deem and Ramdas Pophale) SiO2 
 PCOD8108978
Probable space group: C 2/M
;
_chemical_formula_sum "Si O2"
_cell_formula_units_Z 48
_cell_length_a 33.462990
_cell_length_b 14.558597
_cell_length_c 16.713659
_cell_angle_alpha 90.000000
_cell_angle_beta 163.027048
_cell_angle_gamma 90.000000
_cell_volume 2376.949678
_symmetry_space_group_name_H-M "C 2/M"
_symmetry_group_IT_number 12
_symmetry_cell_setting 'monoclinic'
loop_
_space_group_symop_operation_xyz
x,y,z
-x,y,-z
-x,-y,-z
x,-y,z
1/2+x,1/2+y,z
1/2-x,1/2+y,-z
1/2-x,1/2-y,-z
1/2+x,1/2-y,z
loop_
_atom_site_type_symbol
_atom_site_label
_atom_site_fract_x
_atom_site_fract_y
_atom_site_fract_z
Si Si1 0.848992 0.894878 0.739072
Si Si2 0.871728 0.606711 0.809472
Si Si3 0.426176 0.893311 0.275779
Si Si4 0.888203 0.892737 0.350577
Si Si5 0.469228 0.742858 0.641900
Si Si6 0.309183 0.261395 0.806536
O O1 0.757930 0.862250 0.490576
O O2 0.820384 0.841565 0.764534
O O3 0.817348 0.000000 0.698587
O O4 0.000000 0.875923 0.000000
O O5 0.870524 0.500000 0.832125
O O6 0.866888 0.665339 0.881549
O O7 0.000000 0.631487 0.000000
O O8 0.500000 0.868492 0.500000
O O9 0.500112 0.835016 0.348908
O O10 0.446288 0.000000 0.292483
O O11 0.264716 0.868639 0.973123
O O12 0.000000 0.860191 0.500000
O O13 0.922509 0.841061 0.497497
O O14 0.902641 0.000000 0.396327
O O15 0.349698 0.758570 0.476381
O O16 0.604765 0.713785 0.949656
#
# Coordination Sequence:
#
# PCOD8108978 Si02
#       6
#     8   8   8   8   8   8
#     4  10  21  39  61  84 114 157 209 258 300 355
#     4  10  21  39  63  86 114 161 214 257 299 358
#     4  10  23  44  68  91 121 165 211 253 299 363
#     4  10  23  44  68  91 121 165 211 252 300 365
#     4  12  25  39  60  94 131 166 197 253 315 371
#     4  12  24  37  59  90 127 162 199 251 318 367
#
# _framework density 20.193950000000001
#
# number of rings (size 3 to 8) (size 9 to 14) (size 15 to 20)
#    0.000    1.333    1.667    3.500    2.333    4.000 
#    0.000    0.000    0.000    0.000    0.000    0.000 
#    0.000    0.000    0.000    0.000    0.000    0.000 
#
# Total GULP energy -297714.674783 kJ/mol
# GULP energy per Si atom -12404.778116 kJ/mol
# Density = 2.014799 g / cm^3
# Si number density = 20.193950 Si / 1000 Ang^3
#
#
#
# Elastic Constant Matrix: (Units=GPa)
#
#
# Indices 1 2 3 4 5 6 
#
# 1 108.4425 45.6935 31.2918 0.0000 13.2200 0.0000
# 2 45.6935 76.3029 28.0263 0.0000 -7.8039 0.0000
# 3 31.2918 28.0263 115.5904 0.0000 -0.6653 0.0000
# 4 0.0000 0.0000 0.0000 26.7933 0.0000 2.6491
# 5 13.2200 -7.8039 -0.6653 0.0000 54.6440 0.0000
# 6 0.0000 0.0000 0.0000 2.6491 0.0000 22.8385
#
#
#
# Elastic Compliance Matrix: (Units=1/GPa)
#
#
# Indices 1 2 3 4 5 6 
#
# 1 0.013637 -0.007967 -0.001786 0.000000 -0.004459 0.000000
# 2 -0.007967 0.019266 -0.002488 0.000000 0.004648 0.000000
# 3 -0.001786 -0.002488 0.009739 0.000000 0.000195 0.000000
# 4 0.000000 0.000000 0.000000 0.037756 0.000000 -0.004379
# 5 -0.004459 0.004648 0.000195 0.000000 0.020045 0.000000
# 6 0.000000 0.000000 0.000000 -0.004379 0.000000 0.044294
#
#
# Mechanical properties :
#
#
# Convention : Reuss Voigt Hill
#
# Bulk Modulus (GPa) = 55.06191 56.70658 55.88425
# Shear Modulus (GPa) = 28.52729 33.87675 31.20202
#
# Velocity S-wave (km/s) = 3.76262 4.10026 3.93506
# Velocity P-wave (km/s) = 6.79722 7.11042 6.95558
#
# Compressibility (1/GPa) = 0.01816137
#
# Stress axis : x y z
#
# Youngs Moduli (GPa) = 73.32897 51.90598 102.68004
#
# Poissons Ratio (x) = 0.41352 0.18337
# Poissons Ratio (y) = 0.58418 0.25544
# Poissons Ratio (z) = 0.13095 0.12913
#
# Static dielectric constant tensor:
#      x y z
#    x 3.951850 0.000000 0.700000 
#    y 0.000000 3.696340 0.000000 
#    z 0.700000 0.000000 5.137720 
# 
# 
# High freq. dielectric constant tensor:
#      x y z
#    x 1.788620 0.000000 0.003010 
#    y 0.000000 1.796090 0.000000 
#    z 0.003010 0.000000 1.809390 
# 
# From -- ./inp_files/251403.got.cif
#   From: 2010.06.25/outbox.cif.g09.slc.cpg/sg12_126_cif.got.tgz:251403.got - 2010.06.28 00:19:55.
