data_PCOD8108814
_publ_section_title
;
Structure prediction by ZEFSAII (Michael W. Deem and Ramdas Pophale) SiO2 
 PCOD8108814
Probable space group: C 2/M
;
_chemical_formula_sum "Si O2"
_cell_formula_units_Z 64
_cell_length_a 12.100585
_cell_length_b 17.824318
_cell_length_c 14.360111
_cell_angle_alpha 90.000000
_cell_angle_beta 97.626903
_cell_angle_gamma 90.000000
_cell_volume 3069.855475
_symmetry_space_group_name_H-M "C 2/M"
_symmetry_group_IT_number 12
_symmetry_cell_setting 'monoclinic'
loop_
_space_group_symop_operation_xyz
x,y,z
-x,y,-z
-x,-y,-z
x,-y,z
1/2+x,1/2+y,z
1/2-x,1/2+y,-z
1/2-x,1/2-y,-z
1/2+x,1/2-y,z
loop_
_atom_site_type_symbol
_atom_site_label
_atom_site_fract_x
_atom_site_fract_y
_atom_site_fract_z
Si Si1 0.745082 0.088672 0.878017
Si Si2 0.156396 0.085375 0.772299
Si Si3 0.136499 0.676670 0.257377
Si Si4 0.391675 0.663012 0.044215
Si Si5 0.005067 0.855457 0.394752
Si Si6 0.455372 0.826230 0.088842
Si Si7 0.721116 0.337037 0.307046
Si Si8 0.533585 0.181024 0.606823
O O1 0.615766 0.113797 0.860171
O O2 0.804427 0.118083 0.791135
O O3 0.758929 0.000000 0.886964
O O4 0.788463 0.128920 0.976226
O O5 0.281682 0.109961 0.761701
O O6 0.104839 0.132471 0.850891
O O7 0.076580 0.093171 0.674491
O O8 0.162050 0.000000 0.804936
O O9 0.211194 0.748310 0.290721
O O10 0.058589 0.700646 0.162828
O O11 0.060473 0.648694 0.334653
O O12 0.383987 0.752991 0.050958
O O13 0.500000 0.636271 0.000000
O O14 0.132100 0.863962 0.373644
O O15 0.000000 0.884091 0.500000
O O16 0.961982 0.770535 0.381853
O O17 0.500000 0.865823 0.000000
O O18 0.845611 0.353996 0.357102
O O19 0.500000 0.155967 0.500000
#
# Coordination Sequence:
#
# PCOD8108814 Si02
#       8
#     8   8   8   8   8   8   8   8
#     4  12  25  40  62  93 131 169 207 254 316 383
#     4  12  25  41  62  92 135 174 212 261 318 383
#     4  11  22  40  66  93 128 164 214 267 316 376
#     4  11  23  42  65  93 123 167 217 264 309 372
#     4  10  23  39  65  97 127 165 212 270 324 374
#     4  11  22  40  65  94 123 165 213 263 309 371
#     4  11  21  41  67  93 128 162 213 268 315 377
#     4  10  21  38  68  98 120 162 215 274 325 369
#
# _framework density 20.847888000000001
#
# number of rings (size 3 to 8) (size 9 to 14) (size 15 to 20)
#    0.000    1.000    2.500    6.000    1.750    5.000 
#    0.000    0.000    0.000    0.750    0.000    0.000 
#    0.000    0.000    0.000    0.000    0.000    0.000 
#
# Total GULP energy -396963.075470 kJ/mol
# GULP energy per Si atom -12405.096108 kJ/mol
# Density = 2.080044 g / cm^3
# Si number density = 20.847888 Si / 1000 Ang^3
#
#
#
# Elastic Constant Matrix: (Units=GPa)
#
#
# Indices 1 2 3 4 5 6 
#
# 1 111.3947 31.5027 50.1477 0.0000 -11.1629 0.0000
# 2 31.5027 55.9824 18.5353 0.0000 -7.9063 0.0000
# 3 50.1477 18.5353 148.2696 0.0000 -16.4382 0.0000
# 4 0.0000 0.0000 0.0000 10.5856 0.0000 3.1511
# 5 -11.1629 -7.9063 -16.4382 0.0000 43.0574 0.0000
# 6 0.0000 0.0000 0.0000 3.1511 0.0000 12.6577
#
#
#
# Elastic Compliance Matrix: (Units=1/GPa)
#
#
# Indices 1 2 3 4 5 6 
#
# 1 0.012141 -0.005616 -0.003310 0.000000 0.000853 0.000000
# 2 -0.005616 0.021524 -0.000537 0.000000 0.002291 0.000000
# 3 -0.003310 -0.000537 0.008171 0.000000 0.002163 0.000000
# 4 0.000000 0.000000 0.000000 0.102029 0.000000 -0.025399
# 5 0.000853 0.002291 0.002163 0.000000 0.024692 0.000000
# 6 0.000000 0.000000 0.000000 -0.025399 0.000000 0.085326
#
#
# Mechanical properties :
#
#
# Convention : Reuss Voigt Hill
#
# Bulk Modulus (GPa) = 43.64823 57.33532 50.49178
# Shear Modulus (GPa) = 17.82878 27.62420 22.72649
#
# Velocity S-wave (km/s) = 2.92753 3.64405 3.30526
# Velocity P-wave (km/s) = 5.69291 6.72807 6.23202
#
# Compressibility (1/GPa) = 0.02291044
#
# Stress axis : x y z
#
# Youngs Moduli (GPa) = 82.36847 46.45909 122.38693
#
# Poissons Ratio (x) = 0.26089 0.40505
# Poissons Ratio (y) = 0.46255 0.06578
# Poissons Ratio (z) = 0.27261 0.02497
#
# Static dielectric constant tensor:
#      x y z
#    x 3.840880 0.000000 -0.134850 
#    y 0.000000 3.333320 0.000000 
#    z -0.134850 0.000000 3.921890 
# 
# 
# High freq. dielectric constant tensor:
#      x y z
#    x 1.828920 0.000000 -0.005990 
#    y 0.000000 1.778650 0.000000 
#    z -0.005990 0.000000 1.831430 
# 
# From -- ./inp_files/206711.got.cif
#   From: 2010.06.25/outbox.cif.g09.slc.cpg/sg12_104_cif.got.tgz:206711.got - 2010.06.28 00:19:55.
