data_PCOD8108906
_publ_section_title
;
Structure prediction by ZEFSAII (Michael W. Deem and Ramdas Pophale) SiO2 
 PCOD8108906
Probable space group: C 2/M
;
_chemical_formula_sum "Si O2"
_cell_formula_units_Z 40
_cell_length_a 18.959890
_cell_length_b 8.609623
_cell_length_c 13.576531
_cell_angle_alpha 90.000000
_cell_angle_beta 69.687390
_cell_angle_gamma 90.000000
_cell_volume 2078.379294
_symmetry_space_group_name_H-M "C 2/M"
_symmetry_group_IT_number 12
_symmetry_cell_setting 'monoclinic'
loop_
_space_group_symop_operation_xyz
x,y,z
-x,y,-z
-x,-y,-z
x,-y,z
1/2+x,1/2+y,z
1/2-x,1/2+y,-z
1/2-x,1/2-y,-z
1/2+x,1/2-y,z
loop_
_atom_site_type_symbol
_atom_site_label
_atom_site_fract_x
_atom_site_fract_y
_atom_site_fract_z
Si Si1 0.775741 0.179752 0.088632
Si Si2 0.214016 0.318634 0.325043
Si Si3 0.630194 0.818459 0.683861
Si Si4 0.569695 0.684515 0.901371
Si Si5 0.580118 0.319019 0.506392
O O1 0.718811 0.215745 0.205758
O O2 0.857133 0.246695 0.077090
O O3 0.783899 0.000000 0.066504
O O4 0.750000 0.250000 0.000000
O O5 0.199997 0.500000 0.353127
O O6 0.291320 0.272568 0.341836
O O7 0.144848 0.217267 0.396192
O O8 0.569079 0.764531 0.794647
O O9 0.594138 0.782123 0.596298
O O10 0.646662 0.000000 0.685105
O O11 0.570129 0.500000 0.885424
O O12 0.500000 0.741281 0.000000
O O13 0.500000 0.270682 0.500000
O O14 0.581895 0.500000 0.532958
#
# Coordination Sequence:
#
# PCOD8108906 Si02
#       5
#     8   8   8   8   8
#     4   9  19  34  54  80 109 142 178 221 270 321
#     4  10  21  39  60  82 111 147 188 230 275 329
#     4  11  22  37  59  84 112 147 187 230 275 329
#     4   9  19  37  58  80 109 146 187 229 274 323
#     4  11  24  40  58  82 112 146 184 228 280 334
#
# _framework density 19.245764999999999
#
# number of rings (size 3 to 8) (size 9 to 14) (size 15 to 20)
#    0.000    2.000    0.000    4.800    0.000    7.600 
#    0.000    6.000    0.000    0.000    0.000    0.000 
#    0.000    0.000    0.000    0.000    0.000    0.000 
#
# Total GULP energy -248036.910921 kJ/mol
# GULP energy per Si atom -12401.845546 kJ/mol
# Density = 1.920196 g / cm^3
# Si number density = 19.245765 Si / 1000 Ang^3
#
#
#
# Elastic Constant Matrix: (Units=GPa)
#
#
# Indices 1 2 3 4 5 6 
#
# 1 81.9708 15.4536 55.3753 0.0000 -7.8420 0.0000
# 2 15.4536 45.3240 28.8060 0.0000 1.0516 0.0000
# 3 55.3753 28.8060 128.5928 0.0000 0.3243 0.0000
# 4 0.0000 0.0000 0.0000 38.0018 0.0000 2.9048
# 5 -7.8420 1.0516 0.3243 0.0000 38.2136 0.0000
# 6 0.0000 0.0000 0.0000 2.9048 0.0000 27.1092
#
#
#
# Elastic Compliance Matrix: (Units=1/GPa)
#
#
# Indices 1 2 3 4 5 6 
#
# 1 0.017798 -0.001491 -0.007340 0.000000 0.003756 0.000000
# 2 -0.001491 0.025867 -0.005150 0.000000 -0.000974 0.000000
# 3 -0.007340 -0.005150 0.012095 0.000000 -0.001467 0.000000
# 4 0.000000 0.000000 0.000000 0.026532 0.000000 -0.002843
# 5 0.003756 -0.000974 -0.001467 0.000000 0.026979 0.000000
# 6 0.000000 0.000000 0.000000 -0.002843 0.000000 0.037192
#
#
# Mechanical properties :
#
#
# Convention : Reuss Voigt Hill
#
# Bulk Modulus (GPa) = 35.97275 50.57305 43.27290
# Shear Modulus (GPa) = 27.21959 31.08177 29.15068
#
# Velocity S-wave (km/s) = 3.76482 4.02306 3.89608
# Velocity P-wave (km/s) = 6.13436 6.92203 6.54006
#
# Compressibility (1/GPa) = 0.02779882
#
# Stress axis : x y z
#
# Youngs Moduli (GPa) = 56.18522 38.65860 82.68129
#
# Poissons Ratio (x) = 0.05763 0.60688
# Poissons Ratio (y) = 0.08375 0.42583
# Poissons Ratio (z) = 0.41240 0.19910
#
# Static dielectric constant tensor:
#      x y z
#    x 3.338020 0.000000 -0.185700 
#    y 0.000000 3.485470 0.000000 
#    z -0.185700 0.000000 3.607530 
# 
# 
# High freq. dielectric constant tensor:
#      x y z
#    x 1.740650 0.000000 -0.003250 
#    y 0.000000 1.749890 0.000000 
#    z -0.003250 0.000000 1.762590 
# 
# From -- ./inp_files/151709.got.cif
#   From: 2010.06.25/outbox.cif.g09.slc.cpg/sg12_76_cif.got.tgz:151709.got - 2010.06.28 00:19:55.
