data_PCOD8108330
_publ_section_title
;
Structure prediction by ZEFSAII (Michael W. Deem and Ramdas Pophale) SiO2 
 PCOD8108330
Probable space group: C 2/M
;
_chemical_formula_sum "Si O2"
_cell_formula_units_Z 40
_cell_length_a 11.490770
_cell_length_b 26.278538
_cell_length_c 8.342119
_cell_angle_alpha 90.000000
_cell_angle_beta 49.740421
_cell_angle_gamma 90.000000
_cell_volume 1922.304015
_symmetry_space_group_name_H-M "C 2/M"
_symmetry_group_IT_number 12
_symmetry_cell_setting 'monoclinic'
loop_
_space_group_symop_operation_xyz
x,y,z
-x,y,-z
-x,-y,-z
x,-y,z
1/2+x,1/2+y,z
1/2-x,1/2+y,-z
1/2-x,1/2-y,-z
1/2+x,1/2-y,z
loop_
_atom_site_type_symbol
_atom_site_label
_atom_site_fract_x
_atom_site_fract_y
_atom_site_fract_z
Si Si1 0.335563 0.303154 0.724633
Si Si2 0.832209 0.401835 0.093511
Si Si3 0.331408 0.895792 0.717909
Si Si4 0.318224 0.500000 0.640593
Si Si5 0.678144 0.000000 0.406132
Si Si6 0.830502 0.796829 0.108918
O O1 0.500000 0.310579 0.500000
O O2 0.232405 0.351152 0.761287
O O3 0.269196 0.249049 0.728108
O O4 0.330202 0.302776 0.919856
O O5 0.728306 0.449602 0.225191
O O6 0.839274 0.395143 0.899365
O O7 0.000000 0.414165 0.000000
O O8 0.500000 0.888602 0.500000
O O9 0.251772 0.947939 0.727107
O O10 0.227613 0.848407 0.753205
O O11 0.500000 0.500000 0.500000
O O12 0.228416 0.500000 0.548399
O O13 0.500000 0.000000 0.500000
O O14 0.000000 0.783292 0.000000
#
# Coordination Sequence:
#
# PCOD8108330 Si02
#       6
#     8   8   8   4   4   8
#     4  10  22  39  59  87 120 154 197 248 301 357
#     4  11  22  39  63  90 122 159 204 250 301 366
#     4  10  21  38  61  88 118 156 201 248 300 359
#     4  12  26  42  63  93 127 161 205 257 310 362
#     4  10  21  40  64  87 118 161 205 245 301 364
#     4  10  22  38  58  86 118 155 197 243 298 363
#
# _framework density 20.808364000000001
#
# number of rings (size 3 to 8) (size 9 to 14) (size 15 to 20)
#    0.000    1.600    0.000    5.100    0.000    7.200 
#    0.000    1.500    0.000    0.000    0.000    0.000 
#    0.000    0.000    0.000    0.000    0.000    0.000 
#
# Total GULP energy -247838.579008 kJ/mol
# GULP energy per Si atom -12391.928950 kJ/mol
# Density = 2.076100 g / cm^3
# Si number density = 20.808364 Si / 1000 Ang^3
#
#
#
# Elastic Constant Matrix: (Units=GPa)
#
#
# Indices 1 2 3 4 5 6 
#
# 1 81.6761 25.6982 26.5445 0.0000 -17.5865 0.0000
# 2 25.6982 190.2906 64.7300 0.0000 -16.3614 0.0000
# 3 26.5445 64.7300 107.9469 0.0000 -22.3732 0.0000
# 4 0.0000 0.0000 0.0000 24.0049 0.0000 81.2032
# 5 -17.5865 -16.3614 -22.3732 0.0000 33.3878 0.0000
# 6 0.0000 0.0000 0.0000 81.2032 0.0000 -371.8299
#
#
#
# Elastic Compliance Matrix: (Units=1/GPa)
#
#
# Indices 1 2 3 4 5 6 
#
# 1 0.014371 -0.000812 -0.001812 0.000000 0.005957 0.000000
# 2 -0.000812 0.006661 -0.003724 0.000000 0.000341 0.000000
# 3 -0.001812 -0.003724 0.013200 0.000000 0.006066 0.000000
# 4 0.000000 0.000000 0.000000 0.023959 0.000000 0.005232
# 5 0.005957 0.000341 0.006066 0.000000 0.037321 0.000000
# 6 0.000000 0.000000 0.000000 0.005232 0.000000 -0.001547
#
#
# Mechanical properties :
#
#
# Convention : Reuss Voigt Hill
#
# Bulk Modulus (GPa) = 46.43584 68.20654 57.32119
# Shear Modulus (GPa) = 43.92212 -45.35805 -0.71796
#
# Velocity S-wave (km/s) = 4.59932 -4.67390 -0.58803
# Velocity P-wave (km/s) = 7.11122 1.92938 5.21018
#
# Compressibility (1/GPa) = 0.02153509
#
# Stress axis : x y z
#
# Youngs Moduli (GPa) = 69.58634 150.13223 75.76020
#
# Poissons Ratio (x) = 0.12192 0.13729
# Poissons Ratio (y) = 0.05651 0.28211
# Poissons Ratio (z) = 0.12610 0.55905
#
# Static dielectric constant tensor:
#      x y z
#    x 3.932720 0.000000 -0.118630 
#    y 0.000000 4.643670 0.000000 
#    z -0.118630 0.000000 3.783000 
# 
# 
# High freq. dielectric constant tensor:
#      x y z
#    x 1.804270 0.000000 -0.002060 
#    y 0.000000 1.847070 0.000000 
#    z -0.002060 0.000000 1.813460 
# 
# From -- ./inp_files/52356.got.cif
#   From: 2010.06.25/outbox.cif.g09.slc.cpg/sg12_27_cif.got.tgz:52356.got - 2010.06.28 00:19:55.
