data_PCOD8108544
_publ_section_title
;
Structure prediction by ZEFSAII (Michael W. Deem and Ramdas Pophale) SiO2 
 PCOD8108544
Probable space group: C 2/M
;
_chemical_formula_sum "Si O2"
_cell_formula_units_Z 40
_cell_length_a 17.858907
_cell_length_b 8.538953
_cell_length_c 12.542369
_cell_angle_alpha 90.000000
_cell_angle_beta 91.814303
_cell_angle_gamma 90.000000
_cell_volume 1911.706870
_symmetry_space_group_name_H-M "C 2/M"
_symmetry_group_IT_number 12
_symmetry_cell_setting 'monoclinic'
loop_
_space_group_symop_operation_xyz
x,y,z
-x,y,-z
-x,-y,-z
x,-y,z
1/2+x,1/2+y,z
1/2-x,1/2+y,-z
1/2-x,1/2-y,-z
1/2+x,1/2-y,z
loop_
_atom_site_type_symbol
_atom_site_label
_atom_site_fract_x
_atom_site_fract_y
_atom_site_fract_z
Si Si1 0.843226 0.680788 0.916284
Si Si2 0.921872 0.318703 0.323225
Si Si3 0.578198 0.320194 0.273987
Si Si4 0.673830 0.681114 0.864736
Si Si5 0.667386 0.683221 0.488175
O O1 0.846771 0.500000 0.948798
O O2 0.903860 0.716087 0.828339
O O3 0.761241 0.726423 0.869373
O O4 0.862611 0.780978 0.022165
O O5 0.943917 0.500000 0.324885
O O6 0.863069 0.286980 0.226969
O O7 0.886338 0.274126 0.434090
O O8 0.995595 0.216176 0.311115
O O9 0.582524 0.500000 0.239616
O O10 0.638103 0.283285 0.368406
O O11 0.660597 0.500000 0.836548
O O12 0.666789 0.500000 0.516442
O O13 0.750000 0.750000 0.500000
#
# Coordination Sequence:
#
# PCOD8108544 Si02
#       5
#     8   8   8   8   8
#     4  10  21  38  62  91 121 155 199 247 295 351
#     4  12  25  40  61  89 122 158 199 247 298 353
#     4  11  24  41  61  87 121 159 199 244 297 355
#     4  10  21  39  63  89 121 159 199 245 296 352
#     4  11  24  42  65  91 120 156 199 245 294 353
#
# _framework density 20.923708000000001
#
# number of rings (size 3 to 8) (size 9 to 14) (size 15 to 20)
#    0.000    1.200    0.000    6.000    0.000   12.000 
#    0.000    4.000    0.000    0.000    0.000    0.000 
#    0.000    0.000    0.000    0.000    0.000    0.000 
#
# Total GULP energy -248170.319647 kJ/mol
# GULP energy per Si atom -12408.515982 kJ/mol
# Density = 2.087608 g / cm^3
# Si number density = 20.923708 Si / 1000 Ang^3
#
#
#
# Elastic Constant Matrix: (Units=GPa)
#
#
# Indices 1 2 3 4 5 6 
#
# 1 47.7614 3.8418 1.3234 0.0000 -22.0932 0.0000
# 2 3.8418 60.8060 26.6020 0.0000 7.0583 0.0000
# 3 1.3234 26.6020 70.0620 0.0000 -20.5340 0.0000
# 4 0.0000 0.0000 0.0000 35.2543 0.0000 -2.0280
# 5 -22.0932 7.0583 -20.5340 0.0000 34.0358 0.0000
# 6 0.0000 0.0000 0.0000 -2.0280 0.0000 36.4132
#
#
#
# Elastic Compliance Matrix: (Units=1/GPa)
#
#
# Indices 1 2 3 4 5 6 
#
# 1 0.038799 -0.013450 0.015273 0.000000 0.037189 0.000000
# 2 -0.013450 0.028011 -0.017788 0.000000 -0.025271 0.000000
# 3 0.015273 -0.017788 0.030036 0.000000 0.031724 0.000000
# 4 0.000000 0.000000 0.000000 0.028457 0.000000 0.001585
# 5 0.037189 -0.025271 0.031724 0.000000 0.077901 0.000000
# 6 0.000000 0.000000 0.000000 0.001585 0.000000 0.027551
#
#
# Mechanical properties :
#
#
# Convention : Reuss Voigt Hill
#
# Bulk Modulus (GPa) = 15.40441 26.90708 21.15574
# Shear Modulus (GPa) = 17.58565 30.93148 24.25856
#
# Velocity S-wave (km/s) = 2.90222 3.84904 3.40866
# Velocity P-wave (km/s) = 4.31378 5.71323 5.06210
#
# Compressibility (1/GPa) = 0.06491649
#
# Stress axis : x y z
#
# Youngs Moduli (GPa) = 25.77413 35.70013 33.29292
#
# Poissons Ratio (x) = 0.48017 -0.50850
# Poissons Ratio (y) = 0.34666 0.59222
# Poissons Ratio (z) = -0.39366 0.63504
#
# Static dielectric constant tensor:
#      x y z
#    x 3.710890 0.000000 0.028680 
#    y 0.000000 3.655920 0.000000 
#    z 0.028680 0.000000 3.842730 
# 
# 
# High freq. dielectric constant tensor:
#      x y z
#    x 1.820360 0.000000 -0.002210 
#    y 0.000000 1.830450 0.000000 
#    z -0.002210 0.000000 1.831390 
# 
# From -- ./inp_files/151641.got.cif
#   From: 2010.06.25/outbox.cif.g09.slc.cpg/sg12_76_cif.got.tgz:151641.got - 2010.06.28 00:19:55.
