data_PCOD8108929
_publ_section_title
;
Structure prediction by ZEFSAII (Michael W. Deem and Ramdas Pophale) SiO2 
 PCOD8108929
Probable space group: C 2/M
;
_chemical_formula_sum "Si O2"
_cell_formula_units_Z 56
_cell_length_a 28.141704
_cell_length_b 9.080574
_cell_length_c 16.666045
_cell_angle_alpha 90.000000
_cell_angle_beta 138.381194
_cell_angle_gamma 90.000000
_cell_volume 2828.632714
_symmetry_space_group_name_H-M "C 2/M"
_symmetry_group_IT_number 12
_symmetry_cell_setting 'monoclinic'
loop_
_space_group_symop_operation_xyz
x,y,z
-x,y,-z
-x,-y,-z
x,-y,z
1/2+x,1/2+y,z
1/2-x,1/2+y,-z
1/2-x,1/2-y,-z
1/2+x,1/2-y,z
loop_
_atom_site_type_symbol
_atom_site_label
_atom_site_fract_x
_atom_site_fract_y
_atom_site_fract_z
Si Si1 0.657197 0.827120 0.705570
Si Si2 0.276802 0.166938 0.457498
Si Si3 0.414030 0.174528 0.544163
Si Si4 0.449300 0.170269 0.004983
Si Si5 0.695960 0.334862 0.195128
Si Si6 0.450636 0.828063 0.186631
Si Si7 0.325888 0.675406 0.110866
O O1 0.598285 0.779715 0.564260
O O2 0.736669 0.790469 0.774714
O O3 0.641670 0.728947 0.763608
O O4 0.649857 0.000000 0.717520
O O5 0.250000 0.250000 0.500000
O O6 0.350268 0.240753 0.518135
O O7 0.216356 0.177106 0.313681
O O8 0.291248 0.000000 0.501278
O O9 0.489827 0.227672 0.674574
O O10 0.406710 0.000000 0.539713
O O11 0.480480 0.197321 0.133896
O O12 0.443044 0.000000 0.976857
O O13 0.500000 0.243982 0.000000
O O14 0.369249 0.228624 0.903411
O O15 0.672043 0.500000 0.143444
O O16 0.379981 0.729962 0.110052
O O17 0.432172 0.000000 0.176947
O O18 0.318114 0.500000 0.098007
O O19 0.250000 0.750000 0.000000
#
# Coordination Sequence:
#
# PCOD8108929 Si02
#       7
#     8   8   8   8   8   8   8
#     4   9  18  37  62  86 113 148 191 233 279 336
#     4   9  18  32  53  81 109 144 188 233 278 329
#     4   8  17  35  59  83 113 154 193 229 275 341
#     4  10  22  36  54  82 111 146 191 237 282 329
#     4   9  19  35  54  79 110 144 185 229 278 336
#     4  10  21  39  60  84 116 153 193 234 281 339
#     4  12  25  40  60  87 116 148 189 237 289 341
#
# _framework density 19.797550999999999
#
# number of rings (size 3 to 8) (size 9 to 14) (size 15 to 20)
#    0.000    2.429    0.000    3.857    2.000    4.857 
#    0.000    6.429    0.000    0.000    0.000    0.000 
#    0.000    0.000    0.000    0.000    0.000    0.000 
#
# Total GULP energy -347136.169199 kJ/mol
# GULP energy per Si atom -12397.720329 kJ/mol
# Density = 1.975249 g / cm^3
# Si number density = 19.797551 Si / 1000 Ang^3
#
#
#
# Elastic Constant Matrix: (Units=GPa)
#
#
# Indices 1 2 3 4 5 6 
#
# 1 96.3333 37.9440 42.9482 0.0000 -12.5649 0.0000
# 2 37.9440 69.6026 37.8876 0.0000 -4.2960 0.0000
# 3 42.9482 37.8876 104.5040 0.0000 6.4109 0.0000
# 4 0.0000 0.0000 0.0000 24.8902 0.0000 -1.0641
# 5 -12.5649 -4.2960 6.4109 0.0000 28.3009 0.0000
# 6 0.0000 0.0000 0.0000 -1.0641 0.0000 31.5752
#
#
#
# Elastic Compliance Matrix: (Units=1/GPa)
#
#
# Indices 1 2 3 4 5 6 
#
# 1 0.015645 -0.005408 -0.004913 0.000000 0.007238 0.000000
# 2 -0.005408 0.020287 -0.005247 0.000000 0.001867 0.000000
# 3 -0.004913 -0.005247 0.013866 0.000000 -0.006119 0.000000
# 4 0.000000 0.000000 0.000000 0.040234 0.000000 0.001356
# 5 0.007238 0.001867 -0.006119 0.000000 0.040218 0.000000
# 6 0.000000 0.000000 0.000000 0.001356 0.000000 0.031716
#
#
# Mechanical properties :
#
#
# Convention : Reuss Voigt Hill
#
# Bulk Modulus (GPa) = 53.58529 56.44437 55.01483
# Shear Modulus (GPa) = 25.08496 27.06392 26.07444
#
# Velocity S-wave (km/s) = 3.56346 3.70135 3.63306
# Velocity P-wave (km/s) = 6.63750 6.84393 6.74150
#
# Compressibility (1/GPa) = 0.01866184
#
# Stress axis : x y z
#
# Youngs Moduli (GPa) = 63.91740 49.29323 72.11972
#
# Poissons Ratio (x) = 0.26657 0.35434
# Poissons Ratio (y) = 0.34565 0.37841
# Poissons Ratio (z) = 0.31404 0.25864
#
# Static dielectric constant tensor:
#      x y z
#    x 3.925990 0.000000 0.233110 
#    y 0.000000 3.312920 0.000000 
#    z 0.233110 0.000000 4.447000 
# 
# 
# High freq. dielectric constant tensor:
#      x y z
#    x 1.778150 0.000000 -0.009680 
#    y 0.000000 1.739030 0.000000 
#    z -0.009680 0.000000 1.779860 
# 
# From -- ./inp_files/295177.got.cif
#   From: 2010.06.25/outbox.cif.g09.slc.cpg/sg12_148_cif.got.tgz:295177.got - 2010.06.28 00:19:55.
