data_PCOD8108379
_publ_section_title
;
Structure prediction by ZEFSAII (Michael W. Deem and Ramdas Pophale) SiO2 
 PCOD8108379
Probable space group: C 2/M
;
_chemical_formula_sum "Si O2"
_cell_formula_units_Z 64
_cell_length_a 29.831087
_cell_length_b 8.831150
_cell_length_c 18.980982
_cell_angle_alpha 90.000000
_cell_angle_beta 40.006675
_cell_angle_gamma 90.000000
_cell_volume 3214.643407
_symmetry_space_group_name_H-M "C 2/M"
_symmetry_group_IT_number 12
_symmetry_cell_setting 'monoclinic'
loop_
_space_group_symop_operation_xyz
x,y,z
-x,y,-z
-x,-y,-z
x,-y,z
1/2+x,1/2+y,z
1/2-x,1/2+y,-z
1/2-x,1/2-y,-z
1/2+x,1/2-y,z
loop_
_atom_site_type_symbol
_atom_site_label
_atom_site_fract_x
_atom_site_fract_y
_atom_site_fract_z
Si Si1 0.024030 0.824111 0.394498
Si Si2 0.926640 0.174058 0.383736
Si Si3 0.151466 0.323993 0.164961
Si Si4 0.693310 0.675935 0.974898
Si Si5 0.357381 0.321666 0.227556
Si Si6 0.036573 0.675028 0.797697
Si Si7 0.767721 0.177582 0.553268
Si Si8 0.389621 0.176205 0.044391
O O1 0.091552 0.731238 0.289359
O O2 0.000000 0.766370 0.500000
O O3 0.959370 0.793915 0.420469
O O4 0.045047 0.000000 0.371390
O O5 0.966607 0.280662 0.280329
O O6 0.845559 0.217448 0.483807
O O7 0.936999 0.000000 0.348590
O O8 0.141696 0.500000 0.159762
O O9 0.225225 0.291086 0.112894
O O10 0.147890 0.235686 0.095306
O O11 0.676764 0.500000 0.985622
O O12 0.672735 0.763026 0.928810
O O13 0.348829 0.500000 0.235308
O O14 0.404823 0.277310 0.236685
O O15 0.281604 0.246916 0.327270
O O16 0.392658 0.262919 0.114229
O O17 0.056800 0.500000 0.782732
O O18 0.962097 0.711382 0.919751
O O19 0.750000 0.250000 0.500000
O O20 0.754896 0.000000 0.562778
O O21 0.378171 0.000000 0.072824
#
# Coordination Sequence:
#
# PCOD8108379 Si02
#       8
#     8   8   8   8   8   8   8   8
#     4  10  22  40  61  88 122 160 201 248 304 366
#     4  10  22  39  62  90 119 156 202 248 302 364
#     4  10  21  38  61  89 120 156 200 248 299 356
#     4  10  21  38  61  89 120 157 199 245 298 361
#     4  12  25  40  60  87 120 161 201 247 302 359
#     4  11  23  39  61  87 118 155 199 250 302 359
#     4  11  22  39  62  88 119 157 203 253 300 355
#     4  11  24  40  59  88 123 158 199 248 303 362
#
# _framework density 19.908895999999999
#
# number of rings (size 3 to 8) (size 9 to 14) (size 15 to 20)
#    0.000    1.375    1.250    4.125    0.000    9.250 
#    0.000    1.250    0.000    0.000    0.000    0.000 
#    0.000    0.000    0.000    0.000    0.000    0.000 
#
# Total GULP energy -397036.459969 kJ/mol
# GULP energy per Si atom -12407.389374 kJ/mol
# Density = 1.986358 g / cm^3
# Si number density = 19.908896 Si / 1000 Ang^3
#
#
#
# Elastic Constant Matrix: (Units=GPa)
#
#
# Indices 1 2 3 4 5 6 
#
# 1 97.7548 40.3457 58.6590 -0.0261 6.1312 0.0200
# 2 40.3457 99.8959 55.5944 -0.0610 -7.6943 0.0503
# 3 58.6590 55.5944 114.5851 -0.0251 -2.3894 0.0228
# 4 -0.0261 -0.0610 -0.0251 37.5184 0.0155 3.4129
# 5 6.1312 -7.6943 -2.3894 0.0155 30.2452 -0.0150
# 6 0.0200 0.0503 0.0228 3.4129 -0.0150 29.4567
#
#
#
# Elastic Compliance Matrix: (Units=1/GPa)
#
#
# Indices 1 2 3 4 5 6 
#
# 1 0.015774 -0.002973 -0.006726 0.000004 -0.004485 -0.000003
# 2 -0.002973 0.014545 -0.005454 0.000018 0.003872 -0.000019
# 3 -0.006726 -0.005454 0.014841 -0.000004 0.001148 0.000003
# 4 0.000004 0.000018 -0.000004 0.026938 -0.000012 -0.003121
# 5 -0.004485 0.003872 0.001148 -0.000012 0.035048 0.000015
# 6 -0.000003 -0.000019 0.000003 -0.003121 0.000015 0.034310
#
#
# Mechanical properties :
#
#
# Convention : Reuss Voigt Hill
#
# Bulk Modulus (GPa) = 67.32737 69.04822 68.18779
# Shear Modulus (GPa) = 28.29450 29.95319 29.12385
#
# Velocity S-wave (km/s) = 3.77397 3.88301 3.82888
# Velocity P-wave (km/s) = 7.27197 7.40683 7.33971
#
# Compressibility (1/GPa) = 0.01485280
#
# Stress axis : x y z
#
# Youngs Moduli (GPa) = 63.39450 68.75347 67.38231
#
# Poissons Ratio (x) = 0.20440 0.45324
# Poissons Ratio (y) = 0.18847 0.36751
# Poissons Ratio (z) = 0.42641 0.37499
#
# Static dielectric constant tensor:
#      x y z
#    x 3.757390 -0.000160 0.250970 
#    y -0.000160 3.672250 -0.000350 
#    z 0.250970 -0.000350 4.730420 
# 
# 
# High freq. dielectric constant tensor:
#      x y z
#    x 1.781440 0.000000 -0.003970 
#    y 0.000000 1.784680 0.000010 
#    z -0.003970 0.000010 1.782710 
# 
# From -- ./inp_files/295668.got.cif
#   From: 2010.06.25/outbox.cif.g09.slc.cpg/sg12_148_cif.got.tgz:295668.got - 2010.06.28 00:19:55.
