data_PCOD8108102
_publ_section_title
;
Structure prediction by ZEFSAII (Michael W. Deem and Ramdas Pophale) SiO2 
 PCOD8108102
Probable space group: C 2/M
;
_chemical_formula_sum "Si O2"
_cell_formula_units_Z 56
_cell_length_a 17.757334
_cell_length_b 8.893025
_cell_length_c 28.599410
_cell_angle_alpha 90.000000
_cell_angle_beta 39.045399
_cell_angle_gamma 90.000000
_cell_volume 2844.990112
_symmetry_space_group_name_H-M "C 2/M"
_symmetry_group_IT_number 12
_symmetry_cell_setting 'monoclinic'
loop_
_space_group_symop_operation_xyz
x,y,z
-x,y,-z
-x,-y,-z
x,-y,z
1/2+x,1/2+y,z
1/2-x,1/2+y,-z
1/2-x,1/2-y,-z
1/2+x,1/2-y,z
loop_
_atom_site_type_symbol
_atom_site_label
_atom_site_fract_x
_atom_site_fract_y
_atom_site_fract_z
Si Si1 0.205965 0.176466 0.568466
Si Si2 0.485569 0.322807 0.147121
Si Si3 0.861850 0.826431 0.570511
Si Si4 0.560918 0.673929 0.281093
Si Si5 0.148980 0.677810 0.146155
Si Si6 0.238359 0.171667 0.279642
Si Si7 0.083814 0.821234 0.000845
O O1 0.250000 0.250000 0.500000
O O2 0.290780 0.220747 0.569909
O O3 0.072530 0.231395 0.644585
O O4 0.208199 0.000000 0.559829
O O5 0.501622 0.500000 0.143551
O O6 0.555738 0.246910 0.155285
O O7 0.346874 0.282757 0.217138
O O8 0.536211 0.261645 0.073483
O O9 0.817873 0.789635 0.643484
O O10 0.000000 0.784378 0.500000
O O11 0.839985 0.000000 0.567543
O O12 0.562232 0.500000 0.264795
O O13 0.616807 0.774775 0.213788
O O14 0.635881 0.701017 0.291530
O O15 0.142529 0.500000 0.145050
O O16 0.281666 0.738358 0.070804
O O17 0.284412 0.000000 0.255579
O O18 0.080144 0.000000 0.000973
O O19 0.000000 0.755256 0.000000
#
# Coordination Sequence:
#
# PCOD8108102 Si02
#       7
#     8   8   8   8   8   8   8
#     4  11  23  39  60  86 116 150 189 233 281 334
#     4  11  22  37  58  83 115 152 189 233 284 335
#     4  10  21  39  61  84 114 152 189 229 283 338
#     4  10  22  40  60  85 117 150 186 232 285 337
#     4  11  22  37  59  85 114 150 192 234 279 335
#     4  10  21  38  60  85 114 148 188 233 281 338
#     4   9  19  36  57  82 112 147 188 234 283 335
#
# _framework density 19.683723000000001
#
# number of rings (size 3 to 8) (size 9 to 14) (size 15 to 20)
#    0.000    1.714    0.000    4.286    0.000    8.286 
#    0.000    3.571    0.000    5.143    0.000    0.000 
#    0.000    0.000    0.000    0.000    0.000    0.000 
#
# Total GULP energy -347357.683850 kJ/mol
# GULP energy per Si atom -12405.631566 kJ/mol
# Density = 1.963892 g / cm^3
# Si number density = 19.683723 Si / 1000 Ang^3
#
#
#
# Elastic Constant Matrix: (Units=GPa)
#
#
# Indices 1 2 3 4 5 6 
#
# 1 113.1516 27.6439 56.9785 -0.0005 4.3988 -0.0020
# 2 27.6439 52.0698 42.0381 -0.0006 1.3598 -0.0032
# 3 56.9785 42.0381 164.3580 0.0001 -1.0482 0.0000
# 4 -0.0005 -0.0006 0.0001 22.1645 0.0003 5.4274
# 5 4.3988 1.3598 -1.0482 0.0003 44.3215 -0.0002
# 6 -0.0020 -0.0032 0.0000 5.4274 -0.0002 22.6706
#
#
#
# Elastic Compliance Matrix: (Units=1/GPa)
#
#
# Indices 1 2 3 4 5 6 
#
# 1 0.011254 -0.003518 -0.003009 0.000000 -0.001080 0.000000
# 2 -0.003518 0.025337 -0.005265 0.000000 -0.000553 0.000003
# 3 -0.003009 -0.005265 0.008478 0.000000 0.000661 -0.000001
# 4 0.000000 0.000000 0.000000 0.047927 0.000000 -0.011474
# 5 -0.001080 -0.000553 0.000661 0.000000 0.022702 0.000000
# 6 0.000000 0.000003 -0.000001 -0.011474 0.000000 0.046857
#
#
# Mechanical properties :
#
#
# Convention : Reuss Voigt Hill
#
# Bulk Modulus (GPa) = 46.53835 64.76672 55.65254
# Shear Modulus (GPa) = 25.86658 31.35925 28.61291
#
# Velocity S-wave (km/s) = 3.62900 3.99577 3.81679
# Velocity P-wave (km/s) = 6.42292 7.36636 6.91076
#
# Compressibility (1/GPa) = 0.02148765
#
# Stress axis : x y z
#
# Youngs Moduli (GPa) = 88.85630 39.46758 117.95147
#
# Poissons Ratio (x) = 0.13883 0.35488
# Poissons Ratio (y) = 0.31256 0.62097
# Poissons Ratio (z) = 0.26734 0.20778
#
# Static dielectric constant tensor:
#      x y z
#    x 3.623150 0.000020 -0.058120 
#    y 0.000020 3.480850 0.000020 
#    z -0.058120 0.000020 3.806450 
# 
# 
# High freq. dielectric constant tensor:
#      x y z
#    x 1.785650 0.000000 0.000640 
#    y 0.000000 1.752220 0.000000 
#    z 0.000640 0.000000 1.786470 
# 
# From -- ./inp_files/275079.got.cif
#   From: 2010.06.25/outbox.cif.g09.slc.cpg/sg12_138_cif.got.tgz:275079.got - 2010.06.28 00:19:55.
