data_PCOD8108369
_publ_section_title
;
Structure prediction by ZEFSAII (Michael W. Deem and Ramdas Pophale) SiO2 
 PCOD8108369
Probable space group: C 2/M
;
_chemical_formula_sum "Si O2"
_cell_formula_units_Z 64
_cell_length_a 24.446338
_cell_length_b 8.567158
_cell_length_c 29.234533
_cell_angle_alpha 90.000000
_cell_angle_beta 148.964405
_cell_angle_gamma 90.000000
_cell_volume 3156.710837
_symmetry_space_group_name_H-M "C 2/M"
_symmetry_group_IT_number 12
_symmetry_cell_setting 'monoclinic'
loop_
_space_group_symop_operation_xyz
x,y,z
-x,y,-z
-x,-y,-z
x,-y,z
1/2+x,1/2+y,z
1/2-x,1/2+y,-z
1/2-x,1/2-y,-z
1/2+x,1/2-y,z
loop_
_atom_site_type_symbol
_atom_site_label
_atom_site_fract_x
_atom_site_fract_y
_atom_site_fract_z
Si Si1 0.916929 0.319031 0.678686
Si Si2 0.114007 0.682523 0.062540
Si Si3 0.505462 0.318439 0.357540
Si Si4 0.697174 0.816953 0.747611
Si Si5 0.903332 0.819096 0.138093
Si Si6 0.692811 0.317351 0.558063
Si Si7 0.383302 0.816355 0.407096
Si Si8 0.198370 0.818166 0.030270
O O1 0.923530 0.500000 0.669591
O O2 0.949327 0.209831 0.660159
O O3 0.798297 0.269904 0.606825
O O4 0.994199 0.283869 0.776531
O O5 0.117462 0.500000 0.054325
O O6 0.199305 0.725033 0.162230
O O7 0.136802 0.773638 0.032037
O O8 0.000000 0.734749 0.000000
O O9 0.478655 0.500000 0.344344
O O10 0.399569 0.217063 0.287359
O O11 0.591995 0.261774 0.456441
O O12 0.665517 0.750845 0.674972
O O13 0.722387 0.000000 0.765666
O O14 0.807498 0.777420 0.103957
O O15 0.930605 0.000000 0.163789
O O16 0.875328 0.777281 0.065820
O O17 0.689536 0.500000 0.565555
O O18 0.694291 0.228677 0.607340
O O19 0.500000 0.742790 0.500000
O O20 0.393395 0.000000 0.409670
O O21 0.227526 0.000000 0.052022
#
# Coordination Sequence:
#
# PCOD8108369 Si02
#       8
#     8   8   8   8   8   8   8   8
#     4  11  23  38  56  84 121 157 196 240 294 352
#     4  11  25  43  62  87 121 159 198 245 299 353
#     4  11  22  38  60  86 117 155 200 245 293 348
#     4  11  23  40  64  91 119 156 199 245 297 353
#     4  10  21  38  61  89 118 152 194 240 294 354
#     4  10  23  39  58  85 117 157 198 243 295 348
#     4  10  21  39  62  88 118 153 197 245 294 348
#     4  10  21  39  64  89 116 152 195 243 295 350
#
# _framework density 20.274266999999998
#
# number of rings (size 3 to 8) (size 9 to 14) (size 15 to 20)
#    0.000    1.500    1.250    3.375    0.000    6.250 
#    0.000    5.000    0.000    0.000    0.000    0.000 
#    0.000    0.000    0.000    0.000    0.000    0.000 
#
# Total GULP energy -397010.753510 kJ/mol
# GULP energy per Si atom -12406.586047 kJ/mol
# Density = 2.022812 g / cm^3
# Si number density = 20.274267 Si / 1000 Ang^3
#
#
#
# Elastic Constant Matrix: (Units=GPa)
#
#
# Indices 1 2 3 4 5 6 
#
# 1 99.7809 13.1719 57.1057 -0.0002 -8.4059 0.0001
# 2 13.1719 31.1629 18.7118 0.0002 -0.7123 -0.0034
# 3 57.1057 18.7118 116.9782 0.0000 5.6488 -0.0005
# 4 -0.0002 0.0002 0.0000 30.6496 0.0000 0.3896
# 5 -8.4059 -0.7123 5.6488 0.0000 32.9195 0.0000
# 6 0.0001 -0.0034 -0.0005 0.3896 0.0000 34.0595
#
#
#
# Elastic Compliance Matrix: (Units=1/GPa)
#
#
# Indices 1 2 3 4 5 6 
#
# 1 0.014781 -0.001834 -0.007162 0.000000 0.004964 0.000000
# 2 -0.001834 0.035828 -0.004891 0.000000 0.001146 0.000003
# 3 -0.007162 -0.004891 0.013029 0.000000 -0.004170 0.000000
# 4 0.000000 0.000000 0.000000 0.032632 0.000000 -0.000373
# 5 0.004964 0.001146 -0.004170 0.000000 0.032385 0.000000
# 6 0.000000 0.000003 0.000000 -0.000373 0.000000 0.029365
#
#
# Mechanical properties :
#
#
# Convention : Reuss Voigt Hill
#
# Bulk Modulus (GPa) = 27.88355 47.32232 37.60294
# Shear Modulus (GPa) = 25.28481 30.12122 27.70302
#
# Velocity S-wave (km/s) = 3.53532 3.85864 3.70051
# Velocity P-wave (km/s) = 5.51794 6.57601 6.07007
#
# Compressibility (1/GPa) = 0.03586344
#
# Stress axis : x y z
#
# Youngs Moduli (GPa) = 67.65375 27.91149 76.75347
#
# Poissons Ratio (x) = 0.05118 0.54972
# Poissons Ratio (y) = 0.12406 0.37541
# Poissons Ratio (z) = 0.48455 0.13652
#
# Static dielectric constant tensor:
#      x y z
#    x 3.618560 0.000000 -0.081310 
#    y 0.000000 3.556720 0.000000 
#    z -0.081310 0.000000 3.864740 
# 
# 
# High freq. dielectric constant tensor:
#      x y z
#    x 1.794500 0.000000 -0.006580 
#    y 0.000000 1.792060 0.000000 
#    z -0.006580 0.000000 1.799780 
# 
# From -- ./inp_files/382486.got.cif
#   From: 2010.06.25/outbox.cif.g09.slc.cpg/sg12_192_cif.got.tgz:382486.got - 2010.06.28 00:19:55.
