data_PCOD8108274
_publ_section_title
;
Structure prediction by ZEFSAII (Michael W. Deem and Ramdas Pophale) SiO2 
 PCOD8108274
Probable space group: C 2/M
;
_chemical_formula_sum "Si O2"
_cell_formula_units_Z 56
_cell_length_a 24.955421
_cell_length_b 8.843359
_cell_length_c 18.454309
_cell_angle_alpha 90.000000
_cell_angle_beta 43.259527
_cell_angle_gamma 90.000000
_cell_volume 2791.022067
_symmetry_space_group_name_H-M "C 2/M"
_symmetry_group_IT_number 12
_symmetry_cell_setting 'monoclinic'
loop_
_space_group_symop_operation_xyz
x,y,z
-x,y,-z
-x,-y,-z
x,-y,z
1/2+x,1/2+y,z
1/2-x,1/2+y,-z
1/2-x,1/2-y,-z
1/2+x,1/2-y,z
loop_
_atom_site_type_symbol
_atom_site_label
_atom_site_fract_x
_atom_site_fract_y
_atom_site_fract_z
Si Si1 0.594673 0.677963 0.211111
Si Si2 0.926240 0.324449 0.386770
Si Si3 0.143233 0.673874 0.698814
Si Si4 0.216228 0.178103 0.210105
Si Si5 0.362207 0.178774 0.975562
Si Si6 0.193347 0.822947 0.394362
Si Si7 0.494374 0.674545 0.089700
O O1 0.590709 0.500000 0.203845
O O2 0.507843 0.741110 0.297417
O O3 0.638365 0.721823 0.242513
O O4 0.645233 0.747153 0.096012
O O5 0.943549 0.500000 0.380160
O O6 0.872937 0.291930 0.369220
O O7 0.881961 0.262178 0.500545
O O8 0.124201 0.500000 0.737257
O O9 0.233110 0.711904 0.626676
O O10 0.092083 0.782567 0.799505
O O11 0.209587 0.243018 0.297931
O O12 0.227151 0.000000 0.203922
O O13 0.293056 0.244339 0.094487
O O14 0.445352 0.220229 0.927527
O O15 0.356446 0.000000 0.971967
O O16 0.173836 0.000000 0.410751
O O17 0.511888 0.500000 0.090176
O O18 0.500000 0.709778 0.000000
#
# Coordination Sequence:
#
# PCOD8108274 Si02
#       7
#     8   8   8   8   8   8   8
#     4  11  22  39  62  88 118 157 199 246 296 351
#     4  11  23  39  59  89 121 155 199 247 297 353
#     4  10  21  38  61  86 117 156 199 241 293 355
#     4   9  21  39  61  88 118 154 201 246 296 355
#     4  11  21  38  62  88 119 155 197 246 294 352
#     4  10  21  40  63  87 115 156 202 247 296 351
#     4  11  23  36  55  87 124 159 196 239 289 348
#
# _framework density 20.064335
#
# number of rings (size 3 to 8) (size 9 to 14) (size 15 to 20)
#    0.000    1.571    1.429    3.429    0.000    4.000 
#    0.000    7.857    0.000    0.000    0.000    0.000 
#    0.000    0.000    0.000    0.000    0.000    0.000 
#
# Total GULP energy -347335.427521 kJ/mol
# GULP energy per Si atom -12404.836697 kJ/mol
# Density = 2.001867 g / cm^3
# Si number density = 20.064335 Si / 1000 Ang^3
#
#
#
# Elastic Constant Matrix: (Units=GPa)
#
#
# Indices 1 2 3 4 5 6 
#
# 1 89.0646 26.2396 34.0440 0.0120 5.7150 -0.0096
# 2 26.2396 66.5370 36.2745 0.0165 3.0495 -0.0137
# 3 34.0440 36.2745 135.8460 0.0123 11.1577 -0.0119
# 4 0.0120 0.0165 0.0123 35.4819 -0.0031 0.6202
# 5 5.7150 3.0495 11.1577 -0.0031 24.5419 0.0047
# 6 -0.0096 -0.0137 -0.0119 0.6202 0.0047 20.5277
#
#
#
# Elastic Compliance Matrix: (Units=1/GPa)
#
#
# Indices 1 2 3 4 5 6 
#
# 1 0.013333 -0.004020 -0.002134 -0.000002 -0.001635 0.000003
# 2 -0.004020 0.018802 -0.004049 -0.000006 0.000441 0.000008
# 3 -0.002134 -0.004049 0.009240 -0.000001 -0.003201 0.000002
# 4 -0.000002 -0.000006 -0.000001 0.028198 0.000005 -0.000852
# 5 -0.001635 0.000441 -0.003201 0.000005 0.042528 -0.000012
# 6 0.000003 0.000008 0.000002 -0.000852 -0.000012 0.048740
#
#
# Mechanical properties :
#
#
# Convention : Reuss Voigt Hill
#
# Bulk Modulus (GPa) = 47.68902 53.84044 50.76473
# Shear Modulus (GPa) = 26.56236 29.10294 27.83265
#
# Velocity S-wave (km/s) = 3.64244 3.81265 3.72851
# Velocity P-wave (km/s) = 6.44278 6.80249 6.62508
#
# Compressibility (1/GPa) = 0.02096919
#
# Stress axis : x y z
#
# Youngs Moduli (GPa) = 75.00458 53.18606 108.22297
#
# Poissons Ratio (x) = 0.21379 0.23090
# Poissons Ratio (y) = 0.30150 0.43824
# Poissons Ratio (z) = 0.16003 0.21537
#
# Static dielectric constant tensor:
#      x y z
#    x 3.737360 0.000000 0.133290 
#    y 0.000000 3.506290 0.000000 
#    z 0.133290 0.000000 3.777690 
# 
# 
# High freq. dielectric constant tensor:
#      x y z
#    x 1.789900 0.000000 0.002330 
#    y 0.000000 1.771200 0.000000 
#    z 0.002330 0.000000 1.794020 
# 
# From -- ./inp_files/288161.got.cif
#   From: 2010.06.25/outbox.cif.g09.slc.cpg/sg12_145_cif.got.tgz:288161.got - 2010.06.28 00:19:55.
