data_PCOD8108097
_publ_section_title
;
Structure prediction by ZEFSAII (Michael W. Deem and Ramdas Pophale) SiO2 
 PCOD8108097
Probable space group: C 2/M
;
_chemical_formula_sum "Si O2"
_cell_formula_units_Z 56
_cell_length_a 15.154595
_cell_length_b 8.896899
_cell_length_c 21.353508
_cell_angle_alpha 90.000000
_cell_angle_beta 88.632623
_cell_angle_gamma 90.000000
_cell_volume 2878.250171
_symmetry_space_group_name_H-M "C 2/M"
_symmetry_group_IT_number 12
_symmetry_cell_setting 'monoclinic'
loop_
_space_group_symop_operation_xyz
x,y,z
-x,y,-z
-x,-y,-z
x,-y,z
1/2+x,1/2+y,z
1/2-x,1/2+y,-z
1/2-x,1/2-y,-z
1/2+x,1/2-y,z
loop_
_atom_site_type_symbol
_atom_site_label
_atom_site_fract_x
_atom_site_fract_y
_atom_site_fract_z
Si Si1 0.668694 0.676996 0.361975
Si Si2 0.514173 0.678308 0.278760
Si Si3 0.512044 0.321832 0.862393
Si Si4 0.842425 0.825992 0.502268
Si Si5 0.354354 0.174555 0.936093
Si Si6 0.858875 0.822424 0.367119
Si Si7 0.324248 0.825672 0.081872
O O1 0.684249 0.500000 0.354937
O O2 0.604394 0.738785 0.308688
O O3 0.618524 0.714208 0.429642
O O4 0.763267 0.754476 0.354026
O O5 0.511479 0.500000 0.284452
O O6 0.511961 0.730637 0.207166
O O7 0.429570 0.744855 0.317093
O O8 0.505403 0.500000 0.871112
O O9 0.446078 0.240754 0.910840
O O10 0.610871 0.267815 0.874912
O O11 0.750000 0.750000 0.500000
O O12 0.894470 0.780746 0.437490
O O13 0.823823 0.000000 0.499526
O O14 0.274000 0.263134 0.905066
O O15 0.346800 0.000000 0.918771
O O16 0.353413 0.199727 0.010181
O O17 0.850305 0.000000 0.359024
O O18 0.326380 0.000000 0.100725
#
# Coordination Sequence:
#
# PCOD8108097 Si02
#       7
#     8   8   8   8   8   8   8
#     4   9  17  32  51  72  99 130 167 212 259 305
#     4   9  20  35  50  72 103 138 175 210 248 301
#     4  11  22  36  54  78 111 148 181 216 260 310
#     4   8  14  25  47  73  94 122 162 209 259 305
#     4  10  21  38  60  85 110 137 173 218 266 314
#     4   9  17  32  51  72  99 130 167 212 259 305
#     4  10  21  38  60  85 110 137 173 218 266 314
#
# _framework density 19.456264999999998
#
# number of rings (size 3 to 8) (size 9 to 14) (size 15 to 20)
#    0.000    2.571    0.000    1.714    0.000    5.143 
#    0.000    9.286    0.000    0.000    0.000   10.000 
#    0.000    0.000    0.000    0.000    0.000    0.000 
#
# Total GULP energy -346982.805309 kJ/mol
# GULP energy per Si atom -12392.243047 kJ/mol
# Density = 1.941198 g / cm^3
# Si number density = 19.456265 Si / 1000 Ang^3
#
#
#
# Elastic Constant Matrix: (Units=GPa)
#
#
# Indices 1 2 3 4 5 6 
#
# 1 61.9225 6.6223 10.6110 0.0000 6.2680 0.0000
# 2 6.6223 35.4502 24.1785 0.0000 -1.0961 0.0000
# 3 10.6110 24.1785 54.2960 0.0000 14.6680 0.0000
# 4 0.0000 0.0000 0.0000 19.6012 0.0000 2.1207
# 5 6.2680 -1.0961 14.6680 0.0000 28.9391 0.0000
# 6 0.0000 0.0000 0.0000 2.1207 0.0000 31.0566
#
#
#
# Elastic Compliance Matrix: (Units=1/GPa)
#
#
# Indices 1 2 3 4 5 6 
#
# 1 0.016949 -0.002226 -0.001514 0.000000 -0.002988 0.000000
# 2 -0.002226 0.045028 -0.023413 0.000000 0.014055 0.000000
# 3 -0.001514 -0.023413 0.033937 0.000000 -0.017760 0.000000
# 4 0.000000 0.000000 0.000000 0.051397 0.000000 -0.003510
# 5 -0.002988 0.014055 -0.017760 0.000000 0.044737 0.000000
# 6 0.000000 0.000000 0.000000 -0.003510 0.000000 0.032439
#
#
# Mechanical properties :
#
#
# Convention : Reuss Voigt Hill
#
# Bulk Modulus (GPa) = 24.03368 26.05472 25.04420
# Shear Modulus (GPa) = 17.08455 23.26984 20.17719
#
# Velocity S-wave (km/s) = 2.96649 3.46209 3.22383
# Velocity P-wave (km/s) = 4.91049 5.42235 5.17275
#
# Compressibility (1/GPa) = 0.04160827
#
# Stress axis : x y z
#
# Youngs Moduli (GPa) = 58.99995 22.20860 29.46608
#
# Poissons Ratio (x) = 0.04944 0.04461
# Poissons Ratio (y) = 0.13134 0.68989
# Poissons Ratio (z) = 0.08932 0.51997
#
# Static dielectric constant tensor:
#      x y z
#    x 3.468480 0.000000 0.040330 
#    y 0.000000 3.478620 0.000000 
#    z 0.040330 0.000000 4.065130 
# 
# 
# High freq. dielectric constant tensor:
#      x y z
#    x 1.753010 0.000000 0.002500 
#    y 0.000000 1.741820 0.000000 
#    z 0.002500 0.000000 1.763750 
# 
# From -- ./inp_files/309070.got.cif
#   From: 2010.06.25/outbox.cif.g09.slc.cpg/sg12_155_cif.got.tgz:309070.got - 2010.06.28 00:19:55.
