data_PCOD8108577
_publ_section_title
;
Structure prediction by ZEFSAII (Michael W. Deem and Ramdas Pophale) SiO2 
 PCOD8108577
Probable space group: C 2/M
;
_chemical_formula_sum "Si O2"
_cell_formula_units_Z 40
_cell_length_a 24.859855
_cell_length_b 14.177011
_cell_length_c 5.113198
_cell_angle_alpha 90.000000
_cell_angle_beta 117.597920
_cell_angle_gamma 90.000000
_cell_volume 1597.046714
_symmetry_space_group_name_H-M "C 2/M"
_symmetry_group_IT_number 12
_symmetry_cell_setting 'monoclinic'
loop_
_space_group_symop_operation_xyz
x,y,z
-x,y,-z
-x,-y,-z
x,-y,z
1/2+x,1/2+y,z
1/2-x,1/2+y,-z
1/2-x,1/2-y,-z
1/2+x,1/2-y,z
loop_
_atom_site_type_symbol
_atom_site_label
_atom_site_fract_x
_atom_site_fract_y
_atom_site_fract_z
Si Si1 0.835921 0.306107 0.719712
Si Si2 0.718682 0.106207 0.908763
Si Si3 0.028411 0.106432 0.810553
Si Si4 0.331571 0.396933 0.822261
Si Si5 0.459883 0.893387 0.164643
O O1 0.825196 0.361274 0.427122
O O2 0.823416 0.195516 0.623830
O O3 0.788308 0.335129 0.839758
O O4 0.902765 0.324157 0.989719
O O5 0.788788 0.113195 0.979708
O O6 0.699327 0.000000 0.930257
O O7 0.000000 0.160990 0.500000
O O8 0.002167 0.000000 0.758737
O O9 0.099735 0.105526 0.930201
O O10 0.000000 0.159287 0.000000
O O11 0.317912 0.500000 0.652965
O O12 0.500000 0.857792 0.500000
O O13 0.436039 0.000000 0.164880
O O14 0.500000 0.891297 0.000000
#
# Coordination Sequence:
#
# PCOD8108577 Si02
#       5
#     8   8   8   8   8
#     4  12  24  42  67  96 130 169 214 263 322 384
#     4  11  24  43  67  95 127 166 214 269 326 380
#     4   9  19  36  58  84 118 161 206 251 300 359
#     4  10  24  43  65  95 132 172 215 263 315 380
#     4  10  21  38  62  92 125 162 208 262 318 375
#
# _framework density 25.046230999999999
#
# number of rings (size 3 to 8) (size 9 to 14) (size 15 to 20)
#    0.000    1.600    0.000    4.200    0.000    6.400 
#    0.000   11.000    0.000    0.000    0.000    0.000 
#    0.000    0.000    0.000    0.000    0.000    0.000 
#
# Total GULP energy -247866.889643 kJ/mol
# GULP energy per Si atom -12393.344482 kJ/mol
# Density = 2.498922 g / cm^3
# Si number density = 25.046231 Si / 1000 Ang^3
#
#
#
# Elastic Constant Matrix: (Units=GPa)
#
#
# Indices 1 2 3 4 5 6 
#
# 1 111.8573 18.6386 24.4633 0.0000 14.1831 0.0000
# 2 18.6386 166.1629 21.6359 0.0000 5.0321 0.0000
# 3 24.4633 21.6359 120.8856 0.0000 -11.7914 0.0000
# 4 0.0000 0.0000 0.0000 4.6336 0.0000 -10.0038
# 5 14.1831 5.0321 -11.7914 0.0000 31.1961 0.0000
# 6 0.0000 0.0000 0.0000 -10.0038 0.0000 -10.9486
#
#
#
# Elastic Compliance Matrix: (Units=1/GPa)
#
#
# Indices 1 2 3 4 5 6 
#
# 1 0.010298 -0.000662 -0.002504 0.000000 -0.005522 0.000000
# 2 -0.000662 0.006269 -0.001098 0.000000 -0.001125 0.000000
# 3 -0.002504 -0.001098 0.009452 0.000000 0.004888 0.000000
# 4 0.000000 0.000000 0.000000 0.072600 0.000000 -0.066335
# 5 -0.005522 -0.001125 0.004888 0.000000 0.036595 0.000000
# 6 0.000000 0.000000 0.000000 -0.066335 0.000000 -0.030725
#
#
# Mechanical properties :
#
#
# Convention : Reuss Voigt Hill
#
# Bulk Modulus (GPa) = 57.16886 58.70904 57.93895
# Shear Modulus (GPa) = 42.07059 27.25408 34.66233
#
# Velocity S-wave (km/s) = 4.10288 3.30229 3.72416
# Velocity P-wave (km/s) = 6.73199 6.16695 6.45566
#
# Compressibility (1/GPa) = 0.01749204
#
# Stress axis : x y z
#
# Youngs Moduli (GPa) = 97.10600 159.50300 105.79367
#
# Poissons Ratio (x) = 0.10557 0.26492
# Poissons Ratio (y) = 0.06427 0.11615
# Poissons Ratio (z) = 0.24316 0.17512
#
# Static dielectric constant tensor:
#      x y z
#    x 4.486660 0.000000 -0.197260 
#    y 0.000000 5.013180 0.000000 
#    z -0.197260 0.000000 4.592510 
# 
# 
# High freq. dielectric constant tensor:
#      x y z
#    x 2.007310 0.000000 0.005870 
#    y 0.000000 2.008650 0.000000 
#    z 0.005870 0.000000 1.984050 
# 
# From -- ./inp_files/24385.got.cif
#   From: 2010.06.25/outbox.cif.g09.slc.cpg/sg12_13_cif.got.tgz:24385.got - 2010.06.28 00:19:55.
