data_PCOD8108494
_publ_section_title
;
Structure prediction by ZEFSAII (Michael W. Deem and Ramdas Pophale) SiO2 
 PCOD8108494
Probable space group: C 2/M
;
_chemical_formula_sum "Si O2"
_cell_formula_units_Z 56
_cell_length_a 20.256291
_cell_length_b 8.932983
_cell_length_c 27.439758
_cell_angle_alpha 90.000000
_cell_angle_beta 145.353374
_cell_angle_gamma 90.000000
_cell_volume 2822.782539
_symmetry_space_group_name_H-M "C 2/M"
_symmetry_group_IT_number 12
_symmetry_cell_setting 'monoclinic'
loop_
_space_group_symop_operation_xyz
x,y,z
-x,y,-z
-x,-y,-z
x,-y,z
1/2+x,1/2+y,z
1/2-x,1/2+y,-z
1/2-x,1/2-y,-z
1/2+x,1/2-y,z
loop_
_atom_site_type_symbol
_atom_site_label
_atom_site_fract_x
_atom_site_fract_y
_atom_site_fract_z
Si Si1 0.160171 0.174868 0.711216
Si Si2 0.961301 0.323714 0.530360
Si Si3 0.093444 0.327170 0.181990
Si Si4 0.522412 0.171176 0.247668
Si Si5 0.196025 0.175313 0.844265
Si Si6 0.754266 0.674504 0.554717
Si Si7 0.565305 0.676749 0.991510
O O1 0.275207 0.216967 0.751231
O O2 0.178013 0.225206 0.777650
O O3 0.054422 0.269873 0.626268
O O4 0.129768 0.000000 0.688562
O O5 0.945842 0.500000 0.526255
O O6 0.838744 0.246094 0.465490
O O7 0.000000 0.275870 0.500000
O O8 0.069942 0.500000 0.154453
O O9 0.077152 0.292671 0.228682
O O10 0.004696 0.225712 0.098445
O O11 0.414549 0.279455 0.190969
O O12 0.618715 0.203767 0.346726
O O13 0.479601 0.000000 0.224418
O O14 0.306988 0.255863 0.934168
O O15 0.216677 0.000000 0.860892
O O16 0.726581 0.500000 0.532683
O O17 0.750000 0.750000 0.500000
O O18 0.575780 0.500000 0.998916
O O19 0.500000 0.737512 0.000000
#
# Coordination Sequence:
#
# PCOD8108494 Si02
#       7
#     8   8   8   8   8   8   8
#     4  10  21  38  62  89 115 154 206 252 300 356
#     4  11  24  39  58  88 124 161 203 252 304 360
#     4  10  21  40  64  88 119 158 201 248 299 354
#     4  10  23  41  61  88 122 159 198 247 302 356
#     4  11  23  39  63  90 119 156 198 246 294 354
#     4  11  23  41  65  90 122 163 206 253 306 363
#     4  11  23  39  62  92 123 155 194 243 301 357
#
# _framework density 19.83858
#
# number of rings (size 3 to 8) (size 9 to 14) (size 15 to 20)
#    0.000    1.429    1.429    3.429    0.000    9.143 
#    0.000    0.000    0.000    0.000    0.000    0.000 
#    0.000    0.000    0.000    0.000    0.000    0.000 
#
# Total GULP energy -347416.291155 kJ/mol
# GULP energy per Si atom -12407.724684 kJ/mol
# Density = 1.979343 g / cm^3
# Si number density = 19.838580 Si / 1000 Ang^3
#
#
#
# Elastic Constant Matrix: (Units=GPa)
#
#
# Indices 1 2 3 4 5 6 
#
# 1 93.7274 26.8775 12.5616 0.0000 10.0622 0.0000
# 2 26.8775 68.9246 28.2950 -0.0001 3.8521 0.0001
# 3 12.5616 28.2950 72.1492 0.0000 3.8600 0.0000
# 4 0.0000 -0.0001 0.0000 32.7917 0.0000 0.5972
# 5 10.0622 3.8521 3.8600 0.0000 36.7942 0.0000
# 6 0.0000 0.0001 0.0000 0.5972 0.0000 35.1740
#
#
#
# Elastic Compliance Matrix: (Units=1/GPa)
#
#
# Indices 1 2 3 4 5 6 
#
# 1 0.012311 -0.004557 -0.000203 0.000000 -0.002868 0.000000
# 2 -0.004557 0.019024 -0.006665 0.000000 -0.000046 0.000000
# 3 -0.000203 -0.006665 0.016562 0.000000 -0.000984 0.000000
# 4 0.000000 0.000000 0.000000 0.030505 0.000000 -0.000518
# 5 -0.002868 -0.000046 -0.000984 0.000000 0.028071 0.000000
# 6 0.000000 0.000000 0.000000 -0.000518 0.000000 0.028439
#
#
# Mechanical properties :
#
#
# Convention : Reuss Voigt Hill
#
# Bulk Modulus (GPa) = 39.92395 41.14104 40.53250
# Shear Modulus (GPa) = 30.10030 32.08978 31.09504
#
# Velocity S-wave (km/s) = 3.89943 4.02623 3.96334
# Velocity P-wave (km/s) = 6.35941 6.51130 6.43580
#
# Compressibility (1/GPa) = 0.02504762
#
# Stress axis : x y z
#
# Youngs Moduli (GPa) = 81.22682 52.56399 60.37942
#
# Poissons Ratio (x) = 0.23955 0.01224
# Poissons Ratio (y) = 0.37017 0.40243
# Poissons Ratio (z) = 0.01647 0.35034
#
# Static dielectric constant tensor:
#      x y z
#    x 3.818820 0.000000 0.008420 
#    y 0.000000 3.594810 0.000000 
#    z 0.008420 0.000000 3.624210 
# 
# 
# High freq. dielectric constant tensor:
#      x y z
#    x 1.785210 0.000000 0.002200 
#    y 0.000000 1.775660 0.000000 
#    z 0.002200 0.000000 1.783770 
# 
# From -- ./inp_files/363245.got.cif
#   From: 2010.06.25/outbox.cif.g09.slc.cpg/sg12_182_cif.got.tgz:363245.got - 2010.06.28 00:19:55.
