data_PCOD8108968
_publ_section_title
;
Structure prediction by ZEFSAII (Michael W. Deem and Ramdas Pophale) SiO2 
 PCOD8108968
Probable space group: C 2/M
;
_chemical_formula_sum "Si O2"
_cell_formula_units_Z 40
_cell_length_a 18.369864
_cell_length_b 13.400492
_cell_length_c 15.663014
_cell_angle_alpha 90.000000
_cell_angle_beta 31.492113
_cell_angle_gamma 90.000000
_cell_volume 2014.139523
_symmetry_space_group_name_H-M "C 2/M"
_symmetry_group_IT_number 12
_symmetry_cell_setting 'monoclinic'
loop_
_space_group_symop_operation_xyz
x,y,z
-x,y,-z
-x,-y,-z
x,-y,z
1/2+x,1/2+y,z
1/2-x,1/2+y,-z
1/2-x,1/2-y,-z
1/2+x,1/2-y,z
loop_
_atom_site_type_symbol
_atom_site_label
_atom_site_fract_x
_atom_site_fract_y
_atom_site_fract_z
Si Si1 0.589661 0.722558 0.147493
Si Si2 0.376478 0.611491 0.057868
Si Si3 0.642388 0.797624 0.401028
Si Si4 0.388215 0.614822 0.463336
Si Si5 0.631815 0.114521 0.595756
O O1 0.536546 0.651852 0.277661
O O2 0.497448 0.822826 0.238173
O O3 0.750000 0.750000 0.000000
O O4 0.566295 0.662624 0.084177
O O5 0.319422 0.500000 0.094492
O O6 0.258266 0.680801 0.215289
O O7 0.500000 0.602914 0.000000
O O8 0.500000 0.831101 0.500000
O O9 0.645849 0.679259 0.418330
O O10 0.665367 0.860802 0.464050
O O11 0.395633 0.500000 0.483058
O O12 0.271491 0.637260 0.508931
O O13 0.588121 0.000000 0.648435
#
# Coordination Sequence:
#
# PCOD8108968 Si02
#       5
#     8   8   8   8   8
#     4  11  22  36  56  85 118 146 181 231 282 332
#     4  11  22  36  57  84 113 144 180 228 282 330
#     4  11  22  36  56  84 114 142 179 231 281 327
#     4  10  21  40  62  79 106 153 197 226 264 331
#     4  10  21  39  61  81 107 150 195 229 268 329
#
# _framework density 19.859596
#
# number of rings (size 3 to 8) (size 9 to 14) (size 15 to 20)
#    0.000    1.400    0.000    8.400    0.000    8.400 
#    0.000    1.000    0.000    3.600    0.000    0.000 
#    0.000    0.000    0.000    0.000    0.000    0.000 
#
# Total GULP energy -248067.452455 kJ/mol
# GULP energy per Si atom -12403.372623 kJ/mol
# Density = 1.981440 g / cm^3
# Si number density = 19.859596 Si / 1000 Ang^3
#
#
#
# Elastic Constant Matrix: (Units=GPa)
#
#
# Indices 1 2 3 4 5 6 
#
# 1 33.5018 8.7970 -4.8827 0.0003 -3.8991 0.0000
# 2 8.7970 119.0765 53.5645 0.0004 9.0073 0.0000
# 3 -4.8827 53.5645 93.6094 0.0003 -4.0323 0.0000
# 4 0.0003 0.0004 0.0003 27.5536 -0.0002 -1.8665
# 5 -3.8991 9.0073 -4.0323 -0.0002 37.6326 0.0000
# 6 0.0000 0.0000 0.0000 -1.8665 0.0000 12.0405
#
#
#
# Elastic Compliance Matrix: (Units=1/GPa)
#
#
# Indices 1 2 3 4 5 6 
#
# 1 0.032405 -0.004892 0.004706 0.000000 0.005033 0.000000
# 2 -0.004892 0.012502 -0.007595 0.000000 -0.004313 0.000000
# 3 0.004706 -0.007595 0.015445 0.000000 0.003960 0.000000
# 4 0.000000 0.000000 0.000000 0.036678 0.000000 0.005686
# 5 0.005033 -0.004313 0.003960 0.000000 0.028551 0.000000
# 6 0.000000 0.000000 0.000000 0.005686 0.000000 0.083934
#
#
# Mechanical properties :
#
#
# Convention : Reuss Voigt Hill
#
# Bulk Modulus (GPa) = 22.32581 40.12725 31.22653
# Shear Modulus (GPa) = 20.83285 28.02592 24.42938
#
# Velocity S-wave (km/s) = 3.24235 3.76067 3.51109
# Velocity P-wave (km/s) = 5.02825 6.25350 5.67404
#
# Compressibility (1/GPa) = 0.04479121
#
# Stress axis : x y z
#
# Youngs Moduli (GPa) = 30.85925 79.98768 64.74780
#
# Poissons Ratio (x) = 0.39127 -0.30471
# Poissons Ratio (y) = 0.15095 0.49174
# Poissons Ratio (z) = -0.14523 0.60748
#
# Static dielectric constant tensor:
#      x y z
#    x 3.645880 0.000000 0.026350 
#    y 0.000000 3.850030 0.000000 
#    z 0.026350 0.000000 3.456760 
# 
# 
# High freq. dielectric constant tensor:
#      x y z
#    x 1.777350 0.000000 -0.003960 
#    y 0.000000 1.785660 0.000000 
#    z -0.003960 0.000000 1.774790 
# 
# From -- ./inp_files/72822.got.cif
#   From: 2010.06.25/outbox.cif.g09.slc.cpg/sg12_37_cif.got.tgz:72822.got - 2010.06.28 00:19:55.
