data_PCOD8108227
_publ_section_title
;
Structure prediction by ZEFSAII (Michael W. Deem and Ramdas Pophale) SiO2 
 PCOD8108227
Probable space group: C 2/M
;
_chemical_formula_sum "Si O2"
_cell_formula_units_Z 48
_cell_length_a 14.042762
_cell_length_b 12.944847
_cell_length_c 20.661134
_cell_angle_alpha 90.000000
_cell_angle_beta 38.075166
_cell_angle_gamma 90.000000
_cell_volume 2316.188228
_symmetry_space_group_name_H-M "C 2/M"
_symmetry_group_IT_number 12
_symmetry_cell_setting 'monoclinic'
loop_
_space_group_symop_operation_xyz
x,y,z
-x,y,-z
-x,-y,-z
x,-y,z
1/2+x,1/2+y,z
1/2-x,1/2+y,-z
1/2-x,1/2-y,-z
1/2+x,1/2-y,z
loop_
_atom_site_type_symbol
_atom_site_label
_atom_site_fract_x
_atom_site_fract_y
_atom_site_fract_z
Si Si1 0.625178 0.118019 0.574540
Si Si2 0.191681 0.188606 0.130149
Si Si3 0.636760 0.883430 0.082411
Si Si4 0.889453 0.261777 0.615003
Si Si5 0.312337 0.121781 0.194545
Si Si6 0.142711 0.808006 0.650067
O O1 0.480015 0.155041 0.609595
O O2 0.783806 0.128328 0.448769
O O3 0.635925 0.186450 0.633752
O O4 0.600870 0.000000 0.608725
O O5 0.184707 0.310223 0.116210
O O6 0.315224 0.170830 0.121109
O O7 0.025957 0.147631 0.243814
O O8 0.239492 0.123682 0.041648
O O9 0.470587 0.846466 0.144949
O O10 0.632029 0.000000 0.111258
O O11 0.833369 0.166833 0.688622
O O12 0.745362 0.320545 0.659494
O O13 0.000000 0.215734 0.500000
O O14 0.294119 0.000000 0.198686
#
# Coordination Sequence:
#
# PCOD8108227 Si02
#       6
#     8   8   8   8   8   8
#     4  10  22  40  61  85 120 161 197 239 294 357
#     4  11  21  39  64  89 122 149 198 258 289 348
#     4  10  23  41  64  88 116 159 199 242 306 357
#     4  10  21  39  59  86 123 154 199 240 294 348
#     4  11  22  39  62  88 118 156 198 242 299 356
#     4  10  21  38  60  90 118 154 199 246 292 347
#
# _framework density 20.723704999999999
#
# number of rings (size 3 to 8) (size 9 to 14) (size 15 to 20)
#    0.000    1.667    3.333    1.000    0.000    7.333 
#    0.000    0.000    0.000    9.000    0.000    0.000 
#    0.000    0.000    0.000    0.000    0.000    0.000 
#
# Total GULP energy -297669.673175 kJ/mol
# GULP energy per Si atom -12402.903049 kJ/mol
# Density = 2.067654 g / cm^3
# Si number density = 20.723705 Si / 1000 Ang^3
#
#
#
# Elastic Constant Matrix: (Units=GPa)
#
#
# Indices 1 2 3 4 5 6 
#
# 1 49.6635 27.1847 -3.3037 -0.0001 -3.1912 0.0000
# 2 27.1847 98.5458 9.2821 0.0000 -9.2067 0.0000
# 3 -3.3037 9.2821 81.8456 -0.0004 -14.0619 0.0002
# 4 -0.0001 0.0000 -0.0004 18.0706 0.0002 -3.8241
# 5 -3.1912 -9.2067 -14.0619 0.0002 25.9967 -0.0001
# 6 0.0000 0.0000 0.0002 -3.8241 -0.0001 28.7747
#
#
#
# Elastic Compliance Matrix: (Units=1/GPa)
#
#
# Indices 1 2 3 4 5 6 
#
# 1 0.024023 -0.006660 0.002013 0.000000 0.001680 0.000000
# 2 -0.006660 0.012369 -0.001168 0.000000 0.002931 0.000000
# 3 0.002013 -0.001168 0.013674 0.000000 0.007230 0.000000
# 4 0.000000 0.000000 0.000000 0.056940 0.000000 0.007567
# 5 0.001680 0.002931 0.007230 0.000000 0.043621 0.000000
# 6 0.000000 0.000000 0.000000 0.007567 0.000000 0.035758
#
#
# Mechanical properties :
#
#
# Convention : Reuss Voigt Hill
#
# Bulk Modulus (GPa) = 26.01648 32.93123 29.47385
# Shear Modulus (GPa) = 23.71630 27.69452 25.70541
#
# Velocity S-wave (km/s) = 3.38657 3.65960 3.52573
# Velocity P-wave (km/s) = 5.27950 5.81223 5.55226
#
# Compressibility (1/GPa) = 0.03843718
#
# Stress axis : x y z
#
# Youngs Moduli (GPa) = 41.62730 80.85050 73.13127
#
# Poissons Ratio (x) = 0.53843 -0.14725
# Poissons Ratio (y) = 0.27722 0.08541
# Poissons Ratio (z) = -0.08382 0.09443
#
# Static dielectric constant tensor:
#      x y z
#    x 3.893900 0.000000 -0.072060 
#    y 0.000000 3.421170 0.000000 
#    z -0.072060 0.000000 3.910930 
# 
# 
# High freq. dielectric constant tensor:
#      x y z
#    x 1.814110 0.000000 -0.000830 
#    y 0.000000 1.785020 0.000000 
#    z -0.000830 0.000000 1.822810 
# 
# From -- ./inp_files/310187.got.cif
#   From: 2010.06.25/outbox.cif.g09.slc.cpg/sg12_156_cif.got.tgz:310187.got - 2010.06.28 00:19:55.
