data_PCOD8108329
_publ_section_title
;
Structure prediction by ZEFSAII (Michael W. Deem and Ramdas Pophale) SiO2 
 PCOD8108329
Probable space group: C 2/M
;
_chemical_formula_sum "Si O2"
_cell_formula_units_Z 64
_cell_length_a 29.093802
_cell_length_b 8.837655
_cell_length_c 18.002173
_cell_angle_alpha 90.000000
_cell_angle_beta 135.451439
_cell_angle_gamma 90.000000
_cell_volume 3247.121234
_symmetry_space_group_name_H-M "C 2/M"
_symmetry_group_IT_number 12
_symmetry_cell_setting 'monoclinic'
loop_
_space_group_symop_operation_xyz
x,y,z
-x,y,-z
-x,-y,-z
x,-y,z
1/2+x,1/2+y,z
1/2-x,1/2+y,-z
1/2-x,1/2-y,-z
1/2+x,1/2-y,z
loop_
_atom_site_type_symbol
_atom_site_label
_atom_site_fract_x
_atom_site_fract_y
_atom_site_fract_z
Si Si1 0.780631 0.676225 0.197843
Si Si2 0.025106 0.824166 0.948838
Si Si3 0.117288 0.674005 0.808540
Si Si4 0.349591 0.319659 0.416660
Si Si5 0.573170 0.668316 0.291128
Si Si6 0.989967 0.831480 0.627976
Si Si7 0.804774 0.323478 0.512763
Si Si8 0.643502 0.179310 0.004124
O O1 0.777528 0.500000 0.215264
O O2 0.816284 0.702938 0.160355
O O3 0.821575 0.763721 0.307105
O O4 0.708468 0.742491 0.109563
O O5 0.963291 0.790894 0.825963
O O6 0.046229 0.000000 0.970836
O O7 0.086012 0.722033 0.994602
O O8 0.000000 0.773061 0.000000
O O9 0.100551 0.500000 0.798300
O O10 0.056812 0.740970 0.691296
O O11 0.127138 0.742757 0.902547
O O12 0.347019 0.500000 0.420024
O O13 0.425470 0.263615 0.512572
O O14 0.305720 0.252678 0.432672
O O15 0.605424 0.500000 0.324633
O O16 0.520253 0.671000 0.295593
O O17 0.627240 0.795549 0.366500
O O18 0.002106 0.000000 0.611836
O O19 0.791656 0.500000 0.487941
O O20 0.750000 0.250000 0.500000
O O21 0.654239 0.000000 0.015606
#
# Coordination Sequence:
#
# PCOD8108329 Si02
#       8
#     8   8   8   8   8   8   8   8
#     4  11  24  41  60  86 121 163 204 248 305 366
#     4  10  21  38  61  88 118 155 198 245 299 359
#     4  10  22  38  60  89 119 156 205 251 300 360
#     4  10  22  41  60  86 121 155 197 249 306 364
#     4   9  18  35  56  82 115 151 194 245 299 355
#     4   9  18  34  60  86 113 152 194 242 298 355
#     4  11  22  37  60  87 116 156 201 246 298 357
#     4  11  23  40  61  87 121 160 203 255 303 353
#
# _framework density 19.709765999999998
#
# number of rings (size 3 to 8) (size 9 to 14) (size 15 to 20)
#    0.000    1.875    1.250    3.375    0.000    6.250 
#    0.000    6.250    0.000    0.000    0.000    0.000 
#    0.000    0.000    0.000    0.000    0.000    0.000 
#
# Total GULP energy -396820.313523 kJ/mol
# GULP energy per Si atom -12400.634798 kJ/mol
# Density = 1.966491 g / cm^3
# Si number density = 19.709766 Si / 1000 Ang^3
#
#
#
# Elastic Constant Matrix: (Units=GPa)
#
#
# Indices 1 2 3 4 5 6 
#
# 1 83.9220 32.8364 37.6956 0.0000 -0.2776 0.0000
# 2 32.8364 81.3520 33.8154 0.0000 3.3919 0.0000
# 3 37.6956 33.8154 109.6318 0.0000 -11.4798 0.0000
# 4 0.0000 0.0000 0.0000 32.3072 0.0000 3.0329
# 5 -0.2776 3.3919 -11.4798 0.0000 22.7282 0.0000
# 6 0.0000 0.0000 0.0000 3.0329 0.0000 31.5626
#
#
#
# Elastic Compliance Matrix: (Units=1/GPa)
#
#
# Indices 1 2 3 4 5 6 
#
# 1 0.015505 -0.004521 -0.004061 0.000000 -0.001187 0.000000
# 2 -0.004521 0.015876 -0.003797 0.000000 -0.004343 0.000000
# 3 -0.004061 -0.003797 0.012399 0.000000 0.006780 0.000000
# 4 0.000000 0.000000 0.000000 0.031235 0.000000 -0.003001
# 5 -0.001187 -0.004343 0.006780 0.000000 0.048056 0.000000
# 6 0.000000 0.000000 0.000000 -0.003001 0.000000 0.031971
#
#
# Mechanical properties :
#
#
# Convention : Reuss Voigt Hill
#
# Bulk Modulus (GPa) = 52.57065 53.73341 53.15203
# Shear Modulus (GPa) = 26.86128 28.69016 27.77572
#
# Velocity S-wave (km/s) = 3.69567 3.81941 3.75805
# Velocity P-wave (km/s) = 6.70380 6.83901 6.77174
#
# Compressibility (1/GPa) = 0.01902202
#
# Stress axis : x y z
#
# Youngs Moduli (GPa) = 64.49587 62.98625 80.65177
#
# Poissons Ratio (x) = 0.28474 0.32753
# Poissons Ratio (y) = 0.29157 0.30626
# Poissons Ratio (z) = 0.26192 0.23918
#
# Static dielectric constant tensor:
#      x y z
#    x 3.566640 0.000000 -0.020590 
#    y 0.000000 3.573680 0.000000 
#    z -0.020590 0.000000 3.636160 
# 
# 
# High freq. dielectric constant tensor:
#      x y z
#    x 1.766890 0.000000 0.001010 
#    y 0.000000 1.764770 0.000000 
#    z 0.001010 0.000000 1.774160 
# 
# From -- ./inp_files/295846.got.cif
#   From: 2010.06.25/outbox.cif.g09.slc.cpg/sg12_148_cif.got.tgz:295846.got - 2010.06.28 00:19:55.
