data_PCOD8108118
_publ_section_title
;
Structure prediction by ZEFSAII (Michael W. Deem and Ramdas Pophale) SiO2 
 PCOD8108118
Probable space group: C 2/M
;
_chemical_formula_sum "Si O2"
_cell_formula_units_Z 64
_cell_length_a 12.001458
_cell_length_b 18.872501
_cell_length_c 15.327459
_cell_angle_alpha 90.000000
_cell_angle_beta 76.669990
_cell_angle_gamma 90.000000
_cell_volume 3378.099730
_symmetry_space_group_name_H-M "C 2/M"
_symmetry_group_IT_number 12
_symmetry_cell_setting 'monoclinic'
loop_
_space_group_symop_operation_xyz
x,y,z
-x,y,-z
-x,-y,-z
x,-y,z
1/2+x,1/2+y,z
1/2-x,1/2+y,-z
1/2-x,1/2-y,-z
1/2+x,1/2-y,z
loop_
_atom_site_type_symbol
_atom_site_label
_atom_site_fract_x
_atom_site_fract_y
_atom_site_fract_z
Si Si1 0.055025 0.916685 0.584246
Si Si2 0.230154 0.341022 0.072295
Si Si3 0.512987 0.176437 0.799450
Si Si4 0.006828 0.416113 0.634494
Si Si5 0.433174 0.418050 0.097943
Si Si6 0.533852 0.668384 0.238466
Si Si7 0.815958 0.583735 0.539225
Si Si8 0.777143 0.687796 0.117935
O O1 0.984837 0.870131 0.665993
O O2 0.186014 0.887880 0.562191
O O3 0.000000 0.902831 0.500000
O O4 0.048045 0.000000 0.610008
O O5 0.297741 0.404001 0.108971
O O6 0.296333 0.268781 0.084835
O O7 0.100923 0.334538 0.125190
O O8 0.235125 0.357815 0.968214
O O9 0.519639 0.116536 0.726232
O O10 0.521662 0.253410 0.752656
O O11 0.614282 0.162152 0.848150
O O12 0.011683 0.500000 0.642370
O O13 0.112885 0.388034 0.556824
O O14 0.884998 0.392630 0.613742
O O15 0.455218 0.500000 0.111217
O O16 0.476083 0.377093 0.173926
O O17 0.500000 0.390771 0.000000
O O18 0.668785 0.675580 0.199451
O O19 0.812592 0.500000 0.534480
#
# Coordination Sequence:
#
# PCOD8108118 Si02
#       8
#     8   8   8   8   8   8   8   8
#     4  10  22  39  60  84 114 157 202 248 305 361
#     4  10  21  38  60  85 118 160 200 238 287 361
#     4  11  23  36  61  91 119 157 203 240 298 360
#     4   9  19  37  59  84 112 151 197 244 295 352
#     4  11  22  39  63  90 120 156 204 256 299 347
#     4  11  23  39  58  89 124 155 203 246 305 361
#     4   8  17  37  61  81 108 150 200 243 295 359
#     4  10  21  38  61  83 121 161 194 239 295 362
#
# _framework density 18.945561999999999
#
# number of rings (size 3 to 8) (size 9 to 14) (size 15 to 20)
#    0.000    2.000    2.500    1.500    3.500    0.500 
#    2.250    1.875    0.000    1.500    0.000    0.000 
#    0.000    0.000    0.000    0.000    0.000    0.000 
#
# Total GULP energy -396817.710379 kJ/mol
# GULP energy per Si atom -12400.553449 kJ/mol
# Density = 1.890244 g / cm^3
# Si number density = 18.945562 Si / 1000 Ang^3
#
#
#
# Elastic Constant Matrix: (Units=GPa)
#
#
# Indices 1 2 3 4 5 6 
#
# 1 124.3800 28.1306 43.6804 0.0000 8.8656 0.0000
# 2 28.1306 50.3585 36.0316 0.0000 1.8321 0.0000
# 3 43.6804 36.0316 103.5558 0.0000 9.4610 0.0000
# 4 0.0000 0.0000 0.0000 29.6995 0.0000 -1.7733
# 5 8.8656 1.8321 9.4610 0.0000 28.3117 0.0000
# 6 0.0000 0.0000 0.0000 -1.7733 0.0000 22.6005
#
#
#
# Elastic Compliance Matrix: (Units=1/GPa)
#
#
# Indices 1 2 3 4 5 6 
#
# 1 0.009952 -0.003478 -0.002809 0.000000 -0.001953 0.000000
# 2 -0.003478 0.027710 -0.008365 0.000000 0.002092 0.000000
# 3 -0.002809 -0.008365 0.014051 0.000000 -0.003275 0.000000
# 4 0.000000 0.000000 0.000000 0.033829 0.000000 0.002654
# 5 -0.001953 0.002092 -0.003275 0.000000 0.036892 0.000000
# 6 0.000000 0.000000 0.000000 0.002654 0.000000 0.044455
#
#
# Mechanical properties :
#
#
# Convention : Reuss Voigt Hill
#
# Bulk Modulus (GPa) = 44.62751 54.88661 49.75706
# Shear Modulus (GPa) = 24.55011 27.48576 26.01794
#
# Velocity S-wave (km/s) = 3.60366 3.81304 3.70983
# Velocity P-wave (km/s) = 6.39703 6.95839 6.68361
#
# Compressibility (1/GPa) = 0.02240770
#
# Stress axis : x y z
#
# Youngs Moduli (GPa) = 100.47907 36.08793 71.16692
#
# Poissons Ratio (x) = 0.12553 0.19993
# Poissons Ratio (y) = 0.34950 0.59534
# Poissons Ratio (z) = 0.28227 0.30189
#
# Static dielectric constant tensor:
#      x y z
#    x 3.678280 0.000000 -0.081290 
#    y 0.000000 3.272300 0.000000 
#    z -0.081290 0.000000 3.587990 
# 
# 
# High freq. dielectric constant tensor:
#      x y z
#    x 1.748140 0.000000 0.000840 
#    y 0.000000 1.711520 0.000000 
#    z 0.000840 0.000000 1.741130 
# 
# From -- ./inp_files/207658.got.cif
#   From: 2010.06.25/outbox.cif.g09.slc.cpg/sg12_104_cif.got.tgz:207658.got - 2010.06.28 00:19:55.
