data_PCOD8108422
_publ_section_title
;
Structure prediction by ZEFSAII (Michael W. Deem and Ramdas Pophale) SiO2 
 PCOD8108422
Probable space group: C 2/M
;
_chemical_formula_sum "Si O2"
_cell_formula_units_Z 56
_cell_length_a 9.075779
_cell_length_b 15.704137
_cell_length_c 27.577530
_cell_angle_alpha 90.000000
_cell_angle_beta 41.526015
_cell_angle_gamma 90.000000
_cell_volume 2605.797757
_symmetry_space_group_name_H-M "C 2/M"
_symmetry_group_IT_number 12
_symmetry_cell_setting 'monoclinic'
loop_
_space_group_symop_operation_xyz
x,y,z
-x,y,-z
-x,-y,-z
x,-y,z
1/2+x,1/2+y,z
1/2-x,1/2+y,-z
1/2-x,1/2-y,-z
1/2+x,1/2-y,z
loop_
_atom_site_type_symbol
_atom_site_label
_atom_site_fract_x
_atom_site_fract_y
_atom_site_fract_z
Si Si1 0.743395 0.500000 0.458259
Si Si2 0.388816 0.330086 0.345933
Si Si3 0.490813 0.840914 0.080931
Si Si4 0.241748 0.000000 0.567503
Si Si5 0.641089 0.661591 0.083987
Si Si6 0.153667 0.403951 0.786262
Si Si7 0.978890 0.336230 0.644223
Si Si8 0.826706 0.596164 0.782399
O O1 0.500000 0.500000 0.500000
O O2 0.661391 0.500000 0.533173
O O3 0.878049 0.415744 0.409874
O O4 0.337902 0.415900 0.386462
O O5 0.639710 0.339046 0.264183
O O6 0.220267 0.317194 0.343396
O O7 0.371625 0.249325 0.386924
O O8 0.547840 0.752317 0.091854
O O9 0.270844 0.830831 0.102672
O O10 0.451620 0.906900 0.134069
O O11 0.695556 0.874565 0.997922
O O12 0.500000 0.000000 0.500000
O O13 0.433599 0.598749 0.140520
O O14 0.230577 0.500000 0.754540
O O15 0.974193 0.370802 0.791192
O O16 0.878423 0.349722 0.722179
O O17 0.891814 0.500000 0.754168
#
# Coordination Sequence:
#
# PCOD8108422 Si02
#       8
#     4   8   8   4   8   8   8   8
#     4  12  30  48  78 104 145 180 219 280 336 403
#     4  12  26  45  75 101 141 179 230 278 334 406
#     4  10  21  38  61  90 127 170 224 273 341 393
#     4  12  26  52  74 106 141 180 223 274 338 403
#     4  10  21  38  61  90 127 172 218 282 331 402
#     4  11  24  41  65  95 129 178 222 282 334 398
#     4  12  26  47  71 106 136 184 227 277 338 401
#     4  11  24  41  65  93 133 173 227 278 337 396
#
# _framework density 21.490541
#
# number of rings (size 3 to 8) (size 9 to 14) (size 15 to 20)
#    0.000    0.857    2.857    3.429    4.000    5.143 
#    0.000    2.857    0.000    0.000    0.000    0.000 
#    0.000    0.000    0.000    0.000    0.000    0.000 
#
# Total GULP energy -347193.682871 kJ/mol
# GULP energy per Si atom -12399.774388 kJ/mol
# Density = 2.144163 g / cm^3
# Si number density = 21.490541 Si / 1000 Ang^3
#
#
#
# Elastic Constant Matrix: (Units=GPa)
#
#
# Indices 1 2 3 4 5 6 
#
# 1 212.8000 55.1188 63.4770 0.0048 2.8657 -0.0021
# 2 55.1188 121.2371 35.4830 0.0040 4.9513 -0.0012
# 3 63.4770 35.4830 88.5890 0.0217 5.8969 -0.0058
# 4 0.0048 0.0040 0.0217 109.5682 -0.0061 21.9986
# 5 2.8657 4.9513 5.8969 -0.0061 44.8636 0.0030
# 6 -0.0021 -0.0012 -0.0058 21.9986 0.0030 16.6582
#
#
#
# Elastic Compliance Matrix: (Units=1/GPa)
#
#
# Indices 1 2 3 4 5 6 
#
# 1 0.006290 -0.001752 -0.003825 0.000001 0.000294 -0.000002
# 2 -0.001752 0.009845 -0.002646 0.000000 -0.000627 -0.000001
# 3 -0.003825 -0.002646 0.015186 -0.000005 -0.001460 0.000012
# 4 0.000001 0.000000 -0.000005 0.012420 0.000003 -0.016401
# 5 0.000294 -0.000627 -0.001460 0.000003 0.022532 -0.000009
# 6 -0.000002 -0.000001 0.000012 -0.016401 -0.000009 0.081690
#
#
# Mechanical properties :
#
#
# Convention : Reuss Voigt Hill
#
# Bulk Modulus (GPa) = 67.22868 81.19818 74.21343
# Shear Modulus (GPa) = 29.52181 52.12116 40.82149
#
# Velocity S-wave (km/s) = 3.71038 4.93008 4.36306
# Velocity P-wave (km/s) = 7.05030 8.38289 7.74531
#
# Compressibility (1/GPa) = 0.01487460
#
# Stress axis : x y z
#
# Youngs Moduli (GPa) = 158.98072 101.57487 65.85176
#
# Poissons Ratio (x) = 0.17799 0.25187
# Poissons Ratio (y) = 0.27858 0.17424
# Poissons Ratio (z) = 0.60807 0.26876
#
# Static dielectric constant tensor:
#      x y z
#    x 4.113730 0.000000 -0.022290 
#    y 0.000000 3.827520 0.000000 
#    z -0.022290 0.000000 3.852360 
# 
# 
# High freq. dielectric constant tensor:
#      x y z
#    x 1.865240 0.000000 0.001540 
#    y 0.000000 1.845000 0.000000 
#    z 0.001540 0.000000 1.846130 
# 
# From -- ./inp_files/356704.got.cif
#   From: 2010.06.25/outbox.cif.g09.slc.cpg/sg12_179_cif.got.tgz:356704.got - 2010.06.28 00:19:55.
