data_PCOD8108722
_publ_section_title
;
Structure prediction by ZEFSAII (Michael W. Deem and Ramdas Pophale) SiO2 
 PCOD8108722
Probable space group: C 2/M
;
_chemical_formula_sum "Si O2"
_cell_formula_units_Z 56
_cell_length_a 26.622597
_cell_length_b 14.682748
_cell_length_c 10.655882
_cell_angle_alpha 90.000000
_cell_angle_beta 34.206587
_cell_angle_gamma 90.000000
_cell_volume 2341.646678
_symmetry_space_group_name_H-M "C 2/M"
_symmetry_group_IT_number 12
_symmetry_cell_setting 'monoclinic'
loop_
_space_group_symop_operation_xyz
x,y,z
-x,y,-z
-x,-y,-z
x,-y,z
1/2+x,1/2+y,z
1/2-x,1/2+y,-z
1/2-x,1/2-y,-z
1/2+x,1/2-y,z
loop_
_atom_site_type_symbol
_atom_site_label
_atom_site_fract_x
_atom_site_fract_y
_atom_site_fract_z
Si Si1 0.241838 0.147672 0.366596
Si Si2 0.100891 0.224620 0.299913
Si Si3 0.220988 0.358555 0.437729
Si Si4 0.891305 0.604170 0.872062
Si Si5 0.977252 0.604910 0.184105
Si Si6 0.380061 0.401557 0.949441
Si Si7 0.419541 0.603398 0.436777
O O1 0.246990 0.255125 0.364152
O O2 0.286058 0.109967 0.402814
O O3 0.139283 0.112692 0.568109
O O4 0.295891 0.108332 0.136532
O O5 0.108969 0.333355 0.255106
O O6 0.154789 0.172538 0.078998
O O7 0.129045 0.182506 0.375830
O O8 0.000000 0.189168 0.500000
O O9 0.126648 0.381424 0.567230
O O10 0.303603 0.413858 0.210541
O O11 0.911947 0.500000 0.787878
O O12 0.964855 0.645518 0.818914
O O13 0.004491 0.500000 0.121338
O O14 0.000000 0.650033 0.000000
O O15 0.391588 0.500000 0.859582
O O16 0.476919 0.373197 0.808032
O O17 0.410933 0.500000 0.508647
#
# Coordination Sequence:
#
# PCOD8108722 Si02
#       7
#     8   8   8   8   8   8   8
#     4  11  24  40  62  98 134 175 215 267 330 393
#     4  10  22  42  68  92 129 172 219 275 327 382
#     4  11  23  39  65  98 136 174 217 267 324 395
#     4  11  23  42  66  96 133 172 220 272 332 395
#     4  10  21  38  64  93 127 175 218 261 323 394
#     4  10  21  40  66  97 131 168 217 271 327 388
#     4  10  23  43  69  97 129 176 223 270 332 392
#
# _framework density 23.914795999999999
#
# number of rings (size 3 to 8) (size 9 to 14) (size 15 to 20)
#    0.000    1.571    2.857    1.286    4.000    4.857 
#    0.000    1.429    0.000    0.000    0.000    0.000 
#    0.000    0.000    0.000    0.000    0.000    0.000 
#
# Total GULP energy -346971.632258 kJ/mol
# GULP energy per Si atom -12391.844009 kJ/mol
# Density = 2.386037 g / cm^3
# Si number density = 23.914796 Si / 1000 Ang^3
#
#
#
# Elastic Constant Matrix: (Units=GPa)
#
#
# Indices 1 2 3 4 5 6 
#
# 1 62.7093 24.7917 30.4662 0.0000 -17.2069 0.0000
# 2 24.7917 119.4883 14.5574 0.0000 10.1607 0.0000
# 3 30.4662 14.5574 106.7641 0.0000 -16.4864 0.0000
# 4 0.0000 0.0000 0.0000 23.4919 0.0000 -9.6919
# 5 -17.2069 10.1607 -16.4864 0.0000 34.2872 0.0000
# 6 0.0000 0.0000 0.0000 -9.6919 0.0000 13.9141
#
#
#
# Elastic Compliance Matrix: (Units=1/GPa)
#
#
# Indices 1 2 3 4 5 6 
#
# 1 0.023091 -0.005232 -0.004156 0.000000 0.011140 0.000000
# 2 -0.005232 0.010062 -0.000805 0.000000 -0.005994 0.000000
# 3 -0.004156 -0.000805 0.011209 0.000000 0.003543 0.000000
# 4 0.000000 0.000000 0.000000 0.059734 0.000000 0.041608
# 5 0.011140 -0.005994 0.003543 0.000000 0.038236 0.000000
# 6 0.000000 0.000000 0.000000 0.041608 0.000000 0.100852
#
#
# Mechanical properties :
#
#
# Convention : Reuss Voigt Hill
#
# Bulk Modulus (GPa) = 41.70525 47.62138 44.66331
# Shear Modulus (GPa) = 18.41209 28.94839 23.68024
#
# Velocity S-wave (km/s) = 2.77772 3.48297 3.15015
# Velocity P-wave (km/s) = 5.26921 6.01090 5.65224
#
# Compressibility (1/GPa) = 0.02397780
#
# Stress axis : x y z
#
# Youngs Moduli (GPa) = 43.30744 99.38046 89.21373
#
# Poissons Ratio (x) = 0.51996 0.37073
# Poissons Ratio (y) = 0.22658 0.07179
# Poissons Ratio (z) = 0.17996 0.07997
#
# Static dielectric constant tensor:
#      x y z
#    x 4.263620 0.000000 -0.010370 
#    y 0.000000 4.229560 0.000000 
#    z -0.010370 0.000000 4.107180 
# 
# 
# High freq. dielectric constant tensor:
#      x y z
#    x 1.930190 0.000000 -0.014930 
#    y 0.000000 1.951350 0.000000 
#    z -0.014930 0.000000 1.939470 
# 
# From -- ./inp_files/189623.got.cif
#   From: 2010.06.25/outbox.cif.g09.slc.cpg/sg12_95_cif.got.tgz:189623.got - 2010.06.28 00:19:55.
