data_PCOD8108096
_publ_section_title
;
Structure prediction by ZEFSAII (Michael W. Deem and Ramdas Pophale) SiO2 
 PCOD8108096
Probable space group: C 2/M
;
_chemical_formula_sum "Si O2"
_cell_formula_units_Z 56
_cell_length_a 18.147350
_cell_length_b 12.191307
_cell_length_c 15.039745
_cell_angle_alpha 90.000000
_cell_angle_beta 121.551462
_cell_angle_gamma 90.000000
_cell_volume 2835.505298
_symmetry_space_group_name_H-M "C 2/M"
_symmetry_group_IT_number 12
_symmetry_cell_setting 'monoclinic'
loop_
_space_group_symop_operation_xyz
x,y,z
-x,y,-z
-x,-y,-z
x,-y,z
1/2+x,1/2+y,z
1/2-x,1/2+y,-z
1/2-x,1/2-y,-z
1/2+x,1/2-y,z
loop_
_atom_site_type_symbol
_atom_site_label
_atom_site_fract_x
_atom_site_fract_y
_atom_site_fract_z
Si Si1 0.272930 0.876862 0.831410
Si Si2 0.511204 0.626241 0.902590
Si Si3 0.638482 0.760986 0.273754
Si Si4 0.298170 0.877733 0.392440
Si Si5 0.657128 0.798922 0.951229
Si Si6 0.051437 0.629003 0.382536
Si Si7 0.635670 0.191394 0.746398
O O1 0.332051 0.835770 0.788808
O O2 0.183380 0.809099 0.784083
O O3 0.243003 0.000000 0.794052
O O4 0.336864 0.875110 0.957930
O O5 0.529598 0.500000 0.888226
O O6 0.424335 0.665041 0.799272
O O7 0.589878 0.700265 0.919834
O O8 0.500000 0.639295 0.000000
O O9 0.720888 0.702720 0.371039
O O10 0.593481 0.841025 0.315140
O O11 0.384299 0.838395 0.497200
O O12 0.313554 0.878679 0.295511
O O13 0.273472 0.000000 0.407390
O O14 0.637062 0.864401 0.846242
O O15 0.750000 0.750000 0.000000
O O16 0.028510 0.500000 0.370000
O O17 0.964882 0.700189 0.344556
#
# Coordination Sequence:
#
# PCOD8108096 Si02
#       7
#     8   8   8   8   8   8   8
#     4  10  22  39  59  83 121 160 191 234 291 354
#     4  11  22  39  63  89 122 157 194 243 289 342
#     4  11  21  40  60  88 121 155 195 237 295 353
#     4  10  22  39  61  87 115 155 200 247 295 342
#     4  10  21  39  56  87 121 154 194 234 287 353
#     4  11  22  38  61  88 117 151 198 250 299 343
#     4  10  21  38  60  84 119 151 201 243 291 344
#
# _framework density 19.749566999999999
#
# number of rings (size 3 to 8) (size 9 to 14) (size 15 to 20)
#    0.000    1.571    2.857    2.143    0.000    4.571 
#    0.000    2.857    0.000    8.571    0.000    0.000 
#    0.000    0.000    0.000    0.000    0.000    0.000 
#
# Total GULP energy -347094.399532 kJ/mol
# GULP energy per Si atom -12396.228555 kJ/mol
# Density = 1.970462 g / cm^3
# Si number density = 19.749567 Si / 1000 Ang^3
#
#
#
# Elastic Constant Matrix: (Units=GPa)
#
#
# Indices 1 2 3 4 5 6 
#
# 1 99.8876 32.7562 26.7124 0.0000 11.1153 0.0000
# 2 32.7562 75.7304 31.7572 0.0000 10.5383 0.0000
# 3 26.7124 31.7572 94.4942 0.0000 9.5677 0.0000
# 4 0.0000 0.0000 0.0000 21.6949 0.0000 6.0570
# 5 11.1153 10.5383 9.5677 0.0000 39.9145 0.0000
# 6 0.0000 0.0000 0.0000 6.0570 0.0000 15.0604
#
#
#
# Elastic Compliance Matrix: (Units=1/GPa)
#
#
# Indices 1 2 3 4 5 6 
#
# 1 0.012080 -0.004211 -0.001816 0.000000 -0.001817 0.000000
# 2 -0.004211 0.017171 -0.004346 0.000000 -0.002319 0.000000
# 3 -0.001816 -0.004346 0.012697 0.000000 -0.001391 0.000000
# 4 0.000000 0.000000 0.000000 0.051924 0.000000 -0.020883
# 5 -0.001817 -0.002319 -0.001391 0.000000 0.026505 0.000000
# 6 0.000000 0.000000 0.000000 -0.020883 0.000000 0.074798
#
#
# Mechanical properties :
#
#
# Convention : Reuss Voigt Hill
#
# Bulk Modulus (GPa) = 47.16095 50.28485 48.72290
# Shear Modulus (GPa) = 22.42277 27.25973 24.84125
#
# Velocity S-wave (km/s) = 3.37316 3.71923 3.55041
# Velocity P-wave (km/s) = 6.25318 6.63024 6.44447
#
# Compressibility (1/GPa) = 0.02120398
#
# Stress axis : x y z
#
# Youngs Moduli (GPa) = 82.78256 58.23744 78.75747
#
# Poissons Ratio (x) = 0.24522 0.14300
# Poissons Ratio (y) = 0.34857 0.34225
# Poissons Ratio (z) = 0.15031 0.25308
#
# Static dielectric constant tensor:
#      x y z
#    x 3.611760 0.000000 -0.012010 
#    y 0.000000 3.351310 0.000000 
#    z -0.012010 0.000000 4.454290 
# 
# 
# High freq. dielectric constant tensor:
#      x y z
#    x 1.780800 0.000000 -0.000800 
#    y 0.000000 1.746710 0.000000 
#    z -0.000800 0.000000 1.784540 
# 
# From -- ./inp_files/223747.got.cif
#   From: 2010.06.25/outbox.cif.g09.slc.cpg/sg12_112_cif.got.tgz:223747.got - 2010.06.28 00:19:55.
