data_PCOD8108296
_publ_section_title
;
Structure prediction by ZEFSAII (Michael W. Deem and Ramdas Pophale) SiO2 
 PCOD8108296
Probable space group: C 2/M
;
_chemical_formula_sum "Si O2"
_cell_formula_units_Z 48
_cell_length_a 16.016205
_cell_length_b 8.708603
_cell_length_c 29.361806
_cell_angle_alpha 90.000000
_cell_angle_beta 144.949931
_cell_angle_gamma 90.000000
_cell_volume 2351.926145
_symmetry_space_group_name_H-M "C 2/M"
_symmetry_group_IT_number 12
_symmetry_cell_setting 'monoclinic'
loop_
_space_group_symop_operation_xyz
x,y,z
-x,y,-z
-x,-y,-z
x,-y,z
1/2+x,1/2+y,z
1/2-x,1/2+y,-z
1/2-x,1/2-y,-z
1/2+x,1/2-y,z
loop_
_atom_site_type_symbol
_atom_site_label
_atom_site_fract_x
_atom_site_fract_y
_atom_site_fract_z
Si Si1 0.386825 0.320127 0.817561
Si Si2 0.112367 0.175380 0.348096
Si Si3 0.590569 0.676425 0.495980
Si Si4 0.933966 0.322361 0.343085
Si Si5 0.076917 0.178562 0.821590
Si Si6 0.634015 0.317943 0.089679
O O1 0.410077 0.500000 0.832913
O O2 0.235424 0.285578 0.723967
O O3 0.519213 0.257950 0.844943
O O4 0.384225 0.247744 0.867366
O O5 0.242839 0.287721 0.419283
O O6 0.979019 0.215331 0.321368
O O7 0.058233 0.204036 0.272816
O O8 0.162114 0.000000 0.377349
O O9 0.500000 0.713793 0.500000
O O10 0.576263 0.500000 0.474243
O O11 0.529957 0.785349 0.429774
O O12 0.956701 0.500000 0.340120
O O13 0.217305 0.270050 0.868180
O O14 0.119070 0.000000 0.842658
O O15 0.634574 0.500000 0.092631
O O16 0.500000 0.255803 0.000000
#
# Coordination Sequence:
#
# PCOD8108296 Si02
#       6
#     8   8   8   8   8   8
#     4   9  19  37  60  86 118 157 196 237 294 353
#     4  11  22  37  58  84 115 152 199 247 296 350
#     4  11  24  39  55  81 117 154 197 249 296 344
#     4  11  21  37  61  83 113 157 200 242 294 352
#     4  10  21  38  61  87 118 155 197 244 290 349
#     4  10  21  39  62  88 120 155 193 240 295 357
#
# _framework density 20.408804
#
# number of rings (size 3 to 8) (size 9 to 14) (size 15 to 20)
#    0.000    1.667    1.667    3.000    0.000    4.333 
#    0.000    2.500    0.000    0.000    0.000    0.000 
#    0.000    0.000    0.000    0.000    0.000    0.000 
#
# Total GULP energy -297597.824316 kJ/mol
# GULP energy per Si atom -12399.909346 kJ/mol
# Density = 2.036235 g / cm^3
# Si number density = 20.408804 Si / 1000 Ang^3
#
#
#
# Elastic Constant Matrix: (Units=GPa)
#
#
# Indices 1 2 3 4 5 6 
#
# 1 154.1111 19.0062 49.2566 0.0000 -5.4714 0.0000
# 2 19.0062 24.8999 18.6421 0.0000 -5.7664 0.0000
# 3 49.2566 18.6421 97.4857 0.0000 -3.4024 0.0000
# 4 0.0000 0.0000 0.0000 31.3273 0.0000 0.3116
# 5 -5.4714 -5.7664 -3.4024 0.0000 21.8861 0.0000
# 6 0.0000 0.0000 0.0000 0.3116 0.0000 31.1912
#
#
#
# Elastic Compliance Matrix: (Units=1/GPa)
#
#
# Indices 1 2 3 4 5 6 
#
# 1 0.008012 -0.003464 -0.003366 0.000000 0.000567 0.000000
# 2 -0.003464 0.051168 -0.007636 0.000000 0.011429 0.000000
# 3 -0.003366 -0.007636 0.013392 0.000000 -0.000771 0.000000
# 4 0.000000 0.000000 0.000000 0.031924 0.000000 -0.000319
# 5 0.000567 0.011429 -0.000771 0.000000 0.048724 0.000000
# 6 0.000000 0.000000 0.000000 -0.000319 0.000000 0.032064
#
#
# Mechanical properties :
#
#
# Convention : Reuss Voigt Hill
#
# Bulk Modulus (GPa) = 22.91447 50.03404 36.47425
# Shear Modulus (GPa) = 21.85672 29.52037 25.68854
#
# Velocity S-wave (km/s) = 3.27608 3.80735 3.55166
# Velocity P-wave (km/s) = 5.05593 6.62548 5.89319
#
# Compressibility (1/GPa) = 0.04364055
#
# Stress axis : x y z
#
# Youngs Moduli (GPa) = 124.81252 19.54333 74.67216
#
# Poissons Ratio (x) = 0.06770 0.25134
# Poissons Ratio (y) = 0.43238 0.57017
# Poissons Ratio (z) = 0.42012 0.14923
#
# Static dielectric constant tensor:
#      x y z
#    x 4.010690 0.000000 -0.149030 
#    y 0.000000 3.452430 0.000000 
#    z -0.149030 0.000000 3.884210 
# 
# 
# High freq. dielectric constant tensor:
#      x y z
#    x 1.813630 0.000000 -0.002350 
#    y 0.000000 1.775650 0.000000 
#    z -0.002350 0.000000 1.797210 
# 
# From -- ./inp_files/274603.got.cif
#   From: 2010.06.25/outbox.cif.g09.slc.cpg/sg12_138_cif.got.tgz:274603.got - 2010.06.28 00:19:55.
