data_PCOD8108184
_publ_section_title
;
Structure prediction by ZEFSAII (Michael W. Deem and Ramdas Pophale) SiO2 
 PCOD8108184
Probable space group: C 2/M
;
_chemical_formula_sum "Si O2"
_cell_formula_units_Z 56
_cell_length_a 8.692182
_cell_length_b 29.068595
_cell_length_c 11.204862
_cell_angle_alpha 90.000000
_cell_angle_beta 67.177634
_cell_angle_gamma 90.000000
_cell_volume 2609.483270
_symmetry_space_group_name_H-M "C 2/M"
_symmetry_group_IT_number 12
_symmetry_cell_setting 'monoclinic'
loop_
_space_group_symop_operation_xyz
x,y,z
-x,y,-z
-x,-y,-z
x,-y,z
1/2+x,1/2+y,z
1/2-x,1/2+y,-z
1/2-x,1/2-y,-z
1/2+x,1/2-y,z
loop_
_atom_site_type_symbol
_atom_site_label
_atom_site_fract_x
_atom_site_fract_y
_atom_site_fract_z
Si Si1 0.314170 0.052864 0.733516
Si Si2 0.255130 0.200924 0.852076
Si Si3 0.503375 0.860892 0.631461
Si Si4 0.392793 0.299076 0.852076
Si Si5 0.452314 0.447136 0.733516
Si Si6 0.865164 0.860892 0.631461
Si Si7 0.671414 0.945873 1.000000
O O1 0.454381 0.085243 0.633151
O O2 0.293934 0.069492 0.875809
O O3 0.140424 0.060379 0.719153
O O4 0.374426 0.000000 0.706359
O O5 0.371917 0.163042 0.757893
O O6 0.343300 0.250000 0.813400
O O7 0.083586 0.202965 0.832829
O O8 0.225533 0.188104 0.000000
O O9 0.500000 0.838825 0.500000
O O10 0.685158 0.855092 0.629684
O O11 0.370190 0.336958 0.757893
O O12 0.419215 0.500000 0.706359
O O13 0.412468 0.414757 0.633151
O O14 0.330256 0.430508 0.875809
O O15 0.000000 0.838825 0.500000
O O16 0.652677 0.000000 1.000000
O O17 0.500000 0.923359 0.000000
#
# Coordination Sequence:
#
# PCOD8108184 Si02
#       7
#     8   8   8   8   8   8   8
#     4  10  21  38  60  87 123 167 214 264 319 377
#     4  10  22  43  71 101 132 165 206 257 316 380
#     4  12  26  43  64  92 129 170 217 265 319 382
#     4  10  22  43  71 101 132 165 206 257 316 380
#     4  10  21  38  60  87 123 167 214 264 319 377
#     4  12  26  43  64  92 129 170 217 265 319 382
#     4   9  17  31  53  83 116 153 202 257 311 365
#
# _framework density 21.460187000000001
#
# number of rings (size 3 to 8) (size 9 to 14) (size 15 to 20)
#    0.000    1.571    0.000    4.714    2.000    6.286 
#    0.000    2.857    0.000    0.000    0.000    0.000 
#    0.000    0.000    0.000    0.000    0.000    0.000 
#
# Total GULP energy -347275.664999 kJ/mol
# GULP energy per Si atom -12402.702321 kJ/mol
# Density = 2.141134 g / cm^3
# Si number density = 21.460187 Si / 1000 Ang^3
#
#
#
# Elastic Constant Matrix: (Units=GPa)
#
#
# Indices 1 2 3 4 5 6 
#
# 1 129.1085 43.5966 47.5588 0.0000 -0.2791 0.0000
# 2 43.5966 93.5028 53.2130 0.0000 0.6876 0.0000
# 3 47.5588 53.2130 109.2600 0.0000 -1.1401 0.0000
# 4 0.0000 0.0000 0.0000 21.9314 0.0000 -1.2103
# 5 -0.2791 0.6876 -1.1401 0.0000 38.7616 0.0000
# 6 0.0000 0.0000 0.0000 -1.2103 0.0000 38.8586
#
#
#
# Elastic Compliance Matrix: (Units=1/GPa)
#
#
# Indices 1 2 3 4 5 6 
#
# 1 0.009782 -0.002958 -0.002817 0.000000 0.000040 0.000000
# 2 -0.002958 0.015699 -0.006363 0.000000 -0.000487 0.000000
# 3 -0.002817 -0.006363 0.013483 0.000000 0.000489 0.000000
# 4 0.000000 0.000000 0.000000 0.045675 0.000000 0.001423
# 5 0.000040 -0.000487 0.000489 0.000000 0.025822 0.000000
# 6 0.000000 0.000000 0.000000 0.001423 0.000000 0.025779
#
#
# Mechanical properties :
#
#
# Convention : Reuss Voigt Hill
#
# Bulk Modulus (GPa) = 68.08620 68.95645 68.52132
# Shear Modulus (GPa) = 30.22745 32.41051 31.31898
#
# Velocity S-wave (km/s) = 3.75712 3.89043 3.82435
# Velocity P-wave (km/s) = 7.11455 7.23758 7.17633
#
# Compressibility (1/GPa) = 0.01468726
#
# Stress axis : x y z
#
# Youngs Moduli (GPa) = 102.22845 63.69757 74.16831
#
# Poissons Ratio (x) = 0.18843 0.20891
# Poissons Ratio (y) = 0.30241 0.47196
# Poissons Ratio (z) = 0.28795 0.40533
#
# Static dielectric constant tensor:
#      x y z
#    x 3.939780 0.000000 0.007220 
#    y 0.000000 2.413630 0.000000 
#    z 0.007220 0.000000 4.040810 
# 
# 
# High freq. dielectric constant tensor:
#      x y z
#    x 1.854670 0.000000 -0.000620 
#    y 0.000000 1.834410 0.000000 
#    z -0.000620 0.000000 1.846030 
# 
# From -- ./inp_files/125589.got.cif
#   From: 2010.06.25/outbox.cif.g09.slc.cpg/sg12_63_cif.got.tgz:125589.got - 2010.06.28 00:19:55.
