data_PCOD8108987
_publ_section_title
;
Structure prediction by ZEFSAII (Michael W. Deem and Ramdas Pophale) SiO2 
 PCOD8108987
Probable space group: C 2/M
;
_chemical_formula_sum "Si O2"
_cell_formula_units_Z 56
_cell_length_a 20.405306
_cell_length_b 8.892054
_cell_length_c 17.714477
_cell_angle_alpha 90.000000
_cell_angle_beta 63.667888
_cell_angle_gamma 90.000000
_cell_volume 2880.692324
_symmetry_space_group_name_H-M "C 2/M"
_symmetry_group_IT_number 12
_symmetry_cell_setting 'monoclinic'
loop_
_space_group_symop_operation_xyz
x,y,z
-x,y,-z
-x,-y,-z
x,-y,z
1/2+x,1/2+y,z
1/2-x,1/2+y,-z
1/2-x,1/2-y,-z
1/2+x,1/2-y,z
loop_
_atom_site_type_symbol
_atom_site_label
_atom_site_fract_x
_atom_site_fract_y
_atom_site_fract_z
Si Si1 0.155991 0.825229 0.759184
Si Si2 0.687512 0.678478 0.310278
Si Si3 0.172062 0.323902 0.032787
Si Si4 0.403334 0.176674 0.775146
Si Si5 0.581922 0.176016 0.934663
Si Si6 0.076458 0.177283 0.490692
Si Si7 0.556551 0.674466 0.669442
O O1 0.230304 0.733988 0.726185
O O2 0.099983 0.770354 0.851300
O O3 0.119952 0.792488 0.696723
O O4 0.172809 0.000000 0.762187
O O5 0.687877 0.500000 0.306125
O O6 0.650331 0.738693 0.253924
O O7 0.642830 0.740119 0.405874
O O8 0.184160 0.500000 0.025337
O O9 0.120310 0.277497 0.128546
O O10 0.250000 0.250000 0.000000
O O11 0.134721 0.269345 0.974714
O O12 0.486515 0.225628 0.722683
O O13 0.396604 0.000000 0.764102
O O14 0.591515 0.000000 0.912134
O O15 0.500000 0.214255 0.000000
O O16 0.088811 0.221717 0.571439
O O17 0.000000 0.247183 0.500000
O O18 0.073486 0.000000 0.481591
O O19 0.532465 0.500000 0.682208
#
# Coordination Sequence:
#
# PCOD8108987 Si02
#       7
#     8   8   8   8   8   8   8
#     4  11  24  39  57  87 124 154 191 243 295 343
#     4  11  22  38  62  86 116 158 198 236 288 349
#     4  10  22  37  55  81 111 146 186 234 285 338
#     4  11  22  37  59  88 118 146 188 244 295 341
#     4  10  21  40  63  83 110 152 201 241 283 345
#     4   9  17  35  62  87 112 148 197 239 280 343
#     4  10  21  39  61  85 115 154 194 234 284 346
#
# _framework density 19.439772000000001
#
# number of rings (size 3 to 8) (size 9 to 14) (size 15 to 20)
#    0.000    1.714    1.429    3.000    0.000    7.143 
#    0.000    2.143    0.000    0.000    0.000    0.000 
#    0.000    0.000    0.000    0.000    0.000    0.000 
#
# Total GULP energy -347299.761951 kJ/mol
# GULP energy per Si atom -12403.562927 kJ/mol
# Density = 1.939553 g / cm^3
# Si number density = 19.439772 Si / 1000 Ang^3
#
#
#
# Elastic Constant Matrix: (Units=GPa)
#
#
# Indices 1 2 3 4 5 6 
#
# 1 69.8434 27.5658 17.7694 -0.0001 -4.8116 -0.0002
# 2 27.5658 56.4222 33.2872 0.0001 3.0590 -0.0001
# 3 17.7694 33.2872 111.3983 0.0000 8.1333 -0.0001
# 4 -0.0001 0.0001 0.0000 26.8518 0.0000 -0.4136
# 5 -4.8116 3.0590 8.1333 0.0000 32.1332 -0.0001
# 6 -0.0002 -0.0001 -0.0001 -0.4136 -0.0001 26.5865
#
#
#
# Elastic Compliance Matrix: (Units=1/GPa)
#
#
# Indices 1 2 3 4 5 6 
#
# 1 0.018166 -0.008749 -0.000553 0.000000 0.003693 0.000000
# 2 -0.008749 0.025736 -0.006134 0.000000 -0.002208 0.000000
# 3 -0.000553 -0.006134 0.011066 0.000000 -0.002300 0.000000
# 4 0.000000 0.000000 0.000000 0.037250 0.000000 0.000579
# 5 0.003693 -0.002208 -0.002300 0.000000 0.032466 0.000000
# 6 0.000000 0.000000 0.000000 0.000579 0.000000 0.037622
#
#
# Mechanical properties :
#
#
# Convention : Reuss Voigt Hill
#
# Bulk Modulus (GPa) = 41.49968 43.87874 42.68921
# Shear Modulus (GPa) = 24.84966 27.71705 26.28335
#
# Velocity S-wave (km/s) = 3.57920 3.78006 3.68100
# Velocity P-wave (km/s) = 6.20282 6.45542 6.33038
#
# Compressibility (1/GPa) = 0.02409657
#
# Stress axis : x y z
#
# Youngs Moduli (GPa) = 55.04789 38.85550 90.36933
#
# Poissons Ratio (x) = 0.33996 0.04997
# Poissons Ratio (y) = 0.48163 0.55429
# Poissons Ratio (z) = 0.03044 0.23832
#
# Static dielectric constant tensor:
#      x y z
#    x 3.711220 0.000000 0.111790 
#    y 0.000000 3.440830 0.000000 
#    z 0.111790 0.000000 3.948300 
# 
# 
# High freq. dielectric constant tensor:
#      x y z
#    x 1.766090 0.000000 0.002900 
#    y 0.000000 1.743060 0.000000 
#    z 0.002900 0.000000 1.775390 
# 
# From -- ./inp_files/275288.got.cif
#   From: 2010.06.25/outbox.cif.g09.slc.cpg/sg12_138_cif.got.tgz:275288.got - 2010.06.28 00:19:55.
