data_PCOD8108510
_publ_section_title
;
Structure prediction by ZEFSAII (Michael W. Deem and Ramdas Pophale) SiO2 
 PCOD8108510
Probable space group: C 2/M
;
_chemical_formula_sum "Si O2"
_cell_formula_units_Z 40
_cell_length_a 10.636322
_cell_length_b 23.893868
_cell_length_c 7.404271
_cell_angle_alpha 90.000000
_cell_angle_beta 93.345824
_cell_angle_gamma 90.000000
_cell_volume 1878.535203
_symmetry_space_group_name_H-M "C 2/M"
_symmetry_group_IT_number 12
_symmetry_cell_setting 'monoclinic'
loop_
_space_group_symop_operation_xyz
x,y,z
-x,y,-z
-x,-y,-z
x,-y,z
1/2+x,1/2+y,z
1/2-x,1/2+y,-z
1/2-x,1/2-y,-z
1/2+x,1/2-y,z
loop_
_atom_site_type_symbol
_atom_site_label
_atom_site_fract_x
_atom_site_fract_y
_atom_site_fract_z
Si Si1 0.369184 0.264010 0.883599
Si Si2 0.212599 0.436016 0.100104
Si Si3 0.464500 0.843882 0.793431
Si Si4 0.863027 0.936419 0.451329
Si Si5 0.733721 0.868492 0.734923
O O1 0.383419 0.211970 0.740263
O O2 0.332365 0.318418 0.765071
O O3 0.500000 0.277754 0.000000
O O4 0.250000 0.250000 0.000000
O O5 0.167538 0.500000 0.068790
O O6 0.106943 0.403160 0.207336
O O7 0.337205 0.433170 0.234502
O O8 0.240123 0.408271 0.910771
O O9 0.590865 0.847764 0.685527
O O10 0.500000 0.827845 0.000000
O O11 0.762357 0.901636 0.555893
O O12 0.000000 0.910979 0.500000
O O13 0.855697 0.000000 0.520457
#
# Coordination Sequence:
#
# PCOD8108510 Si02
#       5
#     8   8   8   8   8
#     4  11  19  36  62  92 125 163 202 256 304 356
#     4  10  21  38  62  89 120 157 200 251 307 368
#     4   9  19  36  59  93 123 153 202 253 300 363
#     4  10  24  42  58  89 127 156 205 261 302 364
#     4  11  22  38  66  88 120 164 204 246 314 366
#
# _framework density 21.293185000000001
#
# number of rings (size 3 to 8) (size 9 to 14) (size 15 to 20)
#    0.000    1.800    6.000    0.600    2.800    5.200 
#    0.000    6.000    0.000    0.000    0.000    0.000 
#    0.000    0.000    0.000    0.000    0.000    0.000 
#
# Total GULP energy -247864.238687 kJ/mol
# GULP energy per Si atom -12393.211934 kJ/mol
# Density = 2.124472 g / cm^3
# Si number density = 21.293185 Si / 1000 Ang^3
#
#
#
# Elastic Constant Matrix: (Units=GPa)
#
#
# Indices 1 2 3 4 5 6 
#
# 1 102.9163 46.5807 18.2541 0.0000 -11.4463 0.0000
# 2 46.5807 160.1614 28.3952 0.0000 -5.7891 0.0000
# 3 18.2541 28.3952 56.8429 0.0000 -8.6700 0.0000
# 4 0.0000 0.0000 0.0000 22.0406 0.0000 -1.8696
# 5 -11.4463 -5.7891 -8.6700 0.0000 29.7035 0.0000
# 6 0.0000 0.0000 0.0000 -1.8696 0.0000 33.6428
#
#
#
# Elastic Compliance Matrix: (Units=1/GPa)
#
#
# Indices 1 2 3 4 5 6 
#
# 1 0.011762 -0.002984 -0.001762 0.000000 0.003437 0.000000
# 2 -0.002984 0.007611 -0.002923 0.000000 -0.000520 0.000000
# 3 -0.001762 -0.002923 0.020333 0.000000 0.004686 0.000000
# 4 0.000000 0.000000 0.000000 0.045586 0.000000 0.002533
# 5 0.003437 -0.000520 0.004686 0.000000 0.036257 0.000000
# 6 0.000000 0.000000 0.000000 0.002533 0.000000 0.029865
#
#
# Mechanical properties :
#
#
# Convention : Reuss Voigt Hill
#
# Bulk Modulus (GPa) = 41.03849 56.26453 48.65151
# Shear Modulus (GPa) = 28.59183 32.19007 30.39095
#
# Velocity S-wave (km/s) = 3.66836 3.89235 3.78201
# Velocity P-wave (km/s) = 6.10388 6.83239 6.47838
#
# Compressibility (1/GPa) = 0.02436737
#
# Stress axis : x y z
#
# Youngs Moduli (GPa) = 85.01886 131.38813 49.18073
#
# Poissons Ratio (x) = 0.39209 0.08667
# Poissons Ratio (y) = 0.25371 0.14375
# Poissons Ratio (z) = 0.14983 0.38404
#
# Static dielectric constant tensor:
#      x y z
#    x 4.223760 0.000000 0.019770 
#    y 0.000000 4.253820 0.000000 
#    z 0.019770 0.000000 3.455780 
# 
# 
# High freq. dielectric constant tensor:
#      x y z
#    x 1.839160 0.000000 0.003360 
#    y 0.000000 1.853630 0.000000 
#    z 0.003360 0.000000 1.804080 
# 
# From -- ./inp_files/48618.got.cif
#   From: 2010.06.25/outbox.cif.g09.slc.cpg/sg12_25_cif.got.tgz:48618.got - 2010.06.28 00:19:55.
