data_PCOD8108233
_publ_section_title
;
Structure prediction by ZEFSAII (Michael W. Deem and Ramdas Pophale) SiO2 
 PCOD8108233
Probable space group: C 2/M
;
_chemical_formula_sum "Si O2"
_cell_formula_units_Z 56
_cell_length_a 30.567591
_cell_length_b 14.646654
_cell_length_c 11.110222
_cell_angle_alpha 90.000000
_cell_angle_beta 32.819690
_cell_angle_gamma 90.000000
_cell_volume 2695.996292
_symmetry_space_group_name_H-M "C 2/M"
_symmetry_group_IT_number 12
_symmetry_cell_setting 'monoclinic'
loop_
_space_group_symop_operation_xyz
x,y,z
-x,y,-z
-x,-y,-z
x,-y,z
1/2+x,1/2+y,z
1/2-x,1/2+y,-z
1/2-x,1/2-y,-z
1/2+x,1/2-y,z
loop_
_atom_site_type_symbol
_atom_site_label
_atom_site_fract_x
_atom_site_fract_y
_atom_site_fract_z
Si Si1 0.573496 0.753728 0.130551
Si Si2 0.577274 0.895574 0.755948
Si Si3 0.186285 0.298302 0.064423
Si Si4 0.982084 0.108706 0.180636
Si Si5 0.197939 0.100611 0.381669
Si Si6 0.698805 0.165318 0.659234
Si Si7 0.063791 0.608144 0.518579
O O1 0.630076 0.728217 0.115780
O O2 0.536011 0.663596 0.154000
O O3 0.512677 0.827425 0.330502
O O4 0.624140 0.807352 0.914574
O O5 0.661586 0.883549 0.629336
O O6 0.591064 0.860167 0.589057
O O7 0.553706 0.000000 0.800504
O O8 0.500000 0.846089 0.000000
O O9 0.134677 0.369441 0.261755
O O10 0.250000 0.250000 0.000000
O O11 0.239822 0.350835 0.846347
O O12 0.890948 0.145208 0.411583
O O13 0.993900 0.000000 0.175578
O O14 0.000000 0.132672 0.000000
O O15 0.237785 0.098322 0.422370
O O16 0.185020 0.000000 0.362603
O O17 0.750000 0.250000 0.500000
O O18 0.041967 0.500000 0.558427
#
# Coordination Sequence:
#
# PCOD8108233 Si02
#       7
#     8   8   8   8   8   8   8
#     4  11  24  39  66  93 122 171 212 265 316 380
#     4  10  21  38  60  91 128 165 205 260 323 388
#     4  11  25  43  63  90 129 169 215 262 319 378
#     4  10  22  42  68  97 129 169 218 268 320 385
#     4  10  22  40  62  87 122 165 207 258 314 375
#     4  11  23  34  59  92 126 163 200 255 322 385
#     4  11  24  41  66  96 128 169 217 267 321 388
#
# _framework density 20.771542
#
# number of rings (size 3 to 8) (size 9 to 14) (size 15 to 20)
#    0.000    1.429    1.429    3.000    8.000    3.429 
#    0.000    2.143    0.000    3.429    0.000    0.000 
#    0.000    0.000    0.000    0.000    0.000    0.000 
#
# Total GULP energy -346960.961760 kJ/mol
# GULP energy per Si atom -12391.462920 kJ/mol
# Density = 2.072427 g / cm^3
# Si number density = 20.771542 Si / 1000 Ang^3
#
#
#
# Elastic Constant Matrix: (Units=GPa)
#
#
# Indices 1 2 3 4 5 6 
#
# 1 176.1097 42.2546 50.7280 0.0000 -17.6938 0.0000
# 2 42.2546 77.9010 39.2324 0.0000 -5.1193 0.0000
# 3 50.7280 39.2324 123.2528 0.0000 -3.0145 0.0000
# 4 0.0000 0.0000 0.0000 16.3605 0.0000 -3.4062
# 5 -17.6938 -5.1193 -3.0145 0.0000 31.1730 0.0000
# 6 0.0000 0.0000 0.0000 -3.4062 0.0000 30.0670
#
#
#
# Elastic Compliance Matrix: (Units=1/GPa)
#
#
# Indices 1 2 3 4 5 6 
#
# 1 0.007261 -0.002677 -0.002051 0.000000 0.003484 0.000000
# 2 -0.002677 0.016405 -0.004101 0.000000 0.000778 0.000000
# 3 -0.002051 -0.004101 0.010242 0.000000 -0.000847 0.000000
# 4 0.000000 0.000000 0.000000 0.062599 0.000000 0.007092
# 5 0.003484 0.000778 -0.000847 0.000000 0.034102 0.000000
# 6 0.000000 0.000000 0.000000 0.007092 0.000000 0.034062
#
#
# Mechanical properties :
#
#
# Convention : Reuss Voigt Hill
#
# Bulk Modulus (GPa) = 61.53656 71.29927 66.41791
# Shear Modulus (GPa) = 26.63136 31.85667 29.24401
#
# Velocity S-wave (km/s) = 3.58454 3.92046 3.75625
# Velocity P-wave (km/s) = 6.84263 7.40900 7.13144
#
# Compressibility (1/GPa) = 0.01625050
#
# Stress axis : x y z
#
# Youngs Moduli (GPa) = 137.71448 60.95610 97.63279
#
# Poissons Ratio (x) = 0.16316 0.20029
# Poissons Ratio (y) = 0.36861 0.40042
# Poissons Ratio (z) = 0.28251 0.25000
#
# Static dielectric constant tensor:
#      x y z
#    x 4.241750 0.000000 -0.011560 
#    y 0.000000 3.443980 0.000000 
#    z -0.011560 0.000000 4.450240 
# 
# 
# High freq. dielectric constant tensor:
#      x y z
#    x 1.827190 0.000000 -0.002540 
#    y 0.000000 1.794090 0.000000 
#    z -0.002540 0.000000 1.826420 
# 
# From -- ./inp_files/189602.got.cif
#   From: 2010.06.25/outbox.cif.g09.slc.cpg/sg12_95_cif.got.tgz:189602.got - 2010.06.28 00:19:55.
