data_PCOD8108133
_publ_section_title
;
Structure prediction by ZEFSAII (Michael W. Deem and Ramdas Pophale) SiO2 
 PCOD8108133
Probable space group: C 2/M
;
_chemical_formula_sum "Si O2"
_cell_formula_units_Z 56
_cell_length_a 20.461665
_cell_length_b 8.903849
_cell_length_c 17.655322
_cell_angle_alpha 90.000000
_cell_angle_beta 63.441111
_cell_angle_gamma 90.000000
_cell_volume 2877.151585
_symmetry_space_group_name_H-M "C 2/M"
_symmetry_group_IT_number 12
_symmetry_cell_setting 'monoclinic'
loop_
_space_group_symop_operation_xyz
x,y,z
-x,y,-z
-x,-y,-z
x,-y,z
1/2+x,1/2+y,z
1/2-x,1/2+y,-z
1/2-x,1/2-y,-z
1/2+x,1/2-y,z
loop_
_atom_site_type_symbol
_atom_site_label
_atom_site_fract_x
_atom_site_fract_y
_atom_site_fract_z
Si Si1 0.650653 0.675031 0.750640
Si Si2 0.067873 0.323297 0.658884
Si Si3 0.903929 0.325044 0.784327
Si Si4 0.828585 0.822438 0.962957
Si Si5 0.080263 0.178545 0.941881
Si Si6 0.923727 0.823024 0.504804
Si Si7 0.321169 0.172728 0.674661
O O1 0.634452 0.500000 0.745373
O O2 0.624206 0.767712 0.692511
O O3 0.608007 0.736793 0.846346
O O4 0.735646 0.705317 0.719596
O O5 0.074448 0.500000 0.646889
O O6 0.091105 0.250699 0.568093
O O7 0.985894 0.274586 0.722312
O O8 0.899208 0.500000 0.808222
O O9 0.879031 0.226320 0.867529
O O10 0.851815 0.286234 0.741186
O O11 0.820107 0.000000 0.966711
O O12 0.750000 0.750000 0.000000
O O13 0.865505 0.764262 0.021057
O O14 0.078311 0.000000 0.942886
O O15 0.000000 0.245042 0.000000
O O16 0.857886 0.778352 0.593660
O O17 0.000000 0.763328 0.500000
O O18 0.925380 0.000000 0.493371
O O19 0.339029 0.000000 0.645600
#
# Coordination Sequence:
#
# PCOD8108133 Si02
#       7
#     8   8   8   8   8   8   8
#     4  10  21  38  60  86 118 155 199 244 288 345
#     4  11  23  39  62  88 119 155 191 239 296 355
#     4  10  21  38  60  86 115 152 198 241 290 351
#     4  11  22  36  58  86 117 153 195 244 296 348
#     4   9  18  35  59  84 113 154 198 239 285 339
#     4  11  23  39  62  91 119 148 193 248 294 347
#     4  10  21  39  62  85 118 162 198 240 295 352
#
# _framework density 19.463694
#
# number of rings (size 3 to 8) (size 9 to 14) (size 15 to 20)
#    0.000    1.714    1.429    3.000    0.000    6.857 
#    0.000    2.857    0.000    3.857    0.000    0.000 
#    0.000    0.000    0.000    0.000    0.000    0.000 
#
# Total GULP energy -347356.736995 kJ/mol
# GULP energy per Si atom -12405.597750 kJ/mol
# Density = 1.941939 g / cm^3
# Si number density = 19.463694 Si / 1000 Ang^3
#
#
#
# Elastic Constant Matrix: (Units=GPa)
#
#
# Indices 1 2 3 4 5 6 
#
# 1 107.6536 27.0476 35.1267 0.0000 13.3564 0.0000
# 2 27.0476 53.0383 32.6734 0.0000 4.1553 -0.0002
# 3 35.1267 32.6734 114.0200 0.0000 11.7162 0.0000
# 4 0.0000 0.0000 0.0000 35.3323 0.0000 0.2248
# 5 13.3564 4.1553 11.7162 0.0000 38.1521 0.0000
# 6 0.0000 -0.0002 0.0000 0.2248 0.0000 27.1318
#
#
#
# Elastic Compliance Matrix: (Units=1/GPa)
#
#
# Indices 1 2 3 4 5 6 
#
# 1 0.011387 -0.004374 -0.001956 0.000000 -0.002909 0.000000
# 2 -0.004374 0.024586 -0.005762 0.000000 0.000623 0.000000
# 3 -0.001956 -0.005762 0.011244 0.000000 -0.002141 0.000000
# 4 0.000000 0.000000 0.000000 0.028304 0.000000 -0.000235
# 5 -0.002909 0.000623 -0.002141 0.000000 0.027819 0.000000
# 6 0.000000 0.000000 0.000000 -0.000235 0.000000 0.036859
#
#
# Mechanical properties :
#
#
# Convention : Reuss Voigt Hill
#
# Bulk Modulus (GPa) = 43.41509 51.60082 47.50795
# Shear Modulus (GPa) = 29.05965 32.11419 30.58692
#
# Velocity S-wave (km/s) = 3.86815 4.06637 3.96850
# Velocity P-wave (km/s) = 6.50417 6.97252 6.74241
#
# Compressibility (1/GPa) = 0.02303347
#
# Stress axis : x y z
#
# Youngs Moduli (GPa) = 87.81811 40.67424 88.93722
#
# Poissons Ratio (x) = 0.17792 0.17393
# Poissons Ratio (y) = 0.38415 0.51242
# Poissons Ratio (z) = 0.17174 0.23435
#
# Static dielectric constant tensor:
#      x y z
#    x 3.682420 0.000000 0.080150 
#    y 0.000000 3.364690 0.000000 
#    z 0.080150 0.000000 3.393750 
# 
# 
# High freq. dielectric constant tensor:
#      x y z
#    x 1.771480 0.000000 0.001770 
#    y 0.000000 1.742200 0.000000 
#    z 0.001770 0.000000 1.771850 
# 
# From -- ./inp_files/275160.got.cif
#   From: 2010.06.25/outbox.cif.g09.slc.cpg/sg12_138_cif.got.tgz:275160.got - 2010.06.28 00:19:55.
