data_PCOD8108056
_publ_section_title
;
Structure prediction by ZEFSAII (Michael W. Deem and Ramdas Pophale) SiO2 
 PCOD8108056
Probable space group: C 2/M
;
_chemical_formula_sum "Si O2"
_cell_formula_units_Z 48
_cell_length_a 19.648132
_cell_length_b 15.764110
_cell_length_c 14.821550
_cell_angle_alpha 90.000000
_cell_angle_beta 148.868452
_cell_angle_gamma 90.000000
_cell_volume 2373.443292
_symmetry_space_group_name_H-M "C 2/M"
_symmetry_group_IT_number 12
_symmetry_cell_setting 'monoclinic'
loop_
_space_group_symop_operation_xyz
x,y,z
-x,y,-z
-x,-y,-z
x,-y,z
1/2+x,1/2+y,z
1/2-x,1/2+y,-z
1/2-x,1/2-y,-z
1/2+x,1/2-y,z
loop_
_atom_site_type_symbol
_atom_site_label
_atom_site_fract_x
_atom_site_fract_y
_atom_site_fract_z
Si Si1 0.615937 0.597107 0.061615
Si Si2 0.491966 0.907769 0.763859
Si Si3 0.680391 0.753091 0.015589
Si Si4 0.898709 0.631119 0.461757
Si Si5 0.866651 0.812547 0.379977
Si Si6 0.870800 0.405871 0.806953
O O1 0.596923 0.500000 0.004103
O O2 0.614110 0.664108 0.975049
O O3 0.752520 0.601924 0.270605
O O4 0.500000 0.621570 0.000000
O O5 0.436589 0.907353 0.600655
O O6 0.373253 0.903799 0.701310
O O7 0.564363 0.000000 0.857858
O O8 0.580834 0.830325 0.895412
O O9 0.795976 0.774664 0.213749
O O10 0.750000 0.750000 0.000000
O O11 0.911508 0.732047 0.490278
O O12 0.000000 0.598195 0.500000
O O13 0.769320 0.867919 0.327621
O O14 0.000000 0.862325 0.500000
O O15 0.869219 0.500000 0.845572
O O16 0.000000 0.360169 0.000000
#
# Coordination Sequence:
#
# PCOD8108056 Si02
#       6
#     8   8   8   8   8   8
#     4  10  23  43  66  93 131 170 209 264 329 384
#     4  11  23  39  65  95 122 163 217 264 305 369
#     4  11  23  38  63  94 126 166 215 258 317 382
#     4  10  22  40  65  93 122 163 212 259 314 378
#     4  10  21  38  59  88 127 161 200 259 318 372
#     4  10  21  39  61  87 121 166 214 251 301 377
#
# _framework density 20.223780999999999
#
# number of rings (size 3 to 8) (size 9 to 14) (size 15 to 20)
#    0.000    1.667    1.667    3.500    4.667    4.333 
#    3.000    0.000    0.000    0.000    0.000    0.000 
#    0.000    0.000    0.000    0.000    0.000    0.000 
#
# Total GULP energy -297349.304495 kJ/mol
# GULP energy per Si atom -12389.554354 kJ/mol
# Density = 2.017775 g / cm^3
# Si number density = 20.223781 Si / 1000 Ang^3
#
#
#
# Elastic Constant Matrix: (Units=GPa)
#
#
# Indices 1 2 3 4 5 6 
#
# 1 171.8485 72.5132 52.0105 0.0000 14.1476 0.0000
# 2 72.5132 140.7389 44.5367 0.0000 9.7044 0.0000
# 3 52.0105 44.5367 77.5835 0.0000 23.9895 0.0000
# 4 0.0000 0.0000 0.0000 27.3539 0.0000 7.2380
# 5 14.1476 9.7044 23.9895 0.0000 41.5290 0.0000
# 6 0.0000 0.0000 0.0000 7.2380 0.0000 8.2159
#
#
#
# Elastic Compliance Matrix: (Units=1/GPa)
#
#
# Indices 1 2 3 4 5 6 
#
# 1 0.008252 -0.003053 -0.003812 0.000000 0.000104 0.000000
# 2 -0.003053 0.009849 -0.003917 0.000000 0.001001 0.000000
# 3 -0.003812 -0.003917 0.020707 0.000000 -0.009748 0.000000
# 4 0.000000 0.000000 0.000000 0.047670 0.000000 -0.041996
# 5 0.000104 0.001001 -0.009748 0.000000 0.029441 0.000000
# 6 0.000000 0.000000 0.000000 -0.041996 0.000000 0.158713
#
#
# Mechanical properties :
#
#
# Convention : Reuss Voigt Hill
#
# Bulk Modulus (GPa) = 57.98592 80.92128 69.45360
# Shear Modulus (GPa) = 16.55940 30.16047 23.35994
#
# Velocity S-wave (km/s) = 2.86459 3.86597 3.40232
# Velocity P-wave (km/s) = 6.29885 7.74774 7.06056
#
# Compressibility (1/GPa) = 0.01724557
#
# Stress axis : x y z
#
# Youngs Moduli (GPa) = 121.17743 101.53716 48.29230
#
# Poissons Ratio (x) = 0.30997 0.18409
# Poissons Ratio (y) = 0.36993 0.18914
# Poissons Ratio (z) = 0.46192 0.39768
#
# Static dielectric constant tensor:
#      x y z
#    x 2.676970 0.000000 -0.103170 
#    y 0.000000 4.035410 0.000000 
#    z -0.103170 0.000000 3.661380 
# 
# 
# High freq. dielectric constant tensor:
#      x y z
#    x 1.803150 0.000000 0.007060 
#    y 0.000000 1.794860 0.000000 
#    z 0.007060 0.000000 1.775610 
# 
# From -- ./inp_files/226937.got.cif
#   From: 2010.06.25/outbox.cif.g09.slc.cpg/sg12_114_cif.got.tgz:226937.got - 2010.06.28 00:19:55.
