data_PCOD8108290
_publ_section_title
;
Structure prediction by ZEFSAII (Michael W. Deem and Ramdas Pophale) SiO2 
 PCOD8108290
Probable space group: C 2/M
;
_chemical_formula_sum "Si O2"
_cell_formula_units_Z 48
_cell_length_a 19.235454
_cell_length_b 9.065177
_cell_length_c 25.593977
_cell_angle_alpha 90.000000
_cell_angle_beta 33.586813
_cell_angle_gamma 90.000000
_cell_volume 2468.871830
_symmetry_space_group_name_H-M "C 2/M"
_symmetry_group_IT_number 12
_symmetry_cell_setting 'monoclinic'
loop_
_space_group_symop_operation_xyz
x,y,z
-x,y,-z
-x,-y,-z
x,-y,z
1/2+x,1/2+y,z
1/2-x,1/2+y,-z
1/2-x,1/2-y,-z
1/2+x,1/2-y,z
loop_
_atom_site_type_symbol
_atom_site_label
_atom_site_fract_x
_atom_site_fract_y
_atom_site_fract_z
Si Si1 0.100691 0.326886 0.273174
Si Si2 0.319150 0.671076 0.879639
Si Si3 0.199540 0.171007 0.766236
Si Si4 0.357169 0.331172 0.464302
Si Si5 0.082955 0.170749 0.067642
Si Si6 0.138658 0.832577 0.418778
O O1 0.072751 0.500000 0.286110
O O2 0.110167 0.259374 0.209820
O O3 0.228562 0.294293 0.224917
O O4 0.988976 0.250247 0.374522
O O5 0.312179 0.500000 0.868922
O O6 0.398871 0.698072 0.882121
O O7 0.178353 0.731424 0.974454
O O8 0.260757 0.248986 0.678644
O O9 0.055770 0.223395 0.862106
O O10 0.203078 0.000000 0.750306
O O11 0.369729 0.500000 0.437425
O O12 0.250000 0.250000 0.500000
O O13 0.316153 0.323685 0.550070
O O14 0.107316 0.000000 0.038307
O O15 0.000000 0.760745 0.500000
O O16 0.132320 0.000000 0.402126
#
# Coordination Sequence:
#
# PCOD8108290 Si02
#       6
#     8   8   8   8   8   8
#     4  11  23  39  59  86 119 155 194 240 291 345
#     4  10  21  38  61  87 116 152 192 240 293 347
#     4  10  22  38  60  87 115 154 198 239 287 344
#     4  11  24  41  60  86 119 155 195 240 290 345
#     4   9  20  40  61  85 114 149 193 239 291 349
#     4  10  21  39  60  84 117 154 191 239 290 337
#
# _framework density 19.442080000000001
#
# number of rings (size 3 to 8) (size 9 to 14) (size 15 to 20)
#    0.000    1.833    1.667    1.500    2.333    4.333 
#    0.000    3.333    0.000    0.000    0.000    0.000 
#    0.000    0.000    0.000    0.000    0.000    0.000 
#
# Total GULP energy -297714.190036 kJ/mol
# GULP energy per Si atom -12404.757918 kJ/mol
# Density = 1.939783 g / cm^3
# Si number density = 19.442080 Si / 1000 Ang^3
#
#
#
# Elastic Constant Matrix: (Units=GPa)
#
#
# Indices 1 2 3 4 5 6 
#
# 1 68.3034 30.2137 13.1208 0.0007 -13.3541 -0.0012
# 2 30.2137 91.3277 33.9196 0.0004 -0.7594 -0.0002
# 3 13.1208 33.9196 57.4940 -0.0001 -3.1399 0.0001
# 4 0.0007 0.0004 -0.0001 40.9580 0.0001 2.1350
# 5 -13.3541 -0.7594 -3.1399 0.0001 39.2254 -0.0006
# 6 -0.0012 -0.0002 0.0001 2.1350 -0.0006 27.8353
#
#
#
# Elastic Compliance Matrix: (Units=1/GPa)
#
#
# Indices 1 2 3 4 5 6 
#
# 1 0.018549 -0.005940 -0.000392 0.000000 0.006169 0.000001
# 2 -0.005940 0.015930 -0.008172 0.000000 -0.002368 0.000000
# 3 -0.000392 -0.008172 0.022386 0.000000 0.001500 0.000000
# 4 0.000000 0.000000 0.000000 0.024513 0.000000 -0.001880
# 5 0.006169 -0.002368 0.001500 0.000000 0.027668 0.000001
# 6 0.000001 0.000000 0.000000 -0.001880 0.000001 0.036070
#
#
# Mechanical properties :
#
#
# Convention : Reuss Voigt Hill
#
# Bulk Modulus (GPa) = 35.89687 41.29258 38.59472
# Shear Modulus (GPa) = 27.26136 30.92846 29.09491
#
# Velocity S-wave (km/s) = 3.74864 3.99281 3.87265
# Velocity P-wave (km/s) = 6.10245 6.52239 6.31591
#
# Compressibility (1/GPa) = 0.02785758
#
# Stress axis : x y z
#
# Youngs Moduli (GPa) = 53.91027 62.77439 44.67123
#
# Poissons Ratio (x) = 0.37286 0.01751
# Poissons Ratio (y) = 0.32021 0.36506
# Poissons Ratio (z) = 0.02113 0.51299
#
# Static dielectric constant tensor:
#      x y z
#    x 3.818470 -0.000010 -0.532070 
#    y -0.000010 3.625090 0.000010 
#    z -0.532070 0.000010 4.364980 
# 
# 
# High freq. dielectric constant tensor:
#      x y z
#    x 1.763320 0.000000 -0.002870 
#    y 0.000000 1.760890 0.000000 
#    z -0.002870 0.000000 1.758370 
# 
# From -- ./inp_files/365378.got.cif
#   From: 2010.06.25/outbox.cif.g09.slc.cpg/sg12_183_cif.got.tgz:365378.got - 2010.06.28 00:19:55.
