data_PCOD8108673
_publ_section_title
;
Structure prediction by ZEFSAII (Michael W. Deem and Ramdas Pophale) SiO2 
 PCOD8108673
Probable space group: C 2/M
;
_chemical_formula_sum "Si O2"
_cell_formula_units_Z 32
_cell_length_a 12.531601
_cell_length_b 16.466247
_cell_length_c 8.475502
_cell_angle_alpha 90.000000
_cell_angle_beta 49.878392
_cell_angle_gamma 90.000000
_cell_volume 1337.351144
_symmetry_space_group_name_H-M "C 2/M"
_symmetry_group_IT_number 12
_symmetry_cell_setting 'monoclinic'
loop_
_space_group_symop_operation_xyz
x,y,z
-x,y,-z
-x,-y,-z
x,-y,z
1/2+x,1/2+y,z
1/2-x,1/2+y,-z
1/2-x,1/2-y,-z
1/2+x,1/2-y,z
loop_
_atom_site_type_symbol
_atom_site_label
_atom_site_fract_x
_atom_site_fract_y
_atom_site_fract_z
Si Si1 0.569119 0.089516 0.784268
Si Si2 0.434939 0.323531 0.728165
Si Si3 0.827212 0.643430 0.842534
Si Si4 0.317211 0.402676 0.343705
O O1 0.451329 0.080678 0.759712
O O2 0.709703 0.129376 0.581153
O O3 0.611844 0.000000 0.800719
O O4 0.500000 0.137915 0.000000
O O5 0.500000 0.352797 0.500000
O O6 0.413214 0.227552 0.754901
O O7 0.538730 0.355264 0.766613
O O8 0.282867 0.361853 0.907200
O O9 0.745948 0.623884 0.761840
O O10 0.339309 0.500000 0.326218
#
# Coordination Sequence:
#
# PCOD8108673 Si02
#       4
#     8   8   8   8
#     4  10  21  38  63  94 127 165 210 260 314 372
#     4  11  25  42  63  93 128 166 209 259 316 375
#     4  11  24  41  65  93 126 167 211 260 314 373
#     4  11  24  43  67  94 127 168 212 259 312 373
#
# _framework density 23.927897000000002
#
# number of rings (size 3 to 8) (size 9 to 14) (size 15 to 20)
#    0.000    1.250    0.000    5.250    0.000   13.500 
#    0.000    0.000    0.000    0.000    0.000    0.000 
#    0.000    0.000    0.000    0.000    0.000    0.000 
#
# Total GULP energy -198271.178849 kJ/mol
# GULP energy per Si atom -12391.948678 kJ/mol
# Density = 2.387344 g / cm^3
# Si number density = 23.927897 Si / 1000 Ang^3
#
#
#
# Elastic Constant Matrix: (Units=GPa)
#
#
# Indices 1 2 3 4 5 6 
#
# 1 108.9852 35.5426 7.1723 -0.0002 -11.5586 0.0000
# 2 35.5426 75.3087 26.1460 0.0000 -4.7246 0.0000
# 3 7.1723 26.1460 132.1174 -0.0001 -10.8824 0.0000
# 4 -0.0002 0.0000 -0.0001 110.6365 0.0003 -31.3386
# 5 -11.5586 -4.7246 -10.8824 0.0003 41.5785 0.0000
# 6 0.0000 0.0000 0.0000 -31.3386 0.0000 50.4927
#
#
#
# Elastic Compliance Matrix: (Units=1/GPa)
#
#
# Indices 1 2 3 4 5 6 
#
# 1 0.011152 -0.005328 0.000669 0.000000 0.002670 0.000000
# 2 -0.005328 0.016837 -0.003073 0.000000 -0.000372 0.000000
# 3 0.000669 -0.003073 0.008307 0.000000 0.002011 0.000000
# 4 0.000000 0.000000 0.000000 0.010967 0.000000 0.006806
# 5 0.002670 -0.000372 0.002011 0.000000 0.025277 0.000000
# 6 0.000000 0.000000 0.000000 0.006806 0.000000 0.024029
#
#
# Mechanical properties :
#
#
# Convention : Reuss Voigt Hill
#
# Bulk Modulus (GPa) = 48.00642 50.45921 49.23282
# Shear Modulus (GPa) = 42.02457 57.04489 49.53473
#
# Velocity S-wave (km/s) = 4.19537 4.88795 4.55484
# Velocity P-wave (km/s) = 6.60111 7.27942 6.94855
#
# Compressibility (1/GPa) = 0.02083055
#
# Stress axis : x y z
#
# Youngs Moduli (GPa) = 89.66723 59.39275 120.38645
#
# Poissons Ratio (x) = 0.31646 -0.08053
# Poissons Ratio (y) = 0.47776 0.37000
# Poissons Ratio (z) = -0.05998 0.18254
#
# Static dielectric constant tensor:
#      x y z
#    x 4.191480 0.000000 -0.119190 
#    y 0.000000 3.966420 0.000000 
#    z -0.119190 0.000000 4.857330 
# 
# 
# High freq. dielectric constant tensor:
#      x y z
#    x 1.955710 0.000000 -0.009760 
#    y 0.000000 1.920460 0.000000 
#    z -0.009760 0.000000 1.975910 
# 
# From -- ./inp_files/48292.got.cif
#   From: 2010.06.25/outbox.cif.g09.slc.cpg/sg12_25_cif.got.tgz:48292.got - 2010.06.28 00:19:55.
