data_PCOD8108752
_publ_section_title
;
Structure prediction by ZEFSAII (Michael W. Deem and Ramdas Pophale) SiO2 
 PCOD8108752
Probable space group: C 2/M
;
_chemical_formula_sum "Si O2"
_cell_formula_units_Z 36
_cell_length_a 18.201217
_cell_length_b 21.845992
_cell_length_c 7.819684
_cell_angle_alpha 90.000000
_cell_angle_beta 148.855084
_cell_angle_gamma 90.000000
_cell_volume 1608.139180
_symmetry_space_group_name_H-M "C 2/M"
_symmetry_group_IT_number 12
_symmetry_cell_setting 'monoclinic'
loop_
_space_group_symop_operation_xyz
x,y,z
-x,y,-z
-x,-y,-z
x,-y,z
1/2+x,1/2+y,z
1/2-x,1/2+y,-z
1/2-x,1/2-y,-z
1/2+x,1/2-y,z
loop_
_atom_site_type_symbol
_atom_site_label
_atom_site_fract_x
_atom_site_fract_y
_atom_site_fract_z
Si Si1 0.200345 0.640859 0.782104
Si Si2 0.962631 0.829270 0.116702
Si Si3 0.836613 0.070039 0.348378
Si Si4 0.973261 0.430653 0.131569
Si Si5 0.000000 0.261589 0.500000
O O1 0.058850 0.605412 0.445822
O O2 0.144589 0.697999 0.783951
O O3 0.292794 0.660705 0.800625
O O4 0.309041 0.599507 0.107961
O O5 0.044578 0.892885 0.312226
O O6 0.007529 0.778324 0.343573
O O7 0.000000 0.806024 0.000000
O O8 0.887921 0.000000 0.428350
O O9 0.692708 0.073472 0.167950
O O10 0.029686 0.500000 0.249667
O O11 0.000000 0.401070 0.000000
#
# Coordination Sequence:
#
# PCOD8108752 Si02
#       5
#     8   8   8   8   4
#     4  12  23  44  72  97 139 181 228 283 339 404
#     4  12  28  46  69 103 138 183 229 282 346 401
#     4  11  23  44  71 102 138 178 225 283 351 409
#     4  10  21  38  65 103 140 179 229 279 339 412
#     4  12  26  48  70  98 138 184 236 282 326 412
#
# _framework density 22.386120999999999
#
# number of rings (size 3 to 8) (size 9 to 14) (size 15 to 20)
#    0.000    0.667    4.444    2.667    0.000    6.667 
#    0.000    0.000    0.000    0.000    0.000    0.000 
#    0.000    0.000    0.000    0.000    0.000    0.000 
#
# Total GULP energy -223232.908576 kJ/mol
# GULP energy per Si atom -12401.828254 kJ/mol
# Density = 2.233517 g / cm^3
# Si number density = 22.386121 Si / 1000 Ang^3
#
#
#
# Elastic Constant Matrix: (Units=GPa)
#
#
# Indices 1 2 3 4 5 6 
#
# 1 166.0051 46.9044 25.2370 0.0000 -1.4330 0.0000
# 2 46.9044 117.1911 42.9955 0.0000 -8.4696 0.0000
# 3 25.2370 42.9955 75.1028 0.0000 2.5070 0.0000
# 4 0.0000 0.0000 0.0000 1.1141 0.0000 -4.5791
# 5 -1.4330 -8.4696 2.5070 0.0000 37.8983 0.0000
# 6 0.0000 0.0000 0.0000 -4.5791 0.0000 26.8568
#
#
#
# Elastic Compliance Matrix: (Units=1/GPa)
#
#
# Indices 1 2 3 4 5 6 
#
# 1 0.006844 -0.002423 -0.000905 0.000000 -0.000223 0.000000
# 2 -0.002423 0.011971 -0.006139 0.000000 0.002990 0.000000
# 3 -0.000905 -0.006139 0.017219 0.000000 -0.002545 0.000000
# 4 0.000000 0.000000 0.000000 2.999362 0.000000 0.511392
# 5 -0.000223 0.002990 -0.002545 0.000000 0.027215 0.000000
# 6 0.000000 0.000000 0.000000 0.511392 0.000000 0.124427
#
#
# Mechanical properties :
#
#
# Convention : Reuss Voigt Hill
#
# Bulk Modulus (GPa) = 58.48138 65.39698 61.93918
# Shear Modulus (GPa) = 1.55682 29.38467 15.47075
#
# Velocity S-wave (km/s) = 0.83484 3.62695 2.63170
# Velocity P-wave (km/s) = 5.20672 6.84224 6.07973
#
# Compressibility (1/GPa) = 0.01709946
#
# Stress axis : x y z
#
# Youngs Moduli (GPa) = 146.10674 83.53274 58.07658
#
# Poissons Ratio (x) = 0.20243 0.05257
# Poissons Ratio (y) = 0.35407 0.35653
# Poissons Ratio (z) = 0.13224 0.51280
#
# Static dielectric constant tensor:
#      x y z
#    x 4.174430 0.000000 0.206370 
#    y 0.000000 4.208750 0.000000 
#    z 0.206370 0.000000 3.815940 
# 
# 
# High freq. dielectric constant tensor:
#      x y z
#    x 1.895820 0.000000 0.021870 
#    y 0.000000 1.884790 0.000000 
#    z 0.021870 0.000000 1.874980 
# 
# From -- ./inp_files/78155.got.cif
#   From: 2010.06.25/outbox.cif.g09.slc.cpg/sg12_40_cif.got.tgz:78155.got - 2010.06.28 00:19:55.
