data_PCOD8108214
_publ_section_title
;
Structure prediction by ZEFSAII (Michael W. Deem and Ramdas Pophale) SiO2 
 PCOD8108214
Probable space group: C 2/M
;
_chemical_formula_sum "Si O2"
_cell_formula_units_Z 48
_cell_length_a 14.687489
_cell_length_b 13.469175
_cell_length_c 14.589396
_cell_angle_alpha 90.000000
_cell_angle_beta 125.848263
_cell_angle_gamma 90.000000
_cell_volume 2339.466407
_symmetry_space_group_name_H-M "C 2/M"
_symmetry_group_IT_number 12
_symmetry_cell_setting 'monoclinic'
loop_
_space_group_symop_operation_xyz
x,y,z
-x,y,-z
-x,-y,-z
x,-y,z
1/2+x,1/2+y,z
1/2-x,1/2+y,-z
1/2-x,1/2-y,-z
1/2+x,1/2-y,z
loop_
_atom_site_type_symbol
_atom_site_label
_atom_site_fract_x
_atom_site_fract_y
_atom_site_fract_z
Si Si1 0.216718 0.240930 0.344570
Si Si2 0.075488 0.610497 0.776745
Si Si3 0.790525 0.211880 0.190997
Si Si4 0.575768 0.779441 0.957816
Si Si5 0.150960 0.612718 0.455994
Si Si6 0.986052 0.881920 0.204480
O O1 0.234897 0.294994 0.257946
O O2 0.218184 0.332880 0.414828
O O3 0.321393 0.168809 0.432049
O O4 0.104911 0.173419 0.287785
O O5 0.117929 0.500000 0.818512
O O6 0.180813 0.672373 0.803840
O O7 0.029646 0.654184 0.846239
O O8 0.980905 0.615936 0.642851
O O9 0.901516 0.143635 0.240141
O O10 0.700880 0.186482 0.058781
O O11 0.569854 0.664133 0.920965
O O12 0.500000 0.798574 0.000000
O O13 0.194357 0.500000 0.487637
O O14 0.002145 0.000000 0.205127
#
# Coordination Sequence:
#
# PCOD8108214 Si02
#       6
#     8   8   8   8   8   8
#     4  11  22  42  65  88 130 166 202 260 315 368
#     4  10  21  38  60  89 122 160 208 256 306 368
#     4  11  23  40  62  90 129 165 207 258 315 367
#     4  11  21  40  61  89 125 165 207 258 312 371
#     4  10  21  40  65  91 122 163 209 255 309 372
#     4  11  23  41  63  94 126 164 211 257 312 376
#
# _framework density 20.517498
#
# number of rings (size 3 to 8) (size 9 to 14) (size 15 to 20)
#    0.000    1.333    5.000    2.500    0.000    6.000 
#    0.000    1.667    0.000    3.000    0.000    0.000 
#    0.000    0.000    0.000    0.000    0.000    0.000 
#
# Total GULP energy -297440.128647 kJ/mol
# GULP energy per Si atom -12393.338694 kJ/mol
# Density = 2.047080 g / cm^3
# Si number density = 20.517498 Si / 1000 Ang^3
#
#
#
# Elastic Constant Matrix: (Units=GPa)
#
#
# Indices 1 2 3 4 5 6 
#
# 1 57.6664 -21.9164 4.5873 0.0000 7.9543 0.0000
# 2 -21.9164 50.0571 -8.9713 0.0000 9.6122 0.0000
# 3 4.5873 -8.9713 87.0798 0.0000 4.8150 0.0000
# 4 0.0000 0.0000 0.0000 24.5111 0.0000 7.1830
# 5 7.9543 9.6122 4.8150 0.0000 23.1170 0.0000
# 6 0.0000 0.0000 0.0000 7.1830 0.0000 14.7873
#
#
#
# Elastic Compliance Matrix: (Units=1/GPa)
#
#
# Indices 1 2 3 4 5 6 
#
# 1 0.024389 0.013570 0.000900 0.000000 -0.014222 0.000000
# 2 0.013570 0.029941 0.003355 0.000000 -0.017818 0.000000
# 3 0.000900 0.003355 0.012015 0.000000 -0.004207 0.000000
# 4 0.000000 0.000000 0.000000 0.047569 0.000000 -0.023107
# 5 -0.014222 -0.017818 -0.004207 0.000000 0.056437 0.000000
# 6 0.000000 0.000000 0.000000 -0.023107 0.000000 0.078850
#
#
# Mechanical properties :
#
#
# Convention : Reuss Voigt Hill
#
# Bulk Modulus (GPa) = 9.80443 15.80027 12.80235
# Shear Modulus (GPa) = 20.19803 27.22334 23.71069
#
# Velocity S-wave (km/s) = 3.14097 3.64653 3.40315
# Velocity P-wave (km/s) = 4.23594 5.04452 4.65781
#
# Compressibility (1/GPa) = 0.10199469
#
# Stress axis : x y z
#
# Youngs Moduli (GPa) = 41.00256 33.39855 83.23203
#
# Poissons Ratio (x) = -0.45323 -0.07488
# Poissons Ratio (y) = -0.55642 -0.27925
# Poissons Ratio (z) = -0.03689 -0.11205
#
# Static dielectric constant tensor:
#      x y z
#    x 3.524540 0.000000 0.100250 
#    y 0.000000 3.765890 0.000000 
#    z 0.100250 0.000000 4.120290 
# 
# 
# High freq. dielectric constant tensor:
#      x y z
#    x 1.792260 0.000000 0.006760 
#    y 0.000000 1.793470 0.000000 
#    z 0.006760 0.000000 1.813390 
# 
# From -- ./inp_files/215020.got.cif
#   From: 2010.06.25/outbox.cif.g09.slc.cpg/sg12_108_cif.got.tgz:215020.got - 2010.06.28 00:19:55.
