data_PCOD8108337
_publ_section_title
;
Structure prediction by ZEFSAII (Michael W. Deem and Ramdas Pophale) SiO2 
 PCOD8108337
Probable space group: C 2/M
;
_chemical_formula_sum "Si O2"
_cell_formula_units_Z 64
_cell_length_a 30.994826
_cell_length_b 9.222286
_cell_length_c 17.492830
_cell_angle_alpha 90.000000
_cell_angle_beta 137.605657
_cell_angle_gamma 90.000000
_cell_volume 3371.286011
_symmetry_space_group_name_H-M "C 2/M"
_symmetry_group_IT_number 12
_symmetry_cell_setting 'monoclinic'
loop_
_space_group_symop_operation_xyz
x,y,z
-x,y,-z
-x,-y,-z
x,-y,z
1/2+x,1/2+y,z
1/2-x,1/2+y,-z
1/2-x,1/2-y,-z
1/2+x,1/2-y,z
loop_
_atom_site_type_symbol
_atom_site_label
_atom_site_fract_x
_atom_site_fract_y
_atom_site_fract_z
Si Si1 0.086127 0.330644 0.495041
Si Si2 0.570037 0.672273 0.072133
Si Si3 0.376567 0.665608 0.307758
Si Si4 0.964906 0.165927 0.282479
Si Si5 0.260057 0.830169 0.933639
Si Si6 0.314540 0.167939 0.501747
Si Si7 0.119248 0.168997 0.972345
Si Si8 0.330711 0.329575 0.672798
O O1 0.075600 0.500000 0.491002
O O2 0.092879 0.264496 0.587494
O O3 0.149394 0.293675 0.529284
O O4 0.025512 0.267830 0.371598
O O5 0.568298 0.500000 0.072339
O O6 0.620339 0.731943 0.200188
O O7 0.500000 0.735971 0.000000
O O8 0.591750 0.724029 0.016976
O O9 0.389845 0.500000 0.348206
O O10 0.410473 0.704842 0.272570
O O11 0.301463 0.695490 0.200306
O O12 0.936202 0.195754 0.161652
O O13 0.987147 0.000000 0.320283
O O14 0.270626 0.000000 0.964032
O O15 0.250000 0.750000 0.000000
O O16 0.319313 0.764769 0.965738
O O17 0.346445 0.256743 0.612419
O O18 0.240671 0.211990 0.393286
O O19 0.321371 0.000000 0.531787
O O20 0.139649 0.000000 0.000688
O O21 0.339102 0.500000 0.672978
#
# Coordination Sequence:
#
# PCOD8108337 Si02
#       8
#     8   8   8   8   8   8   8   8
#     4  11  24  37  56  85 114 147 192 239 290 341
#     4   9  19  34  58  90 117 146 192 241 283 342
#     4  10  22  40  58  82 115 151 192 235 282 340
#     4  10  21  39  59  81 114 154 193 233 283 342
#     4  11  22  39  62  89 120 155 197 239 288 348
#     4   9  20  37  54  80 112 144 181 232 289 338
#     4  10  21  38  61  88 119 156 196 240 293 346
#     4   9  18  35  59  81 107 145 188 230 278 335
#
# _framework density 18.983853
#
# number of rings (size 3 to 8) (size 9 to 14) (size 15 to 20)
#    0.000    2.125    1.250    1.125    3.500    4.500 
#    0.000    0.625    0.000    0.750    0.000    0.000 
#    0.000    0.000    0.000    0.000    0.000    0.000 
#
# Total GULP energy -396919.985370 kJ/mol
# GULP energy per Si atom -12403.749543 kJ/mol
# Density = 1.894065 g / cm^3
# Si number density = 18.983853 Si / 1000 Ang^3
#
#
#
# Elastic Constant Matrix: (Units=GPa)
#
#
# Indices 1 2 3 4 5 6 
#
# 1 109.4688 40.3298 57.0171 0.0000 -4.3589 0.0000
# 2 40.3298 63.1005 46.2286 0.0000 1.6410 0.0000
# 3 57.0171 46.2286 133.2809 0.0000 -6.9373 0.0000
# 4 0.0000 0.0000 0.0000 29.6868 0.0000 2.7864
# 5 -4.3589 1.6410 -6.9373 0.0000 32.9141 0.0000
# 6 0.0000 0.0000 0.0000 2.7864 0.0000 28.5669
#
#
#
# Elastic Compliance Matrix: (Units=1/GPa)
#
#
# Indices 1 2 3 4 5 6 
#
# 1 0.013194 -0.005873 -0.003540 0.000000 0.001294 0.000000
# 2 -0.005873 0.024091 -0.006012 0.000000 -0.003246 0.000000
# 3 -0.003540 -0.006012 0.011217 0.000000 0.002195 0.000000
# 4 0.000000 0.000000 0.000000 0.033996 0.000000 -0.003316
# 5 0.001294 -0.003246 0.002195 0.000000 0.031178 0.000000
# 6 0.000000 0.000000 0.000000 -0.003316 0.000000 0.035329
#
#
# Mechanical properties :
#
#
# Convention : Reuss Voigt Hill
#
# Bulk Modulus (GPa) = 56.65410 65.88902 61.27156
# Shear Modulus (GPa) = 26.91948 29.05186 27.98567
#
# Velocity S-wave (km/s) = 3.76975 3.91621 3.84367
# Velocity P-wave (km/s) = 6.98971 7.43184 7.21416
#
# Compressibility (1/GPa) = 0.01765097
#
# Stress axis : x y z
#
# Youngs Moduli (GPa) = 75.79183 41.51005 89.15069
#
# Poissons Ratio (x) = 0.24379 0.31559
# Poissons Ratio (y) = 0.44513 0.53600
# Poissons Ratio (z) = 0.26830 0.24957
#
# Static dielectric constant tensor:
#      x y z
#    x 3.615620 0.000000 0.066610 
#    y 0.000000 3.341750 0.000000 
#    z 0.066610 0.000000 3.591050 
# 
# 
# High freq. dielectric constant tensor:
#      x y z
#    x 1.745250 0.000000 0.001240 
#    y 0.000000 1.720730 0.000000 
#    z 0.001240 0.000000 1.747580 
# 
# From -- ./inp_files/295748.got.cif
#   From: 2010.06.25/outbox.cif.g09.slc.cpg/sg12_148_cif.got.tgz:295748.got - 2010.06.28 00:19:55.
