data_PCOD8108185
_publ_section_title
;
Structure prediction by ZEFSAII (Michael W. Deem and Ramdas Pophale) SiO2 
 PCOD8108185
Probable space group: C 2/M
;
_chemical_formula_sum "Si O2"
_cell_formula_units_Z 40
_cell_length_a 10.502749
_cell_length_b 7.899386
_cell_length_c 23.385299
_cell_angle_alpha 90.000000
_cell_angle_beta 108.823680
_cell_angle_gamma 90.000000
_cell_volume 1836.399662
_symmetry_space_group_name_H-M "C 2/M"
_symmetry_group_IT_number 12
_symmetry_cell_setting 'monoclinic'
loop_
_space_group_symop_operation_xyz
x,y,z
-x,y,-z
-x,-y,-z
x,-y,z
1/2+x,1/2+y,z
1/2-x,1/2+y,-z
1/2-x,1/2-y,-z
1/2+x,1/2-y,z
loop_
_atom_site_type_symbol
_atom_site_label
_atom_site_fract_x
_atom_site_fract_y
_atom_site_fract_z
Si Si1 0.871019 0.190313 0.872601
Si Si2 0.918853 0.000000 0.047110
Si Si3 0.509298 0.196437 0.668793
Si Si4 0.354516 0.000000 0.950218
Si Si5 0.194349 0.200065 0.264072
Si Si6 0.901461 0.699976 0.534458
O O1 0.819869 0.333680 0.908362
O O2 0.849420 0.257249 0.805483
O O3 0.030787 0.165670 0.909563
O O4 0.803112 0.000000 0.871331
O O5 0.758480 0.000000 0.015952
O O6 0.000000 0.000000 0.000000
O O7 0.656702 0.275244 0.702348
O O8 0.410742 0.221892 0.707333
O O9 0.446694 0.278298 0.602127
O O10 0.530539 0.000000 0.661265
O O11 0.500000 0.000000 0.000000
O O12 0.189978 0.000000 0.269854
O O13 0.913298 0.500000 0.537504
O O14 0.750000 0.750000 0.500000
O O15 0.000000 0.775030 0.500000
#
# Coordination Sequence:
#
# PCOD8108185 Si02
#       6
#     8   4   8   4   8   8
#     4   9  24  44  64  98 132 170 216 275 316 392
#     4  10  24  48  66  98 138 162 220 273 310 394
#     4  10  22  38  61  92 122 163 210 257 314 379
#     4  12  26  44  72 100 128 182 216 260 344 378
#     4  10  22  41  62  90 125 163 207 261 320 367
#     4  10  21  38  60  87 125 163 208 258 311 375
#
# _framework density 21.781749999999999
#
# number of rings (size 3 to 8) (size 9 to 14) (size 15 to 20)
#    0.600    1.400    0.000    1.800    4.200    6.800 
#    1.800    0.000    0.000    0.000    0.000    0.000 
#    0.000    0.000    0.000    0.000    0.000    0.000 
#
# Total GULP energy -247787.155387 kJ/mol
# GULP energy per Si atom -12389.357769 kJ/mol
# Density = 2.173217 g / cm^3
# Si number density = 21.781750 Si / 1000 Ang^3
#
#
#
# Elastic Constant Matrix: (Units=GPa)
#
#
# Indices 1 2 3 4 5 6 
#
# 1 194.6097 14.5927 91.3839 0.0000 2.3008 0.0000
# 2 14.5927 57.0060 23.2060 0.0000 -8.8248 0.0000
# 3 91.3839 23.2060 191.0908 0.0000 3.4243 0.0000
# 4 0.0000 0.0000 0.0000 21.8918 0.0000 2.5581
# 5 2.3008 -8.8248 3.4243 0.0000 36.2394 0.0000
# 6 0.0000 0.0000 0.0000 2.5581 0.0000 16.0629
#
#
#
# Elastic Compliance Matrix: (Units=1/GPa)
#
#
# Indices 1 2 3 4 5 6 
#
# 1 0.006638 -0.000469 -0.003113 0.000000 -0.000242 0.000000
# 2 -0.000469 0.019328 -0.002211 0.000000 0.004945 0.000000
# 3 -0.003113 -0.002211 0.007009 0.000000 -0.001003 0.000000
# 4 0.000000 0.000000 0.000000 0.046545 0.000000 -0.007412
# 5 -0.000242 0.004945 -0.001003 0.000000 0.028909 0.000000
# 6 0.000000 0.000000 0.000000 -0.007412 0.000000 0.063436
#
#
# Mechanical properties :
#
#
# Convention : Reuss Voigt Hill
#
# Bulk Modulus (GPa) = 46.75780 77.89688 62.32734
# Shear Modulus (GPa) = 26.23548 35.74041 30.98795
#
# Velocity S-wave (km/s) = 3.47431 4.05513 3.77590
# Velocity P-wave (km/s) = 6.13250 7.60036 6.90554
#
# Compressibility (1/GPa) = 0.02138680
#
# Stress axis : x y z
#
# Youngs Moduli (GPa) = 150.63667 51.73863 142.68386
#
# Poissons Ratio (x) = 0.02429 0.44422
# Poissons Ratio (y) = 0.07071 0.31552
# Poissons Ratio (z) = 0.46898 0.11441
#
# Static dielectric constant tensor:
#      x y z
#    x 3.985580 0.000000 0.190490 
#    y 0.000000 3.777230 0.000000 
#    z 0.190490 0.000000 4.571470 
# 
# 
# High freq. dielectric constant tensor:
#      x y z
#    x 1.847210 0.000000 0.006770 
#    y 0.000000 1.839900 0.000000 
#    z 0.006770 0.000000 1.874450 
# 
# From -- ./inp_files/331826.got.cif
#   From: 2010.06.25/outbox.cif.g09.slc.cpg/sg12_166_cif.got.tgz:331826.got - 2010.06.28 00:19:55.
