data_PCOD8108230
_publ_section_title
;
Structure prediction by ZEFSAII (Michael W. Deem and Ramdas Pophale) SiO2 
 PCOD8108230
Probable space group: C 2/M
;
_chemical_formula_sum "Si O2"
_cell_formula_units_Z 64
_cell_length_a 30.047445
_cell_length_b 8.810846
_cell_length_c 15.489582
_cell_angle_alpha 90.000000
_cell_angle_beta 130.904532
_cell_angle_gamma 90.000000
_cell_volume 3099.364892
_symmetry_space_group_name_H-M "C 2/M"
_symmetry_group_IT_number 12
_symmetry_cell_setting 'monoclinic'
loop_
_space_group_symop_operation_xyz
x,y,z
-x,y,-z
-x,-y,-z
x,-y,z
1/2+x,1/2+y,z
1/2-x,1/2+y,-z
1/2-x,1/2-y,-z
1/2+x,1/2-y,z
loop_
_atom_site_type_symbol
_atom_site_label
_atom_site_fract_x
_atom_site_fract_y
_atom_site_fract_z
Si Si1 0.238210 0.322859 0.576903
Si Si2 0.702056 0.677890 0.002086
Si Si3 0.500660 0.324585 0.762951
Si Si4 0.119768 0.172082 0.468963
Si Si5 0.406890 0.172288 0.220563
Si Si6 0.049366 0.679358 0.995515
Si Si7 0.434744 0.171024 0.443409
Si Si8 0.823411 0.819885 0.837720
O O1 0.247566 0.500000 0.578819
O O2 0.250000 0.250000 0.500000
O O3 0.171512 0.289250 0.517919
O O4 0.281500 0.260857 0.706949
O O5 0.711241 0.500000 0.007565
O O6 0.638137 0.723168 0.887921
O O7 0.750000 0.750000 0.000000
O O8 0.705504 0.731058 0.107057
O O9 0.519431 0.500000 0.792386
O O10 0.430050 0.308149 0.668016
O O11 0.528513 0.244351 0.713874
O O12 0.526961 0.233398 0.875345
O O13 0.091511 0.206474 0.525399
O O14 0.143827 0.000000 0.499399
O O15 0.394019 0.175218 0.306158
O O16 0.403440 0.000000 0.181208
O O17 0.056473 0.500000 0.005739
O O18 0.112475 0.750396 0.097596
O O19 0.000000 0.735447 0.000000
O O20 0.500000 0.219292 0.500000
O O21 0.434444 0.000000 0.482519
O O22 0.830079 0.000000 0.844981
#
# Coordination Sequence:
#
# PCOD8108230 Si02
#       8
#     8   8   8   8   8   8   8   8
#     4  11  26  48  71  95 128 172 221 274 327 386
#     4  11  24  42  64  93 128 170 216 263 321 385
#     4  11  23  40  63  93 130 169 210 262 323 385
#     4  11  25  42  64  96 130 170 221 268 319 383
#     4  11  22  38  62  91 127 167 212 264 320 379
#     4  11  25  42  66 100 129 161 209 262 322 386
#     4  10  21  38  60  90 128 170 209 254 315 377
#     4  10  24  46  69  95 130 171 216 265 326 389
#
# _framework density 20.649393
#
# number of rings (size 3 to 8) (size 9 to 14) (size 15 to 20)
#    0.000    1.250    2.500    2.250    3.500    5.250 
#    0.000    0.000    0.000    0.000    0.000    0.000 
#    0.000    0.000    0.000    0.000    0.000    0.000 
#
# Total GULP energy -396845.610565 kJ/mol
# GULP energy per Si atom -12401.425330 kJ/mol
# Density = 2.060239 g / cm^3
# Si number density = 20.649393 Si / 1000 Ang^3
#
#
#
# Elastic Constant Matrix: (Units=GPa)
#
#
# Indices 1 2 3 4 5 6 
#
# 1 123.7603 38.6798 54.3683 0.0000 3.0222 0.0000
# 2 38.6798 39.0041 29.9053 0.0000 1.9796 0.0000
# 3 54.3683 29.9053 129.2040 0.0000 0.2373 0.0000
# 4 0.0000 0.0000 0.0000 30.5665 0.0000 2.5299
# 5 3.0222 1.9796 0.2373 0.0000 27.5201 0.0000
# 6 0.0000 0.0000 0.0000 2.5299 0.0000 39.1352
#
#
#
# Elastic Compliance Matrix: (Units=1/GPa)
#
#
# Indices 1 2 3 4 5 6 
#
# 1 0.012565 -0.010183 -0.002929 0.000000 -0.000622 0.000000
# 2 -0.010183 0.039554 -0.004867 0.000000 -0.001685 0.000000
# 3 -0.002929 -0.004867 0.010098 0.000000 0.000585 0.000000
# 4 0.000000 0.000000 0.000000 0.032892 0.000000 -0.002126
# 5 -0.000622 -0.001685 0.000585 0.000000 0.036522 0.000000
# 6 0.000000 0.000000 0.000000 -0.002126 0.000000 0.025690
#
#
# Mechanical properties :
#
#
# Convention : Reuss Voigt Hill
#
# Bulk Modulus (GPa) = 38.08348 59.76390 48.92369
# Shear Modulus (GPa) = 24.74888 30.71203 27.73045
#
# Velocity S-wave (km/s) = 3.46573 3.86075 3.66856
# Velocity P-wave (km/s) = 5.87350 6.99134 6.45666
#
# Compressibility (1/GPa) = 0.02625811
#
# Stress axis : x y z
#
# Youngs Moduli (GPa) = 79.58892 25.28214 99.03251
#
# Poissons Ratio (x) = 0.25744 0.29007
# Poissons Ratio (y) = 0.81043 0.48200
# Poissons Ratio (z) = 0.23312 0.12305
#
# Static dielectric constant tensor:
#      x y z
#    x 4.983210 0.000000 0.056630 
#    y 0.000000 3.716740 0.000000 
#    z 0.056630 0.000000 3.954060 
# 
# 
# High freq. dielectric constant tensor:
#      x y z
#    x 1.810450 0.000000 -0.001870 
#    y 0.000000 1.811070 0.000000 
#    z -0.001870 0.000000 1.819040 
# 
# From -- ./inp_files/249988.got.cif
#   From: 2010.06.25/outbox.cif.g09.slc.cpg/sg12_125_cif.got.tgz:249988.got - 2010.06.28 00:19:55.
