data_PCOD8108078
_publ_section_title
;
Structure prediction by ZEFSAII (Michael W. Deem and Ramdas Pophale) SiO2 
 PCOD8108078
Probable space group: C 2/M
;
_chemical_formula_sum "Si O2"
_cell_formula_units_Z 28
_cell_length_a 8.857265
_cell_length_b 5.236963
_cell_length_c 32.110355
_cell_angle_alpha 90.000000
_cell_angle_beta 127.979200
_cell_angle_gamma 90.000000
_cell_volume 1174.030900
_symmetry_space_group_name_H-M "C 2/M"
_symmetry_group_IT_number 12
_symmetry_cell_setting 'monoclinic'
loop_
_space_group_symop_operation_xyz
x,y,z
-x,y,-z
-x,-y,-z
x,-y,z
1/2+x,1/2+y,z
1/2-x,1/2+y,-z
1/2-x,1/2-y,-z
1/2+x,1/2-y,z
loop_
_atom_site_type_symbol
_atom_site_label
_atom_site_fract_x
_atom_site_fract_y
_atom_site_fract_z
Si Si1 0.931583 0.000000 0.156750
Si Si2 0.946998 0.000000 0.643719
Si Si3 0.101170 0.000000 0.937842
Si Si4 0.470387 0.000000 0.043476
Si Si5 0.646452 0.000000 0.804449
Si Si6 0.785317 0.500000 0.479250
Si Si7 0.634082 0.000000 0.317789
O O1 0.919644 0.750701 0.182406
O O2 0.128115 0.000000 0.164121
O O3 0.790771 0.000000 0.090969
O O4 0.863031 0.000000 0.583487
O O5 0.871393 0.750963 0.654711
O O6 0.176756 0.000000 0.678854
O O7 0.966389 0.251430 0.918824
O O8 0.234577 0.000000 0.001850
O O9 0.500000 0.000000 0.000000
O O10 0.549316 0.000000 0.742970
O O11 0.750000 0.750000 0.500000
O O12 0.000000 0.500000 0.500000
#
# Coordination Sequence:
#
# PCOD8108078 Si02
#       7
#     4   4   4   4   4   4   4
#     4  12  26  44  69  96 132 168 215 260 338 379
#     4  12  24  42  69  96 130 178 217 270 322 385
#     4  10  23  37  58  89 114 161 200 254 302 387
#     4  10  21  38  60  83 119 152 205 247 308 359
#     4  12  26  45  68  98 130 171 212 278 320 387
#     4  12  24  42  64  97 137 173 219 268 324 383
#     4  12  24  44  67  96 130 168 227 266 326 381
#
# _framework density 23.849459
#
# number of rings (size 3 to 8) (size 9 to 14) (size 15 to 20)
#    0.000    0.571    0.000    8.571    4.000    0.000 
#    0.000    0.000    0.000    0.000    0.000    0.000 
#    0.000    0.000    0.000    0.000    0.000    0.000 
#
# Total GULP energy -173599.673772 kJ/mol
# GULP energy per Si atom -12399.976698 kJ/mol
# Density = 2.379518 g / cm^3
# Si number density = 23.849459 Si / 1000 Ang^3
#
#
#
# Elastic Constant Matrix: (Units=GPa)
#
#
# Indices 1 2 3 4 5 6 
#
# 1 123.2370 64.6086 -0.7346 0.0000 -16.8184 0.0000
# 2 64.6086 278.1945 47.5185 0.0000 -44.2304 0.0000
# 3 -0.7346 47.5185 138.6626 0.0000 -20.5194 0.0000
# 4 0.0000 0.0000 0.0000 37.5673 0.0000 -15.0883
# 5 -16.8184 -44.2304 -20.5194 0.0000 41.6539 0.0000
# 6 0.0000 0.0000 0.0000 -15.0883 0.0000 29.3274
#
#
#
# Elastic Compliance Matrix: (Units=1/GPa)
#
#
# Indices 1 2 3 4 5 6 
#
# 1 0.009489 -0.002038 0.001074 0.000000 0.002196 0.000000
# 2 -0.002038 0.004861 -0.001116 0.000000 0.003789 0.000000
# 3 0.001074 -0.001116 0.008077 0.000000 0.003228 0.000000
# 4 0.000000 0.000000 0.000000 0.033552 0.000000 0.017262
# 5 0.002196 0.003789 0.003228 0.000000 0.030508 0.000000
# 6 0.000000 0.000000 0.000000 0.017262 0.000000 0.042979
#
#
# Mechanical properties :
#
#
# Convention : Reuss Voigt Hill
#
# Bulk Modulus (GPa) = 54.74352 84.76436 69.75394
# Shear Modulus (GPa) = 35.78725 50.28983 43.03854
#
# Velocity S-wave (km/s) = 3.87789 4.59697 4.25266
# Velocity P-wave (km/s) = 6.56158 7.98716 7.30921
#
# Compressibility (1/GPa) = 0.01826700
#
# Stress axis : x y z
#
# Youngs Moduli (GPa) = 105.38527 205.72151 123.80106
#
# Poissons Ratio (x) = 0.41925 -0.13292
# Poissons Ratio (y) = 0.21477 0.13815
# Poissons Ratio (z) = -0.11315 0.22956
#
# Static dielectric constant tensor:
#      x y z
#    x 4.989470 0.000000 1.183460 
#    y 0.000000 5.618160 0.000000 
#    z 1.183460 0.000000 6.574200 
# 
# 
# High freq. dielectric constant tensor:
#      x y z
#    x 1.969390 0.000000 0.001120 
#    y 0.000000 1.974270 0.000000 
#    z 0.001120 0.000000 1.961700 
# 
# From -- ./inp_files/371765.got.cif
#   From: 2010.06.25/outbox.cif.g09.slc.cpg/sg12_186_cif.got.tgz:371765.got - 2010.06.28 00:19:55.
