data_PCOD8108272
_publ_section_title
;
Structure prediction by ZEFSAII (Michael W. Deem and Ramdas Pophale) SiO2 
 PCOD8108272
Probable space group: C 2/M
;
_chemical_formula_sum "Si O2"
_cell_formula_units_Z 64
_cell_length_a 19.901988
_cell_length_b 8.613485
_cell_length_c 31.161959
_cell_angle_alpha 90.000000
_cell_angle_beta 142.752104
_cell_angle_gamma 90.000000
_cell_volume 3233.296264
_symmetry_space_group_name_H-M "C 2/M"
_symmetry_group_IT_number 12
_symmetry_cell_setting 'monoclinic'
loop_
_space_group_symop_operation_xyz
x,y,z
-x,y,-z
-x,-y,-z
x,-y,z
1/2+x,1/2+y,z
1/2-x,1/2+y,-z
1/2-x,1/2-y,-z
1/2+x,1/2-y,z
loop_
_atom_site_type_symbol
_atom_site_label
_atom_site_fract_x
_atom_site_fract_y
_atom_site_fract_z
Si Si1 0.417923 0.683841 0.072553
Si Si2 0.667239 0.683515 0.190132
Si Si3 0.270439 0.316210 0.076004
Si Si4 0.189313 0.681385 0.656133
Si Si5 0.239709 0.819802 0.592468
Si Si6 0.815283 0.183532 0.194051
Si Si7 0.443323 0.179543 0.559783
Si Si8 0.054030 0.818155 0.347634
O O1 0.416742 0.500000 0.069599
O O2 0.543084 0.748057 0.134006
O O3 0.362840 0.742450 0.089025
O O4 0.349711 0.749257 0.997514
O O5 0.668113 0.500000 0.187323
O O6 0.743389 0.739206 0.268187
O O7 0.713681 0.750395 0.169566
O O8 0.262736 0.500000 0.071905
O O9 0.304534 0.253353 0.140087
O O10 0.210046 0.500000 0.657298
O O11 0.233161 0.782565 0.639234
O O12 0.060412 0.718294 0.597665
O O13 0.150974 0.715156 0.522533
O O14 0.362190 0.778408 0.638942
O O15 0.214489 0.000000 0.571467
O O16 0.931468 0.241179 0.272950
O O17 0.809051 0.000000 0.191955
O O18 0.423190 0.285245 0.590981
O O19 0.436959 0.000000 0.570394
O O20 0.069749 0.000000 0.346366
#
# Coordination Sequence:
#
# PCOD8108272 Si02
#       8
#     8   8   8   8   8   8   8   8
#     4   9  19  36  60  87 116 152 193 235 283 338
#     4  10  21  38  61  86 117 155 193 239 289 345
#     4   9  19  37  59  85 117 153 192 234 284 338
#     4  10  22  40  62  87 117 155 195 240 296 351
#     4  12  26  40  59  88 119 153 197 245 294 349
#     4  10  22  38  60  86 116 155 194 239 290 344
#     4  11  22  41  65  87 117 154 195 241 295 353
#     4  11  23  40  62  87 118 155 197 244 296 350
#
# _framework density 19.794042000000001
#
# number of rings (size 3 to 8) (size 9 to 14) (size 15 to 20)
#    0.000    1.750    1.250    2.625    1.750    5.000 
#    0.000    2.500    0.000    0.000    0.000    0.000 
#    0.000    0.000    0.000    0.000    0.000    0.000 
#
# Total GULP energy -396980.760296 kJ/mol
# GULP energy per Si atom -12405.648759 kJ/mol
# Density = 1.974899 g / cm^3
# Si number density = 19.794042 Si / 1000 Ang^3
#
#
#
# Elastic Constant Matrix: (Units=GPa)
#
#
# Indices 1 2 3 4 5 6 
#
# 1 131.2564 26.7150 60.7818 0.0000 2.8197 -0.0003
# 2 26.7150 35.0121 15.3060 0.0000 2.6701 -0.0007
# 3 60.7818 15.3060 117.9016 0.0000 5.8433 -0.0001
# 4 0.0000 0.0000 0.0000 29.1159 0.0000 -1.9134
# 5 2.8197 2.6701 5.8433 0.0000 40.3265 0.0000
# 6 -0.0003 -0.0007 -0.0001 -1.9134 0.0000 33.8874
#
#
#
# Elastic Compliance Matrix: (Units=1/GPa)
#
#
# Indices 1 2 3 4 5 6 
#
# 1 0.011217 -0.006415 -0.004968 0.000000 0.000360 0.000000
# 2 -0.006415 0.034032 -0.001029 0.000000 -0.001656 0.000001
# 3 -0.004968 -0.001029 0.011236 0.000000 -0.001213 0.000000
# 4 0.000000 0.000000 0.000000 0.034473 0.000000 0.001946
# 5 0.000360 -0.001656 -0.001213 0.000000 0.025058 0.000000
# 6 0.000000 0.000001 0.000000 0.001946 0.000000 0.029619
#
#
# Mechanical properties :
#
#
# Convention : Reuss Voigt Hill
#
# Bulk Modulus (GPa) = 31.58301 54.41954 43.00128
# Shear Modulus (GPa) = 27.62229 32.75710 30.18970
#
# Velocity S-wave (km/s) = 3.73967 4.07246 3.90961
# Velocity P-wave (km/s) = 5.88535 7.04739 6.49242
#
# Compressibility (1/GPa) = 0.03166259
#
# Stress axis : x y z
#
# Youngs Moduli (GPa) = 89.15058 29.38400 88.99645
#
# Poissons Ratio (x) = 0.18848 0.44212
# Poissons Ratio (y) = 0.57186 0.09159
# Poissons Ratio (z) = 0.44288 0.03024
#
# Static dielectric constant tensor:
#      x y z
#    x 3.765790 0.000000 0.047510 
#    y 0.000000 3.431510 0.000000 
#    z 0.047510 0.000000 3.765690 
# 
# 
# High freq. dielectric constant tensor:
#      x y z
#    x 1.781620 0.000000 0.001540 
#    y 0.000000 1.761040 0.000000 
#    z 0.001540 0.000000 1.779930 
# 
# From -- ./inp_files/378279.got.cif
#   From: 2010.06.25/outbox.cif.g09.slc.cpg/sg12_190_cif.got.tgz:378279.got - 2010.06.28 00:19:55.
