data_PCOD8108454
_publ_section_title
;
Structure prediction by ZEFSAII (Michael W. Deem and Ramdas Pophale) SiO2 
 PCOD8108454
Probable space group: C 2/M
;
_chemical_formula_sum "Si O2"
_cell_formula_units_Z 56
_cell_length_a 15.674893
_cell_length_b 21.590651
_cell_length_c 8.423923
_cell_angle_alpha 90.000000
_cell_angle_beta 71.165944
_cell_angle_gamma 90.000000
_cell_volume 2698.272747
_symmetry_space_group_name_H-M "C 2/M"
_symmetry_group_IT_number 12
_symmetry_cell_setting 'monoclinic'
loop_
_space_group_symop_operation_xyz
x,y,z
-x,y,-z
-x,-y,-z
x,-y,z
1/2+x,1/2+y,z
1/2-x,1/2+y,-z
1/2-x,1/2-y,-z
1/2+x,1/2-y,z
loop_
_atom_site_type_symbol
_atom_site_label
_atom_site_fract_x
_atom_site_fract_y
_atom_site_fract_z
Si Si1 0.394308 0.855978 0.909300
Si Si2 0.765148 0.928355 0.518113
Si Si3 0.347910 0.232175 0.497207
Si Si4 0.751751 0.147482 0.225153
Si Si5 0.910681 0.210765 0.951377
Si Si6 0.907987 0.147507 0.616166
Si Si7 0.588601 0.872844 0.739434
O O1 0.302839 0.884084 0.887209
O O2 0.398432 0.781049 0.902528
O O3 0.482767 0.886685 0.772414
O O4 0.389675 0.879150 0.090327
O O5 0.791859 0.900690 0.329338
O O6 0.821928 0.894926 0.623661
O O7 0.657703 0.918249 0.606965
O O8 0.789475 0.000000 0.504838
O O9 0.250000 0.250000 0.500000
O O10 0.332474 0.186336 0.653061
O O11 0.406318 0.290469 0.511482
O O12 0.398394 0.198381 0.322761
O O13 0.829479 0.192397 0.117126
O O14 0.908374 0.163609 0.802523
O O15 0.000000 0.200868 0.000000
O O16 0.000000 0.113998 0.500000
#
# Coordination Sequence:
#
# PCOD8108454 Si02
#       7
#     8   8   8   8   8   8   8
#     4  11  21  35  62  98 136 162 191 256 330 394
#     4  11  26  47  65  83 122 176 231 274 301 355
#     4  11  20  33  57  90 128 160 197 251 317 392
#     4  11  23  37  60  93 128 167 209 257 319 379
#     4  12  23  36  61 100 141 163 192 250 328 404
#     4  12  24  38  64  95 127 168 212 257 323 387
#     4  10  21  38  61  93 131 166 204 253 319 386
#
# _framework density 20.754017000000001
#
# number of rings (size 3 to 8) (size 9 to 14) (size 15 to 20)
#    0.000    0.857    5.714    3.857    0.000    2.000 
#    0.000    5.714    0.000    1.714    0.000    0.000 
#    0.000    0.000    0.000    0.000    0.000    0.000 
#
# Total GULP energy -347072.397683 kJ/mol
# GULP energy per Si atom -12395.442774 kJ/mol
# Density = 2.070678 g / cm^3
# Si number density = 20.754017 Si / 1000 Ang^3
#
#
#
# Elastic Constant Matrix: (Units=GPa)
#
#
# Indices 1 2 3 4 5 6 
#
# 1 108.4999 11.4224 22.3268 0.0000 14.0664 0.0000
# 2 11.4224 68.7084 9.6034 0.0000 8.7596 0.0000
# 3 22.3268 9.6034 62.5137 0.0000 -1.6922 0.0000
# 4 0.0000 0.0000 0.0000 15.7731 0.0000 -2.6594
# 5 14.0664 8.7596 -1.6922 0.0000 39.7325 0.0000
# 6 0.0000 0.0000 0.0000 -2.6594 0.0000 11.9872
#
#
#
# Elastic Compliance Matrix: (Units=1/GPa)
#
#
# Indices 1 2 3 4 5 6 
#
# 1 0.010552 -0.000754 -0.003754 0.000000 -0.003729 0.000000
# 2 -0.000754 0.015395 -0.002183 0.000000 -0.003220 0.000000
# 3 -0.003754 -0.002183 0.017742 0.000000 0.002566 0.000000
# 4 0.000000 0.000000 0.000000 0.065863 0.000000 0.014612
# 5 -0.003729 -0.003220 0.002566 0.000000 0.027308 0.000000
# 6 0.000000 0.000000 0.000000 0.014612 0.000000 0.086664
#
#
# Mechanical properties :
#
#
# Convention : Reuss Voigt Hill
#
# Bulk Modulus (GPa) = 32.99490 36.26969 34.63230
# Shear Modulus (GPa) = 20.24231 26.58986 23.41609
#
# Velocity S-wave (km/s) = 3.12644 3.58326 3.36261
# Velocity P-wave (km/s) = 5.38195 5.88503 5.63910
#
# Compressibility (1/GPa) = 0.03030771
#
# Stress axis : x y z
#
# Youngs Moduli (GPa) = 94.76961 64.95514 56.36364
#
# Poissons Ratio (x) = 0.04898 0.21157
# Poissons Ratio (y) = 0.07147 0.12303
# Poissons Ratio (z) = 0.35574 0.14179
#
# Static dielectric constant tensor:
#      x y z
#    x 3.990880 0.000000 0.029290 
#    y 0.000000 3.222640 0.000000 
#    z 0.029290 0.000000 4.481880 
# 
# 
# High freq. dielectric constant tensor:
#      x y z
#    x 1.831670 0.000000 0.003790 
#    y 0.000000 1.748960 0.000000 
#    z 0.003790 0.000000 1.828940 
# 
# From -- ./inp_files/65284.got.cif
#   From: 2010.06.25/outbox.cif.g09.slc.cpg/sg12_33_cif.got.tgz:65284.got - 2010.06.28 00:19:55.
