data_PCOD8108508
_publ_section_title
;
Structure prediction by ZEFSAII (Michael W. Deem and Ramdas Pophale) SiO2 
 PCOD8108508
Probable space group: C 2/M
;
_chemical_formula_sum "Si O2"
_cell_formula_units_Z 56
_cell_length_a 12.522297
_cell_length_b 14.723497
_cell_length_c 28.685428
_cell_angle_alpha 90.000000
_cell_angle_beta 27.743332
_cell_angle_gamma 90.000000
_cell_volume 2461.992597
_symmetry_space_group_name_H-M "C 2/M"
_symmetry_group_IT_number 12
_symmetry_cell_setting 'monoclinic'
loop_
_space_group_symop_operation_xyz
x,y,z
-x,y,-z
-x,-y,-z
x,-y,z
1/2+x,1/2+y,z
1/2-x,1/2+y,-z
1/2-x,1/2-y,-z
1/2+x,1/2-y,z
loop_
_atom_site_type_symbol
_atom_site_label
_atom_site_fract_x
_atom_site_fract_y
_atom_site_fract_z
Si Si1 0.853094 0.713207 0.103543
Si Si2 0.091853 0.394851 0.827446
Si Si3 0.738049 0.597713 0.885067
Si Si4 0.650512 0.280272 0.693431
Si Si5 0.385529 0.599053 0.376478
Si Si6 0.599209 0.161799 0.565983
Si Si7 0.739732 0.104145 0.609995
O O1 0.968135 0.662869 0.102853
O O2 0.817051 0.820688 0.129738
O O3 0.592781 0.677408 0.196278
O O4 0.000000 0.697367 0.000000
O O5 0.049532 0.500000 0.855771
O O6 0.352889 0.375731 0.709773
O O7 0.919663 0.363592 0.853216
O O8 0.824365 0.500000 0.829523
O O9 0.500000 0.573453 0.000000
O O10 0.714977 0.324039 0.618531
O O11 0.644441 0.169661 0.688145
O O12 0.835775 0.312802 0.658905
O O13 0.387379 0.500000 0.351187
O O14 0.215258 0.589668 0.486276
O O15 0.750000 0.250000 0.500000
O O16 0.597033 0.120338 0.618251
O O17 0.000000 0.132228 0.500000
O O18 0.720263 0.000000 0.634507
#
# Coordination Sequence:
#
# PCOD8108508 Si02
#       7
#     8   8   8   8   8   8   8
#     4  10  23  39  63  89 116 157 204 251 301 353
#     4   9  20  39  62  88 121 158 198 244 300 358
#     4   9  19  36  59  86 114 149 198 248 291 346
#     4  11  23  40  61  87 123 155 200 252 295 347
#     4  10  21  38  62  89 119 159 198 238 295 363
#     4  12  22  37  60  88 122 158 190 240 292 353
#     4  11  23  39  59  89 126 163 197 238 297 361
#
# _framework density 22.745802999999999
#
# number of rings (size 3 to 8) (size 9 to 14) (size 15 to 20)
#    0.000    1.714    2.857    0.857    2.000    4.857 
#    0.000    0.000    0.000    4.286    0.000    0.000 
#    0.000    0.000    0.000    0.000    0.000    0.000 
#
# Total GULP energy -347020.367889 kJ/mol
# GULP energy per Si atom -12393.584567 kJ/mol
# Density = 2.269403 g / cm^3
# Si number density = 22.745803 Si / 1000 Ang^3
#
#
#
# Elastic Constant Matrix: (Units=GPa)
#
#
# Indices 1 2 3 4 5 6 
#
# 1 96.6403 38.2391 35.3255 0.0116 -11.6194 0.0014
# 2 38.2391 109.3618 1.5987 -0.0208 0.1878 0.0020
# 3 35.3255 1.5987 101.4657 -0.0403 -0.0458 -0.0428
# 4 0.0116 -0.0208 -0.0403 25.3186 0.0064 6.9225
# 5 -11.6194 0.1878 -0.0458 0.0064 35.6306 0.0101
# 6 0.0014 0.0020 -0.0428 6.9225 0.0101 47.1141
#
#
#
# Elastic Compliance Matrix: (Units=1/GPa)
#
#
# Indices 1 2 3 4 5 6 
#
# 1 0.014808 -0.005112 -0.005073 -0.000019 0.004849 -0.000003
# 2 -0.005112 0.010911 0.001607 0.000014 -0.001722 -0.000001
# 3 -0.005073 0.001607 0.011596 0.000020 -0.001648 0.000008
# 4 -0.000019 0.000014 0.000020 0.041150 -0.000012 -0.006046
# 5 0.004849 -0.001722 -0.001648 -0.000012 0.029654 -0.000006
# 6 -0.000003 -0.000001 0.000008 -0.006046 -0.000006 0.022113
#
#
# Mechanical properties :
#
#
# Convention : Reuss Voigt Hill
#
# Bulk Modulus (GPa) = 49.60511 50.86605 50.23558
# Shear Modulus (GPa) = 32.44528 37.09962 34.77245
#
# Velocity S-wave (km/s) = 3.78091 4.04301 3.91415
# Velocity P-wave (km/s) = 6.39657 6.64876 6.52388
#
# Compressibility (1/GPa) = 0.02015921
#
# Stress axis : x y z
#
# Youngs Moduli (GPa) = 67.53322 91.65246 86.24026
#
# Poissons Ratio (x) = 0.46850 0.43746
# Poissons Ratio (y) = 0.34521 -0.13859
# Poissons Ratio (z) = 0.34257 -0.14728
#
# Static dielectric constant tensor:
#      x y z
#    x 3.931930 -0.000020 -0.180970 
#    y -0.000020 4.370090 0.000040 
#    z -0.180970 0.000040 4.333640 
# 
# 
# High freq. dielectric constant tensor:
#      x y z
#    x 1.873870 0.000000 -0.015490 
#    y 0.000000 1.908330 0.000000 
#    z -0.015490 0.000000 1.903430 
# 
# From -- ./inp_files/374215.got.cif
#   From: 2010.06.25/outbox.cif.g09.slc.cpg/sg12_188_cif.got.tgz:374215.got - 2010.06.28 00:19:55.
