data_PCOD8108676
_publ_section_title
;
Structure prediction by ZEFSAII (Michael W. Deem and Ramdas Pophale) SiO2 
 PCOD8108676
Probable space group: C 2/M
;
_chemical_formula_sum "Si O2"
_cell_formula_units_Z 48
_cell_length_a 18.869681
_cell_length_b 7.739610
_cell_length_c 15.513962
_cell_angle_alpha 90.000000
_cell_angle_beta 94.963492
_cell_angle_gamma 90.000000
_cell_volume 2257.224244
_symmetry_space_group_name_H-M "C 2/M"
_symmetry_group_IT_number 12
_symmetry_cell_setting 'monoclinic'
loop_
_space_group_symop_operation_xyz
x,y,z
-x,y,-z
-x,-y,-z
x,-y,z
1/2+x,1/2+y,z
1/2-x,1/2+y,-z
1/2-x,1/2-y,-z
1/2+x,1/2-y,z
loop_
_atom_site_type_symbol
_atom_site_label
_atom_site_fract_x
_atom_site_fract_y
_atom_site_fract_z
Si Si1 0.461570 0.294878 0.082850
Si Si2 0.956068 0.000000 0.626985
Si Si3 0.198771 0.797087 0.917041
Si Si4 0.221758 0.299309 0.241564
Si Si5 0.709835 0.194509 0.581559
Si Si6 0.107657 0.000000 0.556814
Si Si7 0.937489 0.694148 0.755834
O O1 0.464762 0.500000 0.092417
O O2 0.380511 0.224268 0.074770
O O3 0.501786 0.210869 0.166790
O O4 0.500000 0.232192 0.000000
O O5 0.895156 0.000000 0.547586
O O6 0.949844 0.173452 0.680560
O O7 0.031600 0.000000 0.590636
O O8 0.231150 0.721104 0.831607
O O9 0.194820 0.000000 0.907513
O O10 0.250000 0.750000 0.000000
O O11 0.239064 0.500000 0.258218
O O12 0.237459 0.197907 0.331280
O O13 0.139138 0.269513 0.208693
O O14 0.750000 0.250000 0.500000
O O15 0.645974 0.326389 0.593209
O O16 0.680189 0.000000 0.567113
O O17 0.939680 0.500000 0.717561
#
# Coordination Sequence:
#
# PCOD8108676 Si02
#       7
#     8   4   8   8   8   4   8
#     4  10  21  38  63  94 132 180 223 268 332 401
#     4  11  26  46  69  92 138 177 213 281 337 393
#     4  10  22  39  62  92 135 173 217 279 331 386
#     4  10  22  40  63  96 133 174 226 281 330 395
#     4  12  24  41  70 101 134 174 225 277 332 397
#     4  11  26  46  68  98 134 176 219 275 341 393
#     4  11  24  41  68  96 131 176 226 270 331 402
#
# _framework density 21.265056000000001
#
# number of rings (size 3 to 8) (size 9 to 14) (size 15 to 20)
#    0.000    1.333    2.500    2.000    3.500    4.333 
#    0.000    1.667    0.000    0.000    0.000    0.000 
#    0.000    0.000    0.000    0.000    0.000    0.000 
#
# Total GULP energy -297675.361081 kJ/mol
# GULP energy per Si atom -12403.140045 kJ/mol
# Density = 2.121666 g / cm^3
# Si number density = 21.265056 Si / 1000 Ang^3
#
#
#
# Elastic Constant Matrix: (Units=GPa)
#
#
# Indices 1 2 3 4 5 6 
#
# 1 151.2403 40.3690 70.1602 0.0000 4.1087 0.0000
# 2 40.3690 111.1081 35.2591 0.0000 -0.9082 0.0000
# 3 70.1602 35.2591 145.3322 0.0000 -2.7731 0.0000
# 4 0.0000 0.0000 0.0000 2.1699 0.0000 -2.8787
# 5 4.1087 -0.9082 -2.7731 0.0000 39.6992 0.0000
# 6 0.0000 0.0000 0.0000 -2.8787 0.0000 19.7384
#
#
#
# Elastic Compliance Matrix: (Units=1/GPa)
#
#
# Indices 1 2 3 4 5 6 
#
# 1 0.008985 -0.002048 -0.003865 0.000000 -0.001247 0.000000
# 2 -0.002048 0.010218 -0.001484 0.000000 0.000342 0.000000
# 3 -0.003865 -0.001484 0.009126 0.000000 0.001003 0.000000
# 4 0.000000 0.000000 0.000000 0.571408 0.000000 0.083337
# 5 -0.001247 0.000342 0.001003 0.000000 0.025396 0.000000
# 6 0.000000 0.000000 0.000000 0.083337 0.000000 0.062817
#
#
# Mechanical properties :
#
#
# Convention : Reuss Voigt Hill
#
# Bulk Modulus (GPa) = 73.87827 77.69524 75.78675
# Shear Modulus (GPa) = 7.06958 29.78099 18.42528
#
# Velocity S-wave (km/s) = 1.82530 3.74634 2.94676
# Velocity P-wave (km/s) = 6.26573 7.43837 6.87709
#
# Compressibility (1/GPa) = 0.01353578
#
# Stress axis : x y z
#
# Youngs Moduli (GPa) = 111.29135 97.86537 109.58274
#
# Poissons Ratio (x) = 0.20048 0.42349
# Poissons Ratio (y) = 0.22798 0.16257
# Poissons Ratio (z) = 0.43010 0.14519
#
# Static dielectric constant tensor:
#      x y z
#    x 4.064510 0.000000 -0.024210 
#    y 0.000000 4.031010 0.000000 
#    z -0.024210 0.000000 3.946740 
# 
# 
# High freq. dielectric constant tensor:
#      x y z
#    x 1.842760 0.000000 0.002780 
#    y 0.000000 1.832720 0.000000 
#    z 0.002780 0.000000 1.839880 
# 
# From -- ./inp_files/221781.got.cif
#   From: 2010.06.25/outbox.cif.g09.slc.cpg/sg12_111_cif.got.tgz:221781.got - 2010.06.28 00:19:55.
