data_PCOD8108813
_publ_section_title
;
Structure prediction by ZEFSAII (Michael W. Deem and Ramdas Pophale) SiO2 
 PCOD8108813
Probable space group: C 2/M
;
_chemical_formula_sum "Si O2"
_cell_formula_units_Z 52
_cell_length_a 11.182527
_cell_length_b 30.077802
_cell_length_c 11.182143
_cell_angle_alpha 90.000000
_cell_angle_beta 139.555543
_cell_angle_gamma 90.000000
_cell_volume 2439.844159
_symmetry_space_group_name_H-M "C 2/M"
_symmetry_group_IT_number 12
_symmetry_cell_setting 'monoclinic'
loop_
_space_group_symop_operation_xyz
x,y,z
-x,y,-z
-x,-y,-z
x,-y,z
1/2+x,1/2+y,z
1/2-x,1/2+y,-z
1/2-x,1/2-y,-z
1/2+x,1/2-y,z
loop_
_atom_site_type_symbol
_atom_site_label
_atom_site_fract_x
_atom_site_fract_y
_atom_site_fract_z
Si Si1 0.549023 0.584667 0.665667
Si Si2 0.107148 0.449604 0.964106
Si Si3 0.335240 0.317635 0.292315
Si Si4 0.771869 0.874202 0.637199
Si Si5 0.603446 0.689437 0.921766
Si Si6 0.890401 0.380379 0.241887
Si Si7 0.000000 0.266870 0.000000
O O1 0.500000 0.562231 0.500000
O O2 0.676674 0.551927 0.838780
O O3 0.662495 0.629172 0.717314
O O4 0.376162 0.594499 0.620762
O O5 0.048876 0.500000 0.889562
O O6 0.066242 0.420622 0.815526
O O7 0.000000 0.431832 0.000000
O O8 0.500000 0.300246 0.500000
O O9 0.364286 0.295197 0.187294
O O10 0.136217 0.298670 0.182475
O O11 0.585568 0.857955 0.428319
O O12 0.713526 0.898758 0.717012
O O13 0.900724 0.833224 0.776524
O O14 0.616607 0.734679 0.004138
O O15 0.763611 0.655520 0.080755
#
# Coordination Sequence:
#
# PCOD8108813 Si02
#       7
#     8   8   8   8   8   8   4
#     4  10  21  41  65  94 132 171 219 258 318 390
#     4  11  24  41  66 100 133 165 210 267 320 384
#     4  10  24  39  58  92 127 167 215 264 318 376
#     4  10  21  38  68  96 120 175 217 259 313 390
#     4  11  22  42  64  90 129 164 221 264 314 390
#     4  11  21  41  69  91 129 171 213 264 329 377
#     4  12  24  38  64  92 128 166 218 270 318 372
#
# _framework density 21.312836000000001
#
# number of rings (size 3 to 8) (size 9 to 14) (size 15 to 20)
#    0.000    1.385    4.615    1.385    1.077    5.846 
#    0.000    3.846    0.000    0.000    0.000    0.000 
#    0.000    0.000    0.000    0.000    0.000    0.000 
#
# Total GULP energy -322186.497988 kJ/mol
# GULP energy per Si atom -12391.788384 kJ/mol
# Density = 2.126433 g / cm^3
# Si number density = 21.312836 Si / 1000 Ang^3
#
#
#
# Elastic Constant Matrix: (Units=GPa)
#
#
# Indices 1 2 3 4 5 6 
#
# 1 112.1096 31.9833 41.1909 0.0000 -7.4542 0.0000
# 2 31.9833 67.6981 42.8100 0.0000 3.5484 0.0000
# 3 41.1909 42.8100 156.9888 0.0000 10.4208 0.0000
# 4 0.0000 0.0000 0.0000 18.2547 0.0000 -1.7463
# 5 -7.4542 3.5484 10.4208 0.0000 40.9664 0.0000
# 6 0.0000 0.0000 0.0000 -1.7463 0.0000 29.3433
#
#
#
# Elastic Compliance Matrix: (Units=1/GPa)
#
#
# Indices 1 2 3 4 5 6 
#
# 1 0.011001 -0.004111 -0.001955 0.000000 0.002855 0.000000
# 2 -0.004111 0.019389 -0.004117 0.000000 -0.001380 0.000000
# 3 -0.001955 -0.004117 0.008143 0.000000 -0.002070 0.000000
# 4 0.000000 0.000000 0.000000 0.055094 0.000000 0.003279
# 5 0.002855 -0.001380 -0.002070 0.000000 0.025576 0.000000
# 6 0.000000 0.000000 0.000000 0.003279 0.000000 0.034274
#
#
# Mechanical properties :
#
#
# Convention : Reuss Voigt Hill
#
# Bulk Modulus (GPa) = 55.04314 63.19611 59.11963
# Shear Modulus (GPa) = 27.79342 32.43372 30.11357
#
# Velocity S-wave (km/s) = 3.61511 3.90525 3.76298
# Velocity P-wave (km/s) = 6.58086 7.07465 6.83222
#
# Compressibility (1/GPa) = 0.01816757
#
# Stress axis : x y z
#
# Youngs Moduli (GPa) = 90.90381 51.57456 122.80473
#
# Poissons Ratio (x) = 0.21200 0.24008
# Poissons Ratio (y) = 0.37366 0.50562
# Poissons Ratio (z) = 0.17771 0.21235
#
# Static dielectric constant tensor:
#      x y z
#    x 4.373470 0.000000 0.204900 
#    y 0.000000 3.423940 0.000000 
#    z 0.204900 0.000000 4.649860 
# 
# 
# High freq. dielectric constant tensor:
#      x y z
#    x 1.852240 0.000000 -0.002140 
#    y 0.000000 1.793400 0.000000 
#    z -0.002140 0.000000 1.854440 
# 
# From -- ./inp_files/137639.got.cif
#   From: 2010.06.25/outbox.cif.g09.slc.cpg/sg12_69_cif.got.tgz:137639.got - 2010.06.28 00:19:55.
