data_PCOD8108518
_publ_section_title
;
Structure prediction by ZEFSAII (Michael W. Deem and Ramdas Pophale) SiO2 
 PCOD8108518
Probable space group: C 2/M
;
_chemical_formula_sum "Si O2"
_cell_formula_units_Z 64
_cell_length_a 24.183052
_cell_length_b 8.919519
_cell_length_c 31.563590
_cell_angle_alpha 90.000000
_cell_angle_beta 151.828874
_cell_angle_gamma 90.000000
_cell_volume 3214.245075
_symmetry_space_group_name_H-M "C 2/M"
_symmetry_group_IT_number 12
_symmetry_cell_setting 'monoclinic'
loop_
_space_group_symop_operation_xyz
x,y,z
-x,y,-z
-x,-y,-z
x,-y,z
1/2+x,1/2+y,z
1/2-x,1/2+y,-z
1/2-x,1/2-y,-z
1/2+x,1/2-y,z
loop_
_atom_site_type_symbol
_atom_site_label
_atom_site_fract_x
_atom_site_fract_y
_atom_site_fract_z
Si Si1 0.139331 0.671178 0.473107
Si Si2 0.947158 0.326057 0.189154
Si Si3 0.535460 0.826775 0.570925
Si Si4 0.905947 0.826528 0.642005
Si Si5 0.228045 0.676760 0.244668
Si Si6 0.692531 0.673937 0.046582
Si Si7 0.632628 0.823024 0.090152
Si Si8 0.477371 0.677600 0.844862
O O1 0.121536 0.500000 0.445983
O O2 0.085326 0.779669 0.401187
O O3 0.276231 0.705154 0.572369
O O4 0.076390 0.702558 0.474991
O O5 0.974327 0.500000 0.199629
O O6 0.808429 0.295769 0.097506
O O7 0.001610 0.229005 0.188606
O O8 0.003825 0.274689 0.271367
O O9 0.500000 0.777087 0.500000
O O10 0.639630 0.723019 0.657349
O O11 0.575340 0.000000 0.599029
O O12 0.941207 0.000000 0.669952
O O13 0.212835 0.500000 0.239063
O O14 0.194213 0.731436 0.174751
O O15 0.144866 0.755539 0.222448
O O16 0.676127 0.500000 0.045390
O O17 0.703916 0.757263 0.098937
O O18 0.582360 0.737279 0.945661
O O19 0.634278 0.000000 0.087059
O O20 0.500000 0.761146 0.000000
O O21 0.469916 0.500000 0.840456
#
# Coordination Sequence:
#
# PCOD8108518 Si02
#       8
#     8   8   8   8   8   8   8   8
#     4   9  20  40  62  86 120 156 197 250 304 356
#     4  11  24  40  60  90 124 158 199 251 307 361
#     4  10  23  42  65  91 122 163 205 254 310 366
#     4  10  21  38  62  90 117 156 203 248 300 361
#     4  11  24  41  62  93 126 163 206 255 310 366
#     4  10  23  40  61  89 122 160 205 250 299 357
#     4  10  21  39  62  89 125 164 203 249 305 362
#     4  11  23  41  63  88 119 162 208 250 299 362
#
# _framework density 19.911362
#
# number of rings (size 3 to 8) (size 9 to 14) (size 15 to 20)
#    0.000    1.750    1.250    1.875    3.500    4.000 
#    0.000    0.000    0.000    0.000    0.000    0.000 
#    0.000    0.000    0.000    0.000    0.000    0.000 
#
# Total GULP energy -397010.964445 kJ/mol
# GULP energy per Si atom -12406.592639 kJ/mol
# Density = 1.986604 g / cm^3
# Si number density = 19.911362 Si / 1000 Ang^3
#
#
#
# Elastic Constant Matrix: (Units=GPa)
#
#
# Indices 1 2 3 4 5 6 
#
# 1 108.7395 29.4489 25.5913 -0.0021 -8.0087 0.0000
# 2 29.4489 57.1128 27.2536 -0.0017 -0.3067 -0.0003
# 3 25.5913 27.2536 89.9314 -0.0082 -6.5144 -0.0008
# 4 -0.0021 -0.0017 -0.0082 33.3026 -0.0006 -1.7628
# 5 -8.0087 -0.3067 -6.5144 -0.0006 27.4540 0.0001
# 6 0.0000 -0.0003 -0.0008 -1.7628 0.0001 35.9912
#
#
#
# Elastic Compliance Matrix: (Units=1/GPa)
#
#
# Indices 1 2 3 4 5 6 
#
# 1 0.011104 -0.005028 -0.001430 0.000000 0.002844 0.000000
# 2 -0.005028 0.022789 -0.005661 -0.000001 -0.002555 0.000000
# 3 -0.001430 -0.005661 0.013438 0.000003 0.002708 0.000000
# 4 0.000000 -0.000001 0.000003 0.030106 0.000001 0.001475
# 5 0.002844 -0.002555 0.002708 0.000001 0.037868 0.000000
# 6 0.000000 0.000000 0.000000 0.001475 0.000000 0.027857
#
#
# Mechanical properties :
#
#
# Convention : Reuss Voigt Hill
#
# Bulk Modulus (GPa) = 43.30087 46.70792 45.00440
# Shear Modulus (GPa) = 28.55561 30.91556 29.73559
#
# Velocity S-wave (km/s) = 3.79111 3.94465 3.86864
# Velocity P-wave (km/s) = 6.39979 6.65251 6.52738
#
# Compressibility (1/GPa) = 0.02309422
#
# Stress axis : x y z
#
# Youngs Moduli (GPa) = 90.05823 43.88059 74.41486
#
# Poissons Ratio (x) = 0.22062 0.10642
# Poissons Ratio (y) = 0.45279 0.42123
# Poissons Ratio (z) = 0.12880 0.24839
#
# Static dielectric constant tensor:
#      x y z
#    x 3.623680 0.000000 0.007920 
#    y 0.000000 3.557060 0.000000 
#    z 0.007920 0.000000 3.658090 
# 
# 
# High freq. dielectric constant tensor:
#      x y z
#    x 1.785690 0.000000 -0.000100 
#    y 0.000000 1.775580 0.000000 
#    z -0.000100 0.000000 1.779970 
# 
# From -- ./inp_files/382548.got.cif
#   From: 2010.06.25/outbox.cif.g09.slc.cpg/sg12_192_cif.got.tgz:382548.got - 2010.06.28 00:19:55.
