data_PCOD8108402
_publ_section_title
;
Structure prediction by ZEFSAII (Michael W. Deem and Ramdas Pophale) SiO2 
 PCOD8108402
Probable space group: C 2/M
;
_chemical_formula_sum "Si O2"
_cell_formula_units_Z 64
_cell_length_a 20.922745
_cell_length_b 27.040979
_cell_length_c 17.408440
_cell_angle_alpha 90.000000
_cell_angle_beta 161.631512
_cell_angle_gamma 90.000000
_cell_volume 3103.749813
_symmetry_space_group_name_H-M "C 2/M"
_symmetry_group_IT_number 12
_symmetry_cell_setting 'monoclinic'
loop_
_space_group_symop_operation_xyz
x,y,z
-x,y,-z
-x,-y,-z
x,-y,z
1/2+x,1/2+y,z
1/2-x,1/2+y,-z
1/2-x,1/2-y,-z
1/2+x,1/2-y,z
loop_
_atom_site_type_symbol
_atom_site_label
_atom_site_fract_x
_atom_site_fract_y
_atom_site_fract_z
Si Si1 0.589142 0.313312 0.248869
Si Si2 0.052048 0.373856 0.379805
Si Si3 0.739781 0.555074 0.274186
Si Si4 0.310077 0.141708 0.244505
Si Si5 0.370727 0.636964 0.539750
Si Si6 0.458265 0.056205 0.862799
Si Si7 0.467699 0.789579 0.876817
Si Si8 0.798100 0.370165 0.942213
O O1 0.791616 0.328170 0.434432
O O2 0.578028 0.342146 0.317112
O O3 0.577124 0.253746 0.236716
O O4 0.397341 0.329675 0.978560
O O5 0.171351 0.422765 0.544561
O O6 0.852485 0.363619 0.202495
O O7 0.978767 0.376621 0.209702
O O8 0.827577 0.500000 0.365065
O O9 0.808912 0.587523 0.280977
O O10 0.500000 0.554169 0.000000
O O11 0.500000 0.171112 0.500000
O O12 0.247110 0.585164 0.397951
O O13 0.230193 0.676907 0.338360
O O14 0.575378 0.631277 0.723712
O O15 0.665781 0.080584 0.066478
O O16 0.435005 0.000000 0.806736
O O17 0.500000 0.058068 0.000000
O O18 0.655515 0.821303 0.056208
O O19 0.500000 0.768877 0.000000
#
# Coordination Sequence:
#
# PCOD8108402 Si02
#       8
#     8   8   8   8   8   8   8   8
#     4  12  23  43  64  92 130 172 216 268 319 382
#     4  11  22  38  64  88 123 168 215 266 322 376
#     4  10  21  38  61  89 127 173 217 264 318 377
#     4  10  23  38  60  92 126 168 219 265 316 379
#     4  11  23  44  69  95 131 164 215 271 323 384
#     4  10  23  44  70  99 132 170 212 264 327 389
#     4  11  27  42  64  95 130 171 214 265 324 388
#     4  11  23  43  67  96 129 166 213 272 324 379
#
# _framework density 20.620218999999999
#
# number of rings (size 3 to 8) (size 9 to 14) (size 15 to 20)
#    0.000    1.250    5.000    1.875    3.500    6.750 
#    0.000    1.875    0.000    0.000    0.000    0.000 
#    0.000    0.000    0.000    0.000    0.000    0.000 
#
# Total GULP energy -396555.586778 kJ/mol
# GULP energy per Si atom -12392.362087 kJ/mol
# Density = 2.057329 g / cm^3
# Si number density = 20.620219 Si / 1000 Ang^3
#
#
#
# Elastic Constant Matrix: (Units=GPa)
#
#
# Indices 1 2 3 4 5 6 
#
# 1 95.7309 41.9341 21.0135 0.0240 13.1185 -0.0346
# 2 41.9341 144.5565 35.0305 -0.0289 18.5475 0.0419
# 3 21.0135 35.0305 85.1110 0.0805 23.8438 -0.1139
# 4 0.0240 -0.0289 0.0805 51.0106 0.0413 -62.6308
# 5 13.1185 18.5475 23.8438 0.0413 39.7358 -0.0596
# 6 -0.0346 0.0419 -0.1139 -62.6308 -0.0596 108.8775
#
#
#
# Elastic Compliance Matrix: (Units=1/GPa)
#
#
# Indices 1 2 3 4 5 6 
#
# 1 0.012306 -0.003020 -0.001265 -0.000002 -0.001894 0.000001
# 2 -0.003020 0.008564 -0.002330 0.000007 -0.001602 -0.000004
# 3 -0.001265 -0.002330 0.015145 -0.000012 -0.007583 0.000005
# 4 -0.000002 0.000007 -0.000012 0.066743 -0.000007 0.038393
# 5 -0.001894 -0.001602 -0.007583 -0.000007 0.031089 0.000005
# 6 0.000001 -0.000004 0.000005 0.038393 0.000005 0.031270
#
#
# Mechanical properties :
#
#
# Convention : Reuss Voigt Hill
#
# Bulk Modulus (GPa) = 43.88905 57.92826 50.90866
# Shear Modulus (GPa) = 26.88998 55.08615 40.98807
#
# Velocity S-wave (km/s) = 3.61509 5.17423 4.46327
# Velocity P-wave (km/s) = 6.22542 7.99067 7.16263
#
# Compressibility (1/GPa) = 0.02278473
#
# Stress axis : x y z
#
# Youngs Moduli (GPa) = 81.26017 116.76561 66.02831
#
# Poissons Ratio (x) = 0.35268 0.08349
# Poissons Ratio (y) = 0.24544 0.15387
# Poissons Ratio (z) = 0.10275 0.27211
#
# Static dielectric constant tensor:
#      x y z
#    x 3.775220 0.000000 0.116210 
#    y 0.000000 3.820310 -0.000010 
#    z 0.116210 -0.000010 4.068120 
# 
# 
# High freq. dielectric constant tensor:
#      x y z
#    x 1.814660 0.000000 0.002710 
#    y 0.000000 1.793710 0.000000 
#    z 0.002710 0.000000 1.816310 
# 
# From -- ./inp_files/286704.got.cif
#   From: 2010.06.25/outbox.cif.g09.slc.cpg/sg12_144_cif.got.tgz:286704.got - 2010.06.28 00:19:55.
