data_PCOD8108009
_publ_section_title
;
Structure prediction by ZEFSAII (Michael W. Deem and Ramdas Pophale) SiO2 
 PCOD8108009
Probable space group: C 2/M
;
_chemical_formula_sum "Si O2"
_cell_formula_units_Z 32
_cell_length_a 18.693361
_cell_length_b 13.814999
_cell_length_c 5.289801
_cell_angle_alpha 90.000000
_cell_angle_beta 79.462364
_cell_angle_gamma 90.000000
_cell_volume 1343.045538
_symmetry_space_group_name_H-M "C 2/M"
_symmetry_group_IT_number 12
_symmetry_cell_setting 'monoclinic'
loop_
_space_group_symop_operation_xyz
x,y,z
-x,y,-z
-x,-y,-z
x,-y,z
1/2+x,1/2+y,z
1/2-x,1/2+y,-z
1/2-x,1/2-y,-z
1/2+x,1/2-y,z
loop_
_atom_site_type_symbol
_atom_site_label
_atom_site_fract_x
_atom_site_fract_y
_atom_site_fract_z
Si Si1 0.044847 0.192399 0.709874
Si Si2 0.701335 0.612848 0.638428
Si Si3 0.727324 0.887846 0.909224
Si Si4 0.925557 0.604441 0.193838
O O1 0.115031 0.126473 0.699255
O O2 0.068472 0.303308 0.625064
O O3 0.000000 0.151446 0.500000
O O4 0.000000 0.188484 0.000000
O O5 0.719875 0.500000 0.629408
O O6 0.737607 0.659912 0.365471
O O7 0.738216 0.662393 0.863021
O O8 0.640066 0.874243 0.960127
O O9 0.749651 0.000000 0.901615
O O10 0.910469 0.500000 0.344774
O O11 0.000000 0.593370 0.000000
#
# Coordination Sequence:
#
# PCOD8108009 Si02
#       4
#     8   8   8   8
#     4  11  24  39  58  86 115 150 195 233 279 341
#     4  10  21  38  59  85 117 149 187 236 282 333
#     4   9  19  36  59  86 114 149 190 229 281 341
#     4   9  20  39  61  85 116 151 188 235 285 335
#
# _framework density 23.826445
#
# number of rings (size 3 to 8) (size 9 to 14) (size 15 to 20)
#    0.000    2.250    0.000    1.500    0.000    7.500 
#    0.000    7.500    0.000    0.000    0.000    0.000 
#    0.000    0.000    0.000    0.000    0.000    0.000 
#
# Total GULP energy -198309.250362 kJ/mol
# GULP energy per Si atom -12394.328148 kJ/mol
# Density = 2.377221 g / cm^3
# Si number density = 23.826445 Si / 1000 Ang^3
#
#
#
# Elastic Constant Matrix: (Units=GPa)
#
#
# Indices 1 2 3 4 5 6 
#
# 1 196.2120 6.2239 93.3655 0.0000 17.0162 0.0000
# 2 6.2239 12.8082 25.3770 0.0000 -3.8017 0.0000
# 3 93.3655 25.3770 187.5869 0.0000 20.5792 0.0000
# 4 0.0000 0.0000 0.0000 18.0895 0.0000 2.0027
# 5 17.0162 -3.8017 20.5792 0.0000 37.6404 0.0000
# 6 0.0000 0.0000 0.0000 2.0027 0.0000 57.2653
#
#
#
# Elastic Compliance Matrix: (Units=1/GPa)
#
#
# Indices 1 2 3 4 5 6 
#
# 1 0.006887 0.004349 -0.003960 0.000000 -0.000509 0.000000
# 2 0.004349 0.125454 -0.021607 0.000000 0.022518 0.000000
# 3 -0.003960 -0.021607 0.010923 0.000000 -0.006364 0.000000
# 4 0.000000 0.000000 0.000000 0.055496 0.000000 -0.001941
# 5 -0.000509 0.022518 -0.006364 0.000000 0.032551 0.000000
# 6 0.000000 0.000000 0.000000 -0.001941 0.000000 0.017530
#
#
# Mechanical properties :
#
#
# Convention : Reuss Voigt Hill
#
# Bulk Modulus (GPa) = 9.91781 71.83778 40.87779
# Shear Modulus (GPa) = 15.38995 40.70843 28.04919
#
# Velocity S-wave (km/s) = 2.54425 4.13793 3.43480
# Velocity P-wave (km/s) = 3.57806 7.28326 5.73796
#
# Compressibility (1/GPa) = 0.10082874
#
# Stress axis : x y z
#
# Youngs Moduli (GPa) = 145.19622 7.97103 91.54873
#
# Poissons Ratio (x) = -0.03467 0.36257
# Poissons Ratio (y) = -0.63145 1.97805
# Poissons Ratio (z) = 0.57503 0.17223
#
# Static dielectric constant tensor:
#      x y z
#    x 4.250930 0.000000 0.143510 
#    y 0.000000 4.520510 0.000000 
#    z 0.143510 0.000000 4.302330 
# 
# 
# High freq. dielectric constant tensor:
#      x y z
#    x 1.957900 0.000000 0.007250 
#    y 0.000000 1.945540 0.000000 
#    z 0.007250 0.000000 1.922660 
# 
# From -- ./inp_files/9949.got.cif
#   From: 2010.06.25/outbox.cif.g09.slc.cpg/sg12_5_cif.got.tgz:9949.got - 2010.06.28 00:19:55.
