data_PCOD8108914
_publ_section_title
;
Structure prediction by ZEFSAII (Michael W. Deem and Ramdas Pophale) SiO2 
 PCOD8108914
Probable space group: C 2/M
;
_chemical_formula_sum "Si O2"
_cell_formula_units_Z 56
_cell_length_a 29.999122
_cell_length_b 9.116973
_cell_length_c 10.876516
_cell_angle_alpha 90.000000
_cell_angle_beta 66.225403
_cell_angle_gamma 90.000000
_cell_volume 2722.299107
_symmetry_space_group_name_H-M "C 2/M"
_symmetry_group_IT_number 12
_symmetry_cell_setting 'monoclinic'
loop_
_space_group_symop_operation_xyz
x,y,z
-x,y,-z
-x,-y,-z
x,-y,z
1/2+x,1/2+y,z
1/2-x,1/2+y,-z
1/2-x,1/2-y,-z
1/2+x,1/2-y,z
loop_
_atom_site_type_symbol
_atom_site_label
_atom_site_fract_x
_atom_site_fract_y
_atom_site_fract_z
Si Si1 0.370628 0.831978 0.797918
Si Si2 0.531957 0.328228 0.348149
Si Si3 0.874715 0.324879 0.288095
Si Si4 0.220597 0.837561 0.193256
Si Si5 0.794839 0.837331 0.505006
Si Si6 0.173343 0.331136 0.904895
Si Si7 0.523450 0.328870 0.841109
O O1 0.415533 0.744077 0.692580
O O2 0.319103 0.775363 0.808818
O O3 0.376642 0.000000 0.751980
O O4 0.368961 0.812048 0.947144
O O5 0.500000 0.272569 0.500000
O O6 0.539828 0.500000 0.349815
O O7 0.510613 0.286591 0.237529
O O8 0.874572 0.500000 0.297802
O O9 0.845088 0.253196 0.432944
O O10 0.847639 0.262423 0.196509
O O11 0.929591 0.270343 0.227748
O O12 0.214266 0.856765 0.343433
O O13 0.274386 0.765203 0.109336
O O14 0.214776 0.000000 0.138005
O O15 0.750000 0.750000 0.500000
O O16 0.798761 0.000000 0.440272
O O17 0.185195 0.500000 0.865197
O O18 0.537384 0.500000 0.819762
O O19 0.500000 0.290880 0.000000
#
# Coordination Sequence:
#
# PCOD8108914 Si02
#       7
#     8   8   8   8   8   8   8
#     4  11  23  38  61  90 119 150 199 252 293 346
#     4  10  23  43  63  83 116 161 201 243 308 370
#     4  11  22  38  62  90 123 159 198 243 303 362
#     4  10  21  39  60  82 120 164 198 233 292 359
#     4  11  22  38  60  86 120 160 200 245 296 354
#     4   9  19  38  59  86 123 160 192 235 293 354
#     4  10  22  41  64  91 120 154 206 259 301 360
#
# _framework density 20.570848999999999
#
# number of rings (size 3 to 8) (size 9 to 14) (size 15 to 20)
#    0.000    1.714    1.429    2.571    2.000    2.286 
#    0.000    2.857    0.000    0.000    0.000    0.000 
#    0.000    0.000    0.000    0.000    0.000    0.000 
#
# Total GULP energy -347134.118133 kJ/mol
# GULP energy per Si atom -12397.647076 kJ/mol
# Density = 2.052403 g / cm^3
# Si number density = 20.570849 Si / 1000 Ang^3
#
#
#
# Elastic Constant Matrix: (Units=GPa)
#
#
# Indices 1 2 3 4 5 6 
#
# 1 89.1743 35.4399 27.5113 0.0000 -16.0368 0.0000
# 2 35.4399 72.3593 31.7452 0.0000 -16.3986 0.0000
# 3 27.5113 31.7452 99.9901 0.0000 -18.3384 0.0000
# 4 0.0000 0.0000 0.0000 27.2795 0.0000 -8.5266
# 5 -16.0368 -16.3986 -18.3384 0.0000 39.6327 0.0000
# 6 0.0000 0.0000 0.0000 -8.5266 0.0000 33.8406
#
#
#
# Elastic Compliance Matrix: (Units=1/GPa)
#
#
# Indices 1 2 3 4 5 6 
#
# 1 0.014504 -0.005758 -0.001664 0.000000 0.002716 0.000000
# 2 -0.005758 0.019179 -0.003799 0.000000 0.003848 0.000000
# 3 -0.001664 -0.003799 0.012297 0.000000 0.003444 0.000000
# 4 0.000000 0.000000 0.000000 0.039791 0.000000 0.010026
# 5 0.002716 0.003848 0.003444 0.000000 0.029517 0.000000
# 6 0.000000 0.000000 0.000000 0.010026 0.000000 0.032076
#
#
# Mechanical properties :
#
#
# Convention : Reuss Voigt Hill
#
# Bulk Modulus (GPa) = 42.48647 50.10181 46.29414
# Shear Modulus (GPa) = 28.14474 31.27237 29.70855
#
# Velocity S-wave (km/s) = 3.70291 3.90324 3.80439
# Velocity P-wave (km/s) = 6.24345 6.68747 6.46927
#
# Compressibility (1/GPa) = 0.02353690
#
# Stress axis : x y z
#
# Youngs Moduli (GPa) = 68.94467 52.14098 81.32213
#
# Poissons Ratio (x) = 0.30023 0.13536
# Poissons Ratio (y) = 0.39699 0.30894
# Poissons Ratio (z) = 0.11476 0.19808
#
# Static dielectric constant tensor:
#      x y z
#    x 3.531520 0.000000 -0.258540 
#    y 0.000000 3.686590 0.000000 
#    z -0.258540 0.000000 3.530270 
# 
# 
# High freq. dielectric constant tensor:
#      x y z
#    x 1.805010 0.000000 -0.005830 
#    y 0.000000 1.794320 0.000000 
#    z -0.005830 0.000000 1.817850 
# 
# From -- ./inp_files/180651.got.cif
#   From: 2010.06.25/outbox.cif.g09.slc.cpg/sg12_91_cif.got.tgz:180651.got - 2010.06.28 00:19:55.
