data_PCOD8108099
_publ_section_title
;
Structure prediction by ZEFSAII (Michael W. Deem and Ramdas Pophale) SiO2 
 PCOD8108099
Probable space group: C 2/M
;
_chemical_formula_sum "Si O2"
_cell_formula_units_Z 56
_cell_length_a 8.734025
_cell_length_b 24.331430
_cell_length_c 17.377050
_cell_angle_alpha 90.000000
_cell_angle_beta 129.639614
_cell_angle_gamma 90.000000
_cell_volume 2843.738408
_symmetry_space_group_name_H-M "C 2/M"
_symmetry_group_IT_number 12
_symmetry_cell_setting 'monoclinic'
loop_
_space_group_symop_operation_xyz
x,y,z
-x,y,-z
-x,-y,-z
x,-y,z
1/2+x,1/2+y,z
1/2-x,1/2+y,-z
1/2-x,1/2-y,-z
1/2+x,1/2-y,z
loop_
_atom_site_type_symbol
_atom_site_label
_atom_site_fract_x
_atom_site_fract_y
_atom_site_fract_z
Si Si1 0.716090 0.269263 0.073708
Si Si2 0.746879 0.635167 0.366434
Si Si3 0.853605 0.806431 0.244584
Si Si4 0.557156 0.783214 0.403883
Si Si5 0.579902 0.940473 0.699140
Si Si6 0.340597 0.561376 0.513327
Si Si7 0.955391 0.652987 0.752052
O O1 0.721167 0.216873 0.132562
O O2 0.881044 0.310466 0.155017
O O3 0.500000 0.297524 0.000000
O O4 0.750000 0.250000 0.000000
O O5 0.558424 0.669931 0.277437
O O6 0.769862 0.586414 0.313296
O O7 0.696241 0.608530 0.433614
O O8 0.939978 0.676447 0.426831
O O9 0.728875 0.853657 0.248747
O O10 0.895540 0.759973 0.322155
O O11 0.750000 0.750000 0.500000
O O12 0.624628 0.821400 0.354175
O O13 0.366645 0.946706 0.593517
O O14 0.557942 0.905525 0.770057
O O15 0.666495 0.000000 0.749012
O O16 0.500000 0.581699 0.500000
O O17 0.403050 0.500000 0.565665
#
# Coordination Sequence:
#
# PCOD8108099 Si02
#       7
#     8   8   8   8   8   8   8
#     4  11  22  40  66  91 122 154 193 246 297 361
#     4  11  23  36  59  82 120 160 210 247 299 354
#     4  11  23  37  56  91 122 155 202 243 293 372
#     4  10  23  37  53  82 126 166 197 239 291 359
#     4  10  22  39  59  84 117 155 205 255 301 357
#     4  10  21  38  60  85 113 159 214 260 303 352
#     4  10  22  39  58  90 120 156 201 241 301 358
#
# _framework density 19.692388000000001
#
# number of rings (size 3 to 8) (size 9 to 14) (size 15 to 20)
#    0.000    1.571    1.429    3.429   10.000    2.857 
#    0.000    0.714    0.000    0.429    0.000    1.000 
#    0.000    0.000    0.000    0.000    0.000    0.000 
#
# Total GULP energy -346907.645146 kJ/mol
# GULP energy per Si atom -12389.558755 kJ/mol
# Density = 1.964757 g / cm^3
# Si number density = 19.692388 Si / 1000 Ang^3
#
#
#
# Elastic Constant Matrix: (Units=GPa)
#
#
# Indices 1 2 3 4 5 6 
#
# 1 129.1756 66.2730 33.8902 0.0000 -3.1865 0.0000
# 2 66.2730 118.6639 29.4647 0.0000 -16.0112 0.0000
# 3 33.8902 29.4647 88.8138 0.0000 -8.3082 0.0000
# 4 0.0000 0.0000 0.0000 13.0861 0.0000 -8.3215
# 5 -3.1865 -16.0112 -8.3082 0.0000 25.4587 0.0000
# 6 0.0000 0.0000 0.0000 -8.3215 0.0000 42.6613
#
#
#
# Elastic Compliance Matrix: (Units=1/GPa)
#
#
# Indices 1 2 3 4 5 6 
#
# 1 0.011561 -0.006250 -0.002651 0.000000 -0.003349 0.000000
# 2 -0.006250 0.013205 -0.001333 0.000000 0.007088 0.000000
# 3 -0.002651 -0.001333 0.013001 0.000000 0.003073 0.000000
# 4 0.000000 0.000000 0.000000 0.087238 0.000000 0.017017
# 5 -0.003349 0.007088 0.003073 0.000000 0.044320 0.000000
# 6 0.000000 0.000000 0.000000 0.017017 0.000000 0.026760
#
#
# Mechanical properties :
#
#
# Convention : Reuss Voigt Hill
#
# Bulk Modulus (GPa) = 57.80960 66.21214 62.01087
# Shear Modulus (GPa) = 22.49012 30.04294 26.26653
#
# Velocity S-wave (km/s) = 3.38312 3.91015 3.65614
# Velocity P-wave (km/s) = 6.68436 7.35404 7.02718
#
# Compressibility (1/GPa) = 0.01729817
#
# Stress axis : x y z
#
# Youngs Moduli (GPa) = 86.49714 75.72762 76.91831
#
# Poissons Ratio (x) = 0.47332 0.20393
# Poissons Ratio (y) = 0.54064 0.10252
# Poissons Ratio (z) = 0.22932 0.10093
#
# Static dielectric constant tensor:
#      x y z
#    x 3.796640 0.000000 -0.136920 
#    y 0.000000 4.160000 0.000000 
#    z -0.136920 0.000000 3.111470 
# 
# 
# High freq. dielectric constant tensor:
#      x y z
#    x 1.789620 0.000000 -0.000280 
#    y 0.000000 1.759240 0.000000 
#    z -0.000280 0.000000 1.736210 
# 
# From -- ./inp_files/259259.got.cif
#   From: 2010.06.25/outbox.cif.g09.slc.cpg/sg12_130_cif.got.tgz:259259.got - 2010.06.28 00:19:55.
