data_PCOD8108399
_publ_section_title
;
Structure prediction by ZEFSAII (Michael W. Deem and Ramdas Pophale) SiO2 
 PCOD8108399
Probable space group: C 2/M
;
_chemical_formula_sum "Si O2"
_cell_formula_units_Z 64
_cell_length_a 27.898653
_cell_length_b 8.858826
_cell_length_c 18.338825
_cell_angle_alpha 90.000000
_cell_angle_beta 135.899256
_cell_angle_gamma 90.000000
_cell_volume 3154.216904
_symmetry_space_group_name_H-M "C 2/M"
_symmetry_group_IT_number 12
_symmetry_cell_setting 'monoclinic'
loop_
_space_group_symop_operation_xyz
x,y,z
-x,y,-z
-x,-y,-z
x,-y,z
1/2+x,1/2+y,z
1/2-x,1/2+y,-z
1/2-x,1/2-y,-z
1/2+x,1/2-y,z
loop_
_atom_site_type_symbol
_atom_site_label
_atom_site_fract_x
_atom_site_fract_y
_atom_site_fract_z
Si Si1 0.896966 0.327291 0.494975
Si Si2 0.654426 0.677945 0.706235
Si Si3 0.165217 0.327618 0.227665
Si Si4 0.949121 0.322936 0.295235
Si Si5 0.422272 0.673065 0.114798
Si Si6 0.014092 0.672411 0.097658
Si Si7 0.300800 0.674240 0.877941
Si Si8 0.731833 0.172161 0.554979
O O1 0.896545 0.500000 0.466434
O O2 0.869486 0.222879 0.400449
O O3 0.848719 0.309770 0.513569
O O4 0.972569 0.276750 0.601978
O O5 0.663016 0.500000 0.719421
O O6 0.597919 0.729581 0.701910
O O7 0.726638 0.751559 0.807405
O O8 0.187481 0.500000 0.241260
O O9 0.096111 0.315304 0.200074
O O10 0.155091 0.255018 0.137106
O O11 0.226831 0.242458 0.333516
O O12 0.936651 0.500000 0.293039
O O13 0.930951 0.281132 0.192952
O O14 0.435956 0.500000 0.152142
O O15 0.477428 0.717208 0.113648
O O16 0.344696 0.692802 0.999877
O O17 0.988368 0.500000 0.080988
O O18 0.000000 0.725411 0.000000
O O19 0.290659 0.500000 0.845936
O O20 0.750000 0.250000 0.500000
O O21 0.753635 0.000000 0.570665
#
# Coordination Sequence:
#
# PCOD8108399 Si02
#       8
#     8   8   8   8   8   8   8   8
#     4  10  23  44  68  94 127 169 213 256 313 383
#     4  12  25  42  69  99 125 160 211 267 318 379
#     4  11  22  38  62  92 125 165 214 260 310 374
#     4  11  25  45  68  92 127 171 210 259 323 383
#     4  11  25  42  63  95 131 166 214 267 316 373
#     4  10  21  38  61  89 125 167 208 249 302 372
#     4  11  23  41  65  93 129 169 210 262 320 378
#     4  11  24  41  62  92 131 169 210 257 311 375
#
# _framework density 20.290298
#
# number of rings (size 3 to 8) (size 9 to 14) (size 15 to 20)
#    0.000    1.125    2.500    3.375    1.750    6.250 
#    0.000    0.000    0.000    0.000    0.000    0.000 
#    0.000    0.000    0.000    0.000    0.000    0.000 
#
# Total GULP energy -396969.482183 kJ/mol
# GULP energy per Si atom -12405.296318 kJ/mol
# Density = 2.024412 g / cm^3
# Si number density = 20.290298 Si / 1000 Ang^3
#
#
#
# Elastic Constant Matrix: (Units=GPa)
#
#
# Indices 1 2 3 4 5 6 
#
# 1 109.0825 47.1296 43.6802 0.0000 7.0205 0.0000
# 2 47.1296 118.2155 43.0304 0.0000 8.0095 0.0000
# 3 43.6802 43.0304 94.8768 0.0000 9.7046 0.0000
# 4 0.0000 0.0000 0.0000 33.2921 0.0000 -3.9116
# 5 7.0205 8.0095 9.7046 0.0000 33.0243 0.0000
# 6 0.0000 0.0000 0.0000 -3.9116 0.0000 38.3726
#
#
#
# Elastic Compliance Matrix: (Units=1/GPa)
#
#
# Indices 1 2 3 4 5 6 
#
# 1 0.012295 -0.003381 -0.004066 0.000000 -0.000599 0.000000
# 2 -0.003381 0.011103 -0.003379 0.000000 -0.000981 0.000000
# 3 -0.004066 -0.003379 0.014199 0.000000 -0.002489 0.000000
# 4 0.000000 0.000000 0.000000 0.030401 0.000000 0.003099
# 5 -0.000599 -0.000981 -0.002489 0.000000 0.031377 0.000000
# 6 0.000000 0.000000 0.000000 0.003099 0.000000 0.026376
#
#
# Mechanical properties :
#
#
# Convention : Reuss Voigt Hill
#
# Bulk Modulus (GPa) = 62.71263 65.53946 64.12605
# Shear Modulus (GPa) = 32.74001 33.49346 33.11674
#
# Velocity S-wave (km/s) = 4.02130 4.06730 4.04437
# Velocity P-wave (km/s) = 7.24816 7.37755 7.31315
#
# Compressibility (1/GPa) = 0.01594575
#
# Stress axis : x y z
#
# Youngs Moduli (GPa) = 81.33537 90.06175 70.42870
#
# Poissons Ratio (x) = 0.30451 0.28634
# Poissons Ratio (y) = 0.27501 0.23797
# Poissons Ratio (z) = 0.33068 0.30431
#
# Static dielectric constant tensor:
#      x y z
#    x 3.778130 0.000000 0.103840 
#    y 0.000000 3.774860 0.000000 
#    z 0.103840 0.000000 3.736220 
# 
# 
# High freq. dielectric constant tensor:
#      x y z
#    x 1.799380 0.000000 0.009110 
#    y 0.000000 1.802060 0.000000 
#    z 0.009110 0.000000 1.798030 
# 
# From -- ./inp_files/295692.got.cif
#   From: 2010.06.25/outbox.cif.g09.slc.cpg/sg12_148_cif.got.tgz:295692.got - 2010.06.28 00:19:55.
