data_PCOD8108876
_publ_section_title
;
Structure prediction by ZEFSAII (Michael W. Deem and Ramdas Pophale) SiO2 
 PCOD8108876
Probable space group: C 2/M
;
_chemical_formula_sum "Si O2"
_cell_formula_units_Z 64
_cell_length_a 15.159287
_cell_length_b 8.909546
_cell_length_c 33.233112
_cell_angle_alpha 90.000000
_cell_angle_beta 45.904098
_cell_angle_gamma 90.000000
_cell_volume 3223.563955
_symmetry_space_group_name_H-M "C 2/M"
_symmetry_group_IT_number 12
_symmetry_cell_setting 'monoclinic'
loop_
_space_group_symop_operation_xyz
x,y,z
-x,y,-z
-x,-y,-z
x,-y,z
1/2+x,1/2+y,z
1/2-x,1/2+y,-z
1/2-x,1/2-y,-z
1/2+x,1/2-y,z
loop_
_atom_site_type_symbol
_atom_site_label
_atom_site_fract_x
_atom_site_fract_y
_atom_site_fract_z
Si Si1 0.622078 0.176541 0.580570
Si Si2 0.051027 0.677189 0.292689
Si Si3 0.594885 0.173101 0.883037
Si Si4 0.835710 0.325539 0.004853
Si Si5 0.404381 0.677027 0.495231
Si Si6 0.671943 0.670494 0.785184
Si Si7 0.231730 0.676155 0.115101
Si Si8 0.988583 0.170594 0.778228
O O1 0.536303 0.233747 0.643887
O O2 0.568533 0.251957 0.557031
O O3 0.761706 0.220928 0.549094
O O4 0.612026 0.000000 0.576907
O O5 0.042891 0.500000 0.290101
O O6 0.188901 0.730235 0.258684
O O7 0.004279 0.749344 0.266535
O O8 0.583492 0.222644 0.840301
O O9 0.701423 0.283950 0.864551
O O10 0.634132 0.000000 0.874080
O O11 0.473680 0.202833 0.947139
O O12 0.804503 0.500000 0.017937
O O13 0.813853 0.250065 0.054469
O O14 0.750000 0.250000 0.000000
O O15 0.500000 0.735597 0.500000
O O16 0.421006 0.500000 0.486167
O O17 0.663521 0.500000 0.804054
O O18 0.624084 0.678146 0.754576
O O19 0.221117 0.500000 0.110804
O O20 0.097574 0.746881 0.161622
O O21 0.943067 0.000000 0.787065
#
# Coordination Sequence:
#
# PCOD8108876 Si02
#       8
#     8   8   8   8   8   8   8   8
#     4   9  19  35  56  83 117 156 198 242 289 343
#     4  10  21  39  59  83 117 156 196 241 295 349
#     4  11  23  39  60  85 112 145 190 240 291 352
#     4  11  24  40  58  84 115 146 187 238 292 354
#     4   9  18  34  56  84 119 157 197 241 291 341
#     4  10  22  39  59  83 114 152 192 239 295 355
#     4  12  24  39  60  84 112 149 190 236 296 356
#     4  11  23  39  60  86 115 151 196 244 295 351
#
# _framework density 19.853802999999999
#
# number of rings (size 3 to 8) (size 9 to 14) (size 15 to 20)
#    0.000    1.625    1.250    3.375    0.000    8.250 
#    0.000    0.000    0.000    0.000    0.000    0.000 
#    0.000    0.000    0.000    0.000    0.000    0.000 
#
# Total GULP energy -396762.193692 kJ/mol
# GULP energy per Si atom -12398.818553 kJ/mol
# Density = 1.980861 g / cm^3
# Si number density = 19.853803 Si / 1000 Ang^3
#
#
#
# Elastic Constant Matrix: (Units=GPa)
#
#
# Indices 1 2 3 4 5 6 
#
# 1 123.7893 30.2925 52.4630 -0.0010 16.6626 -0.0011
# 2 30.2925 65.7884 50.1273 -0.0018 1.3864 -0.0010
# 3 52.4630 50.1273 150.9535 -0.0002 10.6070 -0.0003
# 4 -0.0010 -0.0018 -0.0002 30.8377 -0.0005 6.9642
# 5 16.6626 1.3864 10.6070 -0.0005 16.9364 -0.0006
# 6 -0.0011 -0.0010 -0.0003 6.9642 -0.0006 31.1530
#
#
#
# Elastic Compliance Matrix: (Units=1/GPa)
#
#
# Indices 1 2 3 4 5 6 
#
# 1 0.011013 -0.003287 -0.002085 0.000000 -0.009260 0.000000
# 2 -0.003287 0.021447 -0.006364 0.000001 0.005463 0.000000
# 3 -0.002085 -0.006364 0.009709 0.000000 -0.003508 0.000000
# 4 0.000000 0.000001 0.000000 0.034152 0.000001 -0.007635
# 5 -0.009260 0.005463 -0.003508 0.000001 0.069904 0.000001
# 6 0.000000 0.000000 0.000000 -0.007635 0.000001 0.033806
#
#
# Mechanical properties :
#
#
# Convention : Reuss Voigt Hill
#
# Bulk Modulus (GPa) = 53.48309 67.36633 60.42471
# Shear Modulus (GPa) = 23.83955 29.62864 26.73410
#
# Velocity S-wave (km/s) = 3.46895 3.86727 3.67351
# Velocity P-wave (km/s) = 6.56062 7.34479 6.96375
#
# Compressibility (1/GPa) = 0.01869750
#
# Stress axis : x y z
#
# Youngs Moduli (GPa) = 90.80419 46.62604 102.99765
#
# Poissons Ratio (x) = 0.15325 0.21478
# Poissons Ratio (y) = 0.29845 0.65544
# Poissons Ratio (z) = 0.18936 0.29671
#
# Static dielectric constant tensor:
#      x y z
#    x 3.706370 0.000000 0.001690 
#    y 0.000000 3.570810 0.000000 
#    z 0.001690 0.000000 3.504330 
# 
# 
# High freq. dielectric constant tensor:
#      x y z
#    x 1.785080 0.000000 0.003450 
#    y 0.000000 1.773030 0.000000 
#    z 0.003450 0.000000 1.770650 
# 
# From -- ./inp_files/375472.got.cif
#   From: 2010.06.25/outbox.cif.g09.slc.cpg/sg12_188_cif.got.tgz:375472.got - 2010.06.28 00:19:55.
