data_PCOD8108264
_publ_section_title
;
Structure prediction by ZEFSAII (Michael W. Deem and Ramdas Pophale) SiO2 
 PCOD8108264
Probable space group: C 2/M
;
_chemical_formula_sum "Si O2"
_cell_formula_units_Z 48
_cell_length_a 29.793238
_cell_length_b 9.052509
_cell_length_c 8.713173
_cell_angle_alpha 90.000000
_cell_angle_beta 89.887707
_cell_angle_gamma 90.000000
_cell_volume 2349.969221
_symmetry_space_group_name_H-M "C 2/M"
_symmetry_group_IT_number 12
_symmetry_cell_setting 'monoclinic'
loop_
_space_group_symop_operation_xyz
x,y,z
-x,y,-z
-x,-y,-z
x,-y,z
1/2+x,1/2+y,z
1/2-x,1/2+y,-z
1/2-x,1/2-y,-z
1/2+x,1/2-y,z
loop_
_atom_site_type_symbol
_atom_site_label
_atom_site_fract_x
_atom_site_fract_y
_atom_site_fract_z
Si Si1 0.737069 0.670792 0.844524
Si Si2 0.672429 0.170721 0.323381
Si Si3 0.906146 0.825620 0.834852
Si Si4 0.339773 0.830039 0.330519
Si Si5 0.427321 0.168020 0.144124
Si Si6 0.015034 0.328067 0.332874
O O1 0.729575 0.500000 0.881623
O O2 0.775654 0.695041 0.717946
O O3 0.690982 0.735597 0.781525
O O4 0.750000 0.750000 0.000000
O O5 0.642961 0.264850 0.205422
O O6 0.664593 0.228504 0.495977
O O7 0.658253 0.000000 0.307401
O O8 0.941404 0.763524 0.712555
O O9 0.905684 0.000000 0.825379
O O10 0.918652 0.778480 0.005987
O O11 0.391106 0.809524 0.278902
O O12 0.324280 0.000000 0.320457
O O13 0.475934 0.203978 0.211579
O O14 0.425479 0.000000 0.081679
O O15 0.028080 0.500000 0.336806
O O16 0.000000 0.273575 0.500000
#
# Coordination Sequence:
#
# PCOD8108264 Si02
#       6
#     8   8   8   8   8   8
#     4  11  23  38  59  87 119 155 194 238 288 344
#     4  10  22  41  62  84 114 154 198 239 284 346
#     4  12  25  38  57  87 121 154 190 238 291 340
#     4  10  21  39  63  88 114 147 192 244 292 341
#     4  10  21  38  61  86 113 151 195 236 283 345
#     4  10  21  40  65  88 113 151 197 239 283 342
#
# _framework density 20.425799999999999
#
# number of rings (size 3 to 8) (size 9 to 14) (size 15 to 20)
#    0.000    1.500    0.000    5.000    0.000   12.333 
#    0.000    1.667    0.000    0.000    0.000    0.000 
#    0.000    0.000    0.000    0.000    0.000    0.000 
#
# Total GULP energy -297783.613766 kJ/mol
# GULP energy per Si atom -12407.650574 kJ/mol
# Density = 2.037931 g / cm^3
# Si number density = 20.425800 Si / 1000 Ang^3
#
#
#
# Elastic Constant Matrix: (Units=GPa)
#
#
# Indices 1 2 3 4 5 6 
#
# 1 58.0317 21.6402 -13.4313 0.0000 2.8865 0.0000
# 2 21.6402 86.5001 21.1854 0.0000 4.4128 0.0000
# 3 -13.4313 21.1854 78.8671 0.0000 -1.9241 0.0000
# 4 0.0000 0.0000 0.0000 23.6349 0.0000 -0.0081
# 5 2.8865 4.4128 -1.9241 0.0000 35.2161 0.0000
# 6 0.0000 0.0000 0.0000 -0.0081 0.0000 24.2812
#
#
#
# Elastic Compliance Matrix: (Units=1/GPa)
#
#
# Indices 1 2 3 4 5 6 
#
# 1 0.020909 -0.006496 0.005291 0.000000 -0.000611 0.000000
# 2 -0.006496 0.014499 -0.005039 0.000000 -0.001560 0.000000
# 3 0.005291 -0.005039 0.014959 0.000000 0.001015 0.000000
# 4 0.000000 0.000000 0.000000 0.042310 0.000000 0.000014
# 5 -0.000611 -0.001560 0.001015 0.000000 0.028697 0.000000
# 6 0.000000 0.000000 0.000000 0.000014 0.000000 0.041184
#
#
# Mechanical properties :
#
#
# Convention : Reuss Voigt Hill
#
# Bulk Modulus (GPa) = 26.39931 31.35418 28.87675
# Shear Modulus (GPa) = 26.64200 29.56008 28.10104
#
# Velocity S-wave (km/s) = 3.61547 3.80833 3.71315
# Velocity P-wave (km/s) = 5.51193 5.89249 5.70538
#
# Compressibility (1/GPa) = 0.03787977
#
# Stress axis : x y z
#
# Youngs Moduli (GPa) = 47.82595 68.96793 66.84941
#
# Poissons Ratio (x) = 0.44799 -0.35369
# Poissons Ratio (y) = 0.31066 0.33686
# Poissons Ratio (z) = -0.25304 0.34754
#
# Static dielectric constant tensor:
#      x y z
#    x 3.813000 0.000000 -0.059730 
#    y 0.000000 3.611850 0.000000 
#    z -0.059730 0.000000 3.840040 
# 
# 
# High freq. dielectric constant tensor:
#      x y z
#    x 1.811640 0.000000 -0.004570 
#    y 0.000000 1.784760 0.000000 
#    z -0.004570 0.000000 1.811520 
# 
# From -- ./inp_files/108771.got.cif
#   From: 2010.06.25/outbox.cif.g09.slc.cpg/sg12_55_cif.got.tgz:108771.got - 2010.06.28 00:19:55.
