data_PCOD8108483
_publ_section_title
;
Structure prediction by ZEFSAII (Michael W. Deem and Ramdas Pophale) SiO2 
 PCOD8108483
Probable space group: C 2/M
;
_chemical_formula_sum "Si O2"
_cell_formula_units_Z 56
_cell_length_a 29.002931
_cell_length_b 8.947001
_cell_length_c 20.255528
_cell_angle_alpha 90.000000
_cell_angle_beta 147.917542
_cell_angle_gamma 90.000000
_cell_volume 2791.716380
_symmetry_space_group_name_H-M "C 2/M"
_symmetry_group_IT_number 12
_symmetry_cell_setting 'monoclinic'
loop_
_space_group_symop_operation_xyz
x,y,z
-x,y,-z
-x,-y,-z
x,-y,z
1/2+x,1/2+y,z
1/2-x,1/2+y,-z
1/2-x,1/2-y,-z
1/2+x,1/2-y,z
loop_
_atom_site_type_symbol
_atom_site_label
_atom_site_fract_x
_atom_site_fract_y
_atom_site_fract_z
Si Si1 0.569272 0.326859 0.231867
Si Si2 0.412111 0.176597 0.357615
Si Si3 0.704508 0.674518 0.285319
Si Si4 0.743558 0.172915 0.202036
Si Si5 0.095491 0.327401 0.920086
Si Si6 0.638833 0.670322 0.456786
Si Si7 0.555265 0.327064 0.738449
O O1 0.541297 0.500000 0.199701
O O2 0.622270 0.285000 0.230896
O O3 0.482533 0.228898 0.127990
O O4 0.629324 0.291627 0.367986
O O5 0.500000 0.228981 0.500000
O O6 0.333018 0.238048 0.304719
O O7 0.406490 0.242329 0.277693
O O8 0.405545 0.000000 0.345368
O O9 0.707585 0.500000 0.273044
O O10 0.692318 0.765684 0.203321
O O11 0.792879 0.716865 0.429535
O O12 0.765236 0.000000 0.239484
O O13 0.685472 0.197969 0.067041
O O14 0.079384 0.500000 0.883907
O O15 0.101376 0.235635 0.859672
O O16 0.670343 0.500000 0.505203
O O17 0.547703 0.697396 0.382747
O O18 0.579873 0.500000 0.762172
#
# Coordination Sequence:
#
# PCOD8108483 Si02
#       7
#     8   8   8   8   8   8   8
#     4   9  20  37  57  83 115 152 191 233 287 343
#     4  11  24  41  63  91 118 147 187 231 277 334
#     4  11  22  35  55  84 116 152 193 237 286 338
#     4  11  25  42  59  82 114 152 192 235 285 338
#     4  10  22  40  61  85 112 147 195 241 279 330
#     4   9  18  34  56  84 117 151 188 230 281 342
#     4  10  21  38  62  88 117 153 187 229 287 341
#
# _framework density 20.059343999999999
#
# number of rings (size 3 to 8) (size 9 to 14) (size 15 to 20)
#    0.000    1.857    0.000    4.286    0.000   10.857 
#    0.000    2.857    0.000    0.000    0.000    0.000 
#    0.000    0.000    0.000    0.000    0.000    0.000 
#
# Total GULP energy -347367.432208 kJ/mol
# GULP energy per Si atom -12405.979722 kJ/mol
# Density = 2.001369 g / cm^3
# Si number density = 20.059344 Si / 1000 Ang^3
#
#
#
# Elastic Constant Matrix: (Units=GPa)
#
#
# Indices 1 2 3 4 5 6 
#
# 1 109.1018 36.7118 25.0397 0.0000 -12.5346 0.0000
# 2 36.7118 86.5901 39.4611 0.0000 -5.1083 0.0000
# 3 25.0397 39.4611 70.8951 0.0000 -4.4235 0.0000
# 4 0.0000 0.0000 0.0000 32.6705 0.0000 -1.7345
# 5 -12.5346 -5.1083 -4.4235 0.0000 18.8107 0.0000
# 6 0.0000 0.0000 0.0000 -1.7345 0.0000 38.7560
#
#
#
# Elastic Compliance Matrix: (Units=1/GPa)
#
#
# Indices 1 2 3 4 5 6 
#
# 1 0.011526 -0.003805 -0.001561 0.000000 0.006280 0.000000
# 2 -0.003805 0.016821 -0.008009 0.000000 0.000149 0.000000
# 3 -0.001561 -0.008009 0.019196 0.000000 0.001299 0.000000
# 4 0.000000 0.000000 0.000000 0.030682 0.000000 0.001373
# 5 0.006280 0.000149 0.001299 0.000000 0.057692 0.000000
# 6 0.000000 0.000000 0.000000 0.001373 0.000000 0.025864
#
#
# Mechanical properties :
#
#
# Convention : Reuss Voigt Hill
#
# Bulk Modulus (GPa) = 48.09637 52.11246 50.10442
# Shear Modulus (GPa) = 25.58053 29.07238 27.32645
#
# Velocity S-wave (km/s) = 3.57493 3.81112 3.69491
# Velocity P-wave (km/s) = 6.40853 6.73808 6.57537
#
# Compressibility (1/GPa) = 0.02079159
#
# Stress axis : x y z
#
# Youngs Moduli (GPa) = 86.76189 59.45083 52.09422
#
# Poissons Ratio (x) = 0.22619 0.08134
# Poissons Ratio (y) = 0.33010 0.41725
# Poissons Ratio (z) = 0.13546 0.47617
#
# Static dielectric constant tensor:
#      x y z
#    x 3.768990 0.000000 -0.037780 
#    y 0.000000 3.675770 0.000000 
#    z -0.037780 0.000000 3.491680 
# 
# 
# High freq. dielectric constant tensor:
#      x y z
#    x 1.792280 0.000000 -0.005020 
#    y 0.000000 1.790970 0.000000 
#    z -0.005020 0.000000 1.776690 
# 
# From -- ./inp_files/329657.got.cif
#   From: 2010.06.25/outbox.cif.g09.slc.cpg/sg12_165_cif.got.tgz:329657.got - 2010.06.28 00:19:55.
