data_PCOD8108736
_publ_section_title
;
Structure prediction by ZEFSAII (Michael W. Deem and Ramdas Pophale) SiO2 
 PCOD8108736
Probable space group: C 2/M
;
_chemical_formula_sum "Si O2"
_cell_formula_units_Z 56
_cell_length_a 16.896099
_cell_length_b 11.160334
_cell_length_c 17.977382
_cell_angle_alpha 90.000000
_cell_angle_beta 55.793847
_cell_angle_gamma 90.000000
_cell_volume 2803.536442
_symmetry_space_group_name_H-M "C 2/M"
_symmetry_group_IT_number 12
_symmetry_cell_setting 'monoclinic'
loop_
_space_group_symop_operation_xyz
x,y,z
-x,y,-z
-x,-y,-z
x,-y,z
1/2+x,1/2+y,z
1/2-x,1/2+y,-z
1/2-x,1/2-y,-z
1/2+x,1/2-y,z
loop_
_atom_site_type_symbol
_atom_site_label
_atom_site_fract_x
_atom_site_fract_y
_atom_site_fract_z
Si Si1 0.647850 0.259770 0.091345
Si Si2 0.938337 0.000000 0.921645
Si Si3 0.149266 0.000000 0.869417
Si Si4 0.185522 0.642998 0.566058
Si Si5 0.508053 0.860994 0.914080
Si Si6 0.000699 0.366229 0.418746
Si Si7 0.307628 0.861789 0.263694
Si Si8 0.689448 0.194108 0.236642
O O1 0.594921 0.385302 0.107151
O O2 0.586477 0.156218 0.084618
O O3 0.655017 0.236708 0.174641
O O4 0.750000 0.250000 0.000000
O O5 0.053886 0.000000 0.868668
O O6 0.883370 0.000000 0.028442
O O7 0.215945 0.886385 0.818037
O O8 0.211708 0.500000 0.533805
O O9 0.250000 0.750000 0.500000
O O10 0.188551 0.663308 0.651753
O O11 0.080747 0.682926 0.593174
O O12 0.598048 0.803821 0.823918
O O13 0.525256 0.000000 0.917012
O O14 0.500000 0.797934 0.000000
O O15 0.968375 0.500000 0.453576
O O16 0.102140 0.369759 0.323974
O O17 0.000000 0.298191 0.500000
O O18 0.213861 0.806806 0.275521
O O19 0.303020 0.000000 0.247771
#
# Coordination Sequence:
#
# PCOD8108736 Si02
#       8
#     8   4   4   8   8   8   8   8
#     4  12  25  37  62  88 124 165 212 263 315 373
#     4  11  26  44  58  90 133 174 214 258 329 385
#     4  11  24  42  65  90 128 172 213 270 320 385
#     4  10  21  41  67  94 126 167 207 259 321 390
#     4  10  22  39  61  87 120 161 209 253 302 377
#     4  10  21  38  64  96 125 156 204 265 316 371
#     4  10  22  40  61  88 123 165 202 250 311 383
#     4  12  23  40  65  94 124 164 215 264 321 374
#
# _framework density 19.974771
#
# number of rings (size 3 to 8) (size 9 to 14) (size 15 to 20)
#    0.000    1.286    2.143    3.429    5.000    1.143 
#    1.286    0.714    3.143    2.571    0.000    0.000 
#    0.000    0.000    0.000    0.000    0.000    0.000 
#
# Total GULP energy -347008.150059 kJ/mol
# GULP energy per Si atom -12393.148216 kJ/mol
# Density = 1.992931 g / cm^3
# Si number density = 19.974771 Si / 1000 Ang^3
#
#
#
# Elastic Constant Matrix: (Units=GPa)
#
#
# Indices 1 2 3 4 5 6 
#
# 1 163.5430 47.9515 68.0140 0.0000 13.4571 0.0000
# 2 47.9515 68.8711 54.5381 0.0000 2.9083 0.0000
# 3 68.0140 54.5381 123.4683 0.0000 8.1212 0.0000
# 4 0.0000 0.0000 0.0000 26.7104 0.0000 0.0888
# 5 13.4571 2.9083 8.1212 0.0000 45.1613 0.0000
# 6 0.0000 0.0000 0.0000 0.0888 0.0000 40.8235
#
#
#
# Elastic Compliance Matrix: (Units=1/GPa)
#
#
# Indices 1 2 3 4 5 6 
#
# 1 0.008547 -0.003445 -0.003070 0.000000 -0.001773 0.000000
# 2 -0.003445 0.023725 -0.008651 0.000000 0.001054 0.000000
# 3 -0.003070 -0.008651 0.013677 0.000000 -0.000988 0.000000
# 4 0.000000 0.000000 0.000000 0.037439 0.000000 -0.000081
# 5 -0.001773 0.001054 -0.000988 0.000000 0.022781 0.000000
# 6 0.000000 0.000000 0.000000 -0.000081 0.000000 0.024496
#
#
# Mechanical properties :
#
#
# Convention : Reuss Voigt Hill
#
# Bulk Modulus (GPa) = 64.03620 77.43218 70.73419
# Shear Modulus (GPa) = 30.08374 34.89763 32.49068
#
# Velocity S-wave (km/s) = 3.88504 4.18435 4.03747
# Velocity P-wave (km/s) = 7.22862 7.88633 7.56462
#
# Compressibility (1/GPa) = 0.01561617
#
# Stress axis : x y z
#
# Youngs Moduli (GPa) = 116.99499 42.14998 73.11678
#
# Poissons Ratio (x) = 0.14521 0.22447
# Poissons Ratio (y) = 0.40306 0.63255
# Poissons Ratio (z) = 0.35918 0.36465
#
# Static dielectric constant tensor:
#      x y z
#    x 3.457240 0.000000 -0.138300 
#    y 0.000000 3.620220 0.000000 
#    z -0.138300 0.000000 3.585590 
# 
# 
# High freq. dielectric constant tensor:
#      x y z
#    x 1.798100 0.000000 0.005380 
#    y 0.000000 1.770930 0.000000 
#    z 0.005380 0.000000 1.782510 
# 
# From -- ./inp_files/269234.got.cif
#   From: 2010.06.25/outbox.cif.g09.slc.cpg/sg12_135_cif.got.tgz:269234.got - 2010.06.28 00:19:55.
