data_PCOD8108038
_publ_section_title
;
Structure prediction by ZEFSAII (Michael W. Deem and Ramdas Pophale) SiO2 
 PCOD8108038
Probable space group: C 2/M
;
_chemical_formula_sum "Si O2"
_cell_formula_units_Z 56
_cell_length_a 19.673348
_cell_length_b 9.005845
_cell_length_c 18.884646
_cell_angle_alpha 90.000000
_cell_angle_beta 120.384444
_cell_angle_gamma 90.000000
_cell_volume 2886.334991
_symmetry_space_group_name_H-M "C 2/M"
_symmetry_group_IT_number 12
_symmetry_cell_setting 'monoclinic'
loop_
_space_group_symop_operation_xyz
x,y,z
-x,y,-z
-x,-y,-z
x,-y,z
1/2+x,1/2+y,z
1/2-x,1/2+y,-z
1/2-x,1/2-y,-z
1/2+x,1/2-y,z
loop_
_atom_site_type_symbol
_atom_site_label
_atom_site_fract_x
_atom_site_fract_y
_atom_site_fract_z
Si Si1 0.071887 0.326432 0.488195
Si Si2 0.026177 0.826638 0.324701
Si Si3 0.416705 0.823189 0.926730
Si Si4 0.723682 0.172487 0.659703
Si Si5 0.615598 0.176278 0.249818
Si Si6 0.655605 0.332092 0.753482
Si Si7 0.270135 0.830708 0.939027
O O1 0.062063 0.500000 0.466138
O O2 0.074076 0.236076 0.416601
O O3 0.154109 0.289455 0.568831
O O4 0.000000 0.271701 0.500000
O O5 0.048994 0.742499 0.265212
O O6 0.935239 0.792062 0.289332
O O7 0.044214 0.000000 0.325786
O O8 0.402129 0.766624 0.839105
O O9 0.346786 0.761577 0.940095
O O10 0.415177 0.000000 0.925807
O O11 0.500000 0.762399 0.000000
O O12 0.800273 0.265439 0.678317
O O13 0.697060 0.216267 0.724006
O O14 0.745211 0.000000 0.669915
O O15 0.614337 0.000000 0.253764
O O16 0.668836 0.500000 0.731791
O O17 0.693414 0.314732 0.850183
O O18 0.288673 0.000000 0.967526
O O19 0.250000 0.750000 0.000000
#
# Coordination Sequence:
#
# PCOD8108038 Si02
#       7
#     8   8   8   8   8   8   8
#     4  10  21  39  61  89 121 154 196 246 297 351
#     4  11  24  39  60  90 122 156 200 248 294 353
#     4   9  19  37  60  85 115 154 197 240 288 350
#     4  11  22  38  64  90 118 154 199 247 292 352
#     4  11  23  41  63  85 120 162 199 243 299 354
#     4  10  21  39  60  85 122 161 197 241 297 354
#     4  10  21  38  59  87 121 153 194 242 292 350
#
# _framework density 19.401767
#
# number of rings (size 3 to 8) (size 9 to 14) (size 15 to 20)
#    0.000    1.714    2.857    1.286    2.000    3.143 
#    0.000    0.000    0.000    2.143    0.000    0.000 
#    0.000    0.000    0.000    0.000    0.000    0.000 
#
# Total GULP energy -347308.299171 kJ/mol
# GULP energy per Si atom -12403.867828 kJ/mol
# Density = 1.935761 g / cm^3
# Si number density = 19.401767 Si / 1000 Ang^3
#
#
#
# Elastic Constant Matrix: (Units=GPa)
#
#
# Indices 1 2 3 4 5 6 
#
# 1 54.6237 18.4878 26.2608 0.0000 -6.3934 0.0000
# 2 18.4878 51.9209 21.4163 0.0000 -3.0400 0.0000
# 3 26.2608 21.4163 81.3300 0.0000 -2.2241 0.0000
# 4 0.0000 0.0000 0.0000 28.7919 0.0000 -5.6826
# 5 -6.3934 -3.0400 -2.2241 0.0000 39.7072 0.0000
# 6 0.0000 0.0000 0.0000 -5.6826 0.0000 33.9461
#
#
#
# Elastic Compliance Matrix: (Units=1/GPa)
#
#
# Indices 1 2 3 4 5 6 
#
# 1 0.023473 -0.005710 -0.005993 0.000000 0.003007 0.000000
# 2 -0.005710 0.023067 -0.004214 0.000000 0.000611 0.000000
# 3 -0.005993 -0.004214 0.015329 0.000000 -0.000429 0.000000
# 4 0.000000 0.000000 0.000000 0.035919 0.000000 0.006013
# 5 0.003007 0.000611 -0.000429 0.000000 0.025691 0.000000
# 6 0.000000 0.000000 0.000000 0.006013 0.000000 0.030465
#
#
# Mechanical properties :
#
#
# Convention : Reuss Voigt Hill
#
# Bulk Modulus (GPa) = 33.29514 35.57826 34.43670
# Shear Modulus (GPa) = 25.53765 28.60302 27.07033
#
# Velocity S-wave (km/s) = 3.63196 3.84376 3.73936
# Velocity P-wave (km/s) = 5.89799 6.17064 6.03585
#
# Compressibility (1/GPa) = 0.03003442
#
# Stress axis : x y z
#
# Youngs Moduli (GPa) = 42.60228 43.35177 65.23724
#
# Poissons Ratio (x) = 0.24754 0.39099
# Poissons Ratio (y) = 0.24326 0.27489
# Poissons Ratio (z) = 0.25533 0.18267
#
# Static dielectric constant tensor:
#      x y z
#    x 3.776730 0.000000 0.163160 
#    y 0.000000 3.418520 0.000000 
#    z 0.163160 0.000000 3.637150 
# 
# 
# High freq. dielectric constant tensor:
#      x y z
#    x 1.764140 0.000000 0.005310 
#    y 0.000000 1.740830 0.000000 
#    z 0.005310 0.000000 1.763380 
# 
# From -- ./inp_files/275662.got.cif
#   From: 2010.06.25/outbox.cif.g09.slc.cpg/sg12_138_cif.got.tgz:275662.got - 2010.06.28 00:19:55.
