data_PCOD8108175
_publ_section_title
;
Structure prediction by ZEFSAII (Michael W. Deem and Ramdas Pophale) SiO2 
 PCOD8108175
Probable space group: C 2/M
;
_chemical_formula_sum "Si O2"
_cell_formula_units_Z 56
_cell_length_a 17.727350
_cell_length_b 8.576214
_cell_length_c 18.390889
_cell_angle_alpha 90.000000
_cell_angle_beta 103.252003
_cell_angle_gamma 90.000000
_cell_volume 2721.577239
_symmetry_space_group_name_H-M "C 2/M"
_symmetry_group_IT_number 12
_symmetry_cell_setting 'monoclinic'
loop_
_space_group_symop_operation_xyz
x,y,z
-x,y,-z
-x,-y,-z
x,-y,z
1/2+x,1/2+y,z
1/2-x,1/2+y,-z
1/2-x,1/2-y,-z
1/2+x,1/2-y,z
loop_
_atom_site_type_symbol
_atom_site_label
_atom_site_fract_x
_atom_site_fract_y
_atom_site_fract_z
Si Si1 0.851747 0.817850 0.717068
Si Si2 0.437306 0.681742 0.427739
Si Si3 0.772449 0.317156 0.427716
Si Si4 0.913769 0.679419 0.007815
Si Si5 0.800257 0.680540 0.853706
Si Si6 0.376236 0.321147 0.150441
Si Si7 0.012764 0.320006 0.710224
O O1 0.788469 0.756367 0.645452
O O2 0.819097 0.788710 0.789779
O O3 0.929071 0.719322 0.723431
O O4 0.869798 0.000000 0.710670
O O5 0.500000 0.741012 0.500000
O O6 0.420672 0.500000 0.434049
O O7 0.357908 0.771390 0.422376
O O8 0.470301 0.713555 0.355427
O O9 0.767745 0.500000 0.432429
O O10 0.750000 0.250000 0.500000
O O11 0.900232 0.500000 0.027241
O O12 0.898785 0.788925 0.072781
O O13 0.855866 0.730496 0.931464
O O14 0.000000 0.708641 0.000000
O O15 0.812733 0.500000 0.835251
O O16 0.713613 0.715792 0.859378
O O17 0.395795 0.500000 0.173431
O O18 0.423990 0.209980 0.214034
O O19 0.016267 0.500000 0.687906
#
# Coordination Sequence:
#
# PCOD8108175 Si02
#       7
#     8   8   8   8   8   8   8
#     4  11  24  41  62  90 122 156 199 249 300 357
#     4  11  24  42  64  91 124 160 201 251 301 353
#     4  11  24  41  63  92 124 161 203 248 301 359
#     4  10  21  38  60  87 120 158 202 250 299 355
#     4  10  22  39  60  89 123 160 200 244 299 358
#     4  11  23  39  61  89 122 160 203 249 298 355
#     4  12  25  41  63  89 120 159 202 249 302 359
#
# _framework density 20.576302999999999
#
# number of rings (size 3 to 8) (size 9 to 14) (size 15 to 20)
#    0.000    1.143    0.000    6.000    0.000   12.286 
#    0.000    0.000    0.000    0.000    0.000    0.000 
#    0.000    0.000    0.000    0.000    0.000    0.000 
#
# Total GULP energy -347433.660361 kJ/mol
# GULP energy per Si atom -12408.345013 kJ/mol
# Density = 2.052947 g / cm^3
# Si number density = 20.576303 Si / 1000 Ang^3
#
#
#
# Elastic Constant Matrix: (Units=GPa)
#
#
# Indices 1 2 3 4 5 6 
#
# 1 106.1799 24.6710 55.0729 0.0000 11.4844 0.0000
# 2 24.6710 50.1819 23.8185 0.0000 7.8383 0.0000
# 3 55.0729 23.8185 148.0893 0.0000 10.8852 0.0000
# 4 0.0000 0.0000 0.0000 34.8773 0.0000 -9.1725
# 5 11.4844 7.8383 10.8852 0.0000 46.1409 0.0000
# 6 0.0000 0.0000 0.0000 -9.1725 0.0000 13.4508
#
#
#
# Elastic Compliance Matrix: (Units=1/GPa)
#
#
# Indices 1 2 3 4 5 6 
#
# 1 0.012553 -0.004084 -0.003901 0.000000 -0.001510 0.000000
# 2 -0.004084 0.023291 -0.002046 0.000000 -0.002457 0.000000
# 3 -0.003901 -0.002046 0.008584 0.000000 -0.000707 0.000000
# 4 0.000000 0.000000 0.000000 0.034938 0.000000 0.023825
# 5 -0.001510 -0.002457 -0.000707 0.000000 0.022633 0.000000
# 6 0.000000 0.000000 0.000000 0.023825 0.000000 0.090592
#
#
# Mechanical properties :
#
#
# Convention : Reuss Voigt Hill
#
# Bulk Modulus (GPa) = 41.04134 56.84176 48.94155
# Shear Modulus (GPa) = 22.64735 32.28637 27.46686
#
# Velocity S-wave (km/s) = 3.32121 3.96549 3.65756
# Velocity P-wave (km/s) = 5.89037 6.97507 6.45554
#
# Compressibility (1/GPa) = 0.02436568
#
# Stress axis : x y z
#
# Youngs Moduli (GPa) = 79.65915 42.93562 116.49094
#
# Poissons Ratio (x) = 0.17536 0.45438
# Poissons Ratio (y) = 0.32536 0.23840
# Poissons Ratio (z) = 0.31072 0.08787
#
# Static dielectric constant tensor:
#      x y z
#    x 3.768350 0.000000 0.111770 
#    y 0.000000 3.679390 0.000000 
#    z 0.111770 0.000000 3.921530 
# 
# 
# High freq. dielectric constant tensor:
#      x y z
#    x 1.823110 0.000000 0.003820 
#    y 0.000000 1.806090 0.000000 
#    z 0.003820 0.000000 1.821620 
# 
# From -- ./inp_files/275684.got.cif
#   From: 2010.06.25/outbox.cif.g09.slc.cpg/sg12_138_cif.got.tgz:275684.got - 2010.06.28 00:19:55.
