data_PCOD8108395
_publ_section_title
;
Structure prediction by ZEFSAII (Michael W. Deem and Ramdas Pophale) SiO2 
 PCOD8108395
Probable space group: C 2/M
;
_chemical_formula_sum "Si O2"
_cell_formula_units_Z 64
_cell_length_a 9.805225
_cell_length_b 27.203462
_cell_length_c 17.881484
_cell_angle_alpha 90.000000
_cell_angle_beta 140.346940
_cell_angle_gamma 90.000000
_cell_volume 3043.682922
_symmetry_space_group_name_H-M "C 2/M"
_symmetry_group_IT_number 12
_symmetry_cell_setting 'monoclinic'
loop_
_space_group_symop_operation_xyz
x,y,z
-x,y,-z
-x,-y,-z
x,-y,z
1/2+x,1/2+y,z
1/2-x,1/2+y,-z
1/2-x,1/2-y,-z
1/2+x,1/2-y,z
loop_
_atom_site_type_symbol
_atom_site_label
_atom_site_fract_x
_atom_site_fract_y
_atom_site_fract_z
Si Si1 0.141256 0.400565 0.988623
Si Si2 0.090791 0.889720 0.382765
Si Si3 0.539082 0.944045 0.379036
Si Si4 0.403955 0.209384 0.035557
Si Si5 0.054069 0.775202 0.378842
Si Si6 0.342345 0.099825 0.719654
Si Si7 0.062637 0.942837 0.217673
Si Si8 0.854838 0.708871 0.713977
O O1 0.206002 0.343266 0.025458
O O2 0.006892 0.409598 0.856711
O O3 0.364825 0.430218 0.078700
O O4 0.000000 0.417928 0.000000
O O5 0.318545 0.910013 0.506780
O O6 0.101728 0.831231 0.378124
O O7 0.027284 0.911547 0.276713
O O8 0.903168 0.905833 0.359614
O O9 0.611102 0.940410 0.323548
O O10 0.290352 0.928157 0.277899
O O11 0.569368 0.000000 0.418950
O O12 0.582826 0.203367 0.173050
O O13 0.500000 0.230415 0.000000
O O14 0.250000 0.250000 0.000000
O O15 0.250000 0.750000 0.500000
O O16 0.007484 0.744822 0.281655
O O17 0.882322 0.770394 0.373175
O O18 0.368239 0.153032 0.689385
O O19 0.056590 0.000000 0.235110
#
# Coordination Sequence:
#
# PCOD8108395 Si02
#       8
#     8   8   8   8   8   8   8   8
#     4  10  21  43  67  92 126 164 213 260 308 372
#     4  11  23  42  67  92 124 169 216 259 307 378
#     4  11  25  43  63  93 130 161 204 268 329 376
#     4  10  21  38  61  89 123 162 201 249 303 362
#     4  11  23  38  60  91 126 166 205 253 305 367
#     4  10  22  42  65  93 127 166 208 264 314 370
#     4  11  25  43  65  93 126 165 210 264 321 378
#     4  10  22  38  59  87 126 162 204 251 300 366
#
# _framework density 21.027156999999999
#
# number of rings (size 3 to 8) (size 9 to 14) (size 15 to 20)
#    0.000    1.500    1.250    3.000    3.500    8.750 
#    4.500    1.250    0.000    0.000    0.000    0.000 
#    0.000    0.000    0.000    0.000    0.000    0.000 
#
# Total GULP energy -396740.589740 kJ/mol
# GULP energy per Si atom -12398.143429 kJ/mol
# Density = 2.097930 g / cm^3
# Si number density = 21.027157 Si / 1000 Ang^3
#
#
#
# Elastic Constant Matrix: (Units=GPa)
#
#
# Indices 1 2 3 4 5 6 
#
# 1 73.5841 36.6425 20.3953 0.0001 2.0196 0.0000
# 2 36.6425 85.1493 25.4666 -0.0002 9.6823 -0.0001
# 3 20.3953 25.4666 90.4516 0.0010 13.7223 0.0005
# 4 0.0001 -0.0002 0.0010 36.5899 0.0002 1.1606
# 5 2.0196 9.6823 13.7223 0.0002 38.2920 0.0001
# 6 0.0000 -0.0001 0.0005 1.1606 0.0001 33.6843
#
#
#
# Elastic Compliance Matrix: (Units=1/GPa)
#
#
# Indices 1 2 3 4 5 6 
#
# 1 0.017724 -0.007148 -0.002238 0.000000 0.001675 0.000000
# 2 -0.007148 0.015863 -0.002435 0.000000 -0.002761 0.000000
# 3 -0.002238 -0.002435 0.012832 0.000000 -0.003865 0.000000
# 4 0.000000 0.000000 0.000000 0.027360 0.000000 -0.000943
# 5 0.001675 -0.002761 -0.003865 0.000000 0.028110 0.000000
# 6 0.000000 0.000000 0.000000 -0.000943 0.000000 0.029720
#
#
# Mechanical properties :
#
#
# Convention : Reuss Voigt Hill
#
# Bulk Modulus (GPa) = 43.90676 46.02155 44.96415
# Shear Modulus (GPa) = 30.70440 32.82528 31.76484
#
# Velocity S-wave (km/s) = 3.82544 3.95535 3.89093
# Velocity P-wave (km/s) = 6.35911 6.54171 6.45105
#
# Compressibility (1/GPa) = 0.02277554
#
# Stress axis : x y z
#
# Youngs Moduli (GPa) = 56.42130 63.04157 77.92876
#
# Poissons Ratio (x) = 0.45064 0.17440
# Poissons Ratio (y) = 0.40331 0.18979
# Poissons Ratio (z) = 0.12626 0.15353
#
# Static dielectric constant tensor:
#      x y z
#    x 4.995090 -0.001090 -0.915060 
#    y -0.001090 8.038110 0.000160 
#    z -0.915060 0.000160 4.150720 
# 
# 
# High freq. dielectric constant tensor:
#      x y z
#    x 1.822790 0.000000 -0.002480 
#    y 0.000000 1.823910 0.000000 
#    z -0.002480 0.000000 1.834950 
# 
# From -- ./inp_files/260354.got.cif
#   From: 2010.06.25/outbox.cif.g09.slc.cpg/sg12_131_cif.got.tgz:260354.got - 2010.06.28 00:19:55.
