data_PCOD8108852
_publ_section_title
;
Structure prediction by ZEFSAII (Michael W. Deem and Ramdas Pophale) SiO2 
 PCOD8108852
Probable space group: C 2/M
;
_chemical_formula_sum "Si O2"
_cell_formula_units_Z 56
_cell_length_a 11.564034
_cell_length_b 16.749786
_cell_length_c 15.554281
_cell_angle_alpha 90.000000
_cell_angle_beta 90.000014
_cell_angle_gamma 90.000000
_cell_volume 3012.787933
_symmetry_space_group_name_H-M "C 2/M"
_symmetry_group_IT_number 12
_symmetry_cell_setting 'monoclinic'
loop_
_space_group_symop_operation_xyz
x,y,z
-x,y,-z
-x,-y,-z
x,-y,z
1/2+x,1/2+y,z
1/2-x,1/2+y,-z
1/2-x,1/2-y,-z
1/2+x,1/2-y,z
loop_
_atom_site_type_symbol
_atom_site_label
_atom_site_fract_x
_atom_site_fract_y
_atom_site_fract_z
Si Si1 0.868469 0.590963 0.668324
Si Si2 0.500000 0.594900 0.097281
Si Si3 0.740224 0.405013 0.165611
Si Si4 0.871196 0.404703 1.000000
Si Si5 0.759777 0.094987 0.165612
Si Si6 0.134759 0.304967 0.500000
Si Si7 0.131531 0.409037 0.668324
O O1 0.832640 0.500000 0.647418
O O2 0.789103 0.628049 0.744191
O O3 0.850453 0.641178 0.583228
O O4 1.000000 0.594481 0.701232
O O5 0.499999 0.500000 0.089193
O O6 0.609331 0.624440 0.152257
O O7 0.390669 0.624440 0.152257
O O8 0.500000 0.630042 0.000000
O O9 0.750992 0.500000 0.166620
O O10 0.789104 0.371951 0.255809
O O11 0.811315 0.370143 0.085250
O O12 0.864595 0.500000 1.000000
O O13 0.811315 0.370143 0.914750
O O14 0.000000 0.371976 0.000000
O O15 0.749009 0.000000 0.166621
O O16 0.250000 0.250000 0.500000
O O17 0.149547 0.358822 0.583229
O O18 0.000000 0.267923 0.500000
O O19 0.167360 0.500000 0.647418
#
# Coordination Sequence:
#
# PCOD8108852 Si02
#       7
#     8   8   8   8   8   8   8
#     4   9  17  31  53  78 101 129 168 212 254 295
#     4   9  14  22  34  53  93 143 171 186 226 292
#     4   9  15  23  37  61  95 129 163 199 239 290
#     4   9  14  19  31  55  90 126 155 192 239 285
#     4   9  15  23  37  61  95 129 163 199 239 290
#     4  10  21  39  59  77 101 132 168 210 258 314
#     4   9  17  31  53  78 101 129 168 212 254 295
#
# _framework density 18.587434999999999
#
# number of rings (size 3 to 8) (size 9 to 14) (size 15 to 20)
#    0.000    2.857    1.429    1.286    0.000    5.143 
#    2.571    0.000    0.000    0.857    0.000    1.000 
#    0.000    0.000    0.000    0.000    0.000    0.000 
#
# Total GULP energy -346931.900433 kJ/mol
# GULP energy per Si atom -12390.425015 kJ/mol
# Density = 1.854513 g / cm^3
# Si number density = 18.587435 Si / 1000 Ang^3
#
#
#
# Elastic Constant Matrix: (Units=GPa)
#
#
# Indices 1 2 3 4 5 6 
#
# 1 172.1145 29.6353 92.7764 0.0000 -0.0005 0.0000
# 2 29.6353 23.8249 25.4174 0.0000 -0.0002 0.0000
# 3 92.7764 25.4174 168.8654 0.0000 -0.0004 0.0000
# 4 0.0000 0.0000 0.0000 -7.9420 0.0000 -0.0001
# 5 -0.0005 -0.0002 -0.0004 0.0000 34.9351 0.0000
# 6 0.0000 0.0000 0.0000 -0.0001 0.0000 15.4312
#
#
#
# Elastic Compliance Matrix: (Units=1/GPa)
#
#
# Indices 1 2 3 4 5 6 
#
# 1 0.009186 -0.007198 -0.003963 0.000000 0.000000 0.000000
# 2 -0.007198 0.055642 -0.004421 0.000000 0.000000 0.000000
# 3 -0.003963 -0.004421 0.008765 0.000000 0.000000 0.000000
# 4 0.000000 0.000000 0.000000 -0.125913 0.000000 -0.000001
# 5 0.000000 0.000000 0.000000 0.000000 0.028625 0.000000
# 6 0.000000 0.000000 0.000000 -0.000001 0.000000 0.064804
#
#
# Mechanical properties :
#
#
# Convention : Reuss Voigt Hill
#
# Bulk Modulus (GPa) = 23.56869 73.38477 48.47673
# Shear Modulus (GPa) = 57.86049 22.94990 40.40519
#
# Velocity S-wave (km/s) = 5.58537 3.51764 4.66745
# Velocity P-wave (km/s) = 7.36903 7.48765 7.42858
#
# Compressibility (1/GPa) = 0.04242918
#
# Stress axis : x y z
#
# Youngs Moduli (GPa) = 108.86305 17.97197 114.09272
#
# Poissons Ratio (x) = 0.12936 0.45220
# Poissons Ratio (y) = 0.78357 0.50436
# Poissons Ratio (z) = 0.43147 0.07945
#
# Static dielectric constant tensor:
#      x y z
#    x 3.775750 0.000000 0.000000 
#    y 0.000000 2.778660 0.000000 
#    z 0.000000 0.000000 3.546850 
# 
# 
# High freq. dielectric constant tensor:
#      x y z
#    x 1.732360 0.000000 0.000000 
#    y 0.000000 1.652000 0.000000 
#    z 0.000000 0.000000 1.733430 
# 
# From -- ./inp_files/205000.got.cif
#   From: 2010.06.25/outbox.cif.g09.slc.cpg/sg12_103_cif.got.tgz:205000.got - 2010.06.28 00:19:55.
