data_PCOD8108126
_publ_section_title
;
Structure prediction by ZEFSAII (Michael W. Deem and Ramdas Pophale) SiO2 
 PCOD8108126
Probable space group: C 2/M
;
_chemical_formula_sum "Si O2"
_cell_formula_units_Z 48
_cell_length_a 10.465775
_cell_length_b 15.342802
_cell_length_c 14.778706
_cell_angle_alpha 90.000000
_cell_angle_beta 123.754854
_cell_angle_gamma 90.000000
_cell_volume 1973.032682
_symmetry_space_group_name_H-M "C 2/M"
_symmetry_group_IT_number 12
_symmetry_cell_setting 'monoclinic'
loop_
_space_group_symop_operation_xyz
x,y,z
-x,y,-z
-x,-y,-z
x,-y,z
1/2+x,1/2+y,z
1/2-x,1/2+y,-z
1/2-x,1/2-y,-z
1/2+x,1/2-y,z
loop_
_atom_site_type_symbol
_atom_site_label
_atom_site_fract_x
_atom_site_fract_y
_atom_site_fract_z
Si Si1 0.821073 0.000000 0.165492
Si Si2 0.178474 0.500000 0.554408
Si Si3 0.872780 0.000000 0.812916
Si Si4 0.144140 0.000000 0.620244
Si Si5 0.821006 0.308950 0.445261
Si Si6 0.870433 0.655510 0.681908
Si Si7 0.293998 0.839094 0.230170
Si Si8 0.644970 0.176882 0.118253
O O1 0.714290 0.915416 0.115337
O O2 0.910730 0.000000 0.296976
O O3 0.945804 0.000000 0.135055
O O4 0.270279 0.500000 0.682784
O O5 0.209130 0.404896 0.516819
O O6 0.000000 0.500000 0.500000
O O7 0.823921 0.085747 0.850178
O O8 0.244273 0.082559 0.638405
O O9 0.000000 0.000000 0.500000
O O10 0.698415 0.226911 0.420839
O O11 0.753527 0.316870 0.317490
O O12 0.000000 0.281791 0.500000
O O13 0.908765 0.683547 0.799078
O O14 0.031654 0.625191 0.704149
O O15 0.271672 0.754071 0.157390
O O16 0.500000 0.198136 0.000000
#
# Coordination Sequence:
#
# PCOD8108126 Si02
#       8
#     4   4   4   4   8   8   8   8
#     4  10  23  42  69  91 127 164 207 263 308 374
#     4   8  16  31  51  76 117 150 200 238 278 352
#     4  10  21  41  59  88 130 163 200 252 315 367
#     4  10  21  42  60  94 123 169 215 250 303 368
#     4   9  18  34  53  84 121 160 205 244 297 364
#     4  10  21  38  60  85 125 162 202 257 314 360
#     4  10  22  38  60  90 129 162 202 260 313 370
#     4  10  23  42  68  92 118 161 215 261 321 382
#
# _framework density 24.328030999999999
#
# number of rings (size 3 to 8) (size 9 to 14) (size 15 to 20)
#    0.000    2.333    0.000    1.250    7.000    1.333 
#   12.000    0.417    0.000    0.000    0.000    0.000 
#    0.000    0.000    0.000    0.000    0.000    0.000 
#
# Total GULP energy -297339.914295 kJ/mol
# GULP energy per Si atom -12389.163096 kJ/mol
# Density = 2.427266 g / cm^3
# Si number density = 24.328031 Si / 1000 Ang^3
#
#
#
# Elastic Constant Matrix: (Units=GPa)
#
#
# Indices 1 2 3 4 5 6 
#
# 1 79.6440 37.0671 21.0413 0.0000 23.1062 0.0000
# 2 37.0671 179.9582 32.8689 0.0000 18.6418 0.0000
# 3 21.0413 32.8689 108.6714 0.0000 7.5800 0.0000
# 4 0.0000 0.0000 0.0000 24.0503 0.0000 12.4236
# 5 23.1062 18.6418 7.5800 0.0000 28.5284 0.0000
# 6 0.0000 0.0000 0.0000 12.4236 0.0000 40.4375
#
#
#
# Elastic Compliance Matrix: (Units=1/GPa)
#
#
# Indices 1 2 3 4 5 6 
#
# 1 0.017602 -0.001982 -0.001941 0.000000 -0.012446 0.000000
# 2 -0.001982 0.006455 -0.001413 0.000000 -0.002237 0.000000
# 3 -0.001941 -0.001413 0.010017 0.000000 -0.000167 0.000000
# 4 0.000000 0.000000 0.000000 0.049423 0.000000 -0.015184
# 5 -0.012446 -0.002237 -0.000167 0.000000 0.046639 0.000000
# 6 0.000000 0.000000 0.000000 -0.015184 0.000000 0.029395
#
#
# Mechanical properties :
#
#
# Convention : Reuss Voigt Hill
#
# Bulk Modulus (GPa) = 42.72915 61.13646 51.93281
# Shear Modulus (GPa) = 28.08969 37.08965 32.58967
#
# Velocity S-wave (km/s) = 3.40166 3.90880 3.66402
# Velocity P-wave (km/s) = 5.74720 6.74954 6.26843
#
# Compressibility (1/GPa) = 0.02340323
#
# Stress axis : x y z
#
# Youngs Moduli (GPa) = 56.81295 154.92276 99.83375
#
# Poissons Ratio (x) = 0.30703 0.19373
# Poissons Ratio (y) = 0.11259 0.14102
# Poissons Ratio (z) = 0.11025 0.21883
#
# Static dielectric constant tensor:
#      x y z
#    x 4.139190 0.000000 -0.232920 
#    y 0.000000 5.381230 0.000000 
#    z -0.232920 0.000000 4.278160 
# 
# 
# High freq. dielectric constant tensor:
#      x y z
#    x 1.956180 0.000000 -0.003820 
#    y 0.000000 1.991620 0.000000 
#    z -0.003820 0.000000 1.966890 
# 
# From -- ./inp_files/305735.got.cif
#   From: 2010.06.25/outbox.cif.g09.slc.cpg/sg12_153_cif.got.tgz:305735.got - 2010.06.28 00:19:55.
