data_PCOD8108718
_publ_section_title
;
Structure prediction by ZEFSAII (Michael W. Deem and Ramdas Pophale) SiO2 
 PCOD8108718
Probable space group: C 2/M
;
_chemical_formula_sum "Si O2"
_cell_formula_units_Z 48
_cell_length_a 27.506954
_cell_length_b 8.430701
_cell_length_c 10.035863
_cell_angle_alpha 90.000000
_cell_angle_beta 90.210686
_cell_angle_gamma 90.000000
_cell_volume 2327.330045
_symmetry_space_group_name_H-M "C 2/M"
_symmetry_group_IT_number 12
_symmetry_cell_setting 'monoclinic'
loop_
_space_group_symop_operation_xyz
x,y,z
-x,y,-z
-x,-y,-z
x,-y,z
1/2+x,1/2+y,z
1/2-x,1/2+y,-z
1/2-x,1/2-y,-z
1/2+x,1/2-y,z
loop_
_atom_site_type_symbol
_atom_site_label
_atom_site_fract_x
_atom_site_fract_y
_atom_site_fract_z
Si Si1 0.187435 0.815178 0.755060
Si Si2 0.540352 0.312378 0.099752
Si Si3 0.853561 0.188244 0.965895
Si Si4 0.042433 0.186214 0.401539
Si Si5 0.292010 0.314989 0.715187
Si Si6 0.858058 0.317235 0.493880
O O1 0.234921 0.714701 0.721002
O O2 0.147572 0.786466 0.640033
O O3 0.200626 0.000000 0.765392
O O4 0.165635 0.749140 0.892905
O O5 0.541949 0.500000 0.081744
O O6 0.592962 0.240550 0.062229
O O7 0.526732 0.268085 0.251398
O O8 0.500000 0.238727 0.000000
O O9 0.816843 0.247187 0.851250
O O10 0.856275 0.000000 0.967100
O O11 0.091378 0.277406 0.436020
O O12 0.000000 0.242247 0.500000
O O13 0.052797 0.000000 0.415051
O O14 0.302720 0.500000 0.692588
O O15 0.313748 0.218960 0.592297
O O16 0.856545 0.500000 0.453793
#
# Coordination Sequence:
#
# PCOD8108718 Si02
#       6
#     8   8   8   8   8   8
#     4  11  23  38  60  91 122 157 203 249 299 361
#     4   9  17  32  58  91 121 147 187 241 296 352
#     4   9  19  35  59  89 122 156 194 247 302 355
#     4  10  21  38  64  93 119 154 199 247 298 354
#     4  11  21  40  64  88 120 157 201 251 303 359
#     4  12  25  41  60  86 123 165 202 246 300 353
#
# _framework density 20.624492
#
# number of rings (size 3 to 8) (size 9 to 14) (size 15 to 20)
#    0.000    1.667    1.667    3.500    2.333    0.333 
#    0.000    2.500    0.000    0.500    0.000    0.000 
#    0.000    0.000    0.000    0.000    0.000    0.000 
#
# Total GULP energy -297710.857959 kJ/mol
# GULP energy per Si atom -12404.619082 kJ/mol
# Density = 2.057755 g / cm^3
# Si number density = 20.624492 Si / 1000 Ang^3
#
#
#
# Elastic Constant Matrix: (Units=GPa)
#
#
# Indices 1 2 3 4 5 6 
#
# 1 104.7057 14.4552 42.5582 0.0000 -2.8735 0.0000
# 2 14.4552 38.3983 18.2200 0.0000 -1.9181 0.0000
# 3 42.5582 18.2200 146.1660 0.0000 -1.7239 0.0000
# 4 0.0000 0.0000 0.0000 5.2671 0.0000 -0.5310
# 5 -2.8735 -1.9181 -1.7239 0.0000 46.0612 0.0000
# 6 0.0000 0.0000 0.0000 -0.5310 0.0000 23.8944
#
#
#
# Elastic Compliance Matrix: (Units=1/GPa)
#
#
# Indices 1 2 3 4 5 6 
#
# 1 0.011122 -0.002795 -0.002884 0.000000 0.000469 0.000000
# 2 -0.002795 0.028431 -0.002720 0.000000 0.000908 0.000000
# 3 -0.002884 -0.002720 0.008020 0.000000 0.000007 0.000000
# 4 0.000000 0.000000 0.000000 0.190282 0.000000 0.004228
# 5 0.000469 0.000908 0.000007 0.000000 0.021778 0.000000
# 6 0.000000 0.000000 0.000000 0.004228 0.000000 0.041945
#
#
# Mechanical properties :
#
#
# Convention : Reuss Voigt Hill
#
# Bulk Modulus (GPa) = 32.49326 48.85965 40.67645
# Shear Modulus (GPa) = 15.21452 29.31365 22.26409
#
# Velocity S-wave (km/s) = 2.71900 3.77411 3.28914
# Velocity P-wave (km/s) = 5.06420 6.53708 5.84720
#
# Compressibility (1/GPa) = 0.03077561
#
# Stress axis : x y z
#
# Youngs Moduli (GPa) = 89.91488 35.17322 124.68166
#
# Poissons Ratio (x) = 0.09830 0.35962
# Poissons Ratio (y) = 0.25129 0.33908
# Poissons Ratio (z) = 0.25934 0.09566
#
# Static dielectric constant tensor:
#      x y z
#    x 3.821000 0.000000 -0.005990 
#    y 0.000000 3.284780 0.000000 
#    z -0.005990 0.000000 4.028400 
# 
# 
# High freq. dielectric constant tensor:
#      x y z
#    x 1.813420 0.000000 0.002270 
#    y 0.000000 1.769600 0.000000 
#    z 0.002270 0.000000 1.825080 
# 
# From -- ./inp_files/108778.got.cif
#   From: 2010.06.25/outbox.cif.g09.slc.cpg/sg12_55_cif.got.tgz:108778.got - 2010.06.28 00:19:55.
