data_PCOD8108004
_publ_section_title
;
Structure prediction by ZEFSAII (Michael W. Deem and Ramdas Pophale) SiO2 
 PCOD8108004
Probable space group: C 2/M
;
_chemical_formula_sum "Si O2"
_cell_formula_units_Z 56
_cell_length_a 28.328467
_cell_length_b 8.903011
_cell_length_c 16.364320
_cell_angle_alpha 90.000000
_cell_angle_beta 40.513718
_cell_angle_gamma 90.000000
_cell_volume 2681.168317
_symmetry_space_group_name_H-M "C 2/M"
_symmetry_group_IT_number 12
_symmetry_cell_setting 'monoclinic'
loop_
_space_group_symop_operation_xyz
x,y,z
-x,y,-z
-x,-y,-z
x,-y,z
1/2+x,1/2+y,z
1/2-x,1/2+y,-z
1/2-x,1/2-y,-z
1/2+x,1/2-y,z
loop_
_atom_site_type_symbol
_atom_site_label
_atom_site_fract_x
_atom_site_fract_y
_atom_site_fract_z
Si Si1 0.045871 0.822608 0.683614
Si Si2 0.043334 0.677106 0.524084
Si Si3 0.421210 0.178431 0.929863
Si Si4 0.286290 0.679209 0.530670
Si Si5 0.340372 0.327779 0.718818
Si Si6 0.295332 0.827935 0.203619
Si Si7 0.328300 0.176925 0.896773
O O1 0.009469 0.744605 0.651545
O O2 0.129444 0.770224 0.580400
O O3 0.999418 0.761442 0.822622
O O4 0.038353 0.000000 0.687378
O O5 0.050967 0.500000 0.523642
O O6 0.121036 0.758896 0.411975
O O7 0.000000 0.723637 0.500000
O O8 0.376077 0.229780 0.909807
O O9 0.433108 0.000000 0.916605
O O10 0.374947 0.233899 0.070862
O O11 0.281986 0.500000 0.533750
O O12 0.250000 0.750000 0.500000
O O13 0.241793 0.747152 0.667660
O O14 0.363080 0.500000 0.702341
O O15 0.254796 0.313979 0.811604
O O16 0.365901 0.230974 0.763242
O O17 0.305123 0.000000 0.214261
O O18 0.319311 0.000000 0.907373
O O19 0.250000 0.250000 0.000000
#
# Coordination Sequence:
#
# PCOD8108004 Si02
#       7
#     8   8   8   8   8   8   8
#     4  11  23  40  62  90 124 160 200 253 310 365
#     4  11  23  37  54  82 121 163 207 252 297 357
#     4  10  21  38  59  84 121 165 204 247 300 357
#     4  10  22  43  69  94 119 151 198 253 312 374
#     4  11  20  35  56  80 114 157 204 255 301 348
#     4   9  18  38  62  84 115 155 195 241 296 356
#     4  11  21  33  51  80 119 165 213 256 298 354
#
# _framework density 20.886416000000001
#
# number of rings (size 3 to 8) (size 9 to 14) (size 15 to 20)
#    0.000    1.571    2.857    2.571    0.000    6.857 
#    0.000    1.429    0.000    4.286    0.000    0.000 
#    0.000    0.000    0.000    0.000    0.000    0.000 
#
# Total GULP energy -347060.110805 kJ/mol
# GULP energy per Si atom -12395.003957 kJ/mol
# Density = 2.083888 g / cm^3
# Si number density = 20.886416 Si / 1000 Ang^3
#
#
#
# Elastic Constant Matrix: (Units=GPa)
#
#
# Indices 1 2 3 4 5 6 
#
# 1 78.1859 28.0052 48.2619 0.0146 6.2759 -0.0013
# 2 28.0052 57.5249 37.6349 0.0267 -2.2995 -0.0125
# 3 48.2619 37.6349 178.9199 0.0401 0.2615 -0.0136
# 4 0.0146 0.0267 0.0401 36.9645 -0.0152 0.0930
# 5 6.2759 -2.2995 0.2615 -0.0152 22.1290 -0.0019
# 6 -0.0013 -0.0125 -0.0136 0.0930 -0.0019 27.1432
#
#
#
# Elastic Compliance Matrix: (Units=1/GPa)
#
#
# Indices 1 2 3 4 5 6 
#
# 1 0.017704 -0.006641 -0.003370 -0.000001 -0.005671 -0.000004
# 2 -0.006641 0.022751 -0.003001 -0.000009 0.004283 0.000009
# 3 -0.003370 -0.003001 0.007129 -0.000004 0.000560 0.000002
# 4 -0.000001 -0.000009 -0.000004 0.027053 0.000018 -0.000093
# 5 -0.005671 0.004283 0.000560 0.000018 0.047236 0.000005
# 6 -0.000004 0.000009 0.000002 -0.000093 0.000005 0.036842
#
#
# Mechanical properties :
#
#
# Convention : Reuss Voigt Hill
#
# Bulk Modulus (GPa) = 46.38120 60.27052 53.32586
# Shear Modulus (GPa) = 26.05172 30.62925 28.34048
#
# Velocity S-wave (km/s) = 3.53555 3.83360 3.68759
# Velocity P-wave (km/s) = 6.23870 6.96522 6.61195
#
# Compressibility (1/GPa) = 0.02156046
#
# Stress axis : x y z
#
# Youngs Moduli (GPa) = 56.48318 43.95408 140.28066
#
# Poissons Ratio (x) = 0.29189 0.47281
# Poissons Ratio (y) = 0.37509 0.42092
# Poissons Ratio (z) = 0.19037 0.13189
#
# Static dielectric constant tensor:
#      x y z
#    x 3.475410 0.000000 0.081260 
#    y 0.000000 3.570210 0.000020 
#    z 0.081260 0.000020 4.398330 
# 
# 
# High freq. dielectric constant tensor:
#      x y z
#    x 1.784190 0.000000 0.001990 
#    y 0.000000 1.796080 0.000000 
#    z 0.001990 0.000000 1.848180 
# 
# From -- ./inp_files/292405.got.cif
#   From: 2010.06.25/outbox.cif.g09.slc.cpg/sg12_147_cif.got.tgz:292405.got - 2010.06.28 00:19:55.
