data_PCOD8108824
_publ_section_title
;
Structure prediction by ZEFSAII (Michael W. Deem and Ramdas Pophale) SiO2 
 PCOD8108824
Probable space group: C 2/M
;
_chemical_formula_sum "Si O2"
_cell_formula_units_Z 64
_cell_length_a 24.885338
_cell_length_b 19.501114
_cell_length_c 18.788080
_cell_angle_alpha 90.000000
_cell_angle_beta 158.929149
_cell_angle_gamma 90.000000
_cell_volume 3278.015388
_symmetry_space_group_name_H-M "C 2/M"
_symmetry_group_IT_number 12
_symmetry_cell_setting 'monoclinic'
loop_
_space_group_symop_operation_xyz
x,y,z
-x,y,-z
-x,-y,-z
x,-y,z
1/2+x,1/2+y,z
1/2-x,1/2+y,-z
1/2-x,1/2-y,-z
1/2+x,1/2-y,z
loop_
_atom_site_type_symbol
_atom_site_label
_atom_site_fract_x
_atom_site_fract_y
_atom_site_fract_z
Si Si1 0.539733 0.423745 0.393239
Si Si2 0.730766 0.783159 0.663699
Si Si3 0.346312 0.576698 0.769419
Si Si4 0.925514 0.869311 0.719592
Si Si5 0.052764 0.206447 0.645109
Si Si6 0.155313 0.702961 0.329494
Si Si7 0.352796 0.735981 0.969509
Si Si8 0.134151 0.577316 0.213710
O O1 0.472764 0.500000 0.323424
O O2 0.558009 0.412093 0.331604
O O3 0.435443 0.367042 0.301024
O O4 0.707728 0.418691 0.633921
O O5 0.729324 0.865766 0.652105
O O6 0.560666 0.756153 0.452954
O O7 0.822671 0.749154 0.713470
O O8 0.810347 0.760244 0.834430
O O9 0.285668 0.500000 0.711382
O O10 0.371428 0.581730 0.715771
O O11 0.500000 0.590972 0.000000
O O12 0.806551 0.802108 0.568033
O O13 0.090820 0.840485 0.941692
O O14 0.000000 0.193540 0.500000
O O15 0.213861 0.242528 0.847033
O O16 0.149105 0.622570 0.302297
O O17 0.992201 0.715075 0.161366
O O18 0.098711 0.500000 0.194216
O O19 0.000000 0.606539 0.000000
#
# Coordination Sequence:
#
# PCOD8108824 Si02
#       8
#     8   8   8   8   8   8   8   8
#     4  10  21  39  57  82 124 164 200 243 294 354
#     4  11  19  40  60  86 120 150 196 245 295 349
#     4  11  22  37  63  93 118 150 198 251 301 352
#     4  11  21  37  60  93 117 154 192 253 299 353
#     4  10  23  38  59  89 120 159 204 241 292 351
#     4  11  20  33  61  85 117 151 195 241 301 345
#     4  11  22  35  59  91 117 153 200 252 288 348
#     4   9  17  29  51  80 111 150 192 236 286 338
#
# _framework density 19.524009
#
# number of rings (size 3 to 8) (size 9 to 14) (size 15 to 20)
#    0.000    1.500    5.000    1.875    1.750    1.250 
#    0.000    0.625    0.000    6.375    0.000    0.000 
#    0.000    0.000    0.000    0.000    0.000    0.000 
#
# Total GULP energy -396692.149056 kJ/mol
# GULP energy per Si atom -12396.629658 kJ/mol
# Density = 1.947957 g / cm^3
# Si number density = 19.524009 Si / 1000 Ang^3
#
#
#
# Elastic Constant Matrix: (Units=GPa)
#
#
# Indices 1 2 3 4 5 6 
#
# 1 62.1618 30.6021 28.1556 0.0000 5.7615 0.0000
# 2 30.6021 125.4838 37.5317 0.0000 15.0510 0.0000
# 3 28.1556 37.5317 101.0779 0.0001 10.8150 0.0000
# 4 0.0000 0.0000 0.0001 10.3192 0.0000 3.5456
# 5 5.7615 15.0510 10.8150 0.0000 27.4355 0.0000
# 6 0.0000 0.0000 0.0000 3.5456 0.0000 25.5368
#
#
#
# Elastic Compliance Matrix: (Units=1/GPa)
#
#
# Indices 1 2 3 4 5 6 
#
# 1 0.019741 -0.003507 -0.004133 0.000000 -0.000592 0.000000
# 2 -0.003507 0.009976 -0.002318 0.000000 -0.003823 0.000000
# 3 -0.004133 -0.002318 0.012191 0.000000 -0.002666 0.000000
# 4 0.000000 0.000000 0.000000 0.101761 0.000000 -0.014129
# 5 -0.000592 -0.003823 -0.002666 0.000000 0.039721 0.000000
# 6 0.000000 0.000000 0.000000 -0.014129 0.000000 0.041121
#
#
# Mechanical properties :
#
#
# Convention : Reuss Voigt Hill
#
# Bulk Modulus (GPa) = 45.47442 53.47802 49.47622
# Shear Modulus (GPa) = 19.86032 25.48726 22.67379
#
# Velocity S-wave (km/s) = 3.19286 3.61700 3.41152
# Velocity P-wave (km/s) = 6.07738 6.70029 6.39642
#
# Compressibility (1/GPa) = 0.02199038
#
# Stress axis : x y z
#
# Youngs Moduli (GPa) = 50.65724 100.23730 82.02901
#
# Poissons Ratio (x) = 0.35152 0.33905
# Poissons Ratio (y) = 0.17765 0.19018
# Poissons Ratio (z) = 0.20938 0.23240
#
# Static dielectric constant tensor:
#      x y z
#    x 3.406720 0.000000 -0.126030 
#    y 0.000000 3.749760 0.000000 
#    z -0.126030 0.000000 3.800390 
# 
# 
# High freq. dielectric constant tensor:
#      x y z
#    x 1.740650 0.000000 -0.018400 
#    y 0.000000 1.771620 0.000000 
#    z -0.018400 0.000000 1.756310 
# 
# From -- ./inp_files/328641.got.cif
#   From: 2010.06.25/outbox.cif.g09.slc.cpg/sg12_165_cif.got.tgz:328641.got - 2010.06.28 00:19:55.
