data_PCOD8108120
_publ_section_title
;
Structure prediction by ZEFSAII (Michael W. Deem and Ramdas Pophale) SiO2 
 PCOD8108120
Probable space group: C 2/M
;
_chemical_formula_sum "Si O2"
_cell_formula_units_Z 56
_cell_length_a 8.985664
_cell_length_b 18.150995
_cell_length_c 23.509150
_cell_angle_alpha 90.000000
_cell_angle_beta 134.367310
_cell_angle_gamma 90.000000
_cell_volume 2741.041919
_symmetry_space_group_name_H-M "C 2/M"
_symmetry_group_IT_number 12
_symmetry_cell_setting 'monoclinic'
loop_
_space_group_symop_operation_xyz
x,y,z
-x,y,-z
-x,-y,-z
x,-y,z
1/2+x,1/2+y,z
1/2-x,1/2+y,-z
1/2-x,1/2-y,-z
1/2+x,1/2-y,z
loop_
_atom_site_type_symbol
_atom_site_label
_atom_site_fract_x
_atom_site_fract_y
_atom_site_fract_z
Si Si1 0.442613 0.804949 0.048190
Si Si2 0.231981 0.084028 0.071264
Si Si3 0.310742 0.209180 0.684028
Si Si4 0.779175 0.921270 0.801244
Si Si5 0.060968 0.692388 0.452650
Si Si6 0.719359 0.263692 0.208380
Si Si7 0.860818 0.418920 0.622940
O O1 0.392949 0.875773 0.072921
O O2 0.650353 0.766723 0.128903
O O3 0.500000 0.829340 0.000000
O O4 0.250000 0.750000 0.000000
O O5 0.300165 0.092068 0.155289
O O6 0.233466 0.000000 0.051532
O O7 0.000000 0.117413 0.000000
O O8 0.350790 0.205265 0.762402
O O9 0.533655 0.228278 0.716774
O O10 0.232429 0.133087 0.633349
O O11 0.146552 0.273400 0.629528
O O12 0.893187 0.845119 0.813316
O O13 0.587382 0.931691 0.708513
O O14 0.908252 0.000000 0.833046
O O15 0.250000 0.750000 0.500000
O O16 0.127579 0.619785 0.435636
O O17 0.000000 0.668713 0.500000
O O18 0.753670 0.500000 0.587968
#
# Coordination Sequence:
#
# PCOD8108120 Si02
#       7
#     8   8   8   8   8   8   8
#     4  12  23  36  55  86 123 157 204 260 303 356
#     4  10  21  38  60  85 118 161 207 255 314 372
#     4  11  20  39  61  90 116 158 206 247 300 371
#     4   9  17  33  57  84 114 152 202 249 292 359
#     4  12  22  39  64  92 122 156 200 250 303 376
#     4  11  21  35  60  87 118 161 205 250 302 359
#     4  10  21  38  62  91 123 159 201 250 305 362
#
# _framework density 20.430188000000001
#
# number of rings (size 3 to 8) (size 9 to 14) (size 15 to 20)
#    0.000    1.286    4.286    4.714    0.000    0.571 
#    0.000    1.429    0.000    6.857    0.000    0.000 
#    0.000    0.000    0.000    0.000    0.000    0.000 
#
# Total GULP energy -346889.562650 kJ/mol
# GULP energy per Si atom -12388.912952 kJ/mol
# Density = 2.038369 g / cm^3
# Si number density = 20.430188 Si / 1000 Ang^3
#
#
#
# Elastic Constant Matrix: (Units=GPa)
#
#
# Indices 1 2 3 4 5 6 
#
# 1 79.1476 51.6258 32.1876 0.0003 -24.8440 0.0000
# 2 51.6258 126.0386 35.3018 0.0002 -15.2039 -0.0001
# 3 32.1876 35.3018 85.7386 0.0006 -20.5899 -0.0002
# 4 0.0003 0.0002 0.0006 -39.4207 0.0003 4.4567
# 5 -24.8440 -15.2039 -20.5899 0.0003 42.8017 -0.0001
# 6 0.0000 -0.0001 -0.0002 4.4567 -0.0001 29.3320
#
#
#
# Elastic Compliance Matrix: (Units=1/GPa)
#
#
# Indices 1 2 3 4 5 6 
#
# 1 0.020829 -0.006672 -0.003096 0.000000 0.008231 0.000000
# 2 -0.006672 0.011202 -0.002354 0.000000 -0.001026 0.000000
# 3 -0.003096 -0.002354 0.014882 0.000000 0.004526 0.000000
# 4 0.000000 0.000000 0.000000 -0.024939 0.000000 0.003789
# 5 0.008231 -0.001026 0.004526 0.000000 0.029954 0.000000
# 6 0.000000 0.000000 0.000000 0.003789 0.000000 0.033517
#
#
# Mechanical properties :
#
#
# Convention : Reuss Voigt Hill
#
# Bulk Modulus (GPa) = 44.11160 58.79502 51.45331
# Shear Modulus (GPa) = 42.64581 17.99658 30.32120
#
# Velocity S-wave (km/s) = 4.57376 2.97119 3.85663
# Velocity P-wave (km/s) = 7.03780 6.37272 6.71350
#
# Compressibility (1/GPa) = 0.02266977
#
# Stress axis : x y z
#
# Youngs Moduli (GPa) = 48.00992 89.26639 67.19637
#
# Poissons Ratio (x) = 0.59555 0.20804
# Poissons Ratio (y) = 0.32030 0.15819
# Poissons Ratio (z) = 0.14864 0.21015
#
# Static dielectric constant tensor:
#      x y z
#    x 3.552620 0.000000 -0.224120 
#    y 0.000000 4.346190 0.000000 
#    z -0.224120 0.000000 3.848570 
# 
# 
# High freq. dielectric constant tensor:
#      x y z
#    x 1.762200 0.000000 -0.020620 
#    y 0.000000 1.801840 0.000000 
#    z -0.020620 0.000000 1.815230 
# 
# From -- ./inp_files/300679.got.cif
#   From: 2010.06.25/outbox.cif.g09.slc.cpg/sg12_151_cif.got.tgz:300679.got - 2010.06.28 00:19:55.
