data_PCOD8108154
_publ_section_title
;
Structure prediction by ZEFSAII (Michael W. Deem and Ramdas Pophale) SiO2 
 PCOD8108154
Probable space group: C 2/M
;
_chemical_formula_sum "Si O2"
_cell_formula_units_Z 56
_cell_length_a 21.049970
_cell_length_b 8.772491
_cell_length_c 21.198117
_cell_angle_alpha 90.000000
_cell_angle_beta 45.272985
_cell_angle_gamma 90.000000
_cell_volume 2781.096526
_symmetry_space_group_name_H-M "C 2/M"
_symmetry_group_IT_number 12
_symmetry_cell_setting 'monoclinic'
loop_
_space_group_symop_operation_xyz
x,y,z
-x,y,-z
-x,-y,-z
x,-y,z
1/2+x,1/2+y,z
1/2-x,1/2+y,-z
1/2-x,1/2-y,-z
1/2+x,1/2-y,z
loop_
_atom_site_type_symbol
_atom_site_label
_atom_site_fract_x
_atom_site_fract_y
_atom_site_fract_z
Si Si1 0.875533 0.677421 0.562120
Si Si2 0.452901 0.826451 0.229176
Si Si3 0.894200 0.674528 0.782758
Si Si4 0.031122 0.681564 0.046082
Si Si5 0.712117 0.323962 0.589937
Si Si6 0.043716 0.179454 0.381906
Si Si7 0.725542 0.819323 0.950378
O O1 0.902292 0.500000 0.538429
O O2 0.778312 0.708267 0.601806
O O3 0.878531 0.734838 0.632309
O O4 0.946139 0.780319 0.475621
O O5 0.552594 0.815078 0.188503
O O6 0.463266 0.765462 0.149711
O O7 0.384195 0.733586 0.320200
O O8 0.418938 0.000000 0.253353
O O9 0.877192 0.500000 0.775603
O O10 0.955231 0.758638 0.689258
O O11 0.800401 0.762521 0.849513
O O12 0.031840 0.500000 0.043771
O O13 0.130614 0.741945 0.991304
O O14 0.000000 0.748118 0.000000
O O15 0.702943 0.500000 0.580631
O O16 0.750000 0.250000 0.500000
O O17 0.059777 0.000000 0.373416
O O18 0.725984 0.000000 0.955621
O O19 0.750000 0.750000 0.000000
#
# Coordination Sequence:
#
# PCOD8108154 Si02
#       7
#     8   8   8   8   8   8   8
#     4  10  21  39  58  80 117 159 193 239 301 357
#     4  10  21  38  60  86 118 160 200 245 302 359
#     4  11  22  38  59  87 120 155 197 244 301 361
#     4   9  19  38  62  89 121 158 202 249 301 361
#     4  11  24  39  59  87 118 156 199 245 298 360
#     4  11  22  36  58  88 114 149 199 248 295 351
#     4  11  21  37  61  89 118 154 199 247 300 356
#
# _framework density 20.135943000000001
#
# number of rings (size 3 to 8) (size 9 to 14) (size 15 to 20)
#    0.000    1.571    1.429    4.714    0.000    8.000 
#    0.000    1.429    0.000    3.000    0.000    0.000 
#    0.000    0.000    0.000    0.000    0.000    0.000 
#
# Total GULP energy -347199.284338 kJ/mol
# GULP energy per Si atom -12399.974441 kJ/mol
# Density = 2.009011 g / cm^3
# Si number density = 20.135943 Si / 1000 Ang^3
#
#
#
# Elastic Constant Matrix: (Units=GPa)
#
#
# Indices 1 2 3 4 5 6 
#
# 1 106.5753 42.8685 48.7184 -0.0001 -0.7372 0.0001
# 2 42.8685 97.9294 33.2287 -0.0007 0.0481 0.0007
# 3 48.7184 33.2287 113.8742 -0.0001 7.5433 0.0001
# 4 -0.0001 -0.0007 -0.0001 35.0000 0.0000 0.9211
# 5 -0.7372 0.0481 7.5433 0.0000 35.5646 0.0000
# 6 0.0001 0.0007 0.0001 0.9211 0.0000 25.4306
#
#
#
# Elastic Compliance Matrix: (Units=1/GPa)
#
#
# Indices 1 2 3 4 5 6 
#
# 1 0.013137 -0.004236 -0.004465 0.000000 0.001225 0.000000
# 2 -0.004236 0.012717 -0.001918 0.000000 0.000302 0.000000
# 3 -0.004465 -0.001918 0.011418 0.000000 -0.002512 0.000000
# 4 0.000000 0.000000 0.000000 0.028599 0.000000 -0.001036
# 5 0.001225 0.000302 -0.002512 0.000000 0.028676 0.000000
# 6 0.000000 0.000000 0.000000 -0.001036 0.000000 0.039360
#
#
# Mechanical properties :
#
#
# Convention : Reuss Voigt Hill
#
# Bulk Modulus (GPa) = 62.37566 63.11222 62.74394
# Shear Modulus (GPa) = 31.15476 32.10327 31.62901
#
# Velocity S-wave (km/s) = 3.93774 3.99723 3.96760
# Velocity P-wave (km/s) = 7.19159 7.26051 7.22613
#
# Compressibility (1/GPa) = 0.01603189
#
# Stress axis : x y z
#
# Youngs Moduli (GPa) = 76.12330 78.63776 87.57978
#
# Poissons Ratio (x) = 0.33311 0.39107
# Poissons Ratio (y) = 0.32246 0.16802
# Poissons Ratio (z) = 0.33991 0.15086
#
# Static dielectric constant tensor:
#      x y z
#    x 3.925960 0.000000 0.122450 
#    y 0.000000 3.608780 0.000000 
#    z 0.122450 0.000000 3.695370 
# 
# 
# High freq. dielectric constant tensor:
#      x y z
#    x 1.789590 0.000000 0.006200 
#    y 0.000000 1.778280 0.000000 
#    z 0.006200 0.000000 1.789920 
# 
# From -- ./inp_files/319659.got.cif
#   From: 2010.06.25/outbox.cif.g09.slc.cpg/sg12_160_cif.got.tgz:319659.got - 2010.06.28 00:19:55.
