data_PCOD8108871
_publ_section_title
;
Structure prediction by ZEFSAII (Michael W. Deem and Ramdas Pophale) SiO2 
 PCOD8108871
Probable space group: C 2/M
;
_chemical_formula_sum "Si O2"
_cell_formula_units_Z 56
_cell_length_a 23.250857
_cell_length_b 13.896165
_cell_length_c 23.943148
_cell_angle_alpha 90.000000
_cell_angle_beta 20.701152
_cell_angle_gamma 90.000000
_cell_volume 2734.618808
_symmetry_space_group_name_H-M "C 2/M"
_symmetry_group_IT_number 12
_symmetry_cell_setting 'monoclinic'
loop_
_space_group_symop_operation_xyz
x,y,z
-x,y,-z
-x,-y,-z
x,-y,z
1/2+x,1/2+y,z
1/2-x,1/2+y,-z
1/2-x,1/2-y,-z
1/2+x,1/2-y,z
loop_
_atom_site_type_symbol
_atom_site_label
_atom_site_fract_x
_atom_site_fract_y
_atom_site_fract_z
Si Si1 0.704759 0.723712 0.870634
Si Si2 0.818276 0.770343 0.498504
Si Si3 0.615631 0.612194 0.233614
Si Si4 0.806936 0.389997 0.675987
Si Si5 0.675202 0.389377 0.056918
Si Si6 0.583350 0.304658 0.793482
Si Si7 0.927690 0.391170 0.739843
O O1 0.801419 0.823641 0.793492
O O2 0.715642 0.690827 0.796622
O O3 0.776962 0.629981 0.836159
O O4 0.522111 0.739578 0.059761
O O5 0.750000 0.750000 0.500000
O O6 0.681481 0.778070 0.670725
O O7 0.921243 0.868995 0.409274
O O8 0.929929 0.677924 0.408545
O O9 0.652245 0.500000 0.211361
O O10 0.680524 0.654059 0.114888
O O11 0.779775 0.500000 0.721002
O O12 0.718981 0.377768 0.695729
O O13 0.000000 0.367084 0.500000
O O14 0.634640 0.500000 0.101961
O O15 0.530441 0.351321 0.150108
O O16 0.855879 0.372689 0.867429
O O17 0.988292 0.500000 0.677416
#
# Coordination Sequence:
#
# PCOD8108871 Si02
#       7
#     8   8   8   8   8   8   8
#     4  10  22  37  61  84 118 157 200 246 294 351
#     4  11  22  34  54  83 121 159 194 240 293 358
#     4  10  21  39  59  82 116 157 203 247 295 348
#     4  11  23  40  63  92 126 159 194 241 301 367
#     4   9  18  33  55  84 114 153 196 239 292 353
#     4  11  22  36  58  87 123 155 194 244 303 359
#     4   9  19  33  52  78 112 151 193 236 291 353
#
# _framework density 20.478175
#
# number of rings (size 3 to 8) (size 9 to 14) (size 15 to 20)
#    0.000    1.857    1.429    3.000    2.000    6.857 
#    0.000    0.714    0.000    5.571    0.000    0.000 
#    0.000    0.000    0.000    0.000    0.000    0.000 
#
# Total GULP energy -346918.766856 kJ/mol
# GULP energy per Si atom -12389.955959 kJ/mol
# Density = 2.043157 g / cm^3
# Si number density = 20.478175 Si / 1000 Ang^3
#
#
#
# Elastic Constant Matrix: (Units=GPa)
#
#
# Indices 1 2 3 4 5 6 
#
# 1 67.4109 29.0597 20.1951 0.0077 3.6980 -0.0029
# 2 29.0597 85.5815 20.8028 0.0048 2.5659 -0.0030
# 3 20.1951 20.8028 98.9114 0.0125 12.5031 0.0005
# 4 0.0077 0.0048 0.0125 24.3769 -0.0036 5.8078
# 5 3.6980 2.5659 12.5031 -0.0036 32.2562 0.0013
# 6 -0.0029 -0.0030 0.0005 5.8078 0.0013 23.2191
#
#
#
# Elastic Compliance Matrix: (Units=1/GPa)
#
#
# Indices 1 2 3 4 5 6 
#
# 1 0.017966 -0.005490 -0.002427 -0.000004 -0.000682 0.000003
# 2 -0.005490 0.013992 -0.001851 0.000000 0.000234 0.000001
# 3 -0.002427 -0.001851 0.011505 -0.000006 -0.004034 0.000001
# 4 -0.000004 0.000000 -0.000006 0.043622 0.000008 -0.010911
# 5 -0.000682 0.000234 -0.004034 0.000008 0.032625 -0.000004
# 6 0.000003 0.000001 0.000001 -0.010911 -0.000004 0.045797
#
#
# Mechanical properties :
#
#
# Convention : Reuss Voigt Hill
#
# Bulk Modulus (GPa) = 41.79674 43.55768 42.67721
# Shear Modulus (GPa) = 25.90421 28.09352 26.99886
#
# Velocity S-wave (km/s) = 3.56050 3.70790 3.63495
# Velocity P-wave (km/s) = 6.11208 6.29665 6.20505
#
# Compressibility (1/GPa) = 0.02392531
#
# Stress axis : x y z
#
# Youngs Moduli (GPa) = 55.66209 71.46991 86.91910
#
# Poissons Ratio (x) = 0.39236 0.21097
# Poissons Ratio (y) = 0.30558 0.16093
# Poissons Ratio (z) = 0.13511 0.13232
#
# Static dielectric constant tensor:
#      x y z
#    x 3.459080 0.000140 0.570790 
#    y 0.000140 3.405200 -0.000130 
#    z 0.570790 -0.000130 2.839880 
# 
# 
# High freq. dielectric constant tensor:
#      x y z
#    x 1.794320 0.000000 0.001990 
#    y 0.000000 1.771940 0.000010 
#    z 0.001990 0.000010 1.810950 
# 
# From -- ./inp_files/349727.got.cif
#   From: 2010.06.25/outbox.cif.g09.slc.cpg/sg12_175_cif.got.tgz:349727.got - 2010.06.28 00:19:55.
