data_PCOD8108604
_publ_section_title
;
Structure prediction by ZEFSAII (Michael W. Deem and Ramdas Pophale) SiO2 
 PCOD8108604
Probable space group: C 2/M
;
_chemical_formula_sum "Si O2"
_cell_formula_units_Z 56
_cell_length_a 8.909186
_cell_length_b 21.742390
_cell_length_c 14.206954
_cell_angle_alpha 90.000000
_cell_angle_beta 90.753433
_cell_angle_gamma 90.000000
_cell_volume 2751.748457
_symmetry_space_group_name_H-M "C 2/M"
_symmetry_group_IT_number 12
_symmetry_cell_setting 'monoclinic'
loop_
_space_group_symop_operation_xyz
x,y,z
-x,y,-z
-x,-y,-z
x,-y,z
1/2+x,1/2+y,z
1/2-x,1/2+y,-z
1/2-x,1/2-y,-z
1/2+x,1/2-y,z
loop_
_atom_site_type_symbol
_atom_site_label
_atom_site_fract_x
_atom_site_fract_y
_atom_site_fract_z
Si Si1 0.320352 0.132360 0.069286
Si Si2 0.128335 0.324980 0.129296
Si Si3 0.363980 0.800156 0.383587
Si Si4 0.041419 0.000000 0.838299
Si Si5 0.798044 0.324357 0.583856
Si Si6 0.138177 0.881285 0.741620
Si Si7 0.858318 0.190801 0.783734
Si Si8 0.233863 0.000000 0.025442
O O1 0.459358 0.150305 0.136993
O O2 0.169882 0.145815 0.127151
O O3 0.322383 0.177651 0.979403
O O4 0.333459 0.061320 0.037802
O O5 0.235503 0.373870 0.178959
O O6 0.147828 0.260255 0.180830
O O7 0.320914 0.730855 0.409607
O O8 0.323681 0.842295 0.475011
O O9 0.543269 0.804678 0.365554
O O10 0.269611 0.823385 0.294253
O O11 0.052381 0.943662 0.765271
O O12 0.166997 0.000000 0.920218
O O13 0.884477 0.000000 0.890560
O O14 0.721392 0.380950 0.640231
O O15 0.021728 0.824138 0.744119
#
# Coordination Sequence:
#
# PCOD8108604 Si02
#       8
#     8   8   8   4   8   8   8   4
#     4  11  24  41  61  85 124 169 216 259 309 370
#     4  11  24  38  57  94 126 165 202 260 323 375
#     4  10  21  38  63  93 132 162 202 249 314 387
#     4  11  24  43  64  90 119 169 225 265 307 365
#     4  10  21  38  62  96 126 165 202 254 313 375
#     4  12  23  39  66  91 127 166 212 262 313 373
#     4  12  23  38  61  92 133 165 202 255 321 384
#     4  11  22  46  65  81 119 171 231 265 300 365
#
# _framework density 20.350698000000001
#
# number of rings (size 3 to 8) (size 9 to 14) (size 15 to 20)
#    0.000    1.000    4.286    3.000    0.000    5.143 
#    0.000    0.000    0.000    4.286    0.000    0.000 
#    0.000    0.000    0.000    0.000    0.000    0.000 
#
# Total GULP energy -347146.407836 kJ/mol
# GULP energy per Si atom -12398.085994 kJ/mol
# Density = 2.030438 g / cm^3
# Si number density = 20.350698 Si / 1000 Ang^3
#
#
#
# Elastic Constant Matrix: (Units=GPa)
#
#
# Indices 1 2 3 4 5 6 
#
# 1 88.3076 21.7607 51.8149 0.0000 -7.0184 0.0000
# 2 21.7607 71.6916 38.3814 0.0000 -6.1488 0.0000
# 3 51.8149 38.3814 103.3893 0.0000 -5.0835 0.0000
# 4 0.0000 0.0000 0.0000 24.3339 0.0000 -2.6549
# 5 -7.0184 -6.1488 -5.0835 0.0000 36.5518 0.0000
# 6 0.0000 0.0000 0.0000 -2.6549 0.0000 13.0319
#
#
#
# Elastic Compliance Matrix: (Units=1/GPa)
#
#
# Indices 1 2 3 4 5 6 
#
# 1 0.016202 -0.000569 -0.007814 0.000000 0.001929 0.000000
# 2 -0.000569 0.017581 -0.006143 0.000000 0.001994 0.000000
# 3 -0.007814 -0.006143 0.015853 0.000000 -0.000329 0.000000
# 4 0.000000 0.000000 0.000000 0.042029 0.000000 0.008562
# 5 0.001929 0.001994 -0.000329 0.000000 0.028018 0.000000
# 6 0.000000 0.000000 0.000000 0.008562 0.000000 0.078479
#
#
# Mechanical properties :
#
#
# Convention : Reuss Voigt Hill
#
# Bulk Modulus (GPa) = 48.58296 54.14470 51.36383
# Shear Modulus (GPa) = 21.36045 24.87897 23.11971
#
# Velocity S-wave (km/s) = 3.24329 3.50024 3.37421
# Velocity P-wave (km/s) = 6.16036 6.55737 6.36196
#
# Compressibility (1/GPa) = 0.02058335
#
# Stress axis : x y z
#
# Youngs Moduli (GPa) = 61.71909 56.87813 63.08078
#
# Poissons Ratio (x) = 0.03238 0.49291
# Poissons Ratio (y) = 0.03513 0.38754
# Poissons Ratio (z) = 0.48227 0.34943
#
# Static dielectric constant tensor:
#      x y z
#    x 3.759310 0.000000 -0.146740 
#    y 0.000000 3.333020 0.000000 
#    z -0.146740 0.000000 3.956430 
# 
# 
# High freq. dielectric constant tensor:
#      x y z
#    x 1.808200 0.000000 -0.012520 
#    y 0.000000 1.754430 0.000000 
#    z -0.012520 0.000000 1.807640 
# 
# From -- ./inp_files/197588.got.cif
#   From: 2010.06.25/outbox.cif.g09.slc.cpg/sg12_99_cif.got.tgz:197588.got - 2010.06.28 00:19:55.
