data_PCOD8108061
_publ_section_title
;
Structure prediction by ZEFSAII (Michael W. Deem and Ramdas Pophale) SiO2 
 PCOD8108061
Probable space group: C 2/M
;
_chemical_formula_sum "Si O2"
_cell_formula_units_Z 48
_cell_length_a 26.192717
_cell_length_b 9.276694
_cell_length_c 10.689208
_cell_angle_alpha 90.000000
_cell_angle_beta 67.156028
_cell_angle_gamma 90.000000
_cell_volume 2393.566555
_symmetry_space_group_name_H-M "C 2/M"
_symmetry_group_IT_number 12
_symmetry_cell_setting 'monoclinic'
loop_
_space_group_symop_operation_xyz
x,y,z
-x,y,-z
-x,-y,-z
x,-y,z
1/2+x,1/2+y,z
1/2-x,1/2+y,-z
1/2-x,1/2-y,-z
1/2+x,1/2-y,z
loop_
_atom_site_type_symbol
_atom_site_label
_atom_site_fract_x
_atom_site_fract_y
_atom_site_fract_z
Si Si1 0.544527 0.831901 0.851362
Si Si2 0.348848 0.334566 0.159997
Si Si3 0.861139 0.158160 0.635934
Si Si4 0.243710 0.341605 0.626861
Si Si5 0.307662 0.334305 0.932707
Si Si6 0.957939 0.668527 0.432897
O O1 0.598232 0.737138 0.826835
O O2 0.523343 0.797157 0.729027
O O3 0.559906 0.000000 0.848123
O O4 0.500000 0.789229 0.000000
O O5 0.345284 0.500000 0.210158
O O6 0.293951 0.247453 0.243705
O O7 0.349353 0.325175 0.009975
O O8 0.803945 0.137610 0.621981
O O9 0.846340 0.228256 0.784742
O O10 0.899126 0.259780 0.515842
O O11 0.889422 0.000000 0.624269
O O12 0.217516 0.500000 0.625535
O O13 0.250000 0.250000 0.500000
O O14 0.291165 0.500000 0.919393
O O15 0.250000 0.250000 0.000000
O O16 0.949942 0.500000 0.458025
O O17 0.000000 0.727257 0.500000
#
# Coordination Sequence:
#
# PCOD8108061 Si02
#       6
#     8   8   8   8   8   8
#     4  10  23  43  65  89 120 159 203 252 309 367
#     4  11  23  38  60  90 123 157 200 250 303 364
#     4  10  22  39  59  86 120 157 197 244 300 359
#     4  11  22  37  59  86 120 158 199 246 301 365
#     4  10  21  38  59  89 124 158 201 247 297 358
#     4  10  23  42  63  90 119 153 201 253 302 359
#
# _framework density 20.053756
#
# number of rings (size 3 to 8) (size 9 to 14) (size 15 to 20)
#    0.000    1.667    1.667    2.000    2.333    6.667 
#    0.000    0.000    0.000    0.000    0.000    0.000 
#    0.000    0.000    0.000    0.000    0.000    0.000 
#
# Total GULP energy -297474.040222 kJ/mol
# GULP energy per Si atom -12394.751676 kJ/mol
# Density = 2.000811 g / cm^3
# Si number density = 20.053756 Si / 1000 Ang^3
#
#
#
# Elastic Constant Matrix: (Units=GPa)
#
#
# Indices 1 2 3 4 5 6 
#
# 1 89.3135 39.5928 39.2854 0.0000 8.7256 0.0000
# 2 39.5928 86.6224 47.3253 0.0000 0.9736 0.0000
# 3 39.2854 47.3253 151.7410 0.0000 9.0348 0.0000
# 4 0.0000 0.0000 0.0000 16.7936 0.0000 -1.5009
# 5 8.7256 0.9736 9.0348 0.0000 36.0393 0.0000
# 6 0.0000 0.0000 0.0000 -1.5009 0.0000 31.3022
#
#
#
# Elastic Compliance Matrix: (Units=1/GPa)
#
#
# Indices 1 2 3 4 5 6 
#
# 1 0.014854 -0.005727 -0.001882 0.000000 -0.002970 0.000000
# 2 -0.005727 0.016142 -0.003663 0.000000 0.001869 0.000000
# 3 -0.001882 -0.003663 0.008311 0.000000 -0.001529 0.000000
# 4 0.000000 0.000000 0.000000 0.059803 0.000000 0.002867
# 5 -0.002970 0.001869 -0.001529 0.000000 0.028799 0.000000
# 6 0.000000 0.000000 0.000000 0.002867 0.000000 0.032084
#
#
# Mechanical properties :
#
#
# Convention : Reuss Voigt Hill
#
# Bulk Modulus (GPa) = 59.66110 64.45377 62.05744
# Shear Modulus (GPa) = 26.57795 30.25859 28.41827
#
# Velocity S-wave (km/s) = 3.64446 3.88864 3.76853
# Velocity P-wave (km/s) = 6.89381 7.23687 7.06742
#
# Compressibility (1/GPa) = 0.01676134
#
# Stress axis : x y z
#
# Youngs Moduli (GPa) = 67.32373 61.94854 120.32236
#
# Poissons Ratio (x) = 0.35480 0.22651
# Poissons Ratio (y) = 0.38559 0.44074
# Poissons Ratio (z) = 0.12674 0.22692
#
# Static dielectric constant tensor:
#      x y z
#    x 3.491010 0.000000 0.184660 
#    y 0.000000 3.710560 0.000000 
#    z 0.184660 0.000000 3.740040 
# 
# 
# High freq. dielectric constant tensor:
#      x y z
#    x 1.774660 0.000000 0.015260 
#    y 0.000000 1.785060 0.000000 
#    z 0.015260 0.000000 1.797710 
# 
# From -- ./inp_files/179712.got.cif
#   From: 2010.06.25/outbox.cif.g09.slc.cpg/sg12_90_cif.got.tgz:179712.got - 2010.06.28 00:19:55.
