data_PCOD8108052
_publ_section_title
;
Structure prediction by ZEFSAII (Michael W. Deem and Ramdas Pophale) SiO2 
 PCOD8108052
Probable space group: C 2/M
;
_chemical_formula_sum "Si O2"
_cell_formula_units_Z 48
_cell_length_a 8.899009
_cell_length_b 30.406749
_cell_length_c 15.450032
_cell_angle_alpha 90.000000
_cell_angle_beta 146.174949
_cell_angle_gamma 90.000000
_cell_volume 2327.181017
_symmetry_space_group_name_H-M "C 2/M"
_symmetry_group_IT_number 12
_symmetry_cell_setting 'monoclinic'
loop_
_space_group_symop_operation_xyz
x,y,z
-x,y,-z
-x,-y,-z
x,-y,z
1/2+x,1/2+y,z
1/2-x,1/2+y,-z
1/2-x,1/2-y,-z
1/2+x,1/2-y,z
loop_
_atom_site_type_symbol
_atom_site_label
_atom_site_fract_x
_atom_site_fract_y
_atom_site_fract_z
Si Si1 0.350597 0.864074 0.304415
Si Si2 0.290994 0.218062 0.171030
Si Si3 0.697148 0.450799 0.836934
Si Si4 0.323077 0.712783 0.327766
Si Si5 0.934648 0.865080 0.656454
Si Si6 0.851728 0.047785 0.841006
O O1 0.261544 0.832566 0.184643
O O2 0.657448 0.855415 0.475221
O O3 0.129264 0.855588 0.273531
O O4 0.364708 0.914554 0.280425
O O5 0.405951 0.246241 0.306985
O O6 0.508251 0.219735 0.198289
O O7 0.000000 0.235865 0.000000
O O8 0.685319 0.500000 0.788622
O O9 0.548956 0.415102 0.703714
O O10 0.567376 0.452605 0.868469
O O11 0.000000 0.435058 0.000000
O O12 0.500000 0.711768 0.500000
O O13 0.352654 0.668364 0.284787
O O14 0.705956 0.000000 0.776561
O O15 0.000000 0.059133 0.000000
#
# Coordination Sequence:
#
# PCOD8108052 Si02
#       6
#     8   8   8   8   8   8
#     4  10  21  38  59  88 122 158 203 250 304 360
#     4  12  26  42  65  93 123 158 204 256 306 369
#     4   9  19  36  58  85 119 160 203 251 303 357
#     4  12  25  44  66  90 123 163 201 254 312 371
#     4  10  22  38  61  87 118 162 203 246 305 369
#     4   9  18  34  57  85 118 157 198 245 300 354
#
# _framework density 20.625813000000001
#
# number of rings (size 3 to 8) (size 9 to 14) (size 15 to 20)
#    0.000    1.667    1.667    2.500    2.333    5.333 
#    0.000    3.333    0.000    0.500    0.000    0.000 
#    0.000    0.000    0.000    0.000    0.000    0.000 
#
# Total GULP energy -297501.205967 kJ/mol
# GULP energy per Si atom -12395.883582 kJ/mol
# Density = 2.057887 g / cm^3
# Si number density = 20.625813 Si / 1000 Ang^3
#
#
#
# Elastic Constant Matrix: (Units=GPa)
#
#
# Indices 1 2 3 4 5 6 
#
# 1 87.3240 53.4680 24.2687 0.0000 7.0209 0.0000
# 2 53.4680 122.1207 32.6477 0.0000 -2.5768 0.0000
# 3 24.2687 32.6477 54.6489 0.0000 -2.1046 0.0000
# 4 0.0000 0.0000 0.0000 33.0786 0.0000 -1.8481
# 5 7.0209 -2.5768 -2.1046 0.0000 26.9180 0.0000
# 6 0.0000 0.0000 0.0000 -1.8481 0.0000 32.8821
#
#
#
# Elastic Compliance Matrix: (Units=1/GPa)
#
#
# Indices 1 2 3 4 5 6 
#
# 1 0.016926 -0.006496 -0.003841 0.000000 -0.005337 0.000000
# 2 -0.006496 0.012245 -0.004333 0.000000 0.002528 0.000000
# 3 -0.003841 -0.004333 0.022684 0.000000 0.002361 0.000000
# 4 0.000000 0.000000 0.000000 0.030326 0.000000 0.001704
# 5 -0.005337 0.002528 0.002361 0.000000 0.038968 0.000000
# 6 0.000000 0.000000 0.000000 0.001704 0.000000 0.030507
#
#
# Mechanical properties :
#
#
# Convention : Reuss Voigt Hill
#
# Bulk Modulus (GPa) = 44.41713 53.87360 49.14537
# Shear Modulus (GPa) = 26.52501 28.82300 27.67400
#
# Velocity S-wave (km/s) = 3.58999 3.74227 3.66692
# Velocity P-wave (km/s) = 6.22620 6.69694 6.46585
#
# Compressibility (1/GPa) = 0.02251383
#
# Stress axis : x y z
#
# Youngs Moduli (GPa) = 59.08101 81.66878 44.08454
#
# Poissons Ratio (x) = 0.53055 0.16933
# Poissons Ratio (y) = 0.38381 0.19101
# Poissons Ratio (z) = 0.22693 0.35385
#
# Static dielectric constant tensor:
#      x y z
#    x 3.793410 0.000000 -0.009390 
#    y 0.000000 4.151930 0.000000 
#    z -0.009390 0.000000 3.395820 
# 
# 
# High freq. dielectric constant tensor:
#      x y z
#    x 1.807440 0.000000 0.000690 
#    y 0.000000 1.822050 0.000000 
#    z 0.000690 0.000000 1.787780 
# 
# From -- ./inp_files/201066.got.cif
#   From: 2010.06.25/outbox.cif.g09.slc.cpg/sg12_101_cif.got.tgz:201066.got - 2010.06.28 00:19:55.
