data_PCOD8108712
_publ_section_title
;
Structure prediction by ZEFSAII (Michael W. Deem and Ramdas Pophale) SiO2 
 PCOD8108712
Probable space group: C 2/M
;
_chemical_formula_sum "Si O2"
_cell_formula_units_Z 64
_cell_length_a 16.671515
_cell_length_b 12.660835
_cell_length_c 29.609702
_cell_angle_alpha 90.000000
_cell_angle_beta 31.066466
_cell_angle_gamma 90.000000
_cell_volume 3225.136934
_symmetry_space_group_name_H-M "C 2/M"
_symmetry_group_IT_number 12
_symmetry_cell_setting 'monoclinic'
loop_
_space_group_symop_operation_xyz
x,y,z
-x,y,-z
-x,-y,-z
x,-y,z
1/2+x,1/2+y,z
1/2-x,1/2+y,-z
1/2-x,1/2-y,-z
1/2+x,1/2-y,z
loop_
_atom_site_type_symbol
_atom_site_label
_atom_site_fract_x
_atom_site_fract_y
_atom_site_fract_z
Si Si1 0.653822 0.711239 0.088511
Si Si2 0.675533 0.121421 0.912242
Si Si3 0.128088 0.782653 0.497767
Si Si4 0.164454 0.880902 0.568036
Si Si5 0.475636 0.879686 0.785079
Si Si6 0.779323 0.222851 0.645766
Si Si7 0.881119 0.744153 0.745172
Si Si8 0.319402 0.625217 0.234509
O O1 0.744826 0.629531 0.076819
O O2 0.632752 0.814716 0.129245
O O3 0.499824 0.655864 0.142986
O O4 0.750000 0.750000 0.000000
O O5 0.767153 0.181168 0.828509
O O6 0.672559 0.000000 0.898950
O O7 0.500000 0.166720 0.000000
O O8 0.178876 0.876590 0.506647
O O9 0.168328 0.667175 0.498463
O O10 0.226151 0.776904 0.405217
O O11 0.948345 0.808107 0.579823
O O12 0.017811 0.812491 0.656086
O O13 0.148607 0.000000 0.593252
O O14 0.651266 0.865367 0.719850
O O15 0.458360 0.839918 0.741898
O O16 0.423989 0.000000 0.812563
O O17 0.733482 0.335588 0.689984
O O18 0.782474 0.684384 0.754262
O O19 0.295585 0.500000 0.242106
#
# Coordination Sequence:
#
# PCOD8108712 Si02
#       8
#     8   8   8   8   8   8   8   8
#     4  10  22  41  62  92 128 156 197 253 294 360
#     4  10  21  38  64  92 120 161 202 242 297 355
#     4  10  22  42  59  87 121 152 207 256 301 360
#     4  11  23  40  64  88 118 163 205 252 306 356
#     4  10  22  39  63  88 119 163 199 245 305 359
#     4  10  21  41  60  84 125 153 200 255 300 365
#     4  11  21  42  60  87 127 156 203 252 293 366
#     4  11  23  39  64  90 120 163 199 247 308 359
#
# _framework density 19.84412
#
# number of rings (size 3 to 8) (size 9 to 14) (size 15 to 20)
#    0.000    1.625    2.500    1.875    0.000    3.000 
#    0.000    4.375    0.000    4.125    0.000    0.000 
#    0.000    0.000    0.000    0.000    0.000    0.000 
#
# Total GULP energy -396514.287677 kJ/mol
# GULP energy per Si atom -12391.071490 kJ/mol
# Density = 1.979895 g / cm^3
# Si number density = 19.844120 Si / 1000 Ang^3
#
#
#
# Elastic Constant Matrix: (Units=GPa)
#
#
# Indices 1 2 3 4 5 6 
#
# 1 72.1201 4.8860 22.8340 -0.0005 -7.6696 0.0002
# 2 4.8860 84.1845 3.0379 -0.0002 -3.2614 0.0001
# 3 22.8340 3.0379 72.6655 -0.0011 6.3837 0.0000
# 4 -0.0005 -0.0002 -0.0011 18.5951 -0.0002 -1.3095
# 5 -7.6696 -3.2614 6.3837 -0.0002 36.1112 0.0001
# 6 0.0002 0.0001 0.0000 -1.3095 0.0001 21.3229
#
#
#
# Elastic Compliance Matrix: (Units=1/GPa)
#
#
# Indices 1 2 3 4 5 6 
#
# 1 0.016076 -0.000571 -0.005407 0.000000 0.004319 0.000000
# 2 -0.000571 0.011967 -0.000412 0.000000 0.001032 0.000000
# 3 -0.005407 -0.000412 0.015828 0.000001 -0.003984 0.000000
# 4 0.000000 0.000000 0.000001 0.054011 0.000000 0.003317
# 5 0.004319 0.001032 -0.003984 0.000000 0.029407 0.000000
# 6 0.000000 0.000000 0.000000 0.003317 0.000000 0.047102
#
#
# Mechanical properties :
#
#
# Convention : Reuss Voigt Hill
#
# Bulk Modulus (GPa) = 32.16309 32.27623 32.21966
# Shear Modulus (GPa) = 25.31228 28.41996 26.86612
#
# Velocity S-wave (km/s) = 3.57537 3.78849 3.68347
# Velocity P-wave (km/s) = 5.76952 5.95291 5.86193
#
# Compressibility (1/GPa) = 0.03109154
#
# Stress axis : x y z
#
# Youngs Moduli (GPa) = 62.20603 83.56567 63.17939
#
# Poissons Ratio (x) = 0.04768 0.34161
# Poissons Ratio (y) = 0.03549 0.02601
# Poissons Ratio (z) = 0.33635 0.03440
#
# Static dielectric constant tensor:
#      x y z
#    x 3.957990 0.000000 0.008550 
#    y 0.000000 3.369700 0.000000 
#    z 0.008550 0.000000 3.744170 
# 
# 
# High freq. dielectric constant tensor:
#      x y z
#    x 1.792640 0.000000 -0.003080 
#    y 0.000000 1.754860 0.000000 
#    z -0.003080 0.000000 1.784700 
# 
# From -- ./inp_files/379096.got.cif
#   From: 2010.06.25/outbox.cif.g09.slc.cpg/sg12_190_cif.got.tgz:379096.got - 2010.06.28 00:19:55.
