data_PCOD8108354
_publ_section_title
;
Structure prediction by ZEFSAII (Michael W. Deem and Ramdas Pophale) SiO2 
 PCOD8108354
Probable space group: C 2/M
;
_chemical_formula_sum "Si O2"
_cell_formula_units_Z 64
_cell_length_a 19.910033
_cell_length_b 8.849512
_cell_length_c 30.908827
_cell_angle_alpha 90.000000
_cell_angle_beta 143.923672
_cell_angle_gamma 90.000000
_cell_volume 3206.916939
_symmetry_space_group_name_H-M "C 2/M"
_symmetry_group_IT_number 12
_symmetry_cell_setting 'monoclinic'
loop_
_space_group_symop_operation_xyz
x,y,z
-x,y,-z
-x,-y,-z
x,-y,z
1/2+x,1/2+y,z
1/2-x,1/2+y,-z
1/2-x,1/2-y,-z
1/2+x,1/2-y,z
loop_
_atom_site_type_symbol
_atom_site_label
_atom_site_fract_x
_atom_site_fract_y
_atom_site_fract_z
Si Si1 0.190306 0.174798 0.907677
Si Si2 0.248322 0.825620 0.392725
Si Si3 0.425958 0.174649 0.075689
Si Si4 0.206531 0.822115 0.671496
Si Si5 0.683821 0.675684 0.805512
Si Si6 0.940197 0.176004 0.637563
Si Si7 0.340461 0.677734 0.820141
Si Si8 0.031768 0.674301 0.436626
O O1 0.104377 0.273526 0.891587
O O2 0.173859 0.226894 0.849927
O O3 0.157418 0.000000 0.897018
O O4 0.320268 0.204977 0.988951
O O5 0.235521 0.727529 0.343002
O O6 0.151824 0.768718 0.375438
O O7 0.372557 0.801295 0.477514
O O8 0.227835 0.000000 0.369897
O O9 0.528826 0.271868 0.110347
O O10 0.461374 0.000000 0.095451
O O11 0.276397 0.753552 0.747059
O O12 0.076178 0.770381 0.605084
O O13 0.210624 0.000000 0.678353
O O14 0.716687 0.500000 0.819480
O O15 0.565659 0.710283 0.720317
O O16 0.782755 0.772583 0.834919
O O17 0.918605 0.271297 0.583234
O O18 0.923104 0.000000 0.617986
O O19 0.332336 0.500000 0.810670
O O20 0.995674 0.500000 0.414328
#
# Coordination Sequence:
#
# PCOD8108354 Si02
#       8
#     8   8   8   8   8   8   8   8
#     4   9  20  39  64  94 127 163 198 242 299 352
#     4  10  23  40  60  90 122 158 200 246 302 359
#     4  10  21  39  63  93 128 161 200 245 292 352
#     4  12  25  41  61  88 119 155 203 253 303 358
#     4  10  21  39  62  89 121 159 201 245 298 355
#     4  10  21  38  61  88 121 158 199 248 297 353
#     4  12  25  41  62  87 120 160 202 249 303 357
#     4  11  22  39  62  87 122 160 199 246 299 359
#
# _framework density 19.956862999999998
#
# number of rings (size 3 to 8) (size 9 to 14) (size 15 to 20)
#    0.000    1.500    1.250    3.750    1.750    4.500 
#    0.000    2.500    0.000    0.000    0.000    0.000 
#    0.000    0.000    0.000    0.000    0.000    0.000 
#
# Total GULP energy -397022.612951 kJ/mol
# GULP energy per Si atom -12406.956655 kJ/mol
# Density = 1.991144 g / cm^3
# Si number density = 19.956863 Si / 1000 Ang^3
#
#
#
# Elastic Constant Matrix: (Units=GPa)
#
#
# Indices 1 2 3 4 5 6 
#
# 1 58.5136 24.4533 -7.7100 0.0000 1.4740 0.0000
# 2 24.4533 98.0116 14.6191 -0.0002 -0.2013 0.0007
# 3 -7.7100 14.6191 22.3830 0.0000 -1.5053 -0.0001
# 4 0.0000 -0.0002 0.0000 26.7815 0.0000 -1.5265
# 5 1.4740 -0.2013 -1.5053 0.0000 39.2824 0.0000
# 6 0.0000 0.0007 -0.0001 -1.5265 0.0000 40.5064
#
#
#
# Elastic Compliance Matrix: (Units=1/GPa)
#
#
# Indices 1 2 3 4 5 6 
#
# 1 0.021732 -0.007241 0.012189 0.000000 -0.000385 0.000000
# 2 -0.007241 0.013719 -0.011461 0.000000 -0.000097 0.000000
# 3 0.012189 -0.011461 0.056472 0.000000 0.001648 0.000000
# 4 0.000000 0.000000 0.000000 0.037420 0.000000 0.001410
# 5 -0.000385 -0.000097 0.001648 0.000000 0.025534 0.000000
# 6 0.000000 0.000000 0.000000 0.001410 0.000000 0.024741
#
#
# Mechanical properties :
#
#
# Convention : Reuss Voigt Hill
#
# Bulk Modulus (GPa) = 12.67474 26.84812 19.76143
# Shear Modulus (GPa) = 22.83723 31.15045 26.99384
#
# Velocity S-wave (km/s) = 3.38646 3.95510 3.68177
# Velocity P-wave (km/s) = 4.65357 5.85998 5.29127
#
# Compressibility (1/GPa) = 0.07889706
#
# Stress axis : x y z
#
# Youngs Moduli (GPa) = 46.01542 72.89326 17.70794
#
# Poissons Ratio (x) = 0.52781 -0.21584
# Poissons Ratio (y) = 0.33319 0.20295
# Poissons Ratio (z) = -0.56089 0.83542
#
# Static dielectric constant tensor:
#      x y z
#    x 3.778510 0.000000 0.001160 
#    y 0.000000 3.641100 0.000000 
#    z 0.001160 0.000000 3.642650 
# 
# 
# High freq. dielectric constant tensor:
#      x y z
#    x 1.792640 0.000000 0.000690 
#    y 0.000000 1.777570 0.000000 
#    z 0.000690 0.000000 1.782360 
# 
# From -- ./inp_files/378459.got.cif
#   From: 2010.06.25/outbox.cif.g09.slc.cpg/sg12_190_cif.got.tgz:378459.got - 2010.06.28 00:19:55.
