data_PCOD8108526
_publ_section_title
;
Structure prediction by ZEFSAII (Michael W. Deem and Ramdas Pophale) SiO2 
 PCOD8108526
Probable space group: C 2/M
;
_chemical_formula_sum "Si O2"
_cell_formula_units_Z 56
_cell_length_a 23.439103
_cell_length_b 8.931229
_cell_length_c 15.572617
_cell_angle_alpha 90.000000
_cell_angle_beta 121.024795
_cell_angle_gamma 90.000000
_cell_volume 2793.614186
_symmetry_space_group_name_H-M "C 2/M"
_symmetry_group_IT_number 12
_symmetry_cell_setting 'monoclinic'
loop_
_space_group_symop_operation_xyz
x,y,z
-x,y,-z
-x,-y,-z
x,-y,z
1/2+x,1/2+y,z
1/2-x,1/2+y,-z
1/2-x,1/2-y,-z
1/2+x,1/2-y,z
loop_
_atom_site_type_symbol
_atom_site_label
_atom_site_fract_x
_atom_site_fract_y
_atom_site_fract_z
Si Si1 0.448847 0.322847 0.534725
Si Si2 0.701408 0.823328 0.847165
Si Si3 0.564751 0.176900 0.298447
Si Si4 0.794026 0.827562 0.605381
Si Si5 0.822751 0.327990 0.361851
Si Si6 0.842324 0.175221 0.024845
Si Si7 0.468852 0.171097 0.068132
O O1 0.500000 0.269015 0.500000
O O2 0.451817 0.500000 0.548287
O O3 0.467323 0.246894 0.639982
O O4 0.373790 0.274246 0.454058
O O5 0.678959 0.767711 0.736472
O O6 0.776359 0.768151 0.924612
O O7 0.696138 0.000000 0.849684
O O8 0.651466 0.750998 0.876874
O O9 0.636582 0.243276 0.331723
O O10 0.518620 0.219702 0.182376
O O11 0.571706 0.000000 0.316752
O O12 0.750000 0.750000 0.500000
O O13 0.752390 0.814392 0.661150
O O14 0.807567 0.000000 0.591299
O O15 0.847125 0.500000 0.386636
O O16 0.841283 0.000000 0.037365
O O17 0.904874 0.223495 0.017564
O O18 0.446719 0.000000 0.064080
O O19 0.500000 0.197084 0.000000
#
# Coordination Sequence:
#
# PCOD8108526 Si02
#       7
#     8   8   8   8   8   8   8
#     4  11  25  42  61  90 126 160 201 253 304 361
#     4   9  20  39  61  88 121 158 197 245 301 359
#     4  11  24  42  64  89 119 163 206 248 304 362
#     4  11  22  38  62  90 121 155 196 245 295 353
#     4  10  22  39  62  89 119 158 201 243 297 363
#     4  10  21  38  62  90 120 155 200 250 302 356
#     4  10  24  44  63  87 121 161 205 250 302 363
#
# _framework density 20.045718999999998
#
# number of rings (size 3 to 8) (size 9 to 14) (size 15 to 20)
#    0.000    1.714    1.429    1.714    4.000    4.286 
#    0.000    0.000    0.000    0.000    0.000    0.000 
#    0.000    0.000    0.000    0.000    0.000    0.000 
#
# Total GULP energy -347301.170206 kJ/mol
# GULP energy per Si atom -12403.613222 kJ/mol
# Density = 2.000009 g / cm^3
# Si number density = 20.045719 Si / 1000 Ang^3
#
#
#
# Elastic Constant Matrix: (Units=GPa)
#
#
# Indices 1 2 3 4 5 6 
#
# 1 91.3007 27.6624 32.5614 0.0000 -2.5816 0.0000
# 2 27.6624 64.0008 37.0585 0.0000 -3.1598 0.0000
# 3 32.5614 37.0585 116.9546 0.0000 -17.0816 0.0000
# 4 0.0000 0.0000 0.0000 23.5157 0.0000 -1.1596
# 5 -2.5816 -3.1598 -17.0816 0.0000 29.8207 0.0000
# 6 0.0000 0.0000 0.0000 -1.1596 0.0000 37.3858
#
#
#
# Elastic Compliance Matrix: (Units=1/GPa)
#
#
# Indices 1 2 3 4 5 6 
#
# 1 0.013088 -0.004315 -0.002377 0.000000 -0.000686 0.000000
# 2 -0.004315 0.020626 -0.005533 0.000000 -0.001357 0.000000
# 3 -0.002377 -0.005533 0.011840 0.000000 0.005990 0.000000
# 4 0.000000 0.000000 0.000000 0.042590 0.000000 0.001321
# 5 -0.000686 -0.001357 0.005990 0.000000 0.036762 0.000000
# 6 0.000000 0.000000 0.000000 0.001321 0.000000 0.026789
#
#
# Mechanical properties :
#
#
# Convention : Reuss Voigt Hill
#
# Bulk Modulus (GPa) = 47.37925 51.86897 49.62411
# Shear Modulus (GPa) = 27.29566 29.80936 28.55251
#
# Velocity S-wave (km/s) = 3.69408 3.86044 3.77818
# Velocity P-wave (km/s) = 6.47162 6.76773 6.62133
#
# Compressibility (1/GPa) = 0.02110629
#
# Stress axis : x y z
#
# Youngs Moduli (GPa) = 76.40364 48.48191 84.45900
#
# Poissons Ratio (x) = 0.20918 0.20076
# Poissons Ratio (y) = 0.32965 0.46728
# Poissons Ratio (z) = 0.18161 0.26823
#
# Static dielectric constant tensor:
#      x y z
#    x 3.821130 0.000000 -0.137510 
#    y 0.000000 3.633570 0.000000 
#    z -0.137510 0.000000 3.707710 
# 
# 
# High freq. dielectric constant tensor:
#      x y z
#    x 1.791560 0.000000 -0.007760 
#    y 0.000000 1.783050 0.000000 
#    z -0.007760 0.000000 1.785820 
# 
# From -- ./inp_files/238959.got.cif
#   From: 2010.06.25/outbox.cif.g09.slc.cpg/sg12_120_cif.got.tgz:238959.got - 2010.06.28 00:19:55.
