data_PCOD8108177
_publ_section_title
;
Structure prediction by ZEFSAII (Michael W. Deem and Ramdas Pophale) SiO2 
 PCOD8108177
Probable space group: C 2/M
;
_chemical_formula_sum "Si O2"
_cell_formula_units_Z 48
_cell_length_a 26.846608
_cell_length_b 9.045353
_cell_length_c 11.468195
_cell_angle_alpha 90.000000
_cell_angle_beta 122.331840
_cell_angle_gamma 90.000000
_cell_volume 2353.144546
_symmetry_space_group_name_H-M "C 2/M"
_symmetry_group_IT_number 12
_symmetry_cell_setting 'monoclinic'
loop_
_space_group_symop_operation_xyz
x,y,z
-x,y,-z
-x,-y,-z
x,-y,z
1/2+x,1/2+y,z
1/2-x,1/2+y,-z
1/2-x,1/2-y,-z
1/2+x,1/2-y,z
loop_
_atom_site_type_symbol
_atom_site_label
_atom_site_fract_x
_atom_site_fract_y
_atom_site_fract_z
Si Si1 0.406018 0.172136 0.115363
Si Si2 0.762229 0.833496 0.321159
Si Si3 0.874813 0.827834 0.593203
Si Si4 0.305440 0.332239 0.121673
Si Si5 0.479141 0.171167 0.598435
Si Si6 0.359560 0.326411 0.835060
O O1 0.364085 0.249096 0.156358
O O2 0.472351 0.198290 0.241079
O O3 0.389442 0.000000 0.087951
O O4 0.399142 0.242338 0.979070
O O5 0.806748 0.784757 0.479976
O O6 0.802413 0.828541 0.256542
O O7 0.708394 0.721564 0.242205
O O8 0.737689 0.000000 0.310382
O O9 0.918962 0.744465 0.563799
O O10 0.886127 0.785959 0.742043
O O11 0.884269 0.000000 0.582273
O O12 0.306848 0.500000 0.075866
O O13 0.250000 0.250000 0.000000
O O14 0.500000 0.238238 0.500000
O O15 0.465319 0.000000 0.563329
O O16 0.362413 0.500000 0.863192
#
# Coordination Sequence:
#
# PCOD8108177 Si02
#       6
#     8   8   8   8   8   8
#     4  11  23  39  60  87 121 157 198 246 296 352
#     4  10  21  38  60  87 121 157 196 243 296 353
#     4  10  23  41  61  88 119 156 200 244 294 353
#     4  11  21  34  57  88 120 153 193 239 294 352
#     4  10  23  43  65  89 116 152 198 246 296 352
#     4  11  23  38  59  88 121 157 199 244 295 353
#
# _framework density 20.398235
#
# number of rings (size 3 to 8) (size 9 to 14) (size 15 to 20)
#    0.000    1.500    1.667    3.000    0.000    5.000 
#    0.000    3.333    0.000    0.000    0.000    0.000 
#    0.000    0.000    0.000    0.000    0.000    0.000 
#
# Total GULP energy -297685.441460 kJ/mol
# GULP energy per Si atom -12403.560061 kJ/mol
# Density = 2.035181 g / cm^3
# Si number density = 20.398235 Si / 1000 Ang^3
#
#
#
# Elastic Constant Matrix: (Units=GPa)
#
#
# Indices 1 2 3 4 5 6 
#
# 1 78.0507 29.8459 29.8859 0.0000 -8.4916 0.0000
# 2 29.8459 95.4991 47.6508 0.0000 -0.3206 0.0000
# 3 29.8859 47.6508 112.2518 0.0000 -7.9000 0.0000
# 4 0.0000 0.0000 0.0000 26.7814 0.0000 -2.0220
# 5 -8.4916 -0.3206 -7.9000 0.0000 28.6129 0.0000
# 6 0.0000 0.0000 0.0000 -2.0220 0.0000 31.8794
#
#
#
# Elastic Compliance Matrix: (Units=1/GPa)
#
#
# Indices 1 2 3 4 5 6 
#
# 1 0.015531 -0.003699 -0.002288 0.000000 0.003936 0.000000
# 2 -0.003699 0.014224 -0.005221 0.000000 -0.002380 0.000000
# 3 -0.002288 -0.005221 0.011913 0.000000 0.002552 0.000000
# 4 0.000000 0.000000 0.000000 0.037519 0.000000 0.002380
# 5 0.003936 -0.002380 0.002552 0.000000 0.036795 0.000000
# 6 0.000000 0.000000 0.000000 0.002380 0.000000 0.031519
#
#
# Mechanical properties :
#
#
# Convention : Reuss Voigt Hill
#
# Bulk Modulus (GPa) = 51.93877 55.61853 53.77865
# Shear Modulus (GPa) = 28.35507 29.34935 28.85221
#
# Velocity S-wave (km/s) = 3.73242 3.79729 3.76499
# Velocity P-wave (km/s) = 6.64020 6.82286 6.73215
#
# Compressibility (1/GPa) = 0.01925344
#
# Stress axis : x y z
#
# Youngs Moduli (GPa) = 64.38783 70.30158 83.93859
#
# Poissons Ratio (x) = 0.26005 0.19202
# Poissons Ratio (y) = 0.23818 0.43823
# Poissons Ratio (z) = 0.14730 0.36704
#
# Static dielectric constant tensor:
#      x y z
#    x 0.816340 0.000000 -0.039080 
#    y 0.000000 3.822810 0.000000 
#    z -0.039080 0.000000 3.880320 
# 
# 
# High freq. dielectric constant tensor:
#      x y z
#    x 1.790920 0.000000 -0.008250 
#    y 0.000000 1.799250 0.000000 
#    z -0.008250 0.000000 1.813230 
# 
# From -- ./inp_files/179747.got.cif
#   From: 2010.06.25/outbox.cif.g09.slc.cpg/sg12_90_cif.got.tgz:179747.got - 2010.06.28 00:19:55.
