data_PCOD8108281
_publ_section_title
;
Structure prediction by ZEFSAII (Michael W. Deem and Ramdas Pophale) SiO2 
 PCOD8108281
Probable space group: C 2/M
;
_chemical_formula_sum "Si O2"
_cell_formula_units_Z 48
_cell_length_a 18.131982
_cell_length_b 16.043290
_cell_length_c 15.697652
_cell_angle_alpha 90.000000
_cell_angle_beta 150.334359
_cell_angle_gamma 90.000000
_cell_volume 2260.080607
_symmetry_space_group_name_H-M "C 2/M"
_symmetry_group_IT_number 12
_symmetry_cell_setting 'monoclinic'
loop_
_space_group_symop_operation_xyz
x,y,z
-x,y,-z
-x,-y,-z
x,-y,z
1/2+x,1/2+y,z
1/2-x,1/2+y,-z
1/2-x,1/2-y,-z
1/2+x,1/2-y,z
loop_
_atom_site_type_symbol
_atom_site_label
_atom_site_fract_x
_atom_site_fract_y
_atom_site_fract_z
Si Si1 0.610656 0.597552 0.036611
Si Si2 0.586892 0.904852 0.855002
Si Si3 0.915803 0.096645 0.178542
Si Si4 0.062195 0.645882 0.645381
Si Si5 0.922747 0.827779 0.504389
Si Si6 0.891864 0.402854 0.811868
O O1 0.655187 0.500000 0.091101
O O2 0.759584 0.653554 0.188405
O O3 0.500000 0.626932 0.000000
O O4 0.530513 0.612008 0.864857
O O5 0.523640 0.899043 0.695462
O O6 0.474326 0.866029 0.810647
O O7 0.604410 0.000000 0.898783
O O8 0.750818 0.862636 0.025751
O O9 0.033281 0.134788 0.360721
O O10 0.905464 0.000000 0.188140
O O11 0.000000 0.595704 0.500000
O O12 0.973595 0.732559 0.557200
O O13 0.747739 0.842025 0.315836
O O14 0.000000 0.872141 0.500000
O O15 0.842421 0.500000 0.751865
O O16 0.000000 0.392302 0.000000
#
# Coordination Sequence:
#
# PCOD8108281 Si02
#       6
#     8   8   8   8   8   8
#     4   9  19  37  62  90 117 149 191 237 285 337
#     4   9  19  36  58  83 111 148 192 235 283 337
#     4   9  18  35  59  86 115 148 189 236 285 338
#     4  10  22  38  54  81 119 156 194 231 282 344
#     4  11  23  37  54  82 117 152 193 234 284 345
#     4  10  21  38  61  87 113 146 191 241 291 342
#
# _framework density 21.238181000000001
#
# number of rings (size 3 to 8) (size 9 to 14) (size 15 to 20)
#    0.000    2.333    0.000    3.000    0.000    8.667 
#    0.000   11.667    0.000    0.000    0.000    0.000 
#    0.000    0.000    0.000    0.000    0.000    0.000 
#
# Total GULP energy -297419.412537 kJ/mol
# GULP energy per Si atom -12392.475522 kJ/mol
# Density = 2.118984 g / cm^3
# Si number density = 21.238181 Si / 1000 Ang^3
#
#
#
# Elastic Constant Matrix: (Units=GPa)
#
#
# Indices 1 2 3 4 5 6 
#
# 1 179.0263 20.3564 60.3690 0.0004 -1.4957 0.0004
# 2 20.3564 37.9017 23.5531 0.0002 13.4965 0.0007
# 3 60.3690 23.5531 119.9872 0.0005 -8.3373 0.0007
# 4 0.0004 0.0002 0.0005 47.4971 0.0002 -24.1634
# 5 -1.4957 13.4965 -8.3373 0.0002 41.7701 0.0003
# 6 0.0004 0.0007 0.0007 -24.1634 0.0003 52.3641
#
#
#
# Elastic Compliance Matrix: (Units=1/GPa)
#
#
# Indices 1 2 3 4 5 6 
#
# 1 0.006829 -0.001851 -0.003056 0.000000 0.000233 0.000000
# 2 -0.001851 0.036579 -0.007174 0.000000 -0.013317 0.000000
# 3 -0.003056 -0.007174 0.011594 0.000000 0.004523 0.000000
# 4 0.000000 0.000000 0.000000 0.027513 0.000000 0.012696
# 5 0.000233 -0.013317 0.004523 0.000000 0.029155 0.000000
# 6 0.000000 0.000000 0.000000 0.012696 0.000000 0.024955
#
#
# Mechanical properties :
#
#
# Convention : Reuss Voigt Hill
#
# Bulk Modulus (GPa) = 32.42687 60.60802 46.51745
# Shear Modulus (GPa) = 29.22819 43.83539 36.53179
#
# Velocity S-wave (km/s) = 3.71375 4.54804 4.15191
# Velocity P-wave (km/s) = 5.80436 7.49526 6.70334
#
# Compressibility (1/GPa) = 0.03083862
#
# Stress axis : x y z
#
# Youngs Moduli (GPa) = 146.43885 27.33824 86.24838
#
# Poissons Ratio (x) = 0.05061 0.26359
# Poissons Ratio (y) = 0.27110 0.61876
# Poissons Ratio (z) = 0.44754 0.19613
#
# Static dielectric constant tensor:
#      x y z
#    x 4.266430 0.000000 -0.296730 
#    y 0.000000 3.499620 0.000000 
#    z -0.296730 0.000000 4.099270 
# 
# 
# High freq. dielectric constant tensor:
#      x y z
#    x 1.850420 0.000000 -0.017180 
#    y 0.000000 1.799560 0.000000 
#    z -0.017180 0.000000 1.831730 
# 
# From -- ./inp_files/112941.got.cif
#   From: 2010.06.25/outbox.cif.g09.slc.cpg/sg12_57_cif.got.tgz:112941.got - 2010.06.28 00:19:55.
