data_PCOD8108134
_publ_section_title
;
Structure prediction by ZEFSAII (Michael W. Deem and Ramdas Pophale) SiO2 
 PCOD8108134
Probable space group: C 2/M
;
_chemical_formula_sum "Si O2"
_cell_formula_units_Z 56
_cell_length_a 22.310549
_cell_length_b 9.057490
_cell_length_c 29.381090
_cell_angle_alpha 90.000000
_cell_angle_beta 151.406971
_cell_angle_gamma 90.000000
_cell_volume 2841.483487
_symmetry_space_group_name_H-M "C 2/M"
_symmetry_group_IT_number 12
_symmetry_cell_setting 'monoclinic'
loop_
_space_group_symop_operation_xyz
x,y,z
-x,y,-z
-x,-y,-z
x,-y,z
1/2+x,1/2+y,z
1/2-x,1/2+y,-z
1/2-x,1/2-y,-z
1/2+x,1/2-y,z
loop_
_atom_site_type_symbol
_atom_site_label
_atom_site_fract_x
_atom_site_fract_y
_atom_site_fract_z
Si Si1 0.743588 0.328737 0.873298
Si Si2 0.732237 0.173283 0.377533
Si Si3 0.159067 0.826289 0.975099
Si Si4 0.476229 0.672253 0.592722
Si Si5 0.270425 0.828142 0.229450
Si Si6 0.372464 0.668663 0.775839
Si Si7 0.952771 0.833209 0.680405
O O1 0.782377 0.500000 0.898985
O O2 0.773568 0.261263 0.844053
O O3 0.598220 0.309473 0.788564
O O4 0.823960 0.241310 0.963731
O O5 0.868971 0.222216 0.486222
O O6 0.712747 0.234771 0.314192
O O7 0.625192 0.224921 0.340368
O O8 0.723591 0.000000 0.369594
O O9 0.017733 0.792969 0.865419
O O10 0.187109 0.000000 0.995270
O O11 0.250000 0.750000 0.000000
O O12 0.512438 0.500000 0.612222
O O13 0.597799 0.769353 0.663289
O O14 0.425899 0.704045 0.609927
O O15 0.165381 0.799989 0.197435
O O16 0.283929 0.000000 0.226020
O O17 0.346204 0.500000 0.745502
O O18 0.912334 0.000000 0.664937
#
# Coordination Sequence:
#
# PCOD8108134 Si02
#       7
#     8   8   8   8   8   8   8
#     4  10  21  38  60  86 116 148 181 229 285 331
#     4  11  22  34  54  83 113 147 189 233 279 329
#     4  11  23  40  61  86 116 149 185 228 277 332
#     4   9  20  37  55  81 115 148 182 230 285 330
#     4  10  21  39  61  83 107 145 193 231 270 330
#     4  10  24  42  57  78 113 150 185 230 280 327
#     4   9  18  34  55  79 113 149 180 222 280 336
#
# _framework density 19.708015
#
# number of rings (size 3 to 8) (size 9 to 14) (size 15 to 20)
#    0.000    2.000    0.000    3.857    0.000   10.857 
#    0.000    5.714    0.000    0.000    0.000    0.000 
#    0.000    0.000    0.000    0.000    0.000    0.000 
#
# Total GULP energy -347324.109394 kJ/mol
# GULP energy per Si atom -12404.432478 kJ/mol
# Density = 1.966316 g / cm^3
# Si number density = 19.708015 Si / 1000 Ang^3
#
#
#
# Elastic Constant Matrix: (Units=GPa)
#
#
# Indices 1 2 3 4 5 6 
#
# 1 83.7696 38.1242 32.9382 0.0009 -1.4519 -0.0001
# 2 38.1242 86.5937 41.3669 0.0016 -8.9645 -0.0009
# 3 32.9382 41.3669 66.8457 0.0021 -23.7218 0.0002
# 4 0.0009 0.0016 0.0021 34.0025 0.0003 -4.8113
# 5 -1.4519 -8.9645 -23.7218 0.0003 28.4692 0.0000
# 6 -0.0001 -0.0009 0.0002 -4.8113 0.0000 37.3252
#
#
#
# Elastic Compliance Matrix: (Units=1/GPa)
#
#
# Indices 1 2 3 4 5 6 
#
# 1 0.017061 -0.004260 -0.008431 0.000000 -0.007496 0.000000
# 2 -0.004260 0.017909 -0.010023 0.000000 -0.002930 0.000000
# 3 -0.008431 -0.010023 0.034139 -0.000002 0.024860 -0.000001
# 4 0.000000 0.000000 -0.000002 0.029956 -0.000002 0.003861
# 5 -0.007496 -0.002930 0.024860 -0.000002 0.054535 0.000000
# 6 0.000000 0.000000 -0.000001 0.003861 0.000000 0.027289
#
#
# Mechanical properties :
#
#
# Convention : Reuss Voigt Hill
#
# Bulk Modulus (GPa) = 42.22837 51.34085 46.78461
# Shear Modulus (GPa) = 21.34816 28.27801 24.81309
#
# Velocity S-wave (km/s) = 3.29480 3.79205 3.55214
# Velocity P-wave (km/s) = 5.99565 6.72905 6.37291
#
# Compressibility (1/GPa) = 0.02368076
#
# Stress axis : x y z
#
# Youngs Moduli (GPa) = 58.61175 55.83905 29.29180
#
# Poissons Ratio (x) = 0.23787 0.24696
# Poissons Ratio (y) = 0.24969 0.29360
# Poissons Ratio (z) = 0.49416 0.55969
#
# Static dielectric constant tensor:
#      x y z
#    x 3.507910 0.000000 -0.093560 
#    y 0.000000 3.661580 0.000000 
#    z -0.093560 0.000000 3.732580 
# 
# 
# High freq. dielectric constant tensor:
#      x y z
#    x 1.769280 0.000000 -0.007810 
#    y 0.000000 1.774380 0.000000 
#    z -0.007810 0.000000 1.770860 
# 
# From -- ./inp_files/380794.got.cif
#   From: 2010.06.25/outbox.cif.g09.slc.cpg/sg12_191_cif.got.tgz:380794.got - 2010.06.28 00:19:55.
