data_PCOD8108880
_publ_section_title
;
Structure prediction by ZEFSAII (Michael W. Deem and Ramdas Pophale) SiO2 
 PCOD8108880
Probable space group: C 2/M
;
_chemical_formula_sum "Si O2"
_cell_formula_units_Z 56
_cell_length_a 18.162227
_cell_length_b 26.541620
_cell_length_c 9.417986
_cell_angle_alpha 90.000000
_cell_angle_beta 141.777022
_cell_angle_gamma 90.000000
_cell_volume 2808.996405
_symmetry_space_group_name_H-M "C 2/M"
_symmetry_group_IT_number 12
_symmetry_cell_setting 'monoclinic'
loop_
_space_group_symop_operation_xyz
x,y,z
-x,y,-z
-x,-y,-z
x,-y,z
1/2+x,1/2+y,z
1/2-x,1/2+y,-z
1/2-x,1/2-y,-z
1/2+x,1/2-y,z
loop_
_atom_site_type_symbol
_atom_site_label
_atom_site_fract_x
_atom_site_fract_y
_atom_site_fract_z
Si Si1 0.813245 0.349758 0.977083
Si Si2 0.889479 0.214085 0.438653
Si Si3 0.870644 0.392532 0.772308
Si Si4 0.516020 0.648675 0.174355
Si Si5 0.583418 0.823404 0.409617
Si Si6 0.826166 0.943260 0.690818
Si Si7 0.233812 0.885481 0.138172
O O1 0.767859 0.391101 0.024295
O O2 0.941712 0.328123 0.215923
O O3 0.725856 0.301502 0.828617
O O4 0.808492 0.380359 0.825401
O O5 0.899928 0.175180 0.585228
O O6 0.873033 0.267394 0.490736
O O7 0.000000 0.214283 0.500000
O O8 0.881518 0.340758 0.696577
O O9 0.796377 0.435130 0.579334
O O10 0.000000 0.415681 0.000000
O O11 0.574217 0.594553 0.219704
O O12 0.500000 0.678822 0.000000
O O13 0.386078 0.647151 0.045668
O O14 0.652262 0.858785 0.622128
O O15 0.797254 0.934966 0.815415
O O16 0.872128 0.000000 0.738913
#
# Coordination Sequence:
#
# PCOD8108880 Si02
#       7
#     8   8   8   8   8   8   8
#     4  11  21  38  61  84 127 159 198 252 292 347
#     4  12  23  36  60  89 124 162 205 243 297 346
#     4   9  20  40  60  88 121 161 197 249 298 348
#     4  10  22  38  58  86 118 155 194 247 297 357
#     4  10  24  38  57  88 121 168 205 235 288 359
#     4  10  21  41  65  89 115 153 203 249 306 370
#     4  10  21  39  59  84 121 156 198 246 303 352
#
# _framework density 19.935946000000001
#
# number of rings (size 3 to 8) (size 9 to 14) (size 15 to 20)
#    0.000    1.714    2.857    1.286    2.000    6.286 
#    0.000    0.714    0.000   12.429    0.000    0.000 
#    0.000    0.000    0.000    0.000    0.000    0.000 
#
# Total GULP energy -346947.271747 kJ/mol
# GULP energy per Si atom -12390.973991 kJ/mol
# Density = 1.989057 g / cm^3
# Si number density = 19.935946 Si / 1000 Ang^3
#
#
#
# Elastic Constant Matrix: (Units=GPa)
#
#
# Indices 1 2 3 4 5 6 
#
# 1 126.2654 24.2219 37.7758 0.0000 -19.3786 0.0000
# 2 24.2219 71.2531 17.0877 0.0000 -10.5186 0.0000
# 3 37.7758 17.0877 103.6999 0.0000 7.7422 0.0000
# 4 0.0000 0.0000 0.0000 14.7865 0.0000 -1.2673
# 5 -19.3786 -10.5186 7.7422 0.0000 38.0656 0.0000
# 6 0.0000 0.0000 0.0000 -1.2673 0.0000 13.1796
#
#
#
# Elastic Compliance Matrix: (Units=1/GPa)
#
#
# Indices 1 2 3 4 5 6 
#
# 1 0.010258 -0.001745 -0.003862 0.000000 0.005525 0.000000
# 2 -0.001745 0.015747 -0.002252 0.000000 0.003921 0.000000
# 3 -0.003862 -0.002252 0.011793 0.000000 -0.004987 0.000000
# 4 0.000000 0.000000 0.000000 0.068191 0.000000 0.006557
# 5 0.005525 0.003921 -0.004987 0.000000 0.031181 0.000000
# 6 0.000000 0.000000 0.000000 0.006557 0.000000 0.076505
#
#
# Mechanical properties :
#
#
# Convention : Reuss Voigt Hill
#
# Bulk Modulus (GPa) = 45.28895 51.04327 48.16611
# Shear Modulus (GPa) = 21.11905 28.01520 24.56713
#
# Velocity S-wave (km/s) = 3.25829 3.75275 3.51423
# Velocity P-wave (km/s) = 6.07633 6.66609 6.37803
#
# Compressibility (1/GPa) = 0.02208044
#
# Stress axis : x y z
#
# Youngs Moduli (GPa) = 97.48507 63.50591 84.79397
#
# Poissons Ratio (x) = 0.11084 0.32745
# Poissons Ratio (y) = 0.17015 0.19093
# Poissons Ratio (z) = 0.37646 0.14299
#
# Static dielectric constant tensor:
#      x y z
#    x 3.790350 0.000000 -0.066900 
#    y 0.000000 3.154190 0.000000 
#    z -0.066900 0.000000 4.118820 
# 
# 
# High freq. dielectric constant tensor:
#      x y z
#    x 1.789590 0.000000 0.002600 
#    y 0.000000 1.723760 0.000000 
#    z 0.002600 0.000000 1.810810 
# 
# From -- ./inp_files/80123.got.cif
#   From: 2010.06.25/outbox.cif.g09.slc.cpg/sg12_41_cif.got.tgz:80123.got - 2010.06.28 00:19:55.
