data_PCOD8108206
_publ_section_title
;
Structure prediction by ZEFSAII (Michael W. Deem and Ramdas Pophale) SiO2 
 PCOD8108206
Probable space group: C 2/M
;
_chemical_formula_sum "Si O2"
_cell_formula_units_Z 64
_cell_length_a 29.329732
_cell_length_b 13.256941
_cell_length_c 9.006352
_cell_angle_alpha 90.000000
_cell_angle_beta 127.978195
_cell_angle_gamma 90.000000
_cell_volume 2760.333515
_symmetry_space_group_name_H-M "C 2/M"
_symmetry_group_IT_number 12
_symmetry_cell_setting 'monoclinic'
loop_
_space_group_symop_operation_xyz
x,y,z
-x,y,-z
-x,-y,-z
x,-y,z
1/2+x,1/2+y,z
1/2-x,1/2+y,-z
1/2-x,1/2-y,-z
1/2+x,1/2-y,z
loop_
_atom_site_type_symbol
_atom_site_label
_atom_site_fract_x
_atom_site_fract_y
_atom_site_fract_z
Si Si1 0.004255 0.301401 0.682326
Si Si2 0.227024 0.381464 0.123857
Si Si3 0.467901 0.381805 0.780325
Si Si4 0.663780 0.614514 0.492235
Si Si5 0.208843 0.379569 0.758483
Si Si6 0.898210 0.382714 0.643411
Si Si7 0.821772 0.113449 0.812214
Si Si8 0.117309 0.306937 0.062806
O O1 0.000000 0.316356 0.500000
O O2 0.999345 0.183341 0.716604
O O3 0.957343 0.368323 0.673221
O O4 0.066458 0.345443 0.854490
O O5 0.236719 0.500000 0.133182
O O6 0.289538 0.333629 0.300897
O O7 0.177174 0.361828 0.144142
O O8 0.209172 0.337451 0.927462
O O9 0.472025 0.500000 0.750445
O O10 0.401285 0.339567 0.646516
O O11 0.500000 0.358896 0.000000
O O12 0.654247 0.500000 0.523807
O O13 0.694695 0.618302 0.393986
O O14 0.204835 0.500000 0.749074
O O15 0.154132 0.335433 0.558868
O O16 0.267773 0.344457 0.797406
O O17 0.888133 0.500000 0.654449
O O18 0.899940 0.325846 0.802628
O O19 0.875832 0.186474 0.950605
O O20 0.839834 0.000000 0.895376
#
# Coordination Sequence:
#
# PCOD8108206 Si02
#       8
#     8   8   8   8   8   8   8   8
#     4  12  27  43  61  91 126 162 210 259 311 376
#     4  10  21  38  60  91 129 160 197 251 307 369
#     4  10  21  41  68  94 126 169 214 260 305 354
#     4   9  18  34  59  89 119 157 202 246 298 357
#     4   9  20  39  62  90 125 164 199 242 309 374
#     4  11  24  44  68  91 119 157 207 262 311 370
#     4  10  21  38  60  88 123 159 200 247 296 361
#     4  12  25  40  64  92 118 162 212 254 310 369
#
# _framework density 23.185601999999999
#
# number of rings (size 3 to 8) (size 9 to 14) (size 15 to 20)
#    0.000    1.625    0.000    4.500    0.000   10.000 
#    0.000    1.250    0.000    0.000    0.000    0.000 
#    0.000    0.000    0.000    0.000    0.000    0.000 
#
# Total GULP energy -396821.108133 kJ/mol
# GULP energy per Si atom -12400.659629 kJ/mol
# Density = 2.313283 g / cm^3
# Si number density = 23.185602 Si / 1000 Ang^3
#
#
#
# Elastic Constant Matrix: (Units=GPa)
#
#
# Indices 1 2 3 4 5 6 
#
# 1 113.8756 17.6527 75.8331 0.0000 12.9955 0.0000
# 2 17.6527 43.9765 20.9483 0.0000 6.8368 0.0000
# 3 75.8331 20.9483 180.1156 0.0000 15.3520 0.0000
# 4 0.0000 0.0000 0.0000 11.5551 0.0000 -0.1508
# 5 12.9955 6.8368 15.3520 0.0000 37.2079 0.0000
# 6 0.0000 0.0000 0.0000 -0.1508 0.0000 35.0085
#
#
#
# Elastic Compliance Matrix: (Units=1/GPa)
#
#
# Indices 1 2 3 4 5 6 
#
# 1 0.012622 -0.002447 -0.004863 0.000000 -0.001952 0.000000
# 2 -0.002447 0.024966 -0.001612 0.000000 -0.003068 0.000000
# 3 -0.004863 -0.001612 0.007895 0.000000 -0.001263 0.000000
# 4 0.000000 0.000000 0.000000 0.086547 0.000000 0.000373
# 5 -0.001952 -0.003068 -0.001263 0.000000 0.028643 0.000000
# 6 0.000000 0.000000 0.000000 0.000373 0.000000 0.028566
#
#
# Mechanical properties :
#
#
# Convention : Reuss Voigt Hill
#
# Bulk Modulus (GPa) = 36.18044 62.98176 49.58110
# Shear Modulus (GPa) = 23.11646 31.65653 27.38650
#
# Velocity S-wave (km/s) = 3.16098 3.69908 3.44057
# Velocity P-wave (km/s) = 5.38154 6.74295 6.10034
#
# Compressibility (1/GPa) = 0.02763925
#
# Stress axis : x y z
#
# Youngs Moduli (GPa) = 79.22561 40.05384 126.66771
#
# Poissons Ratio (x) = 0.09799 0.61602
# Poissons Ratio (y) = 0.19383 0.20421
# Poissons Ratio (z) = 0.38530 0.06457
#
# Static dielectric constant tensor:
#      x y z
#    x 4.061550 0.000000 0.136240 
#    y 0.000000 4.191340 0.000000 
#    z 0.136240 0.000000 4.359210 
# 
# 
# High freq. dielectric constant tensor:
#      x y z
#    x 1.911980 0.000000 0.011100 
#    y 0.000000 1.930590 0.000000 
#    z 0.011100 0.000000 1.916310 
# 
# From -- ./inp_files/112043.got.cif
#   From: 2010.06.25/outbox.cif.g09.slc.cpg/sg12_57_cif.got.tgz:112043.got - 2010.06.28 00:19:55.
