data_PCOD8108582
_publ_section_title
;
Structure prediction by ZEFSAII (Michael W. Deem and Ramdas Pophale) SiO2 
 PCOD8108582
Probable space group: C 2/M
;
_chemical_formula_sum "Si O2"
_cell_formula_units_Z 64
_cell_length_a 24.674946
_cell_length_b 8.382137
_cell_length_c 14.881734
_cell_angle_alpha 90.000000
_cell_angle_beta 108.303039
_cell_angle_gamma 90.000000
_cell_volume 2922.252684
_symmetry_space_group_name_H-M "C 2/M"
_symmetry_group_IT_number 12
_symmetry_cell_setting 'monoclinic'
loop_
_space_group_symop_operation_xyz
x,y,z
-x,y,-z
-x,-y,-z
x,-y,z
1/2+x,1/2+y,z
1/2-x,1/2+y,-z
1/2-x,1/2-y,-z
1/2+x,1/2-y,z
loop_
_atom_site_type_symbol
_atom_site_label
_atom_site_fract_x
_atom_site_fract_y
_atom_site_fract_z
Si Si1 0.846988 0.315668 0.871477
Si Si2 0.676154 0.685437 0.602794
Si Si3 0.297497 0.686393 0.673775
Si Si4 0.508860 0.316592 0.725524
Si Si5 0.035276 0.184664 0.104990
Si Si6 0.186364 0.186093 0.960147
Si Si7 0.628207 0.816965 0.754777
Si Si8 0.607274 0.185907 0.407696
O O1 0.833449 0.500000 0.882803
O O2 0.800372 0.245835 0.778348
O O3 0.908863 0.293705 0.859090
O O4 0.845496 0.217839 0.962936
O O5 0.684190 0.500000 0.585875
O O6 0.734429 0.774744 0.605769
O O7 0.660381 0.709883 0.698339
O O8 0.626149 0.757966 0.515993
O O9 0.310341 0.500000 0.673425
O O10 0.343953 0.777977 0.639204
O O11 0.524840 0.500000 0.717448
O O12 0.503053 0.280703 0.828323
O O13 0.560378 0.210770 0.714830
O O14 0.450550 0.278729 0.644293
O O15 0.054131 0.000000 0.110324
O O16 0.000000 0.237243 0.000000
O O17 0.152044 0.275664 0.864964
O O18 0.186328 0.000000 0.938372
O O19 0.250000 0.250000 0.000000
O O20 0.641377 0.000000 0.739375
O O21 0.593811 0.000000 0.400741
#
# Coordination Sequence:
#
# PCOD8108582 Si02
#       8
#     8   8   8   8   8   8   8   8
#     4  12  24  39  63  96 131 170 218 268 327 390
#     4  12  26  46  70  98 131 174 225 277 338 403
#     4  12  24  43  68  99 137 176 220 275 338 402
#     4  11  23  42  68  98 136 179 223 273 333 397
#     4  10  21  38  62  92 128 169 215 264 323 387
#     4  12  25  44  67  95 133 177 225 275 332 396
#     4  12  26  46  69  99 136 176 225 279 334 397
#     4  12  25  44  69 101 136 174 222 278 337 396
#
# _framework density 21.900911000000001
#
# number of rings (size 3 to 8) (size 9 to 14) (size 15 to 20)
#    0.000    0.375    1.250    9.000    0.000    2.250 
#    0.000    2.500    0.000    0.000    0.000    0.000 
#    0.000    0.000    0.000    0.000    0.000    0.000 
#
# Total GULP energy -397123.548917 kJ/mol
# GULP energy per Si atom -12410.110904 kJ/mol
# Density = 2.185106 g / cm^3
# Si number density = 21.900911 Si / 1000 Ang^3
#
#
#
# Elastic Constant Matrix: (Units=GPa)
#
#
# Indices 1 2 3 4 5 6 
#
# 1 93.1538 8.6854 16.4596 0.0000 9.7510 0.0000
# 2 8.6854 91.2836 14.4002 0.0000 -0.6510 0.0000
# 3 16.4596 14.4002 99.3169 0.0000 9.1041 0.0000
# 4 0.0000 0.0000 0.0000 35.5189 0.0000 2.3893
# 5 9.7510 -0.6510 9.1041 0.0000 37.1846 0.0000
# 6 0.0000 0.0000 0.0000 2.3893 0.0000 39.4689
#
#
#
# Elastic Compliance Matrix: (Units=1/GPa)
#
#
# Indices 1 2 3 4 5 6 
#
# 1 0.011358 -0.000860 -0.001517 0.000000 -0.002622 0.000000
# 2 -0.000860 0.011290 -0.001568 0.000000 0.000807 0.000000
# 3 -0.001517 -0.001568 0.010755 0.000000 -0.002263 0.000000
# 4 0.000000 0.000000 0.000000 0.028269 0.000000 -0.001711
# 5 -0.002622 0.000807 -0.002263 0.000000 0.028149 0.000000
# 6 0.000000 0.000000 0.000000 -0.001711 0.000000 0.025440
#
#
# Mechanical properties :
#
#
# Convention : Reuss Voigt Hill
#
# Bulk Modulus (GPa) = 39.19835 40.31608 39.75722
# Shear Modulus (GPa) = 37.97794 38.71508 38.34651
#
# Velocity S-wave (km/s) = 4.16875 4.20901 4.18893
# Velocity P-wave (km/s) = 6.41156 6.48609 6.44894
#
# Compressibility (1/GPa) = 0.02551128
#
# Stress axis : x y z
#
# Youngs Moduli (GPa) = 88.04626 88.57493 92.97947
#
# Poissons Ratio (x) = 0.07617 0.14107
# Poissons Ratio (y) = 0.07572 0.14583
# Poissons Ratio (z) = 0.13359 0.13892
#
# Static dielectric constant tensor:
#      x y z
#    x 3.920200 0.000000 0.056700 
#    y 0.000000 3.967100 0.000000 
#    z 0.056700 0.000000 4.133980 
# 
# 
# High freq. dielectric constant tensor:
#      x y z
#    x 1.865630 0.000000 0.004790 
#    y 0.000000 1.869820 0.000000 
#    z 0.004790 0.000000 1.874570 
# 
# From -- ./inp_files/244263.got.cif
#   From: 2010.06.25/outbox.cif.g09.slc.cpg/sg12_123_cif.got.tgz:244263.got - 2010.06.28 00:19:55.
