data_PCOD8108677
_publ_section_title
;
Structure prediction by ZEFSAII (Michael W. Deem and Ramdas Pophale) SiO2 
 PCOD8108677
Probable space group: C 2/M
;
_chemical_formula_sum "Si O2"
_cell_formula_units_Z 52
_cell_length_a 15.276616
_cell_length_b 31.682763
_cell_length_c 8.804219
_cell_angle_alpha 90.000000
_cell_angle_beta 36.737765
_cell_angle_gamma 90.000000
_cell_volume 2548.905216
_symmetry_space_group_name_H-M "C 2/M"
_symmetry_group_IT_number 12
_symmetry_cell_setting 'monoclinic'
loop_
_space_group_symop_operation_xyz
x,y,z
-x,y,-z
-x,-y,-z
x,-y,z
1/2+x,1/2+y,z
1/2-x,1/2+y,-z
1/2-x,1/2-y,-z
1/2+x,1/2-y,z
loop_
_atom_site_type_symbol
_atom_site_label
_atom_site_fract_x
_atom_site_fract_y
_atom_site_fract_z
Si Si1 0.330321 0.245331 0.227910
Si Si2 0.214868 0.657406 0.850163
Si Si3 0.673970 0.187082 0.249020
Si Si4 0.257952 0.950964 0.512713
Si Si5 0.645593 0.615177 0.889304
Si Si6 0.048620 0.906320 0.583880
Si Si7 0.500000 0.094936 0.000000
O O1 0.250000 0.250000 0.500000
O O2 0.322596 0.196061 0.205816
O O3 0.248599 0.269715 0.203559
O O4 0.500000 0.260180 0.000000
O O5 0.365472 0.636386 0.583075
O O6 0.090551 0.622547 0.994273
O O7 0.221367 0.674229 0.013555
O O8 0.500000 0.191626 0.500000
O O9 0.732162 0.151682 0.286159
O O10 0.219263 0.926893 0.721390
O O11 0.133728 0.940308 0.563913
O O12 0.409933 0.935735 0.234068
O O13 0.261887 0.000000 0.545178
O O14 0.500000 0.629210 0.000000
O O15 0.599858 0.607514 0.125920
O O16 0.000000 0.930699 0.500000
#
# Coordination Sequence:
#
# PCOD8108677 Si02
#       7
#     8   8   8   8   8   8   4
#     4  12  28  44  67  98 137 178 226 282 337 396
#     4  11  23  42  67  91 129 171 221 270 332 392
#     4  12  25  41  66  96 132 177 228 278 330 394
#     4  10  22  39  67  96 129 171 216 266 333 406
#     4  10  22  40  66  93 131 173 221 266 335 391
#     4  10  21  38  63  95 125 167 213 274 323 394
#     4  10  21  42  70  92 130 170 222 268 333 402
#
# _framework density 20.400915999999999
#
# number of rings (size 3 to 8) (size 9 to 14) (size 15 to 20)
#    0.000    1.231    2.308    3.000    8.615    3.692 
#    0.000    0.000    0.000    1.385    0.000    0.000 
#    0.000    0.000    0.000    0.000    0.000    0.000 
#
# Total GULP energy -322341.921562 kJ/mol
# GULP energy per Si atom -12397.766214 kJ/mol
# Density = 2.035448 g / cm^3
# Si number density = 20.400916 Si / 1000 Ang^3
#
#
#
# Elastic Constant Matrix: (Units=GPa)
#
#
# Indices 1 2 3 4 5 6 
#
# 1 65.7943 20.9710 36.5290 0.0000 -3.0621 0.0000
# 2 20.9710 106.4281 35.9151 0.0000 -12.1244 0.0000
# 3 36.5290 35.9151 137.6560 0.0000 -5.0360 0.0000
# 4 0.0000 0.0000 0.0000 21.0954 0.0000 5.1769
# 5 -3.0621 -12.1244 -5.0360 0.0000 40.3576 0.0000
# 6 0.0000 0.0000 0.0000 5.1769 0.0000 23.4082
#
#
#
# Elastic Compliance Matrix: (Units=1/GPa)
#
#
# Indices 1 2 3 4 5 6 
#
# 1 0.018266 -0.002129 -0.004284 0.000000 0.000212 0.000000
# 2 -0.002129 0.010870 -0.002167 0.000000 0.002834 0.000000
# 3 -0.004284 -0.002167 0.008972 0.000000 0.000143 0.000000
# 4 0.000000 0.000000 0.000000 0.050124 0.000000 -0.011085
# 5 0.000212 0.002834 0.000143 0.000000 0.025664 0.000000
# 6 0.000000 0.000000 0.000000 -0.011085 0.000000 0.045172
#
#
# Mechanical properties :
#
#
# Convention : Reuss Voigt Hill
#
# Bulk Modulus (GPa) = 47.74045 55.18984 51.46514
# Shear Modulus (GPa) = 27.29105 31.40312 29.34709
#
# Velocity S-wave (km/s) = 3.66148 3.92765 3.79689
# Velocity P-wave (km/s) = 6.42862 6.90506 6.67110
#
# Compressibility (1/GPa) = 0.02094660
#
# Stress axis : x y z
#
# Youngs Moduli (GPa) = 54.74708 91.99837 111.45879
#
# Poissons Ratio (x) = 0.19591 0.47746
# Poissons Ratio (y) = 0.11658 0.24156
# Poissons Ratio (z) = 0.23452 0.19938
#
# Static dielectric constant tensor:
#      x y z
#    x 3.878890 0.000000 -0.014950 
#    y 0.000000 3.568900 0.000000 
#    z -0.014950 0.000000 3.914820 
# 
# 
# High freq. dielectric constant tensor:
#      x y z
#    x 1.804590 0.000000 0.001380 
#    y 0.000000 1.787180 0.000000 
#    z 0.001380 0.000000 1.812010 
# 
# From -- ./inp_files/68543.got.cif
#   From: 2010.06.25/outbox.cif.g09.slc.cpg/sg12_35_cif.got.tgz:68543.got - 2010.06.28 00:19:55.
