data_PCOD8108313
_publ_section_title
;
Structure prediction by ZEFSAII (Michael W. Deem and Ramdas Pophale) SiO2 
 PCOD8108313
Probable space group: C 2/M
;
_chemical_formula_sum "Si O2"
_cell_formula_units_Z 40
_cell_length_a 20.662332
_cell_length_b 8.747419
_cell_length_c 24.562567
_cell_angle_alpha 90.000000
_cell_angle_beta 24.897648
_cell_angle_gamma 90.000000
_cell_volume 1869.018702
_symmetry_space_group_name_H-M "C 2/M"
_symmetry_group_IT_number 12
_symmetry_cell_setting 'monoclinic'
loop_
_space_group_symop_operation_xyz
x,y,z
-x,y,-z
-x,-y,-z
x,-y,z
1/2+x,1/2+y,z
1/2-x,1/2+y,-z
1/2-x,1/2-y,-z
1/2+x,1/2-y,z
loop_
_atom_site_type_symbol
_atom_site_label
_atom_site_fract_x
_atom_site_fract_y
_atom_site_fract_z
Si Si1 0.371519 0.820923 0.865363
Si Si2 0.161297 0.325446 0.402059
Si Si3 0.692557 0.675504 0.599307
Si Si4 0.875268 0.323234 0.159301
Si Si5 0.306723 0.677155 0.105495
O O1 0.540748 0.750521 0.741420
O O2 0.320302 0.786798 0.842740
O O3 0.379546 0.000000 0.871692
O O4 0.250000 0.750000 0.000000
O O5 0.197159 0.500000 0.357397
O O6 0.170434 0.308469 0.460591
O O7 0.286544 0.210895 0.282187
O O8 0.000000 0.273353 0.500000
O O9 0.655478 0.500000 0.615289
O O10 0.750000 0.750000 0.500000
O O11 0.920140 0.500000 0.121428
O O12 0.770633 0.275015 0.187233
O O13 0.028026 0.222463 0.044094
O O14 0.306664 0.500000 0.121463
#
# Coordination Sequence:
#
# PCOD8108313 Si02
#       5
#     8   8   8   8   8
#     4  11  24  41  65  94 127 169 216 265 321 384
#     4  10  23  43  65  87 120 168 214 251 304 380
#     4  11  25  44  67  96 132 172 215 267 322 384
#     4  11  22  36  59  93 126 155 201 264 318 360
#     4  10  21  38  61  87 121 166 208 248 307 383
#
# _framework density 21.401605
#
# number of rings (size 3 to 8) (size 9 to 14) (size 15 to 20)
#    0.000    1.400    0.000    6.000    2.800   10.000 
#    0.000    0.000    0.000    0.000    0.000    0.000 
#    0.000    0.000    0.000    0.000    0.000    0.000 
#
# Total GULP energy -248032.465885 kJ/mol
# GULP energy per Si atom -12401.623294 kJ/mol
# Density = 2.135289 g / cm^3
# Si number density = 21.401605 Si / 1000 Ang^3
#
#
#
# Elastic Constant Matrix: (Units=GPa)
#
#
# Indices 1 2 3 4 5 6 
#
# 1 113.1959 45.3200 43.5480 -0.0013 -4.9097 0.0002
# 2 45.3200 76.1212 20.5544 0.0002 1.8765 0.0004
# 3 43.5480 20.5544 88.6168 -0.0036 9.0218 -0.0007
# 4 -0.0013 0.0002 -0.0036 32.6891 -0.0003 8.1950
# 5 -4.9097 1.8765 9.0218 -0.0003 37.8282 0.0004
# 6 0.0002 0.0004 -0.0007 8.1950 0.0004 33.5528
#
#
#
# Elastic Compliance Matrix: (Units=1/GPa)
#
#
# Indices 1 2 3 4 5 6 
#
# 1 0.013870 -0.006835 -0.005584 0.000000 0.003471 0.000000
# 2 -0.006835 0.017384 -0.000507 0.000000 -0.001628 0.000000
# 3 -0.005584 -0.000507 0.014571 0.000001 -0.004175 0.000000
# 4 0.000000 0.000000 0.000001 0.032587 0.000000 -0.007959
# 5 0.003471 -0.001628 -0.004175 0.000000 0.027962 0.000000
# 6 0.000000 0.000000 0.000000 -0.007959 0.000000 0.031748
#
#
# Mechanical properties :
#
#
# Convention : Reuss Voigt Hill
#
# Bulk Modulus (GPa) = 50.07080 55.19764 52.63422
# Shear Modulus (GPa) = 29.30308 32.04811 30.67560
#
# Velocity S-wave (km/s) = 3.70428 3.87390 3.79004
# Velocity P-wave (km/s) = 6.46082 6.77177 6.61812
#
# Compressibility (1/GPa) = 0.01997172
#
# Stress axis : x y z
#
# Youngs Moduli (GPa) = 72.10046 57.52563 68.62877
#
# Poissons Ratio (x) = 0.39320 0.38320
# Poissons Ratio (y) = 0.49283 0.03481
# Poissons Ratio (z) = 0.40259 0.02918
#
# Static dielectric constant tensor:
#      x y z
#    x 4.180630 0.000000 -0.052570 
#    y 0.000000 3.910360 0.000010 
#    z -0.052570 0.000010 3.746370 
# 
# 
# High freq. dielectric constant tensor:
#      x y z
#    x 1.858510 0.000000 -0.000540 
#    y 0.000000 1.844440 0.000000 
#    z -0.000540 0.000000 1.827020 
# 
# From -- ./inp_files/381960.got.cif
#   From: 2010.06.25/outbox.cif.g09.slc.cpg/sg12_191_cif.got.tgz:381960.got - 2010.06.28 00:19:55.
