data_PCOD8108331
_publ_section_title
;
Structure prediction by ZEFSAII (Michael W. Deem and Ramdas Pophale) SiO2 
 PCOD8108331
Probable space group: C 2/M
;
_chemical_formula_sum "Si O2"
_cell_formula_units_Z 48
_cell_length_a 29.542446
_cell_length_b 9.286233
_cell_length_c 9.212576
_cell_angle_alpha 90.000000
_cell_angle_beta 98.900699
_cell_angle_gamma 90.000000
_cell_volume 2496.925491
_symmetry_space_group_name_H-M "C 2/M"
_symmetry_group_IT_number 12
_symmetry_cell_setting 'monoclinic'
loop_
_space_group_symop_operation_xyz
x,y,z
-x,y,-z
-x,-y,-z
x,-y,z
1/2+x,1/2+y,z
1/2-x,1/2+y,-z
1/2-x,1/2-y,-z
1/2+x,1/2-y,z
loop_
_atom_site_type_symbol
_atom_site_label
_atom_site_fract_x
_atom_site_fract_y
_atom_site_fract_z
Si Si1 0.222231 0.161635 0.102246
Si Si2 0.631856 0.167216 0.146778
Si Si3 0.219321 0.657635 0.586160
Si Si4 0.455453 0.666345 0.381656
Si Si5 0.542176 0.168606 0.918752
Si Si6 0.119311 0.332335 0.475800
O O1 0.175369 0.238586 0.123791
O O2 0.258603 0.151996 0.247403
O O3 0.210348 0.000000 0.041751
O O4 0.250000 0.250000 0.000000
O O5 0.617228 0.202958 0.303828
O O6 0.645338 0.000000 0.137875
O O7 0.589605 0.207414 0.022069
O O8 0.216535 0.500000 0.512650
O O9 0.250000 0.750000 0.500000
O O10 0.167887 0.717267 0.566429
O O11 0.500000 0.686532 0.500000
O O12 0.444372 0.500000 0.345670
O O13 0.461581 0.744786 0.231693
O O14 0.415472 0.734922 0.455191
O O15 0.539440 0.000000 0.880603
O O16 0.500000 0.214752 0.000000
O O17 0.108445 0.500000 0.499756
#
# Coordination Sequence:
#
# PCOD8108331 Si02
#       6
#     8   8   8   8   8   8
#     4  11  24  39  58  87 123 162 203 246 296 353
#     4  10  21  39  63  90 119 154 199 248 300 354
#     4  10  21  38  61  88 118 157 202 246 293 347
#     4  11  25  42  61  90 124 157 195 242 297 356
#     4  10  22  41  66  92 118 154 200 245 294 356
#     4  10  21  39  64  90 118 156 201 248 294 347
#
# _framework density 19.223642000000002
#
# number of rings (size 3 to 8) (size 9 to 14) (size 15 to 20)
#    0.000    1.667    1.667    2.000    2.333    5.667 
#    0.000    0.000    0.000    0.000    0.000    0.000 
#    0.000    0.000    0.000    0.000    0.000    0.000 
#
# Total GULP energy -297604.132325 kJ/mol
# GULP energy per Si atom -12400.172180 kJ/mol
# Density = 1.917989 g / cm^3
# Si number density = 19.223642 Si / 1000 Ang^3
#
#
#
# Elastic Constant Matrix: (Units=GPa)
#
#
# Indices 1 2 3 4 5 6 
#
# 1 141.2550 82.8937 69.2435 0.0000 -14.3563 0.0000
# 2 82.8937 117.6746 77.9215 0.0000 -14.9233 0.0000
# 3 69.2435 77.9215 125.0351 0.0000 -12.7950 0.0000
# 4 0.0000 0.0000 0.0000 30.1323 0.0000 -1.1392
# 5 -14.3563 -14.9233 -12.7950 0.0000 36.1475 0.0000
# 6 0.0000 0.0000 0.0000 -1.1392 0.0000 33.0138
#
#
#
# Elastic Compliance Matrix: (Units=1/GPa)
#
#
# Indices 1 2 3 4 5 6 
#
# 1 0.012540 -0.007090 -0.002403 0.000000 0.001203 0.000000
# 2 -0.007090 0.018773 -0.007541 0.000000 0.002265 0.000000
# 3 -0.002403 -0.007541 0.014124 0.000000 0.000931 0.000000
# 4 0.000000 0.000000 0.000000 0.033230 0.000000 0.001147
# 5 0.001203 0.002265 0.000931 0.000000 0.029407 0.000000
# 6 0.000000 0.000000 0.000000 0.001147 0.000000 0.030330
#
#
# Mechanical properties :
#
#
# Convention : Reuss Voigt Hill
#
# Bulk Modulus (GPa) = 87.96317 93.78692 90.87505
# Shear Modulus (GPa) = 28.36668 30.11914 29.24291
#
# Velocity S-wave (km/s) = 3.84554 3.96255 3.90448
# Velocity P-wave (km/s) = 8.09782 8.35637 8.22811
#
# Compressibility (1/GPa) = 0.01136839
#
# Stress axis : x y z
#
# Youngs Moduli (GPa) = 79.74266 53.26698 70.80276
#
# Poissons Ratio (x) = 0.37766 0.17016
# Poissons Ratio (y) = 0.56537 0.53395
# Poissons Ratio (z) = 0.19164 0.40171
#
# Static dielectric constant tensor:
#      x y z
#    x 3.513680 0.000000 -0.038330 
#    y 0.000000 3.738900 0.000000 
#    z -0.038330 0.000000 3.421870 
# 
# 
# High freq. dielectric constant tensor:
#      x y z
#    x 1.765420 0.000000 0.004990 
#    y 0.000000 1.749250 0.000000 
#    z 0.004990 0.000000 1.757630 
# 
# From -- ./inp_files/108604.got.cif
#   From: 2010.06.25/outbox.cif.g09.slc.cpg/sg12_55_cif.got.tgz:108604.got - 2010.06.28 00:19:55.
