data_PCOD8108669
_publ_section_title
;
Structure prediction by ZEFSAII (Michael W. Deem and Ramdas Pophale) SiO2 
 PCOD8108669
Probable space group: C 2/M
;
_chemical_formula_sum "Si O2"
_cell_formula_units_Z 40
_cell_length_a 27.025306
_cell_length_b 7.709424
_cell_length_c 27.054084
_cell_angle_alpha 90.000000
_cell_angle_beta 159.263480
_cell_angle_gamma 90.000000
_cell_volume 1995.794245
_symmetry_space_group_name_H-M "C 2/M"
_symmetry_group_IT_number 12
_symmetry_cell_setting 'monoclinic'
loop_
_space_group_symop_operation_xyz
x,y,z
-x,y,-z
-x,-y,-z
x,-y,z
1/2+x,1/2+y,z
1/2-x,1/2+y,-z
1/2-x,1/2-y,-z
1/2+x,1/2-y,z
loop_
_atom_site_type_symbol
_atom_site_label
_atom_site_fract_x
_atom_site_fract_y
_atom_site_fract_z
Si Si1 0.920177 0.000000 0.874212
Si Si2 0.084786 0.700407 0.399737
Si Si3 0.345822 0.305869 0.246659
Si Si4 0.135991 0.500000 0.659196
Si Si5 0.455077 0.804554 0.071611
Si Si6 0.097654 0.205069 0.302180
O O1 0.954066 0.827161 0.875659
O O2 0.757021 0.000000 0.731835
O O3 0.000000 0.000000 0.000000
O O4 0.070853 0.500000 0.400404
O O5 0.042362 0.731982 0.303421
O O6 0.242461 0.768327 0.556431
O O7 0.980263 0.803993 0.337059
O O8 0.333361 0.500000 0.257164
O O9 0.358202 0.172591 0.302850
O O10 0.208507 0.258277 0.086420
O O11 0.000000 0.500000 0.500000
O O12 0.496978 0.790656 0.167936
O O13 0.484994 0.000000 0.080813
O O14 0.089138 0.000000 0.290277
#
# Coordination Sequence:
#
# PCOD8108669 Si02
#       6
#     4   8   8   4   8   8
#     4  12  24  46  70  92 128 172 212 274 320 376
#     4  10  21  38  63  93 132 171 210 263 319 380
#     4  11  24  43  65  94 130 167 212 266 320 381
#     4  12  28  46  68  96 130 168 218 268 328 378
#     4  11  24  41  66  96 127 167 217 262 318 383
#     4  10  21  38  63  95 129 170 215 259 319 384
#
# _framework density 20.042145999999999
#
# number of rings (size 3 to 8) (size 9 to 14) (size 15 to 20)
#    0.000    1.200    4.000    1.200    2.800    4.800 
#    0.000    0.000    0.000    0.000    0.000    0.000 
#    0.000    0.000    0.000    0.000    0.000    0.000 
#
# Total GULP energy -248082.851049 kJ/mol
# GULP energy per Si atom -12404.142552 kJ/mol
# Density = 1.999653 g / cm^3
# Si number density = 20.042146 Si / 1000 Ang^3
#
#
#
# Elastic Constant Matrix: (Units=GPa)
#
#
# Indices 1 2 3 4 5 6 
#
# 1 67.5767 38.3222 30.7334 -0.0046 12.0029 -0.0049
# 2 38.3222 113.2242 48.1956 -0.0028 -0.6257 -0.0032
# 3 30.7334 48.1956 127.9183 -0.0132 -9.6745 -0.0166
# 4 -0.0046 -0.0028 -0.0132 6.7766 -0.0075 -31.7380
# 5 12.0029 -0.6257 -9.6745 -0.0075 39.3131 -0.0088
# 6 -0.0049 -0.0032 -0.0166 -31.7380 -0.0088 -12.4533
#
#
#
# Elastic Compliance Matrix: (Units=1/GPa)
#
#
# Indices 1 2 3 4 5 6 
#
# 1 0.020855 -0.005635 -0.003440 0.000001 -0.007304 0.000001
# 2 -0.005635 0.012068 -0.003106 0.000001 0.001148 0.000001
# 3 -0.003440 -0.003106 0.010078 -0.000003 0.003481 -0.000005
# 4 0.000001 0.000001 -0.000003 0.011407 -0.000005 -0.029072
# 5 -0.007304 0.001148 0.003481 -0.000005 0.028542 -0.000008
# 6 0.000001 0.000001 -0.000005 -0.029072 -0.000008 -0.006207
#
#
# Mechanical properties :
#
#
# Convention : Reuss Voigt Hill
#
# Bulk Modulus (GPa) = 53.65197 60.35797 57.00497
# Shear Modulus (GPa) = 46.59117 19.49182 33.04150
#
# Velocity S-wave (km/s) = 4.82670 3.12194 4.06470
# Velocity P-wave (km/s) = 7.60858 6.57087 7.10868
#
# Compressibility (1/GPa) = 0.01863865
#
# Stress axis : x y z
#
# Youngs Moduli (GPa) = 47.94971 82.86580 99.23092
#
# Poissons Ratio (x) = 0.46693 0.34135
# Poissons Ratio (y) = 0.27019 0.30822
# Poissons Ratio (z) = 0.16495 0.25739
#
# Static dielectric constant tensor:
#      x y z
#    x 3.465090 0.000000 0.068540 
#    y 0.000000 3.797350 0.000000 
#    z 0.068540 0.000000 3.809460 
# 
# 
# High freq. dielectric constant tensor:
#      x y z
#    x 1.775100 0.000000 0.001010 
#    y 0.000000 1.798980 0.000000 
#    z 0.001010 0.000000 1.789300 
# 
# From -- ./inp_files/370480.got.cif
#   From: 2010.06.25/outbox.cif.g09.slc.cpg/sg12_186_cif.got.tgz:370480.got - 2010.06.28 00:19:55.
