data_PCOD8108606
_publ_section_title
;
Structure prediction by ZEFSAII (Michael W. Deem and Ramdas Pophale) SiO2 
 PCOD8108606
Probable space group: C 2/M
;
_chemical_formula_sum "Si O2"
_cell_formula_units_Z 32
_cell_length_a 13.174274
_cell_length_b 13.429120
_cell_length_c 7.300339
_cell_angle_alpha 90.000000
_cell_angle_beta 111.967225
_cell_angle_gamma 90.000000
_cell_volume 1197.797560
_symmetry_space_group_name_H-M "C 2/M"
_symmetry_group_IT_number 12
_symmetry_cell_setting 'monoclinic'
loop_
_space_group_symop_operation_xyz
x,y,z
-x,y,-z
-x,-y,-z
x,-y,z
1/2+x,1/2+y,z
1/2-x,1/2+y,-z
1/2-x,1/2-y,-z
1/2+x,1/2-y,z
loop_
_atom_site_type_symbol
_atom_site_label
_atom_site_fract_x
_atom_site_fract_y
_atom_site_fract_z
Si Si1 0.760523 0.116040 0.713896
Si Si2 0.598894 0.885001 0.281989
Si Si3 0.875038 0.707973 0.078623
Si Si4 0.995161 0.113910 0.711422
O O1 0.666646 0.143984 0.506304
O O2 0.735876 0.184422 0.878581
O O3 0.876043 0.144672 0.703547
O O4 0.755448 0.000000 0.764320
O O5 0.471102 0.861239 0.229492
O O6 0.614259 0.000000 0.241998
O O7 0.645219 0.820082 0.145706
O O8 0.914017 0.822846 0.120000
O O9 0.000000 0.135984 0.500000
O O10 0.023204 0.000000 0.775144
#
# Coordination Sequence:
#
# PCOD8108606 Si02
#       4
#     8   8   8   8
#     4  10  21  41  69  95 126 171 215 259 319 388
#     4  10  21  38  63 100 136 163 208 273 325 374
#     4  11  21  38  66  96 127 168 216 263 318 383
#     4  10  23  43  65  93 131 172 214 265 323 379
#
# _framework density 26.715699000000001
#
# number of rings (size 3 to 8) (size 9 to 14) (size 15 to 20)
#    0.000    1.750    0.000    5.250    0.000    6.000 
#    0.000   16.250    0.000   19.500    0.000    0.000 
#    0.000    0.000    0.000    0.000    0.000    0.000 
#
# Total GULP energy -198571.614540 kJ/mol
# GULP energy per Si atom -12410.725909 kJ/mol
# Density = 2.665489 g / cm^3
# Si number density = 26.715699 Si / 1000 Ang^3
#
#
#
# Elastic Constant Matrix: (Units=GPa)
#
#
# Indices 1 2 3 4 5 6 
#
# 1 193.2400 53.7836 40.4264 0.0000 -28.4760 0.0000
# 2 53.7836 149.2387 57.7178 0.0000 -23.8846 0.0000
# 3 40.4264 57.7178 101.1094 0.0000 -19.1919 0.0000
# 4 0.0000 0.0000 0.0000 48.4607 0.0000 -8.1511
# 5 -28.4760 -23.8846 -19.1919 0.0000 44.1619 0.0000
# 6 0.0000 0.0000 0.0000 -8.1511 0.0000 44.8460
#
#
#
# Elastic Compliance Matrix: (Units=1/GPa)
#
#
# Indices 1 2 3 4 5 6 
#
# 1 0.006202 -0.001331 -0.001196 0.000000 0.002760 0.000000
# 2 -0.001331 0.009201 -0.004293 0.000000 0.002253 0.000000
# 3 -0.001196 -0.004293 0.013332 0.000000 0.002701 0.000000
# 4 0.000000 0.000000 0.000000 0.021286 0.000000 0.003869
# 5 0.002760 0.002253 0.002701 0.000000 0.026815 0.000000
# 6 0.000000 0.000000 0.000000 0.003869 0.000000 0.023002
#
#
# Mechanical properties :
#
#
# Convention : Reuss Voigt Hill
#
# Bulk Modulus (GPa) = 66.24607 83.04931 74.64769
# Shear Modulus (GPa) = 42.19077 46.93775 44.56426
#
# Velocity S-wave (km/s) = 3.97829 4.19613 4.08866
# Velocity P-wave (km/s) = 6.77886 7.39124 7.09166
#
# Compressibility (1/GPa) = 0.01509524
#
# Stress axis : x y z
#
# Youngs Moduli (GPa) = 161.23164 108.68389 75.00956
#
# Poissons Ratio (x) = 0.14465 0.08973
# Poissons Ratio (y) = 0.21458 0.32199
# Poissons Ratio (z) = 0.19288 0.46654
#
# Static dielectric constant tensor:
#      x y z
#    x 5.011950 0.000000 0.083220 
#    y 0.000000 5.115920 0.000000 
#    z 0.083220 0.000000 4.816630 
# 
# 
# High freq. dielectric constant tensor:
#      x y z
#    x 2.089380 0.000000 0.008950 
#    y 0.000000 2.100930 0.000000 
#    z 0.008950 0.000000 2.093070 
# 
# From -- ./inp_files/45413.got.cif
#   From: 2010.06.25/outbox.cif.g09.slc.cpg/sg12_23_cif.got.tgz:45413.got - 2010.06.28 00:19:55.
