data_PCOD8108062
_publ_section_title
;
Structure prediction by ZEFSAII (Michael W. Deem and Ramdas Pophale) SiO2 
 PCOD8108062
Probable space group: C 2/M
;
_chemical_formula_sum "Si O2"
_cell_formula_units_Z 56
_cell_length_a 12.801035
_cell_length_b 15.257413
_cell_length_c 22.375282
_cell_angle_alpha 90.000000
_cell_angle_beta 36.240894
_cell_angle_gamma 90.000000
_cell_volume 2583.540773
_symmetry_space_group_name_H-M "C 2/M"
_symmetry_group_IT_number 12
_symmetry_cell_setting 'monoclinic'
loop_
_space_group_symop_operation_xyz
x,y,z
-x,y,-z
-x,-y,-z
x,-y,z
1/2+x,1/2+y,z
1/2-x,1/2+y,-z
1/2-x,1/2-y,-z
1/2+x,1/2-y,z
loop_
_atom_site_type_symbol
_atom_site_label
_atom_site_fract_x
_atom_site_fract_y
_atom_site_fract_z
Si Si1 0.116859 0.403869 0.498717
Si Si2 0.872866 0.227075 0.202045
Si Si3 0.443374 0.654498 0.292381
Si Si4 0.365153 0.401685 0.964877
Si Si5 0.999154 0.321630 0.327871
Si Si6 0.806944 0.599357 0.082267
Si Si7 0.027372 0.598817 0.190348
O O1 0.036574 0.500000 0.546526
O O2 0.321577 0.415375 0.383212
O O3 0.000000 0.357378 0.500000
O O4 0.106738 0.355249 0.566343
O O5 0.881342 0.158029 0.252545
O O6 0.680153 0.224569 0.263756
O O7 0.001374 0.180764 0.093797
O O8 0.923947 0.325835 0.200016
O O9 0.386336 0.744384 0.350538
O O10 0.655533 0.639481 0.195574
O O11 0.453985 0.500000 0.924425
O O12 0.243043 0.391766 0.963196
O O13 0.235569 0.391582 0.081006
O O14 0.014801 0.393521 0.268075
O O15 0.824599 0.500000 0.095564
O O16 0.000000 0.645856 0.000000
O O17 0.960922 0.500000 0.203071
#
# Coordination Sequence:
#
# PCOD8108062 Si02
#       7
#     8   8   8   8   8   8   8
#     4  11  22  39  65  90 116 156 205 261 318 370
#     4  10  21  38  59  89 124 165 212 260 315 378
#     4  10  21  39  59  88 121 158 202 255 309 370
#     4   9  19  35  57  86 126 168 210 266 315 369
#     4  11  23  39  61  89 122 162 207 257 316 377
#     4   9  18  33  56  88 122 158 201 248 304 370
#     4  10  22  40  59  88 129 171 213 260 318 382
#
# _framework density 21.675678000000001
#
# number of rings (size 3 to 8) (size 9 to 14) (size 15 to 20)
#    0.000    2.000    1.429    1.714    2.000    2.286 
#    0.000    2.143    0.000    0.000    0.000    5.000 
#    0.000    0.000    0.000    0.000    0.000    0.000 
#
# Total GULP energy -346876.643767 kJ/mol
# GULP energy per Si atom -12388.451563 kJ/mol
# Density = 2.162634 g / cm^3
# Si number density = 21.675678 Si / 1000 Ang^3
#
#
#
# Elastic Constant Matrix: (Units=GPa)
#
#
# Indices 1 2 3 4 5 6 
#
# 1 31.1421 7.4692 21.5420 0.0007 -3.3293 -0.0005
# 2 7.4692 88.1542 25.7647 0.0004 3.1612 -0.0003
# 3 21.5420 25.7647 128.2383 -0.0015 3.0987 -0.0004
# 4 0.0007 0.0004 -0.0015 29.4943 -0.0004 4.8193
# 5 -3.3293 3.1612 3.0987 -0.0004 30.2903 0.0002
# 6 -0.0005 -0.0003 -0.0004 4.8193 0.0002 18.1950
#
#
#
# Elastic Compliance Matrix: (Units=1/GPa)
#
#
# Indices 1 2 3 4 5 6 
#
# 1 0.037192 -0.001557 -0.006052 -0.000001 0.004870 0.000001
# 2 -0.001557 0.012148 -0.002150 0.000000 -0.001219 0.000000
# 3 -0.006052 -0.002150 0.009280 0.000001 -0.001390 0.000000
# 4 -0.000001 0.000000 0.000001 0.035439 0.000000 -0.009387
# 5 0.004870 -0.001219 -0.001390 0.000000 0.033819 0.000000
# 6 0.000001 0.000000 0.000000 -0.009387 0.000000 0.057446
#
#
# Mechanical properties :
#
#
# Convention : Reuss Voigt Hill
#
# Bulk Modulus (GPa) = 25.57451 39.67626 32.62538
# Shear Modulus (GPa) = 22.94899 28.44650 25.69775
#
# Velocity S-wave (km/s) = 3.25736 3.62659 3.44693
# Velocity P-wave (km/s) = 5.09623 5.99003 5.56112
#
# Compressibility (1/GPa) = 0.03910144
#
# Stress axis : x y z
#
# Youngs Moduli (GPa) = 26.88785 82.32040 107.75652
#
# Poissons Ratio (x) = 0.12816 0.65219
# Poissons Ratio (y) = 0.04186 0.23164
# Poissons Ratio (z) = 0.16274 0.17696
#
# Static dielectric constant tensor:
#      x y z
#    x 3.664560 0.000000 0.125550 
#    y 0.000000 3.963460 0.000000 
#    z 0.125550 0.000000 3.950930 
# 
# 
# High freq. dielectric constant tensor:
#      x y z
#    x 1.832970 0.000000 0.014560 
#    y 0.000000 1.850010 0.000000 
#    z 0.014560 0.000000 1.851690 
# 
# From -- ./inp_files/340281.got.cif
#   From: 2010.06.25/outbox.cif.g09.slc.cpg/sg12_171_cif.got.tgz:340281.got - 2010.06.28 00:19:55.
