data_PCOD8108364
_publ_section_title
;
Structure prediction by ZEFSAII (Michael W. Deem and Ramdas Pophale) SiO2 
 PCOD8108364
Probable space group: C 2/M
;
_chemical_formula_sum "Si O2"
_cell_formula_units_Z 40
_cell_length_a 12.113450
_cell_length_b 15.064202
_cell_length_c 11.477736
_cell_angle_alpha 90.000000
_cell_angle_beta 65.040298
_cell_angle_gamma 90.000000
_cell_volume 1898.839376
_symmetry_space_group_name_H-M "C 2/M"
_symmetry_group_IT_number 12
_symmetry_cell_setting 'monoclinic'
loop_
_space_group_symop_operation_xyz
x,y,z
-x,y,-z
-x,-y,-z
x,-y,z
1/2+x,1/2+y,z
1/2-x,1/2+y,-z
1/2-x,1/2-y,-z
1/2+x,1/2-y,z
loop_
_atom_site_type_symbol
_atom_site_label
_atom_site_fract_x
_atom_site_fract_y
_atom_site_fract_z
Si Si1 0.983632 0.659698 0.319730
Si Si2 0.076291 0.839098 0.789825
Si Si3 0.675746 0.101979 0.411094
Si Si4 0.087002 0.597917 0.052487
Si Si5 0.155616 0.103009 0.997768
O O1 0.958172 0.748508 0.258396
O O2 0.861493 0.629417 0.440907
O O3 0.098224 0.665172 0.358292
O O4 0.021002 0.588467 0.206127
O O5 0.179243 0.886632 0.665827
O O6 0.949813 0.893694 0.857039
O O7 0.127102 0.834029 0.899661
O O8 0.639069 0.000000 0.404198
O O9 0.109951 0.500000 0.990701
O O10 0.219648 0.643011 0.004509
O O11 0.000000 0.651178 0.000000
O O12 0.171573 0.000000 0.949204
#
# Coordination Sequence:
#
# PCOD8108364 Si02
#       5
#     8   8   8   8   8
#     4  11  23  36  60  94 125 159 214 265 315 356
#     4  11  22  36  62  95 128 157 207 268 315 362
#     4  11  22  43  67  86 125 178 220 252 303 391
#     4  10  21  38  61  88 124 165 211 259 310 378
#     4  10  21  40  63  91 127 174 217 246 311 398
#
# _framework density 21.065498999999999
#
# number of rings (size 3 to 8) (size 9 to 14) (size 15 to 20)
#    0.000    1.400    2.000    5.400    2.800    2.400 
#    0.000    0.000    0.000    0.000    0.000   26.600 
#    0.000    0.000    0.000    0.000    0.000    0.000 
#
# Total GULP energy -247770.027117 kJ/mol
# GULP energy per Si atom -12388.501356 kJ/mol
# Density = 2.101755 g / cm^3
# Si number density = 21.065499 Si / 1000 Ang^3
#
#
#
# Elastic Constant Matrix: (Units=GPa)
#
#
# Indices 1 2 3 4 5 6 
#
# 1 172.8687 43.1412 91.9832 0.0000 -11.0938 0.0000
# 2 43.1412 88.6374 20.0396 0.0000 7.6350 0.0000
# 3 91.9832 20.0396 142.1971 0.0000 -30.3993 0.0000
# 4 0.0000 0.0000 0.0000 32.6823 0.0000 5.8004
# 5 -11.0938 7.6350 -30.3993 0.0000 38.9482 0.0000
# 6 0.0000 0.0000 0.0000 5.8004 0.0000 18.4825
#
#
#
# Elastic Compliance Matrix: (Units=1/GPa)
#
#
# Indices 1 2 3 4 5 6 
#
# 1 0.009791 -0.003250 -0.006173 0.000000 -0.001392 0.000000
# 2 -0.003250 0.013358 -0.000646 0.000000 -0.004048 0.000000
# 3 -0.006173 -0.000646 0.012925 0.000000 0.008456 0.000000
# 4 0.000000 0.000000 0.000000 0.032402 0.000000 -0.010169
# 5 -0.001392 -0.004048 0.008456 0.000000 0.032672 0.000000
# 6 0.000000 0.000000 0.000000 -0.010169 0.000000 0.057297
#
#
# Mechanical properties :
#
#
# Convention : Reuss Voigt Hill
#
# Bulk Modulus (GPa) = 62.75018 79.33679 71.04348
# Shear Modulus (GPa) = 27.18937 34.59189 30.89063
#
# Velocity S-wave (km/s) = 3.59654 4.05669 3.83353
# Velocity P-wave (km/s) = 6.86291 7.72568 7.30704
#
# Compressibility (1/GPa) = 0.01593621
#
# Stress axis : x y z
#
# Youngs Moduli (GPa) = 102.13193 74.85917 77.37191
#
# Poissons Ratio (x) = 0.24329 0.47764
# Poissons Ratio (y) = 0.33192 0.04996
# Poissons Ratio (z) = 0.63049 0.04834
#
# Static dielectric constant tensor:
#      x y z
#    x 4.098750 0.000000 -0.248620 
#    y 0.000000 3.541170 0.000000 
#    z -0.248620 0.000000 4.052380 
# 
# 
# High freq. dielectric constant tensor:
#      x y z
#    x 1.828790 0.000000 -0.020720 
#    y 0.000000 1.804210 0.000000 
#    z -0.020720 0.000000 1.828840 
# 
# From -- ./inp_files/129603.got.cif
#   From: 2010.06.25/outbox.cif.g09.slc.cpg/sg12_65_cif.got.tgz:129603.got - 2010.06.28 00:19:55.
