data_PCOD8108601
_publ_section_title
;
Structure prediction by ZEFSAII (Michael W. Deem and Ramdas Pophale) SiO2 
 PCOD8108601
Probable space group: C 2/M
;
_chemical_formula_sum "Si O2"
_cell_formula_units_Z 56
_cell_length_a 32.380578
_cell_length_b 18.419527
_cell_length_c 9.445554
_cell_angle_alpha 90.000000
_cell_angle_beta 29.689764
_cell_angle_gamma 90.000000
_cell_volume 2790.370572
_symmetry_space_group_name_H-M "C 2/M"
_symmetry_group_IT_number 12
_symmetry_cell_setting 'monoclinic'
loop_
_space_group_symop_operation_xyz
x,y,z
-x,y,-z
-x,-y,-z
x,-y,z
1/2+x,1/2+y,z
1/2-x,1/2+y,-z
1/2-x,1/2-y,-z
1/2+x,1/2-y,z
loop_
_atom_site_type_symbol
_atom_site_label
_atom_site_fract_x
_atom_site_fract_y
_atom_site_fract_z
Si Si1 0.863476 0.822651 0.201792
Si Si2 0.008787 0.085310 0.813253
Si Si3 0.574724 0.830228 0.889296
Si Si4 0.265084 0.163279 0.178749
Si Si5 0.315559 0.585574 0.826496
Si Si6 0.244447 0.825540 0.749705
Si Si7 0.423917 0.914838 0.833406
O O1 0.913423 0.748243 0.075414
O O2 0.816010 0.850273 0.482971
O O3 0.793953 0.814617 0.290140
O O4 0.932127 0.881938 0.952388
O O5 0.094398 0.113466 0.491748
O O6 0.001991 0.000000 0.824293
O O7 0.000000 0.113687 0.000000
O O8 0.659591 0.849580 0.552830
O O9 0.500000 0.830016 0.000000
O O10 0.553298 0.888670 0.075666
O O11 0.255271 0.120315 0.061356
O O12 0.269575 0.248856 0.129296
O O13 0.346700 0.133207 0.011976
O O14 0.307541 0.500000 0.841427
O O15 0.302089 0.611339 0.026782
O O16 0.500000 0.900683 0.500000
O O17 0.400307 0.000000 0.907964
#
# Coordination Sequence:
#
# PCOD8108601 Si02
#       7
#     8   8   8   8   8   8   8
#     4  11  21  42  69  94 125 165 211 257 315 388
#     4  10  21  38  62  95 127 163 207 250 308 383
#     4  11  24  43  67  94 127 164 209 269 321 367
#     4  11  21  44  67  91 125 171 217 258 308 377
#     4  11  25  41  63  98 132 165 208 259 317 380
#     4  11  24  43  65  98 128 160 214 264 316 380
#     4  11  25  43  64  93 128 171 219 261 310 376
#
# _framework density 20.069019999999998
#
# number of rings (size 3 to 8) (size 9 to 14) (size 15 to 20)
#    0.000    1.143    4.286    2.143    4.000    3.714 
#    0.000    1.429    0.000    0.000    0.000    0.000 
#    0.000    0.000    0.000    0.000    0.000    0.000 
#
# Total GULP energy -347284.929874 kJ/mol
# GULP energy per Si atom -12403.033210 kJ/mol
# Density = 2.002334 g / cm^3
# Si number density = 20.069020 Si / 1000 Ang^3
#
#
#
# Elastic Constant Matrix: (Units=GPa)
#
#
# Indices 1 2 3 4 5 6 
#
# 1 80.5864 30.2571 40.9510 0.0000 -7.5933 0.0000
# 2 30.2571 60.0857 50.2084 0.0000 2.1683 0.0000
# 3 40.9510 50.2084 112.3413 0.0000 -3.9334 0.0000
# 4 0.0000 0.0000 0.0000 35.9821 0.0000 3.3292
# 5 -7.5933 2.1683 -3.9334 0.0000 33.9649 0.0000
# 6 0.0000 0.0000 0.0000 3.3292 0.0000 30.9195
#
#
#
# Elastic Compliance Matrix: (Units=1/GPa)
#
#
# Indices 1 2 3 4 5 6 
#
# 1 0.016606 -0.005657 -0.003396 0.000000 0.003680 0.000000
# 2 -0.005657 0.028816 -0.010970 0.000000 -0.004375 0.000000
# 3 -0.003396 -0.010970 0.015101 0.000000 0.001690 0.000000
# 4 0.000000 0.000000 0.000000 0.028071 0.000000 -0.003023
# 5 0.003680 -0.004375 0.001690 0.000000 0.030740 0.000000
# 6 0.000000 0.000000 0.000000 -0.003023 0.000000 0.032667
#
#
# Mechanical properties :
#
#
# Convention : Reuss Voigt Hill
#
# Bulk Modulus (GPa) = 48.83478 55.09404 51.96441
# Shear Modulus (GPa) = 25.14178 28.94643 27.04410
#
# Velocity S-wave (km/s) = 3.54328 3.80194 3.67489
# Velocity P-wave (km/s) = 6.41296 6.83995 6.62989
#
# Compressibility (1/GPa) = 0.02047721
#
# Stress axis : x y z
#
# Youngs Moduli (GPa) = 60.22093 34.70314 66.22027
#
# Poissons Ratio (x) = 0.19632 0.22488
# Poissons Ratio (y) = 0.34068 0.72641
# Poissons Ratio (z) = 0.20451 0.38068
#
# Static dielectric constant tensor:
#      x y z
#    x 3.590570 0.000000 -0.038240 
#    y 0.000000 3.590350 0.000000 
#    z -0.038240 0.000000 3.760890 
# 
# 
# High freq. dielectric constant tensor:
#      x y z
#    x 1.783590 0.000000 -0.006320 
#    y 0.000000 1.784940 0.000000 
#    z -0.006320 0.000000 1.789370 
# 
# From -- ./inp_files/113350.got.cif
#   From: 2010.06.25/outbox.cif.g09.slc.cpg/sg12_57_cif.got.tgz:113350.got - 2010.06.28 00:19:55.
