data_PCOD8108377
_publ_section_title
;
Structure prediction by ZEFSAII (Michael W. Deem and Ramdas Pophale) SiO2 
 PCOD8108377
Probable space group: C 2/M
;
_chemical_formula_sum "Si O2"
_cell_formula_units_Z 56
_cell_length_a 27.125633
_cell_length_b 8.765988
_cell_length_c 13.567384
_cell_angle_alpha 90.000000
_cell_angle_beta 120.193952
_cell_angle_gamma 90.000000
_cell_volume 2788.402092
_symmetry_space_group_name_H-M "C 2/M"
_symmetry_group_IT_number 12
_symmetry_cell_setting 'monoclinic'
loop_
_space_group_symop_operation_xyz
x,y,z
-x,y,-z
-x,-y,-z
x,-y,z
1/2+x,1/2+y,z
1/2-x,1/2+y,-z
1/2-x,1/2-y,-z
1/2+x,1/2-y,z
loop_
_atom_site_type_symbol
_atom_site_label
_atom_site_fract_x
_atom_site_fract_y
_atom_site_fract_z
Si Si1 0.400026 0.824541 0.548399
Si Si2 0.624163 0.175346 0.700750
Si Si3 0.834245 0.320471 0.828053
Si Si4 0.947829 0.823050 0.018063
Si Si5 0.738690 0.678650 0.883363
Si Si6 0.308795 0.321313 0.593354
Si Si7 0.524697 0.824044 0.752074
O O1 0.395171 0.787260 0.428729
O O2 0.357369 0.716216 0.563670
O O3 0.463835 0.786236 0.644561
O O4 0.384399 0.000000 0.555289
O O5 0.676476 0.281754 0.781752
O O6 0.571575 0.214764 0.717791
O O7 0.643121 0.000000 0.731453
O O8 0.829676 0.500000 0.805987
O O9 0.785308 0.260431 0.852510
O O10 0.827508 0.238261 0.717887
O O11 0.894949 0.281383 0.935448
O O12 0.965987 0.786559 0.147045
O O13 0.930863 0.000000 0.991799
O O14 0.000000 0.780869 0.000000
O O15 0.744947 0.500000 0.901958
O O16 0.750000 0.750000 0.000000
O O17 0.300196 0.500000 0.591001
O O18 0.250000 0.250000 0.500000
O O19 0.528719 0.000000 0.790024
#
# Coordination Sequence:
#
# PCOD8108377 Si02
#       7
#     8   8   8   8   8   8   8
#     4  10  21  39  63  89 120 158 197 241 294 348
#     4  10  21  38  61  89 120 155 196 241 290 348
#     4  11  24  42  63  88 118 155 200 245 293 351
#     4  11  24  40  59  87 121 156 197 245 297 352
#     4  11  24  40  60  87 118 153 195 243 293 349
#     4  12  25  41  62  89 121 156 197 244 294 350
#     4  10  21  38  61  89 120 156 199 243 290 349
#
# _framework density 20.083186000000001
#
# number of rings (size 3 to 8) (size 9 to 14) (size 15 to 20)
#    0.000    1.286    0.000    5.571    0.000   14.857 
#    0.000    0.000    0.000    2.571    0.000    0.000 
#    0.000    0.000    0.000    0.000    0.000    0.000 
#
# Total GULP energy -347399.924739 kJ/mol
# GULP energy per Si atom -12407.140169 kJ/mol
# Density = 2.003748 g / cm^3
# Si number density = 20.083186 Si / 1000 Ang^3
#
#
#
# Elastic Constant Matrix: (Units=GPa)
#
#
# Indices 1 2 3 4 5 6 
#
# 1 150.9716 42.7409 56.8770 0.0000 -4.7063 0.0000
# 2 42.7409 71.9148 36.2708 0.0000 -4.9397 0.0000
# 3 56.8770 36.2708 142.6300 0.0000 -4.8499 0.0000
# 4 0.0000 0.0000 0.0000 25.9459 0.0000 7.0084
# 5 -4.7063 -4.9397 -4.8499 0.0000 45.1956 0.0000
# 6 0.0000 0.0000 0.0000 7.0084 0.0000 28.7977
#
#
#
# Elastic Compliance Matrix: (Units=1/GPa)
#
#
# Indices 1 2 3 4 5 6 
#
# 1 0.008657 -0.003892 -0.002455 0.000000 0.000213 0.000000
# 2 -0.003892 0.017779 -0.002927 0.000000 0.001224 0.000000
# 3 -0.002455 -0.002927 0.008747 0.000000 0.000363 0.000000
# 4 0.000000 0.000000 0.000000 0.041254 0.000000 -0.010040
# 5 0.000213 0.001224 0.000363 0.000000 0.022321 0.000000
# 6 0.000000 0.000000 0.000000 -0.010040 0.000000 0.037168
#
#
# Mechanical properties :
#
#
# Convention : Reuss Voigt Hill
#
# Bulk Modulus (GPa) = 60.11994 70.81043 65.46519
# Shear Modulus (GPa) = 31.24590 35.29637 33.27113
#
# Velocity S-wave (km/s) = 3.94867 4.19681 4.07463
# Velocity P-wave (km/s) = 7.12670 7.66938 7.40301
#
# Compressibility (1/GPa) = 0.01663342
#
# Stress axis : x y z
#
# Youngs Moduli (GPa) = 115.50907 56.24543 114.32440
#
# Poissons Ratio (x) = 0.21893 0.28070
# Poissons Ratio (y) = 0.44960 0.33468
# Poissons Ratio (z) = 0.28360 0.16466
#
# Static dielectric constant tensor:
#      x y z
#    x 3.938700 0.000000 -0.060650 
#    y 0.000000 3.631890 0.000000 
#    z -0.060650 0.000000 3.727200 
# 
# 
# High freq. dielectric constant tensor:
#      x y z
#    x 1.803230 0.000000 -0.001150 
#    y 0.000000 1.782780 0.000000 
#    z -0.001150 0.000000 1.803330 
# 
# From -- ./inp_files/181016.got.cif
#   From: 2010.06.25/outbox.cif.g09.slc.cpg/sg12_91_cif.got.tgz:181016.got - 2010.06.28 00:19:55.
