data_PCOD8108340
_publ_section_title
;
Structure prediction by ZEFSAII (Michael W. Deem and Ramdas Pophale) SiO2 
 PCOD8108340
Probable space group: C 2/M
;
_chemical_formula_sum "Si O2"
_cell_formula_units_Z 64
_cell_length_a 19.804452
_cell_length_b 8.760895
_cell_length_c 19.720888
_cell_angle_alpha 90.000000
_cell_angle_beta 112.206140
_cell_angle_gamma 90.000000
_cell_volume 3167.882484
_symmetry_space_group_name_H-M "C 2/M"
_symmetry_group_IT_number 12
_symmetry_cell_setting 'monoclinic'
loop_
_space_group_symop_operation_xyz
x,y,z
-x,y,-z
-x,-y,-z
x,-y,z
1/2+x,1/2+y,z
1/2-x,1/2+y,-z
1/2-x,1/2-y,-z
1/2+x,1/2-y,z
loop_
_atom_site_type_symbol
_atom_site_label
_atom_site_fract_x
_atom_site_fract_y
_atom_site_fract_z
Si Si1 0.025714 0.818637 0.437037
Si Si2 0.404988 0.320897 0.285397
Si Si3 0.849322 0.321084 0.715633
Si Si4 0.983402 0.323346 0.195881
Si Si5 0.287495 0.677333 0.949600
Si Si6 0.679741 0.681084 0.437758
Si Si7 0.746321 0.180491 0.785067
Si Si8 0.936182 0.673563 0.028252
O O1 0.106203 0.757889 0.447258
O O2 0.000000 0.753318 0.500000
O O3 0.967152 0.760612 0.360044
O O4 0.027370 0.000000 0.439080
O O5 0.390927 0.500000 0.287985
O O6 0.430147 0.282136 0.219257
O O7 0.330879 0.232643 0.274745
O O8 0.835230 0.500000 0.701094
O O9 0.933930 0.282127 0.755703
O O10 0.818592 0.232705 0.639268
O O11 0.809819 0.263073 0.767882
O O12 0.966242 0.500000 0.204871
O O13 0.967505 0.280812 0.112791
O O14 0.274599 0.500000 0.951011
O O15 0.252104 0.734847 0.865603
O O16 0.250000 0.750000 0.000000
O O17 0.372566 0.714215 0.981787
O O18 0.683736 0.500000 0.442812
O O19 0.750000 0.750000 0.500000
O O20 0.755704 0.000000 0.781384
O O21 0.906875 0.500000 0.016891
O O22 0.000000 0.697108 0.000000
#
# Coordination Sequence:
#
# PCOD8108340 Si02
#       8
#     8   8   8   8   8   8   8   8
#     4   9  20  39  62  89 123 160 200 247 295 350
#     4  11  22  38  63  91 119 159 206 250 303 364
#     4  11  23  41  65  91 123 165 210 254 306 371
#     4  10  21  38  61  88 121 158 199 252 308 365
#     4  11  24  41  61  87 122 163 206 256 312 371
#     4  11  23  41  65  94 129 166 204 252 307 362
#     4  11  25  42  60  88 126 163 204 260 315 363
#     4  10  21  38  61  88 119 156 200 252 308 365
#
# _framework density 20.202769
#
# number of rings (size 3 to 8) (size 9 to 14) (size 15 to 20)
#    0.000    1.500    1.250    3.375    1.750    7.250 
#    0.000    0.000    0.000    3.000    0.000    0.000 
#    0.000    0.000    0.000    0.000    0.000    0.000 
#
# Total GULP energy -396953.557829 kJ/mol
# GULP energy per Si atom -12404.798682 kJ/mol
# Density = 2.015679 g / cm^3
# Si number density = 20.202769 Si / 1000 Ang^3
#
#
#
# Elastic Constant Matrix: (Units=GPa)
#
#
# Indices 1 2 3 4 5 6 
#
# 1 85.4470 31.7214 33.9316 0.0000 -3.6077 0.0000
# 2 31.7214 52.1860 29.7603 0.0000 1.3501 0.0000
# 3 33.9316 29.7603 114.1755 0.0000 0.8469 0.0000
# 4 0.0000 0.0000 0.0000 27.6884 0.0000 1.4375
# 5 -3.6077 1.3501 0.8469 0.0000 42.9127 0.0000
# 6 0.0000 0.0000 0.0000 1.4375 0.0000 36.5888
#
#
#
# Elastic Compliance Matrix: (Units=1/GPa)
#
#
# Indices 1 2 3 4 5 6 
#
# 1 0.015842 -0.008199 -0.002583 0.000000 0.001641 0.000000
# 2 -0.008199 0.026766 -0.004529 0.000000 -0.001442 0.000000
# 3 -0.002583 -0.004529 0.010709 0.000000 -0.000286 0.000000
# 4 0.000000 0.000000 0.000000 0.036190 0.000000 -0.001422
# 5 0.001641 -0.001442 -0.000286 0.000000 0.023492 0.000000
# 6 0.000000 0.000000 0.000000 -0.001422 0.000000 0.027387
#
#
# Mechanical properties :
#
#
# Convention : Reuss Voigt Hill
#
# Bulk Modulus (GPa) = 44.06424 49.18168 46.62296
# Shear Modulus (GPa) = 27.99966 31.86432 29.93199
#
# Velocity S-wave (km/s) = 3.72685 3.97574 3.85330
# Velocity P-wave (km/s) = 6.35433 6.74331 6.55171
#
# Compressibility (1/GPa) = 0.02269414
#
# Stress axis : x y z
#
# Youngs Moduli (GPa) = 63.12335 37.36046 93.38061
#
# Poissons Ratio (x) = 0.30632 0.24122
# Poissons Ratio (y) = 0.51754 0.42296
# Poissons Ratio (z) = 0.16306 0.16922
#
# Static dielectric constant tensor:
#      x y z
#    x 4.021270 0.000000 -0.140900 
#    y 0.000000 3.560310 0.000000 
#    z -0.140900 0.000000 3.956300 
# 
# 
# High freq. dielectric constant tensor:
#      x y z
#    x 1.803650 0.000000 0.000200 
#    y 0.000000 1.777960 0.000000 
#    z 0.000200 0.000000 1.802710 
# 
# From -- ./inp_files/320124.got.cif
#   From: 2010.06.25/outbox.cif.g09.slc.cpg/sg12_161_cif.got.tgz:320124.got - 2010.06.28 00:19:55.
