data_PCOD8108109
_publ_section_title
;
Structure prediction by ZEFSAII (Michael W. Deem and Ramdas Pophale) SiO2 
 PCOD8108109
Probable space group: C 2/M
;
_chemical_formula_sum "Si O2"
_cell_formula_units_Z 40
_cell_length_a 8.301254
_cell_length_b 28.729491
_cell_length_c 13.954019
_cell_angle_alpha 90.000000
_cell_angle_beta 33.595231
_cell_angle_gamma 90.000000
_cell_volume 1841.403882
_symmetry_space_group_name_H-M "C 2/M"
_symmetry_group_IT_number 12
_symmetry_cell_setting 'monoclinic'
loop_
_space_group_symop_operation_xyz
x,y,z
-x,y,-z
-x,-y,-z
x,-y,z
1/2+x,1/2+y,z
1/2-x,1/2+y,-z
1/2-x,1/2-y,-z
1/2+x,1/2-y,z
loop_
_atom_site_type_symbol
_atom_site_label
_atom_site_fract_x
_atom_site_fract_y
_atom_site_fract_z
Si Si1 0.841041 0.698896 0.680787
Si Si2 0.647015 0.373694 0.325818
Si Si3 0.334620 0.891612 0.813367
Si Si4 0.187514 0.553734 0.498723
Si Si5 0.332044 0.716256 0.811258
O O1 0.876449 0.650966 0.719525
O O2 0.502553 0.710548 0.827146
O O3 0.962538 0.739931 0.688146
O O4 0.000000 0.696185 0.500000
O O5 0.500000 0.362578 0.500000
O O6 0.488614 0.417334 0.353602
O O7 0.607479 0.329671 0.279018
O O8 0.992182 0.382728 0.172601
O O9 0.484484 0.936634 0.691489
O O10 0.000000 0.902013 0.000000
O O11 0.277392 0.500000 0.451981
O O12 0.000000 0.568536 0.500000
O O13 0.000000 0.724715 0.000000
#
# Coordination Sequence:
#
# PCOD8108109 Si02
#       5
#     8   8   8   8   8
#     4  12  23  38  58  83 120 159 199 236 283 343
#     4  10  21  38  60  85 115 154 197 237 287 347
#     4  11  22  38  60  89 121 152 193 242 291 339
#     4  10  22  42  65  87 114 151 193 237 291 353
#     4  12  23  37  57  84 119 156 197 242 289 336
#
# _framework density 21.722556999999998
#
# number of rings (size 3 to 8) (size 9 to 14) (size 15 to 20)
#    0.000    1.000    0.000    9.000    0.000    4.000 
#    0.000    0.000    0.000    3.000    0.000    0.000 
#    0.000    0.000    0.000    0.000    0.000    0.000 
#
# Total GULP energy -248048.183302 kJ/mol
# GULP energy per Si atom -12402.409165 kJ/mol
# Density = 2.167312 g / cm^3
# Si number density = 21.722557 Si / 1000 Ang^3
#
#
#
# Elastic Constant Matrix: (Units=GPa)
#
#
# Indices 1 2 3 4 5 6 
#
# 1 114.1031 38.5364 4.9467 0.0000 -19.4893 0.0000
# 2 38.5364 73.3323 16.9083 0.0000 4.1845 0.0000
# 3 4.9467 16.9083 71.2538 0.0000 -20.7502 0.0000
# 4 0.0000 0.0000 0.0000 -0.0013 0.0000 -22.8344
# 5 -19.4893 4.1845 -20.7502 0.0000 36.9346 0.0000
# 6 0.0000 0.0000 0.0000 -22.8344 0.0000 16.6868
#
#
#
# Elastic Compliance Matrix: (Units=1/GPa)
#
#
# Indices 1 2 3 4 5 6 
#
# 1 0.013180 -0.008443 0.004056 0.000000 0.010190 0.000000
# 2 -0.008443 0.020415 -0.007448 0.000000 -0.010952 0.000000
# 3 0.004056 -0.007448 0.019595 0.000000 0.013993 0.000000
# 4 0.000000 0.000000 0.000000 -0.032002 0.000000 -0.043792
# 5 0.010190 -0.010952 0.013993 0.000000 0.041554 0.000000
# 6 0.000000 0.000000 0.000000 -0.043792 0.000000 0.000002
#
#
# Mechanical properties :
#
#
# Convention : Reuss Voigt Hill
#
# Bulk Modulus (GPa) = 33.87417 42.16355 38.01886
# Shear Modulus (GPa) = 51.94537 23.94385 37.94461
#
# Velocity S-wave (km/s) = 4.89541 3.32363 4.18399
# Velocity P-wave (km/s) = 6.89791 5.84644 6.39383
#
# Compressibility (1/GPa) = 0.02952102
#
# Stress axis : x y z
#
# Youngs Moduli (GPa) = 75.87217 48.98241 51.03346
#
# Poissons Ratio (x) = 0.41355 -0.20699
# Poissons Ratio (y) = 0.64057 0.38009
# Poissons Ratio (z) = -0.30773 0.36481
#
# Static dielectric constant tensor:
#      x y z
#    x 4.575670 0.000000 -0.300730 
#    y 0.000000 3.758060 0.000000 
#    z -0.300730 0.000000 3.882720 
# 
# 
# High freq. dielectric constant tensor:
#      x y z
#    x 1.879680 0.000000 -0.015550 
#    y 0.000000 1.848630 0.000000 
#    z -0.015550 0.000000 1.842120 
# 
# From -- ./inp_files/41444.got.cif
#   From: 2010.06.25/outbox.cif.g09.slc.cpg/sg12_21_cif.got.tgz:41444.got - 2010.06.28 00:19:55.
