data_PCOD8108041
_publ_section_title
;
Structure prediction by ZEFSAII (Michael W. Deem and Ramdas Pophale) SiO2 
 PCOD8108041
Probable space group: C 2/M
;
_chemical_formula_sum "Si O2"
_cell_formula_units_Z 48
_cell_length_a 27.558603
_cell_length_b 19.455730
_cell_length_c 9.139313
_cell_angle_alpha 90.000000
_cell_angle_beta 149.580320
_cell_angle_gamma 90.000000
_cell_volume 2481.143785
_symmetry_space_group_name_H-M "C 2/M"
_symmetry_group_IT_number 12
_symmetry_cell_setting 'monoclinic'
loop_
_space_group_symop_operation_xyz
x,y,z
-x,y,-z
-x,-y,-z
x,-y,z
1/2+x,1/2+y,z
1/2-x,1/2+y,-z
1/2-x,1/2-y,-z
1/2+x,1/2-y,z
loop_
_atom_site_type_symbol
_atom_site_label
_atom_site_fract_x
_atom_site_fract_y
_atom_site_fract_z
Si Si1 0.789147 0.922440 0.127030
Si Si2 0.238295 0.207309 0.119210
Si Si3 0.552450 0.700921 0.788281
Si Si4 0.515832 0.420776 0.209436
Si Si5 0.574828 0.078551 0.579545
Si Si6 0.553513 0.810909 0.288851
O O1 0.872013 0.906950 0.460972
O O2 0.799881 0.000000 0.093402
O O3 0.795653 0.870176 0.008631
O O4 0.683260 0.912841 0.924104
O O5 0.338288 0.212955 0.464701
O O6 0.250000 0.250000 0.000000
O O7 0.157603 0.232090 0.024206
O O8 0.500000 0.689885 0.500000
O O9 0.553365 0.627405 0.873560
O O10 0.498232 0.754429 0.748641
O O11 0.487761 0.500000 0.166895
O O12 0.500000 0.401157 0.000000
O O13 0.500000 0.110788 0.500000
O O14 0.560682 0.117233 0.390968
O O15 0.548627 0.000000 0.480009
O O16 0.500000 0.823720 0.000000
#
# Coordination Sequence:
#
# PCOD8108041 Si02
#       6
#     8   8   8   8   8   8
#     4   9  18  34  58  82 110 147 188 231 281 338
#     4  11  22  38  60  85 114 151 194 240 284 340
#     4  12  22  38  62  86 112 158 198 235 282 349
#     4  10  21  38  59  87 122 151 185 242 299 346
#     4   9  19  37  61  84 109 149 196 235 278 339
#     4  11  24  40  58  87 120 149 188 243 294 337
#
# _framework density 19.345915000000002
#
# number of rings (size 3 to 8) (size 9 to 14) (size 15 to 20)
#    0.000    1.667    3.333    1.000    2.333    2.000 
#    3.000    0.000    0.000    0.000    0.000    0.000 
#    0.000    0.000    0.000    0.000    0.000    0.000 
#
# Total GULP energy -297522.203648 kJ/mol
# GULP energy per Si atom -12396.758485 kJ/mol
# Density = 1.930188 g / cm^3
# Si number density = 19.345915 Si / 1000 Ang^3
#
#
#
# Elastic Constant Matrix: (Units=GPa)
#
#
# Indices 1 2 3 4 5 6 
#
# 1 114.4512 40.1358 65.2933 0.0000 13.8026 0.0000
# 2 40.1358 74.7836 33.0159 0.0000 2.8614 0.0000
# 3 65.2933 33.0159 142.1781 0.0000 2.6566 0.0000
# 4 0.0000 0.0000 0.0000 21.4047 0.0000 -0.3187
# 5 13.8026 2.8614 2.6566 0.0000 37.1991 0.0000
# 6 0.0000 0.0000 0.0000 -0.3187 0.0000 29.3217
#
#
#
# Elastic Compliance Matrix: (Units=1/GPa)
#
#
# Indices 1 2 3 4 5 6 
#
# 1 0.013996 -0.005059 -0.005170 0.000000 -0.004435 0.000000
# 2 -0.005059 0.016759 -0.001581 0.000000 0.000701 0.000000
# 3 -0.005170 -0.001581 0.009750 0.000000 0.001343 0.000000
# 4 0.000000 0.000000 0.000000 0.046726 0.000000 0.000508
# 5 -0.004435 0.000701 0.001343 0.000000 0.028378 0.000000
# 6 0.000000 0.000000 0.000000 0.000508 0.000000 0.034110
#
#
# Mechanical properties :
#
#
# Convention : Reuss Voigt Hill
#
# Bulk Modulus (GPa) = 59.22997 67.58922 63.40959
# Shear Modulus (GPa) = 27.93830 30.44963 29.19397
#
# Velocity S-wave (km/s) = 3.80431 3.97162 3.88886
# Velocity P-wave (km/s) = 7.06964 7.48630 7.28095
#
# Compressibility (1/GPa) = 0.01688334
#
# Stress axis : x y z
#
# Youngs Moduli (GPa) = 71.45137 59.67116 102.56885
#
# Poissons Ratio (x) = 0.30190 0.53023
# Poissons Ratio (y) = 0.36150 0.16219
# Poissons Ratio (z) = 0.36937 0.09435
#
# Static dielectric constant tensor:
#      x y z
#    x 2.743170 0.000000 0.182220 
#    y 0.000000 3.763890 0.000000 
#    z 0.182220 0.000000 3.696500 
# 
# 
# High freq. dielectric constant tensor:
#      x y z
#    x 1.736200 0.000000 0.020450 
#    y 0.000000 1.767460 0.000000 
#    z 0.020450 0.000000 1.752540 
# 
# From -- ./inp_files/106606.got.cif
#   From: 2010.06.25/outbox.cif.g09.slc.cpg/sg12_54_cif.got.tgz:106606.got - 2010.06.28 00:19:55.
