data_PCOD8108108
_publ_section_title
;
Structure prediction by ZEFSAII (Michael W. Deem and Ramdas Pophale) SiO2 
 PCOD8108108
Probable space group: C 2/M
;
_chemical_formula_sum "Si O2"
_cell_formula_units_Z 64
_cell_length_a 14.714839
_cell_length_b 8.569943
_cell_length_c 33.870543
_cell_angle_alpha 90.000000
_cell_angle_beta 130.306939
_cell_angle_gamma 90.000000
_cell_volume 3257.217121
_symmetry_space_group_name_H-M "C 2/M"
_symmetry_group_IT_number 12
_symmetry_cell_setting 'monoclinic'
loop_
_space_group_symop_operation_xyz
x,y,z
-x,y,-z
-x,-y,-z
x,-y,z
1/2+x,1/2+y,z
1/2-x,1/2+y,-z
1/2-x,1/2-y,-z
1/2+x,1/2-y,z
loop_
_atom_site_type_symbol
_atom_site_label
_atom_site_fract_x
_atom_site_fract_y
_atom_site_fract_z
Si Si1 0.032502 0.820625 0.257542
Si Si2 0.223866 0.678185 0.258928
Si Si3 0.343000 0.818087 0.556727
Si Si4 0.709446 0.320121 0.376631
Si Si5 0.399376 0.679545 0.376249
Si Si6 0.121863 0.315528 0.081697
Si Si7 0.283072 0.820685 0.193807
Si Si8 0.648674 0.182799 0.999870
O O1 0.119743 0.789317 0.245455
O O2 0.098960 0.779801 0.317049
O O3 0.919232 0.710756 0.220675
O O4 0.991958 0.000000 0.245217
O O5 0.182210 0.500000 0.252025
O O6 0.345466 0.708362 0.317468
O O7 0.246739 0.712674 0.219943
O O8 0.250000 0.750000 0.500000
O O9 0.294996 0.792250 0.587204
O O10 0.463976 0.724191 0.585324
O O11 0.363613 0.000000 0.554714
O O12 0.705501 0.500000 0.388947
O O13 0.832729 0.287851 0.388992
O O14 0.384501 0.500000 0.384695
O O15 0.139858 0.500000 0.092803
O O16 0.200956 0.218110 0.133784
O O17 0.984239 0.267993 0.050998
O O18 0.164324 0.264635 0.049782
O O19 0.267195 0.000000 0.201193
O O20 0.660841 0.000000 0.000852
O O21 0.750000 0.250000 0.000000
#
# Coordination Sequence:
#
# PCOD8108108 Si02
#       8
#     8   8   8   8   8   8   8   8
#     4  10  21  38  60  85 115 151 190 233 280 335
#     4  10  21  38  60  85 115 151 190 233 280 335
#     4  12  25  40  59  84 114 148 188 234 284 338
#     4  10  21  39  62  87 114 147 188 232 282 338
#     4  10  21  39  62  87 114 147 188 232 282 338
#     4   9  20  39  57  79 113 150 187 228 282 339
#     4  12  24  36  55  85 120 156 192 233 282 334
#     4   9  19  37  62  84 106 143 187 233 283 336
#
# _framework density 19.648675000000001
#
# number of rings (size 3 to 8) (size 9 to 14) (size 15 to 20)
#    0.000    1.750    0.000    5.250    0.000    8.500 
#    0.000    6.250    0.000    0.000    0.000    0.000 
#    0.000    0.000    0.000    0.000    0.000    0.000 
#
# Total GULP energy -396918.465719 kJ/mol
# GULP energy per Si atom -12403.702054 kJ/mol
# Density = 1.960395 g / cm^3
# Si number density = 19.648675 Si / 1000 Ang^3
#
#
#
# Elastic Constant Matrix: (Units=GPa)
#
#
# Indices 1 2 3 4 5 6 
#
# 1 115.6383 23.8354 62.1430 0.0000 7.1379 0.0000
# 2 23.8354 68.1238 34.2622 0.0000 5.1723 0.0000
# 3 62.1430 34.2622 119.9139 0.0000 -3.0870 0.0000
# 4 0.0000 0.0000 0.0000 30.7441 0.0000 -0.3850
# 5 7.1379 5.1723 -3.0870 0.0000 74.9917 0.0000
# 6 0.0000 0.0000 0.0000 -0.3850 0.0000 38.3759
#
#
#
# Elastic Compliance Matrix: (Units=1/GPa)
#
#
# Indices 1 2 3 4 5 6 
#
# 1 0.012208 -0.001134 -0.006037 0.000000 -0.001332 0.000000
# 2 -0.001134 0.017393 -0.004415 0.000000 -0.001273 0.000000
# 3 -0.006037 -0.004415 0.012765 0.000000 0.001405 0.000000
# 4 0.000000 0.000000 0.000000 0.032531 0.000000 0.000326
# 5 -0.001332 -0.001273 0.001405 0.000000 0.013607 0.000000
# 6 0.000000 0.000000 0.000000 0.000326 0.000000 0.026061
#
#
# Mechanical properties :
#
#
# Convention : Reuss Voigt Hill
#
# Bulk Modulus (GPa) = 52.09657 60.46191 56.27924
# Shear Modulus (GPa) = 34.68990 41.05137 37.87063
#
# Velocity S-wave (km/s) = 4.20635 4.57581 4.39497
# Velocity P-wave (km/s) = 7.08257 7.66523 7.37965
#
# Compressibility (1/GPa) = 0.01919512
#
# Stress axis : x y z
#
# Youngs Moduli (GPa) = 81.91558 57.49466 78.33785
#
# Poissons Ratio (x) = 0.06520 0.47290
# Poissons Ratio (y) = 0.09290 0.34583
# Poissons Ratio (z) = 0.49450 0.25382
#
# Static dielectric constant tensor:
#      x y z
#    x 3.125240 0.000000 0.067400 
#    y 0.000000 3.666630 0.000000 
#    z 0.067400 0.000000 3.580340 
# 
# 
# High freq. dielectric constant tensor:
#      x y z
#    x 1.771980 0.000000 0.000730 
#    y 0.000000 1.770500 0.000000 
#    z 0.000730 0.000000 1.764680 
# 
# From -- ./inp_files/375566.got.cif
#   From: 2010.06.25/outbox.cif.g09.slc.cpg/sg12_188_cif.got.tgz:375566.got - 2010.06.28 00:19:55.
