data_PCOD8108859
_publ_section_title
;
Structure prediction by ZEFSAII (Michael W. Deem and Ramdas Pophale) SiO2 
 PCOD8108859
Probable space group: C 2/M
;
_chemical_formula_sum "Si O2"
_cell_formula_units_Z 64
_cell_length_a 15.187804
_cell_length_b 8.913907
_cell_length_c 23.975887
_cell_angle_alpha 90.000000
_cell_angle_beta 90.887146
_cell_angle_gamma 90.000000
_cell_volume 3245.530570
_symmetry_space_group_name_H-M "C 2/M"
_symmetry_group_IT_number 12
_symmetry_cell_setting 'monoclinic'
loop_
_space_group_symop_operation_xyz
x,y,z
-x,y,-z
-x,-y,-z
x,-y,z
1/2+x,1/2+y,z
1/2-x,1/2+y,-z
1/2-x,1/2-y,-z
1/2+x,1/2-y,z
loop_
_atom_site_type_symbol
_atom_site_label
_atom_site_fract_x
_atom_site_fract_y
_atom_site_fract_z
Si Si1 0.909220 0.329731 0.725595
Si Si2 0.831711 0.822883 0.383372
Si Si3 0.897470 0.670881 0.283944
Si Si4 0.243057 0.676578 0.919835
Si Si5 0.102767 0.823086 0.995227
Si Si6 0.238533 0.177450 0.206006
Si Si7 0.346266 0.322689 0.620788
Si Si8 0.402421 0.678240 0.501336
O O1 0.875353 0.500000 0.720008
O O2 0.850110 0.243143 0.769061
O O3 0.912432 0.254388 0.664348
O O4 0.009820 0.321810 0.747778
O O5 0.905473 0.775996 0.339298
O O6 0.748972 0.729825 0.359970
O O7 0.852394 0.764134 0.445935
O O8 0.815669 0.000000 0.382768
O O9 0.877145 0.500000 0.302170
O O10 0.823176 0.733228 0.241427
O O11 0.227710 0.500000 0.923094
O O12 0.154216 0.751392 0.943381
O O13 0.252261 0.735299 0.856932
O O14 0.335412 0.720409 0.951150
O O15 0.099897 0.000000 0.985956
O O16 0.000000 0.764981 0.000000
O O17 0.230211 0.000000 0.207705
O O18 0.358357 0.500000 0.624210
O O19 0.358868 0.261873 0.557781
O O20 0.500000 0.744843 0.500000
O O21 0.405059 0.500000 0.501118
#
# Coordination Sequence:
#
# PCOD8108859 Si02
#       8
#     8   8   8   8   8   8   8   8
#     4  11  23  38  57  83 111 143 189 239 283 337
#     4  11  21  35  57  82 107 139 185 232 277 340
#     4  10  22  39  57  79 111 148 185 232 290 340
#     4   9  19  35  56  83 114 152 196 231 274 335
#     4   9  18  34  56  84 119 154 188 234 284 323
#     4  10  21  39  59  80 113 154 190 231 283 339
#     4  11  21  36  57  78 107 145 180 224 288 345
#     4   9  19  34  52  77 106 137 178 227 278 339
#
# _framework density 19.719425000000001
#
# number of rings (size 3 to 8) (size 9 to 14) (size 15 to 20)
#    0.000    2.000    1.250    2.250    0.000    3.750 
#    0.000    1.875    0.000    4.500    0.000    0.000 
#    0.000    0.000    0.000    0.000    0.000    0.000 
#
# Total GULP energy -396680.658332 kJ/mol
# GULP energy per Si atom -12396.270573 kJ/mol
# Density = 1.967454 g / cm^3
# Si number density = 19.719425 Si / 1000 Ang^3
#
#
#
# Elastic Constant Matrix: (Units=GPa)
#
#
# Indices 1 2 3 4 5 6 
#
# 1 124.0972 19.5037 49.7706 0.0000 -12.1723 0.0000
# 2 19.5037 30.5717 30.6938 0.0000 -3.2460 0.0000
# 3 49.7706 30.6938 150.8115 0.0000 -13.0693 0.0000
# 4 0.0000 0.0000 0.0000 27.5041 0.0000 -5.6486
# 5 -12.1723 -3.2460 -13.0693 0.0000 20.3845 0.0000
# 6 0.0000 0.0000 0.0000 -5.6486 0.0000 26.3466
#
#
#
# Elastic Compliance Matrix: (Units=1/GPa)
#
#
# Indices 1 2 3 4 5 6 
#
# 1 0.009898 -0.003720 -0.002169 0.000000 0.003927 0.000000
# 2 -0.003720 0.042539 -0.007449 0.000000 -0.000224 0.000000
# 3 -0.002169 -0.007449 0.009156 0.000000 0.003389 0.000000
# 4 0.000000 0.000000 0.000000 0.038033 0.000000 0.008154
# 5 0.003927 -0.000224 0.003389 0.000000 0.053539 0.000000
# 6 0.000000 0.000000 0.000000 0.008154 0.000000 0.039704
#
#
# Mechanical properties :
#
#
# Convention : Reuss Voigt Hill
#
# Bulk Modulus (GPa) = 28.63987 56.15742 42.39865
# Shear Modulus (GPa) = 21.62774 28.54784 25.08779
#
# Velocity S-wave (km/s) = 3.31535 3.80900 3.57071
# Velocity P-wave (km/s) = 5.40468 6.91987 6.20867
#
# Compressibility (1/GPa) = 0.03491636
#
# Stress axis : x y z
#
# Youngs Moduli (GPa) = 101.03059 23.50808 109.21230
#
# Poissons Ratio (x) = 0.08745 0.23689
# Poissons Ratio (y) = 0.37582 0.81357
# Poissons Ratio (z) = 0.21915 0.17512
#
# Static dielectric constant tensor:
#      x y z
#    x 3.698820 0.000000 0.046270 
#    y 0.000000 3.364040 0.000000 
#    z 0.046270 0.000000 3.702800 
# 
# 
# High freq. dielectric constant tensor:
#      x y z
#    x 1.778450 0.000000 -0.001780 
#    y 0.000000 1.751000 0.000000 
#    z -0.001780 0.000000 1.766850 
# 
# From -- ./inp_files/338702.got.cif
#   From: 2010.06.25/outbox.cif.g09.slc.cpg/sg12_170_cif.got.tgz:338702.got - 2010.06.28 00:19:55.
