data_PCOD8108492
_publ_section_title
;
Structure prediction by ZEFSAII (Michael W. Deem and Ramdas Pophale) SiO2 
 PCOD8108492
Probable space group: C 2/M
;
_chemical_formula_sum "Si O2"
_cell_formula_units_Z 56
_cell_length_a 27.421987
_cell_length_b 9.070079
_cell_length_c 11.296152
_cell_angle_alpha 90.000000
_cell_angle_beta 97.229105
_cell_angle_gamma 90.000000
_cell_volume 2787.240708
_symmetry_space_group_name_H-M "C 2/M"
_symmetry_group_IT_number 12
_symmetry_cell_setting 'monoclinic'
loop_
_space_group_symop_operation_xyz
x,y,z
-x,y,-z
-x,-y,-z
x,-y,z
1/2+x,1/2+y,z
1/2-x,1/2+y,-z
1/2-x,1/2-y,-z
1/2+x,1/2-y,z
loop_
_atom_site_type_symbol
_atom_site_label
_atom_site_fract_x
_atom_site_fract_y
_atom_site_fract_z
Si Si1 0.300570 0.666009 0.826109
Si Si2 0.122908 0.836060 0.974382
Si Si3 0.970912 0.325056 0.374722
Si Si4 0.527320 0.826046 0.890131
Si Si5 0.139081 0.674225 0.605367
Si Si6 0.294784 0.334337 0.191448
Si Si7 0.799424 0.167726 0.550114
O O1 0.286600 0.500000 0.862565
O O2 0.259113 0.777488 0.860390
O O3 0.306240 0.677373 0.689818
O O4 0.355247 0.706902 0.890841
O O5 0.084092 0.716963 0.918653
O O6 0.171942 0.831508 0.912805
O O7 0.098823 0.000000 0.964521
O O8 0.974313 0.500000 0.379939
O O9 0.990651 0.272349 0.248583
O O10 0.914473 0.272050 0.367665
O O11 0.000000 0.261191 0.500000
O O12 0.522549 0.000000 0.892541
O O13 0.500000 0.759266 0.000000
O O14 0.140750 0.500000 0.590775
O O15 0.182079 0.724419 0.706032
O O16 0.152049 0.751620 0.485733
O O17 0.291213 0.500000 0.242462
O O18 0.750000 0.250000 0.500000
O O19 0.796673 0.000000 0.503531
#
# Coordination Sequence:
#
# PCOD8108492 Si02
#       7
#     8   8   8   8   8   8   8
#     4  10  22  38  56  81 117 157 193 235 287 343
#     4  10  22  39  58  84 117 153 192 236 292 347
#     4   9  19  37  60  86 115 148 190 241 297 353
#     4  10  21  38  62  89 115 149 195 246 295 348
#     4  11  21  35  59  84 112 152 191 232 288 344
#     4  11  21  34  57  85 114 149 193 238 277 336
#     4  11  22  36  55  80 115 153 194 238 284 338
#
# _framework density 20.091555
#
# number of rings (size 3 to 8) (size 9 to 14) (size 15 to 20)
#    0.000    1.714    2.857    1.714    0.000    3.143 
#    0.000    1.429    0.000    3.857    0.000    0.000 
#    0.000    0.000    0.000    0.000    0.000    0.000 
#
# Total GULP energy -346971.553415 kJ/mol
# GULP energy per Si atom -12391.841193 kJ/mol
# Density = 2.004583 g / cm^3
# Si number density = 20.091555 Si / 1000 Ang^3
#
#
#
# Elastic Constant Matrix: (Units=GPa)
#
#
# Indices 1 2 3 4 5 6 
#
# 1 71.8976 26.0224 47.2024 0.0000 -11.8192 0.0000
# 2 26.0224 61.9743 27.4485 0.0000 -6.7233 0.0000
# 3 47.2024 27.4485 132.4829 0.0000 0.1943 0.0000
# 4 0.0000 0.0000 0.0000 23.8246 0.0000 -1.5273
# 5 -11.8192 -6.7233 0.1943 0.0000 30.2750 0.0000
# 6 0.0000 0.0000 0.0000 -1.5273 0.0000 28.2080
#
#
#
# Elastic Compliance Matrix: (Units=1/GPa)
#
#
# Indices 1 2 3 4 5 6 
#
# 1 0.021258 -0.005273 -0.006492 0.000000 0.007170 0.000000
# 2 -0.005273 0.019564 -0.002178 0.000000 0.002300 0.000000
# 3 -0.006492 -0.002178 0.010317 0.000000 -0.003084 0.000000
# 4 0.000000 0.000000 0.000000 0.042120 0.000000 0.002280
# 5 0.007170 0.002300 -0.003084 0.000000 0.036360 0.000000
# 6 0.000000 0.000000 0.000000 0.002280 0.000000 0.035574
#
#
# Mechanical properties :
#
#
# Convention : Reuss Voigt Hill
#
# Bulk Modulus (GPa) = 43.00538 51.96681 47.48609
# Shear Modulus (GPa) = 24.89670 27.50696 26.20183
#
# Velocity S-wave (km/s) = 3.52399 3.70412 3.61518
# Velocity P-wave (km/s) = 6.16516 6.64945 6.41188
#
# Compressibility (1/GPa) = 0.02325291
#
# Stress axis : x y z
#
# Youngs Moduli (GPa) = 47.04138 51.11453 96.92754
#
# Poissons Ratio (x) = 0.26952 0.62926
# Poissons Ratio (y) = 0.24804 0.21111
# Poissons Ratio (z) = 0.30539 0.11133
#
# Static dielectric constant tensor:
#      x y z
#    x 3.639320 0.000000 -0.416800 
#    y 0.000000 3.872860 0.000000 
#    z -0.416800 0.000000 2.949930 
# 
# 
# High freq. dielectric constant tensor:
#      x y z
#    x 1.770170 0.000000 -0.009890 
#    y 0.000000 1.766950 0.000000 
#    z -0.009890 0.000000 1.804060 
# 
# From -- ./inp_files/181096.got.cif
#   From: 2010.06.25/outbox.cif.g09.slc.cpg/sg12_91_cif.got.tgz:181096.got - 2010.06.28 00:19:55.
