data_PCOD8108163
_publ_section_title
;
Structure prediction by ZEFSAII (Michael W. Deem and Ramdas Pophale) SiO2 
 PCOD8108163
Probable space group: C 2/M
;
_chemical_formula_sum "Si O2"
_cell_formula_units_Z 56
_cell_length_a 15.121162
_cell_length_b 17.441808
_cell_length_c 26.069706
_cell_angle_alpha 90.000000
_cell_angle_beta 154.026677
_cell_angle_gamma 90.000000
_cell_volume 3011.202272
_symmetry_space_group_name_H-M "C 2/M"
_symmetry_group_IT_number 12
_symmetry_cell_setting 'monoclinic'
loop_
_space_group_symop_operation_xyz
x,y,z
-x,y,-z
-x,-y,-z
x,-y,z
1/2+x,1/2+y,z
1/2-x,1/2+y,-z
1/2-x,1/2-y,-z
1/2+x,1/2-y,z
loop_
_atom_site_type_symbol
_atom_site_label
_atom_site_fract_x
_atom_site_fract_y
_atom_site_fract_z
Si Si1 0.777679 0.659046 0.008516
Si Si2 0.272554 0.090522 0.897360
Si Si3 0.984626 0.817037 0.316378
Si Si4 0.277472 0.838282 0.733371
Si Si5 0.378570 0.413764 0.529421
Si Si6 0.304589 0.589503 0.931483
Si Si7 0.096573 0.675030 0.309500
O O1 0.650461 0.616902 0.986871
O O2 0.008747 0.630852 0.135037
O O3 0.750000 0.750000 0.000000
O O4 0.705878 0.631763 0.915375
O O5 0.124341 0.122021 0.776924
O O6 0.243505 0.000000 0.887994
O O7 0.500000 0.111986 0.000000
O O8 0.822070 0.784423 0.274113
O O9 0.160033 0.862692 0.439270
O O10 0.085984 0.748684 0.339451
O O11 0.312858 0.795808 0.697595
O O12 0.119278 0.908405 0.641576
O O13 0.316172 0.500000 0.508764
O O14 0.246338 0.385466 0.412952
O O15 0.250987 0.500000 0.902508
O O16 0.120992 0.637074 0.811572
O O17 0.500000 0.608667 0.000000
#
# Coordination Sequence:
#
# PCOD8108163 Si02
#       7
#     8   8   8   8   8   8   8
#     4  11  22  36  58  84 116 153 192 231 279 339
#     4  11  20  34  56  82 114 150 186 229 286 342
#     4  10  22  36  54  84 118 146 185 233 281 340
#     4   9  22  35  55  87 114 142 190 232 292 325
#     4  10  21  38  60  87 117 145 184 241 296 344
#     4  10  23  39  56  82 115 150 190 236 281 333
#     4  11  21  38  60  84 114 150 192 232 288 345
#
# _framework density 18.597223
#
# number of rings (size 3 to 8) (size 9 to 14) (size 15 to 20)
#    0.857    0.857    1.429    3.857    2.000    5.143 
#    0.000    0.000    0.000    0.000    0.000    1.000 
#    0.000    0.000    0.000    0.000    0.000    0.000 
#
# Total GULP energy -346982.021720 kJ/mol
# GULP energy per Si atom -12392.215061 kJ/mol
# Density = 1.855490 g / cm^3
# Si number density = 18.597223 Si / 1000 Ang^3
#
#
#
# Elastic Constant Matrix: (Units=GPa)
#
#
# Indices 1 2 3 4 5 6 
#
# 1 142.9868 50.8954 25.6021 0.0074 -18.1669 -0.0080
# 2 50.8954 91.5216 14.0879 0.0072 -1.6318 -0.0042
# 3 25.6021 14.0879 66.9927 0.0048 -14.2756 0.0000
# 4 0.0074 0.0072 0.0048 23.3545 0.0033 -6.1722
# 5 -18.1669 -1.6318 -14.2756 0.0033 26.5958 -0.0010
# 6 -0.0080 -0.0042 0.0000 -6.1722 -0.0010 28.8070
#
#
#
# Elastic Compliance Matrix: (Units=1/GPa)
#
#
# Indices 1 2 3 4 5 6 
#
# 1 0.009788 -0.005117 -0.001476 -0.000002 0.005580 0.000002
# 2 -0.005117 0.013977 -0.001745 -0.000002 -0.003574 0.000000
# 3 -0.001476 -0.001745 0.017638 -0.000004 0.008352 -0.000001
# 4 -0.000002 -0.000002 -0.000004 0.045389 -0.000009 0.009725
# 5 0.005580 -0.003574 0.008352 -0.000009 0.045675 0.000001
# 6 0.000002 0.000000 -0.000001 0.009725 0.000001 0.036797
#
#
# Mechanical properties :
#
#
# Convention : Reuss Voigt Hill
#
# Bulk Modulus (GPa) = 40.44123 53.63022 47.03573
# Shear Modulus (GPa) = 25.74912 29.81249 27.78081
#
# Velocity S-wave (km/s) = 3.72502 4.00817 3.86918
# Velocity P-wave (km/s) = 6.34776 7.09372 6.73108
#
# Compressibility (1/GPa) = 0.02472724
#
# Stress axis : x y z
#
# Youngs Moduli (GPa) = 102.16577 71.54790 56.69646
#
# Poissons Ratio (x) = 0.36608 0.08366
# Poissons Ratio (y) = 0.52273 0.09896
# Poissons Ratio (z) = 0.15076 0.12488
#
# Static dielectric constant tensor:
#      x y z
#    x 3.627630 0.000000 -0.195680 
#    y 0.000000 3.169930 -0.000010 
#    z -0.195680 -0.000010 3.415320 
# 
# 
# High freq. dielectric constant tensor:
#      x y z
#    x 1.731740 0.000000 -0.021430 
#    y 0.000000 1.704580 0.000000 
#    z -0.021430 0.000000 1.718910 
# 
# From -- ./inp_files/361448.got.cif
#   From: 2010.06.25/outbox.cif.g09.slc.cpg/sg12_181_cif.got.tgz:361448.got - 2010.06.28 00:19:55.
