data_PCOD8108881
_publ_section_title
;
Structure prediction by ZEFSAII (Michael W. Deem and Ramdas Pophale) SiO2 
 PCOD8108881
Probable space group: C 2/M
;
_chemical_formula_sum "Si O2"
_cell_formula_units_Z 48
_cell_length_a 29.600853
_cell_length_b 8.850024
_cell_length_c 9.381414
_cell_angle_alpha 90.000000
_cell_angle_beta 98.638241
_cell_angle_gamma 90.000000
_cell_volume 2429.754187
_symmetry_space_group_name_H-M "C 2/M"
_symmetry_group_IT_number 12
_symmetry_cell_setting 'monoclinic'
loop_
_space_group_symop_operation_xyz
x,y,z
-x,y,-z
-x,-y,-z
x,-y,z
1/2+x,1/2+y,z
1/2-x,1/2+y,-z
1/2-x,1/2-y,-z
1/2+x,1/2-y,z
loop_
_atom_site_type_symbol
_atom_site_label
_atom_site_fract_x
_atom_site_fract_y
_atom_site_fract_z
Si Si1 0.623612 0.321453 0.338528
Si Si2 0.476674 0.677003 0.628934
Si Si3 0.967192 0.665149 0.115125
Si Si4 0.369195 0.821253 0.960107
Si Si5 0.209241 0.822967 0.568268
Si Si6 0.708617 0.320478 0.894649
O O1 0.621464 0.500000 0.308374
O O2 0.574111 0.257003 0.365383
O O3 0.639726 0.239691 0.202465
O O4 0.660245 0.279766 0.477543
O O5 0.500000 0.749687 0.500000
O O6 0.471385 0.500000 0.606520
O O7 0.511614 0.711094 0.771563
O O8 0.961680 0.500000 0.187418
O O9 0.919407 0.725707 0.034126
O O10 0.000000 0.644042 0.000000
O O11 0.360642 0.000000 0.956226
O O12 0.337385 0.739900 0.058373
O O13 0.250000 0.750000 0.500000
O O14 0.210360 0.765428 0.731580
O O15 0.217125 0.000000 0.565730
O O16 0.710596 0.500000 0.906378
O O17 0.750000 0.250000 0.000000
#
# Coordination Sequence:
#
# PCOD8108881 Si02
#       6
#     8   8   8   8   8   8
#     4  10  21  39  60  86 118 155 197 245 300 353
#     4  10  22  37  59  88 119 155 200 250 297 353
#     4  10  21  39  59  84 121 161 201 246 294 348
#     4  11  23  39  61  89 121 158 202 247 294 351
#     4  10  23  41  62  87 118 153 191 237 292 351
#     4  11  24  42  65  92 122 155 194 244 297 354
#
# _framework density 19.755085999999999
#
# number of rings (size 3 to 8) (size 9 to 14) (size 15 to 20)
#    0.000    1.667    1.667    2.000    2.333    6.667 
#    0.000    0.000    0.000    0.000    0.000    0.000 
#    0.000    0.000    0.000    0.000    0.000    0.000 
#
# Total GULP energy -297625.242837 kJ/mol
# GULP energy per Si atom -12401.051785 kJ/mol
# Density = 1.971012 g / cm^3
# Si number density = 19.755086 Si / 1000 Ang^3
#
#
#
# Elastic Constant Matrix: (Units=GPa)
#
#
# Indices 1 2 3 4 5 6 
#
# 1 141.7173 39.0054 82.2636 0.0000 1.3979 0.0000
# 2 39.0054 46.4640 44.9394 0.0000 -1.5130 0.0000
# 3 82.2636 44.9394 169.0162 0.0000 -1.8372 0.0000
# 4 0.0000 0.0000 0.0000 29.0942 0.0000 3.4073
# 5 1.3979 -1.5130 -1.8372 0.0000 42.0589 0.0000
# 6 0.0000 0.0000 0.0000 3.4073 0.0000 37.3840
#
#
#
# Elastic Compliance Matrix: (Units=1/GPa)
#
#
# Indices 1 2 3 4 5 6 
#
# 1 0.010754 -0.005359 -0.003817 0.000000 -0.000717 0.000000
# 2 -0.005359 0.031665 -0.005799 0.000000 0.001064 0.000000
# 3 -0.003817 -0.005799 0.009320 0.000000 0.000325 0.000000
# 4 0.000000 0.000000 0.000000 0.034742 0.000000 -0.003166
# 5 -0.000717 0.001064 0.000325 0.000000 0.023852 0.000000
# 6 0.000000 0.000000 0.000000 -0.003166 0.000000 0.027038
#
#
# Mechanical properties :
#
#
# Convention : Reuss Voigt Hill
#
# Bulk Modulus (GPa) = 45.89795 76.62382 61.26088
# Shear Modulus (GPa) = 28.63936 34.44004 31.53970
#
# Velocity S-wave (km/s) = 3.81165 4.17987 4.00000
# Velocity P-wave (km/s) = 6.53112 7.88456 7.23953
#
# Compressibility (1/GPa) = 0.02178747
#
# Stress axis : x y z
#
# Youngs Moduli (GPa) = 92.98703 31.58096 107.29728
#
# Poissons Ratio (x) = 0.16926 0.40956
# Poissons Ratio (y) = 0.49836 0.62223
# Poissons Ratio (z) = 0.35494 0.18314
#
# Static dielectric constant tensor:
#      x y z
#    x 3.812130 0.000000 -0.057520 
#    y 0.000000 3.585640 0.000000 
#    z -0.057520 0.000000 3.712200 
# 
# 
# High freq. dielectric constant tensor:
#      x y z
#    x 1.788550 0.000000 0.000100 
#    y 0.000000 1.761870 0.000000 
#    z 0.000100 0.000000 1.777930 
# 
# From -- ./inp_files/108621.got.cif
#   From: 2010.06.25/outbox.cif.g09.slc.cpg/sg12_55_cif.got.tgz:108621.got - 2010.06.28 00:19:55.
