data_PCOD8108149
_publ_section_title
;
Structure prediction by ZEFSAII (Michael W. Deem and Ramdas Pophale) SiO2 
 PCOD8108149
Probable space group: C 2/M
;
_chemical_formula_sum "Si O2"
_cell_formula_units_Z 32
_cell_length_a 21.140464
_cell_length_b 13.843129
_cell_length_c 16.610009
_cell_angle_alpha 90.000000
_cell_angle_beta 162.016214
_cell_angle_gamma 90.000000
_cell_volume 1500.799179
_symmetry_space_group_name_H-M "C 2/M"
_symmetry_group_IT_number 12
_symmetry_cell_setting 'monoclinic'
loop_
_space_group_symop_operation_xyz
x,y,z
-x,y,-z
-x,-y,-z
x,-y,z
1/2+x,1/2+y,z
1/2-x,1/2+y,-z
1/2-x,1/2-y,-z
1/2+x,1/2-y,z
loop_
_atom_site_type_symbol
_atom_site_label
_atom_site_fract_x
_atom_site_fract_y
_atom_site_fract_z
Si Si1 0.237097 0.140440 0.965116
Si Si2 0.709013 0.105644 0.796418
Si Si3 0.273318 0.609118 0.365472
Si Si4 0.902488 0.691969 0.003296
O O1 0.361403 0.125892 0.032652
O O2 0.004905 0.106748 0.674212
O O3 0.250000 0.250000 0.000000
O O4 0.333643 0.088211 0.159635
O O5 0.500000 0.136618 0.500000
O O6 0.872383 0.192162 0.980347
O O7 0.784702 0.000000 0.854710
O O8 0.187384 0.500000 0.260235
O O9 0.256171 0.655911 0.256501
O O10 0.136454 0.673636 0.260428
#
# Coordination Sequence:
#
# PCOD8108149 Si02
#       4
#     8   8   8   8
#     4  10  21  38  62  87 117 157 194 239 295 349
#     4  10  21  38  60  86 117 158 206 246 286 347
#     4  11  23  38  61  93 122 150 194 246 297 359
#     4  10  21  39  62  89 122 155 189 243 305 354
#
# _framework density 21.321973
#
# number of rings (size 3 to 8) (size 9 to 14) (size 15 to 20)
#    0.000    1.750    0.000    6.000    0.000    9.000 
#    0.000    2.500    0.000   13.500    0.000    0.000 
#    0.000    0.000    0.000    0.000    0.000    0.000 
#
# Total GULP energy -198236.906504 kJ/mol
# GULP energy per Si atom -12389.806657 kJ/mol
# Density = 2.127344 g / cm^3
# Si number density = 21.321973 Si / 1000 Ang^3
#
#
#
# Elastic Constant Matrix: (Units=GPa)
#
#
# Indices 1 2 3 4 5 6 
#
# 1 152.9708 34.7732 55.1809 0.0058 -15.5184 0.0070
# 2 34.7732 145.2228 -4.7820 0.0054 7.1923 0.0020
# 3 55.1809 -4.7820 76.5466 -0.0075 -22.7775 -0.0014
# 4 0.0058 0.0054 -0.0075 49.5335 -0.0021 -0.6121
# 5 -15.5184 7.1923 -22.7775 -0.0021 29.3970 0.0025
# 6 0.0070 0.0020 -0.0014 -0.6121 0.0025 20.0261
#
#
#
# Elastic Compliance Matrix: (Units=1/GPa)
#
#
# Indices 1 2 3 4 5 6 
#
# 1 0.009700 -0.002569 -0.007073 -0.000002 0.000269 -0.000004
# 2 -0.002569 0.007651 0.001780 0.000000 -0.001849 0.000000
# 3 -0.007073 0.001780 0.022137 0.000005 0.012983 0.000002
# 4 -0.000002 0.000000 0.000005 0.020196 0.000004 0.000617
# 5 0.000269 -0.001849 0.012983 0.000004 0.044671 -0.000004
# 6 -0.000004 0.000000 0.000002 0.000617 -0.000004 0.049954
#
#
# Mechanical properties :
#
#
# Convention : Reuss Voigt Hill
#
# Bulk Modulus (GPa) = 42.08070 60.56494 51.32282
# Shear Modulus (GPa) = 28.09702 39.09585 33.59643
#
# Velocity S-wave (km/s) = 3.63402 4.28669 3.97378
# Velocity P-wave (km/s) = 6.11448 7.27788 6.72140
#
# Compressibility (1/GPa) = 0.02376386
#
# Stress axis : x y z
#
# Youngs Moduli (GPa) = 103.09501 130.69778 45.17277
#
# Poissons Ratio (x) = 0.33574 0.31950
# Poissons Ratio (y) = 0.26483 -0.08039
# Poissons Ratio (z) = 0.72918 -0.23258
#
# Static dielectric constant tensor:
#      x y z
#    x 5.183780 -0.000130 -0.829140 
#    y -0.000130 3.639770 0.000040 
#    z -0.829140 0.000040 3.828320 
# 
# 
# High freq. dielectric constant tensor:
#      x y z
#    x 1.829290 0.000000 -0.026570 
#    y 0.000000 1.854710 0.000000 
#    z -0.026570 0.000000 1.828500 
# 
# From -- ./inp_files/57891.got.cif
#   From: 2010.06.25/outbox.cif.g09.slc.cpg/sg12_29_cif.got.tgz:57891.got - 2010.06.28 00:19:55.
