data_PCOD8108708
_publ_section_title
;
Structure prediction by ZEFSAII (Michael W. Deem and Ramdas Pophale) SiO2 
 PCOD8108708
Probable space group: C 2/M
;
_chemical_formula_sum "Si O2"
_cell_formula_units_Z 56
_cell_length_a 17.822213
_cell_length_b 13.235151
_cell_length_c 14.265810
_cell_angle_alpha 90.000000
_cell_angle_beta 122.805270
_cell_angle_gamma 90.000000
_cell_volume 2828.351302
_symmetry_space_group_name_H-M "C 2/M"
_symmetry_group_IT_number 12
_symmetry_cell_setting 'monoclinic'
loop_
_space_group_symop_operation_xyz
x,y,z
-x,y,-z
-x,-y,-z
x,-y,z
1/2+x,1/2+y,z
1/2-x,1/2+y,-z
1/2-x,1/2-y,-z
1/2+x,1/2-y,z
loop_
_atom_site_type_symbol
_atom_site_label
_atom_site_fract_x
_atom_site_fract_y
_atom_site_fract_z
Si Si1 0.668911 0.882343 0.675815
Si Si2 0.112984 0.386894 0.230654
Si Si3 0.620234 0.614591 0.824647
Si Si4 0.984203 0.227648 0.387865
Si Si5 0.039543 0.768646 0.932140
Si Si6 0.782630 0.720644 0.851266
Si Si7 0.834835 0.318444 0.538651
O O1 0.577719 0.828714 0.649007
O O2 0.752278 0.828222 0.785044
O O3 0.677408 0.876588 0.568362
O O4 0.666761 0.000000 0.703873
O O5 0.083611 0.500000 0.182960
O O6 0.196011 0.352607 0.221787
O O7 0.149759 0.391266 0.362052
O O8 0.027117 0.314518 0.157311
O O9 0.649169 0.500000 0.853622
O O10 0.560999 0.633828 0.693562
O O11 0.559564 0.644172 0.871987
O O12 0.708549 0.680466 0.872523
O O13 0.000000 0.182997 0.500000
O O14 0.077419 0.249858 0.402195
O O15 0.132838 0.720146 0.023949
O O16 0.000000 0.818305 0.000000
O O17 0.750000 0.250000 0.500000
#
# Coordination Sequence:
#
# PCOD8108708 Si02
#       7
#     8   8   8   8   8   8   8
#     4  10  21  38  64  91 124 164 204 255 308 361
#     4  11  22  39  64  91 121 161 206 254 310 360
#     4  11  22  40  63  87 120 163 202 245 304 367
#     4   9  21  39  60  89 125 157 200 251 302 363
#     4  10  23  42  63  88 123 158 204 260 302 357
#     4  10  22  41  60  90 127 156 203 252 303 366
#     4  11  20  38  61  89 128 159 198 256 311 358
#
# _framework density 19.799520000000001
#
# number of rings (size 3 to 8) (size 9 to 14) (size 15 to 20)
#    0.000    1.714    2.857    1.286    0.000    7.429 
#    0.000    6.429    0.000    0.000    0.000    0.000 
#    0.000    0.000    0.000    0.000    0.000    0.000 
#
# Total GULP energy -347028.238682 kJ/mol
# GULP energy per Si atom -12393.865667 kJ/mol
# Density = 1.975446 g / cm^3
# Si number density = 19.799520 Si / 1000 Ang^3
#
#
#
# Elastic Constant Matrix: (Units=GPa)
#
#
# Indices 1 2 3 4 5 6 
#
# 1 114.2680 37.3999 37.4101 0.0000 0.9191 0.0000
# 2 37.3999 91.8941 48.2934 0.0000 -9.0034 0.0000
# 3 37.4101 48.2934 94.1286 0.0000 -4.2891 0.0000
# 4 0.0000 0.0000 0.0000 3.0758 0.0000 -9.0419
# 5 0.9191 -9.0034 -4.2891 0.0000 32.4481 0.0000
# 6 0.0000 0.0000 0.0000 -9.0419 0.0000 17.1570
#
#
#
# Elastic Compliance Matrix: (Units=1/GPa)
#
#
# Indices 1 2 3 4 5 6 
#
# 1 0.010658 -0.003044 -0.002743 0.000000 -0.001509 0.000000
# 2 -0.003044 0.016094 -0.006882 0.000000 0.003642 0.000000
# 3 -0.002743 -0.006882 0.015253 0.000000 0.000184 0.000000
# 4 0.000000 0.000000 0.000000 -0.591924 0.000000 -0.311950
# 5 -0.001509 0.003642 0.000184 0.000000 0.031896 0.000000
# 6 0.000000 0.000000 0.000000 -0.311950 0.000000 -0.106116
#
#
# Mechanical properties :
#
#
# Convention : Reuss Voigt Hill
#
# Bulk Modulus (GPa) = 59.99427 60.72195 60.35811
# Shear Modulus (GPa) = -8.42821 22.34865 6.96022
#
# Velocity S-wave (km/s) = -2.06543 3.36333 1.87696
# Velocity P-wave (km/s) = 4.96776 6.76887 5.93701
#
# Compressibility (1/GPa) = 0.01666826
#
# Stress axis : x y z
#
# Youngs Moduli (GPa) = 93.82829 62.13379 65.56148
#
# Poissons Ratio (x) = 0.18914 0.17982
# Poissons Ratio (y) = 0.28562 0.45116
# Poissons Ratio (z) = 0.25735 0.42758
#
# Static dielectric constant tensor:
#      x y z
#    x 3.953980 0.000000 -0.030020 
#    y 0.000000 3.212780 0.000000 
#    z -0.030020 0.000000 3.600030 
# 
# 
# High freq. dielectric constant tensor:
#      x y z
#    x 1.788150 0.000000 -0.004140 
#    y 0.000000 1.740190 0.000000 
#    z -0.004140 0.000000 1.788100 
# 
# From -- ./inp_files/223940.got.cif
#   From: 2010.06.25/outbox.cif.g09.slc.cpg/sg12_112_cif.got.tgz:223940.got - 2010.06.28 00:19:55.
