data_PCOD8108575
_publ_section_title
;
Structure prediction by ZEFSAII (Michael W. Deem and Ramdas Pophale) SiO2 
 PCOD8108575
Probable space group: C 2/M
;
_chemical_formula_sum "Si O2"
_cell_formula_units_Z 64
_cell_length_a 26.464547
_cell_length_b 14.176450
_cell_length_c 12.756861
_cell_angle_alpha 90.000000
_cell_angle_beta 141.324163
_cell_angle_gamma 90.000000
_cell_volume 2990.857129
_symmetry_space_group_name_H-M "C 2/M"
_symmetry_group_IT_number 12
_symmetry_cell_setting 'monoclinic'
loop_
_space_group_symop_operation_xyz
x,y,z
-x,y,-z
-x,-y,-z
x,-y,z
1/2+x,1/2+y,z
1/2-x,1/2+y,-z
1/2-x,1/2-y,-z
1/2+x,1/2-y,z
loop_
_atom_site_type_symbol
_atom_site_label
_atom_site_fract_x
_atom_site_fract_y
_atom_site_fract_z
Si Si1 0.166482 0.611732 0.754362
Si Si2 0.493477 0.605081 0.365974
Si Si3 0.407335 0.293690 0.872681
Si Si4 0.431439 0.211509 0.579698
Si Si5 0.345180 0.609348 0.982778
Si Si6 0.173466 0.607206 0.203361
Si Si7 0.595912 0.892638 0.859875
Si Si8 0.685734 0.300569 0.465618
O O1 0.162369 0.500000 0.736182
O O2 0.098662 0.656344 0.570493
O O3 0.142391 0.644446 0.832144
O O4 0.256345 0.647784 0.870462
O O5 0.500000 0.616981 0.500000
O O6 0.519450 0.500000 0.373505
O O7 0.556891 0.677077 0.420362
O O8 0.403050 0.626759 0.176802
O O9 0.383673 0.182359 0.829717
O O10 0.369918 0.351133 0.712599
O O11 0.500000 0.305076 0.000000
O O12 0.378554 0.335148 0.936617
O O13 0.515480 0.167077 0.755197
O O14 0.362338 0.214471 0.555545
O O15 0.341079 0.500000 0.945824
O O16 0.152386 0.500000 0.205251
O O17 0.268583 0.628278 0.380844
O O18 0.159832 0.618155 0.056918
O O19 0.567630 0.000000 0.798912
O O20 0.750000 0.250000 0.500000
#
# Coordination Sequence:
#
# PCOD8108575 Si02
#       8
#     8   8   8   8   8   8   8   8
#     4  10  21  38  62  92 124 156 195 245 299 361
#     4  10  22  39  59  87 122 157 195 240 292 354
#     4  11  22  41  65  89 121 156 203 261 302 346
#     4  12  22  38  62  87 120 158 199 244 298 358
#     4  10  22  41  64  89 118 158 204 247 299 357
#     4  10  22  40  61  88 123 160 198 243 302 366
#     4  10  21  38  62  93 124 155 194 243 301 365
#     4  10  23  40  57  83 118 156 198 248 295 341
#
# _framework density 21.398548000000002
#
# number of rings (size 3 to 8) (size 9 to 14) (size 15 to 20)
#    0.000    1.625    0.000    5.250    0.000    3.500 
#    0.000   13.750    0.000    0.000    0.000    0.000 
#    0.000    0.000    0.000    0.000    0.000    0.000 
#
# Total GULP energy -396625.907033 kJ/mol
# GULP energy per Si atom -12394.559595 kJ/mol
# Density = 2.134984 g / cm^3
# Si number density = 21.398548 Si / 1000 Ang^3
#
#
#
# Elastic Constant Matrix: (Units=GPa)
#
#
# Indices 1 2 3 4 5 6 
#
# 1 129.2918 45.5631 57.5804 0.0000 12.6321 0.0000
# 2 45.5631 79.5844 44.3139 0.0000 4.6671 0.0000
# 3 57.5804 44.3139 180.2876 0.0000 -3.8259 0.0000
# 4 0.0000 0.0000 0.0000 33.1748 0.0000 1.3596
# 5 12.6321 4.6671 -3.8259 0.0000 36.2070 0.0000
# 6 0.0000 0.0000 0.0000 1.3596 0.0000 25.0741
#
#
#
# Elastic Compliance Matrix: (Units=1/GPa)
#
#
# Indices 1 2 3 4 5 6 
#
# 1 0.010757 -0.004641 -0.002367 0.000000 -0.003405 0.000000
# 2 -0.004641 0.016747 -0.002652 0.000000 -0.000820 0.000000
# 3 -0.002367 -0.002652 0.006995 0.000000 0.001907 0.000000
# 4 0.000000 0.000000 0.000000 0.030211 0.000000 -0.001638
# 5 -0.003405 -0.000820 0.001907 0.000000 0.029114 0.000000
# 6 0.000000 0.000000 0.000000 -0.001638 0.000000 0.039971
#
#
# Mechanical properties :
#
#
# Convention : Reuss Voigt Hill
#
# Bulk Modulus (GPa) = 65.87747 76.00872 70.94309
# Shear Modulus (GPa) = 31.61126 35.00495 33.30810
#
# Velocity S-wave (km/s) = 3.84769 4.04896 3.94961
# Velocity P-wave (km/s) = 7.11283 7.58000 7.35013
#
# Compressibility (1/GPa) = 0.01517970
#
# Stress axis : x y z
#
# Youngs Moduli (GPa) = 92.96570 59.71376 142.96166
#
# Poissons Ratio (x) = 0.27711 0.33840
# Poissons Ratio (y) = 0.43142 0.37906
# Poissons Ratio (z) = 0.22006 0.15833
#
# Static dielectric constant tensor:
#      x y z
#    x 3.754740 0.000000 0.159250 
#    y 0.000000 3.994030 0.000000 
#    z 0.159250 0.000000 4.486330 
# 
# 
# High freq. dielectric constant tensor:
#      x y z
#    x 1.832280 0.000000 -0.002390 
#    y 0.000000 1.832180 0.000000 
#    z -0.002390 0.000000 1.864700 
# 
# From -- ./inp_files/183859.got.cif
#   From: 2010.06.25/outbox.cif.g09.slc.cpg/sg12_92_cif.got.tgz:183859.got - 2010.06.28 00:19:55.
