data_PCOD8108542
_publ_section_title
;
Structure prediction by ZEFSAII (Michael W. Deem and Ramdas Pophale) SiO2 
 PCOD8108542
Probable space group: C 2/M
;
_chemical_formula_sum "Si O2"
_cell_formula_units_Z 36
_cell_length_a 18.665491
_cell_length_b 19.194987
_cell_length_c 6.122544
_cell_angle_alpha 90.000000
_cell_angle_beta 123.752599
_cell_angle_gamma 90.000000
_cell_volume 1823.863675
_symmetry_space_group_name_H-M "C 2/M"
_symmetry_group_IT_number 12
_symmetry_cell_setting 'monoclinic'
loop_
_space_group_symop_operation_xyz
x,y,z
-x,y,-z
-x,-y,-z
x,-y,z
1/2+x,1/2+y,z
1/2-x,1/2+y,-z
1/2-x,1/2-y,-z
1/2+x,1/2-y,z
loop_
_atom_site_type_symbol
_atom_site_label
_atom_site_fract_x
_atom_site_fract_y
_atom_site_fract_z
Si Si1 0.828756 0.312750 0.876555
Si Si2 0.288949 0.579673 0.558471
Si Si3 0.500000 0.241829 0.000000
Si Si4 0.077092 0.846838 0.483163
Si Si5 0.718938 0.330078 0.070218
O O1 0.787867 0.370195 0.648773
O O2 0.784829 0.235927 0.770883
O O3 0.810432 0.336195 0.097960
O O4 0.929913 0.308136 0.995628
O O5 0.260433 0.500000 0.488145
O O6 0.377831 0.591176 0.577139
O O7 0.302720 0.599088 0.836801
O O8 0.456414 0.288412 0.739475
O O9 0.000000 0.877872 0.500000
O O10 0.147262 0.813946 0.764229
#
# Coordination Sequence:
#
# PCOD8108542 Si02
#       5
#     8   8   4   8   8
#     4  10  22  37  65  91 116 157 205 254 297 352
#     4  11  24  41  60  87 127 168 199 239 299 366
#     4  12  22  38  64  98 122 146 200 262 310 344
#     4  11  21  37  62  95 124 155 196 252 303 356
#     4  10  21  38  62  91 120 157 208 248 296 350
#
# _framework density 19.738316999999999
#
# number of rings (size 3 to 8) (size 9 to 14) (size 15 to 20)
#    0.000    1.333    4.444    0.667    6.222    4.000 
#    0.000    4.444    0.000    1.333    0.000    0.000 
#    0.000    0.000    0.000    0.000    0.000    0.000 
#
# Total GULP energy -223083.005265 kJ/mol
# GULP energy per Si atom -12393.500293 kJ/mol
# Density = 1.969339 g / cm^3
# Si number density = 19.738317 Si / 1000 Ang^3
#
#
#
# Elastic Constant Matrix: (Units=GPa)
#
#
# Indices 1 2 3 4 5 6 
#
# 1 177.9022 55.0883 42.1395 0.0000 -5.4393 0.0000
# 2 55.0883 122.3945 56.7175 0.0000 -0.5800 0.0000
# 3 42.1395 56.7175 101.8523 0.0000 -4.6415 0.0000
# 4 0.0000 0.0000 0.0000 16.7663 0.0000 1.1141
# 5 -5.4393 -0.5800 -4.6415 0.0000 25.5041 0.0000
# 6 0.0000 0.0000 0.0000 1.1141 0.0000 20.1257
#
#
#
# Elastic Compliance Matrix: (Units=1/GPa)
#
#
# Indices 1 2 3 4 5 6 
#
# 1 0.006723 -0.002366 -0.001413 0.000000 0.001123 0.000000
# 2 -0.002366 0.011864 -0.005685 0.000000 -0.001269 0.000000
# 3 -0.001413 -0.005685 0.013662 0.000000 0.002056 0.000000
# 4 0.000000 0.000000 0.000000 0.059864 0.000000 -0.003314
# 5 0.001123 -0.001269 0.002056 0.000000 0.039794 0.000000
# 6 0.000000 0.000000 0.000000 -0.003314 0.000000 0.049871
#
#
# Mechanical properties :
#
#
# Convention : Reuss Voigt Hill
#
# Bulk Modulus (GPa) = 75.07163 78.89331 76.98247
# Shear Modulus (GPa) = 24.37292 29.02616 26.69954
#
# Velocity S-wave (km/s) = 3.51779 3.83893 3.68186
# Velocity P-wave (km/s) = 7.39025 7.72698 7.56049
#
# Compressibility (1/GPa) = 0.01332061
#
# Stress axis : x y z
#
# Youngs Moduli (GPa) = 148.75172 84.29047 73.19376
#
# Poissons Ratio (x) = 0.19941 0.10341
# Poissons Ratio (y) = 0.35191 0.41614
# Poissons Ratio (z) = 0.21016 0.47923
#
# Static dielectric constant tensor:
#      x y z
#    x 4.106090 0.000000 -0.262100 
#    y 0.000000 3.175040 0.000000 
#    z -0.262100 0.000000 3.580770 
# 
# 
# High freq. dielectric constant tensor:
#      x y z
#    x 1.789250 0.000000 -0.023050 
#    y 0.000000 1.726250 0.000000 
#    z -0.023050 0.000000 1.764790 
# 
# From -- ./inp_files/15950.got.cif
#   From: 2010.06.25/outbox.cif.g09.slc.cpg/sg12_8_cif.got.tgz:15950.got - 2010.06.28 00:19:55.
