data_PCOD8108737
_publ_section_title
;
Structure prediction by ZEFSAII (Michael W. Deem and Ramdas Pophale) SiO2 
 PCOD8108737
Probable space group: C 2/M
;
_chemical_formula_sum "Si O2"
_cell_formula_units_Z 40
_cell_length_a 14.341526
_cell_length_b 14.372252
_cell_length_c 19.194407
_cell_angle_alpha 90.000000
_cell_angle_beta 151.224759
_cell_angle_gamma 90.000000
_cell_volume 1904.488601
_symmetry_space_group_name_H-M "C 2/M"
_symmetry_group_IT_number 12
_symmetry_cell_setting 'monoclinic'
loop_
_space_group_symop_operation_xyz
x,y,z
-x,y,-z
-x,-y,-z
x,-y,z
1/2+x,1/2+y,z
1/2-x,1/2+y,-z
1/2-x,1/2-y,-z
1/2+x,1/2-y,z
loop_
_atom_site_type_symbol
_atom_site_label
_atom_site_fract_x
_atom_site_fract_y
_atom_site_fract_z
Si Si1 0.400916 0.603716 0.102354
Si Si2 0.109608 0.609809 0.795908
Si Si3 0.192783 0.738115 0.329238
Si Si4 0.208102 0.395173 0.114790
Si Si5 0.419819 0.747203 0.338451
O O1 0.488910 0.500000 0.156358
O O2 0.570334 0.669161 0.239132
O O3 0.223953 0.607505 0.041650
O O4 0.309148 0.631609 0.967934
O O5 0.073970 0.500000 0.764203
O O6 0.133092 0.655736 0.734863
O O7 0.933128 0.652318 0.725184
O O8 0.286180 0.718669 0.315621
O O9 0.357293 0.755779 0.494375
O O10 0.226722 0.500000 0.156247
O O11 0.386966 0.335519 0.261906
O O12 0.000000 0.352376 0.000000
#
# Coordination Sequence:
#
# PCOD8108737 Si02
#       5
#     8   8   8   8   8
#     4  10  22  40  65  91 123 164 210 260 314 374
#     4  11  24  42  65  96 127 166 213 264 315 372
#     4  11  24  43  62  93 131 167 210 261 317 374
#     4  10  21  38  64  96 125 160 208 260 317 376
#     4  11  25  40  65  95 127 169 211 259 317 375
#
# _framework density 21.003014
#
# number of rings (size 3 to 8) (size 9 to 14) (size 15 to 20)
#    0.000    1.400    2.000    2.400    2.800    4.800 
#    0.000    6.000    0.000    0.000    0.000    0.000 
#    0.000    0.000    0.000    0.000    0.000    0.000 
#
# Total GULP energy -247973.933981 kJ/mol
# GULP energy per Si atom -12398.696699 kJ/mol
# Density = 2.095521 g / cm^3
# Si number density = 21.003014 Si / 1000 Ang^3
#
#
#
# Elastic Constant Matrix: (Units=GPa)
#
#
# Indices 1 2 3 4 5 6 
#
# 1 39.6252 8.2751 11.9529 0.0088 -11.3421 0.0033
# 2 8.2751 111.2072 61.1953 0.0266 -5.8269 0.0118
# 3 11.9529 61.1953 134.1818 0.0369 -7.4704 0.0213
# 4 0.0088 0.0266 0.0369 17.2141 0.0114 -3.5849
# 5 -11.3421 -5.8269 -7.4704 0.0114 32.2678 0.0050
# 6 0.0033 0.0118 0.0213 -3.5849 0.0050 28.3423
#
#
#
# Elastic Compliance Matrix: (Units=1/GPa)
#
#
# Indices 1 2 3 4 5 6 
#
# 1 0.028626 -0.000693 -0.001703 -0.000017 0.009543 -0.000006
# 2 -0.000693 0.012048 -0.005395 -0.000008 0.000683 -0.000002
# 3 -0.001703 -0.005395 0.010107 -0.000014 0.000767 -0.000007
# 4 -0.000017 -0.000008 -0.000014 0.059663 -0.000033 0.007547
# 5 0.009543 0.000683 0.000767 -0.000033 0.034646 -0.000012
# 6 -0.000006 -0.000002 -0.000007 0.007547 -0.000012 0.036237
#
#
# Mechanical properties :
#
#
# Convention : Reuss Voigt Hill
#
# Bulk Modulus (GPa) = 28.40880 49.76233 39.08556
# Shear Modulus (GPa) = 23.96427 29.13759 26.55093
#
# Velocity S-wave (km/s) = 3.38152 3.72870 3.55934
# Velocity P-wave (km/s) = 5.36672 6.50246 5.96169
#
# Compressibility (1/GPa) = 0.03520037
#
# Stress axis : x y z
#
# Youngs Moduli (GPa) = 34.93300 82.99868 98.93697
#
# Poissons Ratio (x) = 0.05754 0.16845
# Poissons Ratio (y) = 0.02422 0.53377
# Poissons Ratio (z) = 0.05948 0.44778
#
# Static dielectric constant tensor:
#      x y z
#    x 4.030680 -0.000010 -0.141710 
#    y -0.000010 3.772180 -0.000030 
#    z -0.141710 -0.000030 3.850150 
# 
# 
# High freq. dielectric constant tensor:
#      x y z
#    x 1.829660 0.000000 -0.011120 
#    y 0.000000 1.822290 0.000000 
#    z -0.011120 0.000000 1.825240 
# 
# From -- ./inp_files/58916.got.cif
#   From: 2010.06.25/outbox.cif.g09.slc.cpg/sg12_30_cif.got.tgz:58916.got - 2010.06.28 00:19:55.
