data_PCOD8108727
_publ_section_title
;
Structure prediction by ZEFSAII (Michael W. Deem and Ramdas Pophale) SiO2 
 PCOD8108727
Probable space group: C 2/M
;
_chemical_formula_sum "Si O2"
_cell_formula_units_Z 48
_cell_length_a 29.958153
_cell_length_b 8.640395
_cell_length_c 14.716629
_cell_angle_alpha 90.000000
_cell_angle_beta 39.541778
_cell_angle_gamma 90.000000
_cell_volume 2425.221260
_symmetry_space_group_name_H-M "C 2/M"
_symmetry_group_IT_number 12
_symmetry_cell_setting 'monoclinic'
loop_
_space_group_symop_operation_xyz
x,y,z
-x,y,-z
-x,-y,-z
x,-y,z
1/2+x,1/2+y,z
1/2-x,1/2+y,-z
1/2-x,1/2-y,-z
1/2+x,1/2-y,z
loop_
_atom_site_type_symbol
_atom_site_label
_atom_site_fract_x
_atom_site_fract_y
_atom_site_fract_z
Si Si1 0.184351 0.681085 0.844491
Si Si2 0.320874 0.181087 0.350896
Si Si3 0.073136 0.320268 0.337876
Si Si4 0.069793 0.820239 0.148360
Si Si5 0.155782 0.820235 0.364437
Si Si6 0.074617 0.318982 0.657732
O O1 0.169064 0.500000 0.883081
O O2 0.163844 0.737578 0.775396
O O3 0.265424 0.721070 0.732385
O O4 0.140405 0.779978 0.984424
O O5 0.250000 0.250000 0.500000
O O6 0.386162 0.229600 0.311287
O O7 0.308987 0.000000 0.368430
O O8 0.076897 0.500000 0.305678
O O9 0.081129 0.219823 0.235425
O O10 0.136315 0.277754 0.306033
O O11 0.000000 0.277950 0.500000
O O12 0.006748 0.722069 0.203058
O O13 0.052561 0.000000 0.165524
O O14 0.105006 0.776853 0.526475
O O15 0.145939 0.000000 0.357722
O O16 0.083674 0.500000 0.622459
#
# Coordination Sequence:
#
# PCOD8108727 Si02
#       6
#     8   8   8   8   8   8
#     4  10  23  43  63  90 129 166 203 253 312 366
#     4  10  21  38  64  94 124 164 208 253 304 364
#     4  11  23  40  65  93 123 162 206 252 309 372
#     4  12  26  42  63  91 125 164 208 259 311 364
#     4  11  22  38  65  95 124 161 207 255 303 364
#     4  11  22  38  63  93 126 164 206 253 308 367
#
# _framework density 19.792007999999999
#
# number of rings (size 3 to 8) (size 9 to 14) (size 15 to 20)
#    0.000    1.167    3.333    3.000    0.000    4.667 
#    0.000    3.333    0.000    0.000    0.000    0.000 
#    0.000    0.000    0.000    0.000    0.000    0.000 
#
# Total GULP energy -297755.431093 kJ/mol
# GULP energy per Si atom -12406.476296 kJ/mol
# Density = 1.974696 g / cm^3
# Si number density = 19.792008 Si / 1000 Ang^3
#
#
#
# Elastic Constant Matrix: (Units=GPa)
#
#
# Indices 1 2 3 4 5 6 
#
# 1 128.9459 24.6993 20.3419 0.0000 8.3509 0.0000
# 2 24.6993 43.9605 24.7655 0.0002 4.6872 -0.0002
# 3 20.3419 24.7655 72.1744 0.0000 8.9113 -0.0001
# 4 0.0000 0.0002 0.0000 32.4124 0.0001 -1.4542
# 5 8.3509 4.6872 8.9113 0.0001 30.8860 0.0000
# 6 0.0000 -0.0002 -0.0001 -1.4542 0.0000 27.7886
#
#
#
# Elastic Compliance Matrix: (Units=1/GPa)
#
#
# Indices 1 2 3 4 5 6 
#
# 1 0.008810 -0.004333 -0.000812 0.000000 -0.001490 0.000000
# 2 -0.004333 0.030401 -0.009110 0.000000 -0.000814 0.000000
# 3 -0.000812 -0.009110 0.017641 0.000000 -0.003488 0.000000
# 4 0.000000 0.000000 0.000000 0.030925 0.000000 0.001618
# 5 -0.001490 -0.000814 -0.003488 0.000000 0.033910 0.000000
# 6 0.000000 0.000000 0.000000 0.001618 0.000000 0.036071
#
#
# Mechanical properties :
#
#
# Convention : Reuss Voigt Hill
#
# Bulk Modulus (GPa) = 35.28451 42.74380 39.01416
# Shear Modulus (GPa) = 25.54730 29.90233 27.72482
#
# Velocity S-wave (km/s) = 3.59665 3.89115 3.74680
# Velocity P-wave (km/s) = 5.92573 6.46773 6.20265
#
# Compressibility (1/GPa) = 0.02834104
#
# Stress axis : x y z
#
# Youngs Moduli (GPa) = 113.50913 32.89324 56.68698
#
# Poissons Ratio (x) = 0.14254 0.04603
# Poissons Ratio (y) = 0.49189 0.51641
# Poissons Ratio (z) = 0.09218 0.29965
#
# Static dielectric constant tensor:
#      x y z
#    x 3.954730 0.000000 0.066460 
#    y 0.000000 3.611770 0.000000 
#    z 0.066460 0.000000 3.490550 
# 
# 
# High freq. dielectric constant tensor:
#      x y z
#    x 1.789840 0.000000 0.001150 
#    y 0.000000 1.773920 0.000000 
#    z 0.001150 0.000000 1.766590 
# 
# From -- ./inp_files/248785.got.cif
#   From: 2010.06.25/outbox.cif.g09.slc.cpg/sg12_125_cif.got.tgz:248785.got - 2010.06.28 00:19:55.
