data_PCOD8108530
_publ_section_title
;
Structure prediction by ZEFSAII (Michael W. Deem and Ramdas Pophale) SiO2 
 PCOD8108530
Probable space group: C 2/M
;
_chemical_formula_sum "Si O2"
_cell_formula_units_Z 48
_cell_length_a 9.928636
_cell_length_b 19.107231
_cell_length_c 21.670637
_cell_angle_alpha 90.000000
_cell_angle_beta 36.807865
_cell_angle_gamma 90.000000
_cell_volume 2463.103327
_symmetry_space_group_name_H-M "C 2/M"
_symmetry_group_IT_number 12
_symmetry_cell_setting 'monoclinic'
loop_
_space_group_symop_operation_xyz
x,y,z
-x,y,-z
-x,-y,-z
x,-y,z
1/2+x,1/2+y,z
1/2-x,1/2+y,-z
1/2-x,1/2-y,-z
1/2+x,1/2-y,z
loop_
_atom_site_type_symbol
_atom_site_label
_atom_site_fract_x
_atom_site_fract_y
_atom_site_fract_z
Si Si1 0.247590 0.779515 0.568587
Si Si2 0.846841 0.580036 0.997950
Si Si3 0.647911 0.208727 0.222212
Si Si4 0.575892 0.790402 0.106238
Si Si5 0.255533 0.575759 0.388539
Si Si6 0.834868 0.919998 0.217360
O O1 0.500000 0.781311 0.500000
O O2 0.250000 0.750000 0.500000
O O3 0.146271 0.859258 0.607738
O O4 0.100951 0.729786 0.665649
O O5 0.874439 0.500000 0.966279
O O6 0.594170 0.597711 0.110370
O O7 0.926101 0.628063 0.912132
O O8 0.000000 0.597447 0.000000
O O9 0.665308 0.216118 0.142691
O O10 0.685381 0.128381 0.228010
O O11 0.828423 0.258269 0.189809
O O12 0.750000 0.750000 0.000000
O O13 0.378976 0.500000 0.355256
O O14 0.277764 0.596986 0.308923
O O15 0.000000 0.564826 0.500000
O O16 0.777690 0.000000 0.221766
#
# Coordination Sequence:
#
# PCOD8108530 Si02
#       6
#     8   8   8   8   8   8
#     4  11  23  41  63  91 124 155 199 256 310 363
#     4  10  22  39  59  87 125 162 201 254 306 360
#     4  12  24  40  62  90 121 164 205 254 307 367
#     4  12  24  38  59  88 123 161 207 248 297 363
#     4   9  18  35  60  88 114 151 200 248 296 358
#     4  10  21  38  62  90 121 161 208 252 302 368
#
# _framework density 19.487611000000001
#
# number of rings (size 3 to 8) (size 9 to 14) (size 15 to 20)
#    0.000    1.333    1.667    5.500    2.333    0.667 
#    0.000    1.667    0.000    4.000    0.000    0.000 
#    0.000    0.000    0.000    0.000    0.000    0.000 
#
# Total GULP energy -297596.490620 kJ/mol
# GULP energy per Si atom -12399.853776 kJ/mol
# Density = 1.944326 g / cm^3
# Si number density = 19.487611 Si / 1000 Ang^3
#
#
#
# Elastic Constant Matrix: (Units=GPa)
#
#
# Indices 1 2 3 4 5 6 
#
# 1 94.5136 69.8916 30.4959 0.0201 17.4165 0.0036
# 2 69.8916 150.7140 50.5421 -0.0224 12.2801 -0.0080
# 3 30.4959 50.5421 87.2949 0.1144 9.5289 -0.0870
# 4 0.0201 -0.0224 0.1144 34.8701 -0.0255 1.2072
# 5 17.4165 12.2801 9.5289 -0.0255 37.5637 -0.0080
# 6 0.0036 -0.0080 -0.0870 1.2072 -0.0080 43.0275
#
#
#
# Elastic Compliance Matrix: (Units=1/GPa)
#
#
# Indices 1 2 3 4 5 6 
#
# 1 0.017260 -0.007126 -0.001321 -0.000014 -0.005338 -0.000006
# 2 -0.007126 0.011262 -0.004103 0.000026 0.000663 -0.000006
# 3 -0.001321 -0.004103 0.014480 -0.000052 -0.001719 0.000030
# 4 -0.000014 0.000026 -0.000052 0.028706 0.000031 -0.000806
# 5 -0.005338 0.000663 -0.001719 0.000031 0.029316 0.000002
# 6 -0.000006 -0.000006 0.000030 -0.000806 0.000002 0.023264
#
#
# Mechanical properties :
#
#
# Convention : Reuss Voigt Hill
#
# Bulk Modulus (GPa) = 55.86228 70.48684 63.17456
# Shear Modulus (GPa) = 32.18417 35.19846 33.69131
#
# Velocity S-wave (km/s) = 4.06830 4.25455 4.16246
# Velocity P-wave (km/s) = 7.12712 7.77068 7.45585
#
# Compressibility (1/GPa) = 0.01790117
#
# Stress axis : x y z
#
# Youngs Moduli (GPa) = 57.93696 88.79603 69.05853
#
# Poissons Ratio (x) = 0.63278 0.09123
# Poissons Ratio (y) = 0.41287 0.28337
# Poissons Ratio (z) = 0.07654 0.36436
#
# Static dielectric constant tensor:
#      x y z
#    x 3.314270 0.000050 0.054930 
#    y 0.000050 4.181110 0.000250 
#    z 0.054930 0.000250 3.677430 
# 
# 
# High freq. dielectric constant tensor:
#      x y z
#    x 1.730400 0.000000 0.006400 
#    y 0.000000 1.782270 0.000000 
#    z 0.006400 0.000000 1.772290 
# 
# From -- ./inp_files/258277.got.cif
#   From: 2010.06.25/outbox.cif.g09.slc.cpg/sg12_130_cif.got.tgz:258277.got - 2010.06.28 00:19:55.
