data_PCOD8108827
_publ_section_title
;
Structure prediction by ZEFSAII (Michael W. Deem and Ramdas Pophale) SiO2 
 PCOD8108827
Probable space group: C 2/M
;
_chemical_formula_sum "Si O2"
_cell_formula_units_Z 32
_cell_length_a 7.535484
_cell_length_b 17.407401
_cell_length_c 15.579108
_cell_angle_alpha 90.000000
_cell_angle_beta 61.467460
_cell_angle_gamma 90.000000
_cell_volume 1795.362579
_symmetry_space_group_name_H-M "C 2/M"
_symmetry_group_IT_number 12
_symmetry_cell_setting 'monoclinic'
loop_
_space_group_symop_operation_xyz
x,y,z
-x,y,-z
-x,-y,-z
x,-y,z
1/2+x,1/2+y,z
1/2-x,1/2+y,-z
1/2-x,1/2-y,-z
1/2+x,1/2-y,z
loop_
_atom_site_type_symbol
_atom_site_label
_atom_site_fract_x
_atom_site_fract_y
_atom_site_fract_z
Si Si1 0.412273 0.675181 0.271781
Si Si2 0.401526 0.590055 0.110699
Si Si3 0.402779 0.411573 0.612051
Si Si4 0.473479 0.846662 0.728267
O O1 0.510978 0.632372 0.166129
O O2 0.498309 0.641220 0.338902
O O3 0.456135 0.764887 0.252583
O O4 0.168012 0.663349 0.324029
O O5 0.434630 0.500000 0.114345
O O6 0.162108 0.611496 0.166832
O O7 0.500000 0.619993 0.000000
O O8 0.500000 0.386301 0.500000
O O9 0.449867 0.500000 0.622172
O O10 0.163074 0.399381 0.661391
#
# Coordination Sequence:
#
# PCOD8108827 Si02
#       4
#     8   8   8   8
#     4  10  21  39  57  84 116 148 184 232 278 327
#     4   9  19  36  59  83 111 149 186 227 280 330
#     4  11  23  38  59  85 111 147 190 229 280 336
#     4  10  21  39  57  84 116 148 184 232 278 327
#
# _framework density 17.823698
#
# number of rings (size 3 to 8) (size 9 to 14) (size 15 to 20)
#    1.500    0.500    2.500    1.500    0.000    3.000 
#    0.000    3.750    0.000    4.500    0.000    0.000 
#    0.000    0.000    0.000    0.000    0.000    0.000 
#
# Total GULP energy -198279.891071 kJ/mol
# GULP energy per Si atom -12392.493192 kJ/mol
# Density = 1.778313 g / cm^3
# Si number density = 17.823698 Si / 1000 Ang^3
#
#
#
# Elastic Constant Matrix: (Units=GPa)
#
#
# Indices 1 2 3 4 5 6 
#
# 1 82.5815 -0.7669 32.4869 0.0000 -6.4680 0.0000
# 2 -0.7669 61.1230 30.4998 0.0000 8.7119 0.0000
# 3 32.4869 30.4998 131.5926 0.0000 -3.7062 0.0000
# 4 0.0000 0.0000 0.0000 10.3038 0.0000 -3.7843
# 5 -6.4680 8.7119 -3.7062 0.0000 31.0627 0.0000
# 6 0.0000 0.0000 0.0000 -3.7843 0.0000 19.5509
#
#
#
# Elastic Compliance Matrix: (Units=1/GPa)
#
#
# Indices 1 2 3 4 5 6 
#
# 1 0.013752 0.001771 -0.003751 0.000000 0.001919 0.000000
# 2 0.001771 0.019799 -0.005190 0.000000 -0.005803 0.000000
# 3 -0.003751 -0.005190 0.009780 0.000000 0.001841 0.000000
# 4 0.000000 0.000000 0.000000 0.104479 0.000000 0.020223
# 5 0.001919 -0.005803 0.001841 0.000000 0.034440 0.000000
# 6 0.000000 0.000000 0.000000 0.020223 0.000000 0.055063
#
#
# Mechanical properties :
#
#
# Convention : Reuss Voigt Hill
#
# Bulk Modulus (GPa) = 34.49349 44.41519 39.45434
# Shear Modulus (GPa) = 19.13387 26.38864 22.76125
#
# Velocity S-wave (km/s) = 3.28000 3.85195 3.57742
# Velocity P-wave (km/s) = 5.80854 6.69004 6.26481
#
# Compressibility (1/GPa) = 0.02899097
#
# Stress axis : x y z
#
# Youngs Moduli (GPa) = 72.71796 50.50657 102.24947
#
# Poissons Ratio (x) = -0.08944 0.38357
# Poissons Ratio (y) = -0.12878 0.53064
# Poissons Ratio (z) = 0.27279 0.26211
#
# Static dielectric constant tensor:
#      x y z
#    x 3.228770 0.000000 -0.106250 
#    y 0.000000 3.288430 0.000000 
#    z -0.106250 0.000000 3.221460 
# 
# 
# High freq. dielectric constant tensor:
#      x y z
#    x 1.683630 0.000000 -0.002960 
#    y 0.000000 1.704780 0.000000 
#    z -0.002960 0.000000 1.674300 
# 
# From -- ./inp_files/119554.got.cif
#   From: 2010.06.25/outbox.cif.g09.slc.cpg/sg12_60_cif.got.tgz:119554.got - 2010.06.28 00:19:55.
