data_PCOD8108335
_publ_section_title
;
Structure prediction by ZEFSAII (Michael W. Deem and Ramdas Pophale) SiO2 
 PCOD8108335
Probable space group: C 2/M
;
_chemical_formula_sum "Si O2"
_cell_formula_units_Z 56
_cell_length_a 18.487667
_cell_length_b 8.719782
_cell_length_c 18.336314
_cell_angle_alpha 90.000000
_cell_angle_beta 74.545832
_cell_angle_gamma 90.000000
_cell_volume 2849.092073
_symmetry_space_group_name_H-M "C 2/M"
_symmetry_group_IT_number 12
_symmetry_cell_setting 'monoclinic'
loop_
_space_group_symop_operation_xyz
x,y,z
-x,y,-z
-x,-y,-z
x,-y,z
1/2+x,1/2+y,z
1/2-x,1/2+y,-z
1/2-x,1/2-y,-z
1/2+x,1/2-y,z
loop_
_atom_site_type_symbol
_atom_site_label
_atom_site_fract_x
_atom_site_fract_y
_atom_site_fract_z
Si Si1 0.429512 0.677703 0.569402
Si Si2 0.847216 0.679907 0.297681
Si Si3 0.053108 0.174710 0.126179
Si Si4 0.827364 0.320377 0.004263
Si Si5 0.116049 0.822970 0.862937
Si Si6 0.775305 0.320206 0.569027
Si Si7 0.999433 0.821786 0.298023
O O1 0.500000 0.715285 0.500000
O O2 0.406367 0.500000 0.569499
O O3 0.361468 0.781373 0.561461
O O4 0.450086 0.722341 0.646657
O O5 0.837144 0.500000 0.306258
O O6 0.849832 0.728291 0.212884
O O7 0.774908 0.757576 0.352056
O O8 0.922244 0.727803 0.320635
O O9 0.047294 0.216900 0.213114
O O10 0.973249 0.197807 0.108982
O O11 0.081185 0.000000 0.108113
O O12 0.111240 0.290698 0.074558
O O13 0.819348 0.500000 0.019949
O O14 0.849776 0.238520 0.072371
O O15 0.750000 0.250000 0.000000
O O16 0.137509 0.000000 0.846064
O O17 0.765135 0.500000 0.566380
O O18 0.750000 0.250000 0.500000
O O19 0.976163 0.000000 0.304699
#
# Coordination Sequence:
#
# PCOD8108335 Si02
#       7
#     8   8   8   8   8   8   8
#     4  10  21  38  61  88 119 155 195 241 295 350
#     4  11  22  38  62  91 122 154 193 239 288 345
#     4   9  19  37  60  85 116 154 194 238 291 349
#     4  12  25  39  57  83 117 155 198 246 295 348
#     4  10  21  40  64  88 117 153 193 238 292 351
#     4  12  25  41  61  86 119 157 200 245 291 345
#     4   9  19  37  61  88 120 156 192 236 291 349
#
# _framework density 19.655384000000002
#
# number of rings (size 3 to 8) (size 9 to 14) (size 15 to 20)
#    0.000    1.571    0.000    6.429    0.000    7.714 
#    0.000    4.286    0.000    0.000    0.000    0.000 
#    0.000    0.000    0.000    0.000    0.000    0.000 
#
# Total GULP energy -347360.327266 kJ/mol
# GULP energy per Si atom -12405.725974 kJ/mol
# Density = 1.961065 g / cm^3
# Si number density = 19.655384 Si / 1000 Ang^3
#
#
#
# Elastic Constant Matrix: (Units=GPa)
#
#
# Indices 1 2 3 4 5 6 
#
# 1 120.0442 58.4436 71.7798 0.0000 10.9004 0.0000
# 2 58.4436 117.0151 38.5987 0.0000 0.3610 0.0000
# 3 71.7798 38.5987 103.9579 0.0000 9.5362 0.0000
# 4 0.0000 0.0000 0.0000 34.1092 0.0000 -2.6349
# 5 10.9004 0.3610 9.5362 0.0000 35.9297 0.0000
# 6 0.0000 0.0000 0.0000 -2.6349 0.0000 36.6060
#
#
#
# Elastic Compliance Matrix: (Units=1/GPa)
#
#
# Indices 1 2 3 4 5 6 
#
# 1 0.016713 -0.005253 -0.009357 0.000000 -0.002534 0.000000
# 2 -0.005253 0.011417 -0.000766 0.000000 0.001682 0.000000
# 3 -0.009357 -0.000766 0.016505 0.000000 -0.001534 0.000000
# 4 0.000000 0.000000 0.000000 0.029482 0.000000 0.002122
# 5 -0.002534 0.001682 -0.001534 0.000000 0.028991 0.000000
# 6 0.000000 0.000000 0.000000 0.002122 0.000000 0.027471
#
#
# Mechanical properties :
#
#
# Convention : Reuss Voigt Hill
#
# Bulk Modulus (GPa) = 72.03203 75.40680 73.71942
# Shear Modulus (GPa) = 30.12813 32.80864 31.46838
#
# Velocity S-wave (km/s) = 3.91937 4.09001 4.00560
# Velocity P-wave (km/s) = 7.56366 7.79435 7.67987
#
# Compressibility (1/GPa) = 0.01388271
#
# Stress axis : x y z
#
# Youngs Moduli (GPa) = 59.83531 87.58787 60.58729
#
# Poissons Ratio (x) = 0.46009 0.56690
# Poissons Ratio (y) = 0.31431 0.04644
# Poissons Ratio (z) = 0.55986 0.06713
#
# Static dielectric constant tensor:
#      x y z
#    x 3.576600 0.000000 0.077250 
#    y 0.000000 3.631010 0.000000 
#    z 0.077250 0.000000 3.692150 
# 
# 
# High freq. dielectric constant tensor:
#      x y z
#    x 1.766260 0.000000 0.003450 
#    y 0.000000 1.769050 0.000000 
#    z 0.003450 0.000000 1.782090 
# 
# From -- ./inp_files/275015.got.cif
#   From: 2010.06.25/outbox.cif.g09.slc.cpg/sg12_138_cif.got.tgz:275015.got - 2010.06.28 00:19:55.
