data_PCOD8108068
_publ_section_title
;
Structure prediction by ZEFSAII (Michael W. Deem and Ramdas Pophale) SiO2 
 PCOD8108068
Probable space group: C 2/M
;
_chemical_formula_sum "Si O2"
_cell_formula_units_Z 64
_cell_length_a 17.809001
_cell_length_b 20.502564
_cell_length_c 16.799038
_cell_angle_alpha 90.000000
_cell_angle_beta 30.205253
_cell_angle_gamma 90.000000
_cell_volume 3085.927788
_symmetry_space_group_name_H-M "C 2/M"
_symmetry_group_IT_number 12
_symmetry_cell_setting 'monoclinic'
loop_
_space_group_symop_operation_xyz
x,y,z
-x,y,-z
-x,-y,-z
x,-y,z
1/2+x,1/2+y,z
1/2-x,1/2+y,-z
1/2-x,1/2-y,-z
1/2+x,1/2-y,z
loop_
_atom_site_type_symbol
_atom_site_label
_atom_site_fract_x
_atom_site_fract_y
_atom_site_fract_z
Si Si1 0.404545 0.570847 0.664173
Si Si2 0.820833 0.576660 0.778297
Si Si3 0.760837 0.830009 0.286407
Si Si4 0.134511 0.071650 0.586240
Si Si5 0.473774 0.623442 0.867597
Si Si6 0.906104 0.644156 0.399332
Si Si7 0.148803 0.207237 0.311739
Si Si8 0.592354 0.260509 0.184006
O O1 0.500000 0.556531 0.500000
O O2 0.328414 0.500000 0.757023
O O3 0.512811 0.597881 0.634658
O O4 0.290552 0.631709 0.751797
O O5 0.803251 0.500000 0.775057
O O6 0.818948 0.617831 0.698526
O O7 0.974797 0.588998 0.683588
O O8 0.688517 0.601421 0.956787
O O9 0.670752 0.826775 0.451316
O O10 0.766000 0.757221 0.244024
O O11 0.932046 0.852184 0.142539
O O12 0.283129 0.114934 0.452377
O O13 0.060410 0.065581 0.742564
O O14 0.183653 0.000000 0.513605
O O15 0.480548 0.678461 0.792767
O O16 0.983555 0.698774 0.273635
O O17 0.113077 0.234475 0.258515
O O18 0.000000 0.206543 0.500000
O O19 0.750000 0.250000 0.000000
#
# Coordination Sequence:
#
# PCOD8108068 Si02
#       8
#     8   8   8   8   8   8   8   8
#     4   9  19  34  58  89 121 154 196 253 318 371
#     4  12  24  41  63  89 130 182 215 254 320 391
#     4  11  23  39  61  94 127 158 216 270 312 378
#     4  10  21  38  59  92 128 160 208 266 312 375
#     4  11  24  39  61  92 123 167 217 264 320 382
#     4  11  23  39  62  91 129 164 214 262 316 377
#     4  11  19  37  64  87 124 161 202 262 315 374
#     4  12  22  39  62  88 125 165 210 263 316 379
#
# _framework density 20.739305999999999
#
# number of rings (size 3 to 8) (size 9 to 14) (size 15 to 20)
#    0.000    1.125    5.000    1.500    0.000    8.000 
#    0.000    0.000    0.000    0.000    0.000    0.875 
#    0.000   17.250    0.000    0.000    0.000    0.000 
#
# Total GULP energy -396579.003471 kJ/mol
# GULP energy per Si atom -12393.093858 kJ/mol
# Density = 2.069210 g / cm^3
# Si number density = 20.739306 Si / 1000 Ang^3
#
#
#
# Elastic Constant Matrix: (Units=GPa)
#
#
# Indices 1 2 3 4 5 6 
#
# 1 74.2108 37.9804 13.3214 0.0343 2.9783 -0.0349
# 2 37.9804 143.9876 21.6746 -0.0189 -3.2937 -0.0043
# 3 13.3214 21.6746 75.9422 -0.0072 2.5816 -0.0109
# 4 0.0343 -0.0189 -0.0072 25.5555 0.0046 -3.1932
# 5 2.9783 -3.2937 2.5816 0.0046 23.7600 0.0121
# 6 -0.0349 -0.0043 -0.0109 -3.1932 0.0121 43.7944
#
#
#
# Elastic Compliance Matrix: (Units=1/GPa)
#
#
# Indices 1 2 3 4 5 6 
#
# 1 0.015906 -0.004015 -0.001563 -0.000023 -0.002380 0.000011
# 2 -0.004015 0.008306 -0.001729 0.000010 0.001843 -0.000003
# 3 -0.001563 -0.001729 0.013989 0.000005 -0.001564 0.000003
# 4 -0.000023 0.000010 0.000005 0.039490 -0.000005 0.002879
# 5 -0.002380 0.001843 -0.001564 -0.000005 0.042811 -0.000014
# 6 0.000011 -0.000003 0.000003 0.002879 -0.000014 0.023044
#
#
# Mechanical properties :
#
#
# Convention : Reuss Voigt Hill
#
# Bulk Modulus (GPa) = 42.39661 48.89926 45.64794
# Shear Modulus (GPa) = 30.11617 33.36624 31.74120
#
# Velocity S-wave (km/s) = 3.81482 4.01539 3.91639
# Velocity P-wave (km/s) = 6.31592 6.71767 6.51989
#
# Compressibility (1/GPa) = 0.02358679
#
# Stress axis : x y z
#
# Youngs Moduli (GPa) = 62.86925 120.38805 71.48559
#
# Poissons Ratio (x) = 0.48333 0.11176
# Poissons Ratio (y) = 0.25240 0.12361
# Poissons Ratio (z) = 0.09829 0.20817
#
# Static dielectric constant tensor:
#      x y z
#    x 3.919990 0.000000 0.064090 
#    y 0.000000 4.303310 0.000150 
#    z 0.064090 0.000150 3.520140 
# 
# 
# High freq. dielectric constant tensor:
#      x y z
#    x 1.812250 0.000000 0.013540 
#    y 0.000000 1.828470 0.000010 
#    z 0.013540 0.000010 1.786690 
# 
# From -- ./inp_files/279084.got.cif
#   From: 2010.06.25/outbox.cif.g09.slc.cpg/sg12_140_cif.got.tgz:279084.got - 2010.06.28 00:19:55.
