data_PCOD8108124
_publ_section_title
;
Structure prediction by ZEFSAII (Michael W. Deem and Ramdas Pophale) SiO2 
 PCOD8108124
Probable space group: C 2/M
;
_chemical_formula_sum "Si O2"
_cell_formula_units_Z 64
_cell_length_a 14.542987
_cell_length_b 8.627399
_cell_length_c 29.150894
_cell_angle_alpha 90.000000
_cell_angle_beta 60.998469
_cell_angle_gamma 90.000000
_cell_volume 3198.881880
_symmetry_space_group_name_H-M "C 2/M"
_symmetry_group_IT_number 12
_symmetry_cell_setting 'monoclinic'
loop_
_space_group_symop_operation_xyz
x,y,z
-x,y,-z
-x,-y,-z
x,-y,z
1/2+x,1/2+y,z
1/2-x,1/2+y,-z
1/2-x,1/2-y,-z
1/2+x,1/2-y,z
loop_
_atom_site_type_symbol
_atom_site_label
_atom_site_fract_x
_atom_site_fract_y
_atom_site_fract_z
Si Si1 0.465425 0.679195 0.307608
Si Si2 0.383549 0.179374 0.236664
Si Si3 0.969397 0.318182 0.057773
Si Si4 0.888569 0.319775 0.505842
Si Si5 0.960034 0.178531 0.870429
Si Si6 0.327491 0.178649 0.418001
Si Si7 0.319645 0.179416 0.747441
Si Si8 0.736306 0.678414 0.143332
O O1 0.458334 0.500000 0.296028
O O2 0.446330 0.780795 0.267172
O O3 0.382431 0.714992 0.367183
O O4 0.582303 0.722489 0.295568
O O5 0.453093 0.216822 0.175478
O O6 0.277314 0.278844 0.261848
O O7 0.353830 0.000000 0.242535
O O8 0.990594 0.500000 0.057566
O O9 0.043404 0.227664 0.075661
O O10 0.848804 0.274084 0.096367
O O11 0.000000 0.258894 0.000000
O O12 0.869131 0.500000 0.521403
O O13 0.795547 0.221573 0.551351
O O14 0.885646 0.288740 0.452115
O O15 0.000000 0.264463 0.500000
O O16 0.845603 0.209938 0.877450
O O17 0.993051 0.000000 0.856792
O O18 0.338215 0.000000 0.401201
O O19 0.292764 0.216691 0.806504
O O20 0.347102 0.000000 0.735874
O O21 0.733699 0.500000 0.160217
#
# Coordination Sequence:
#
# PCOD8108124 Si02
#       8
#     8   8   8   8   8   8   8   8
#     4  12  25  42  62  89 128 167 208 259 311 365
#     4  12  24  40  62  89 121 159 204 253 306 369
#     4  10  22  40  61  86 119 160 204 253 308 365
#     4   9  19  38  64  90 121 164 210 255 308 367
#     4  11  22  37  60  88 118 154 199 248 303 367
#     4  10  21  38  60  90 126 162 206 259 312 366
#     4  12  24  39  62  91 121 160 205 248 305 372
#     4  10  21  38  60  85 120 158 196 246 304 361
#
# _framework density 20.006990999999999
#
# number of rings (size 3 to 8) (size 9 to 14) (size 15 to 20)
#    0.000    1.250    2.500    4.125    0.000    3.000 
#    0.000    3.750    0.000    0.000    0.000    0.000 
#    0.000    0.000    0.000    0.000    0.000    0.000 
#
# Total GULP energy -397014.750439 kJ/mol
# GULP energy per Si atom -12406.710951 kJ/mol
# Density = 1.996145 g / cm^3
# Si number density = 20.006991 Si / 1000 Ang^3
#
#
#
# Elastic Constant Matrix: (Units=GPa)
#
#
# Indices 1 2 3 4 5 6 
#
# 1 98.1126 26.3174 9.0896 0.0000 -6.0212 0.0000
# 2 26.3174 80.4412 29.9022 0.0000 -0.0573 -0.0001
# 3 9.0896 29.9022 72.8121 0.0000 -7.3745 0.0000
# 4 0.0000 0.0000 0.0000 30.4592 0.0000 1.3896
# 5 -6.0212 -0.0573 -7.3745 0.0000 24.0124 0.0000
# 6 0.0000 -0.0001 0.0000 1.3896 0.0000 30.7508
#
#
#
# Elastic Compliance Matrix: (Units=1/GPa)
#
#
# Indices 1 2 3 4 5 6 
#
# 1 0.011377 -0.003900 0.000484 0.000000 0.002992 0.000000
# 2 -0.003900 0.016090 -0.006416 0.000000 -0.002910 0.000000
# 3 0.000484 -0.006416 0.016843 0.000000 0.005279 0.000000
# 4 0.000000 0.000000 0.000000 0.032899 0.000000 -0.001487
# 5 0.002992 -0.002910 0.005279 0.000000 0.044010 0.000000
# 6 0.000000 0.000000 0.000000 -0.001487 0.000000 0.032587
#
#
# Mechanical properties :
#
#
# Convention : Reuss Voigt Hill
#
# Bulk Modulus (GPa) = 40.57186 42.44271 41.50729
# Shear Modulus (GPa) = 27.52029 29.44828 28.48429
#
# Velocity S-wave (km/s) = 3.71284 3.84070 3.77731
# Velocity P-wave (km/s) = 6.22118 6.39749 6.30995
#
# Compressibility (1/GPa) = 0.02464762
#
# Stress axis : x y z
#
# Youngs Moduli (GPa) = 87.89423 62.14935 59.37212
#
# Poissons Ratio (x) = 0.24240 -0.02877
# Poissons Ratio (y) = 0.34281 0.38091
# Poissons Ratio (z) = -0.04258 0.39873
#
# Static dielectric constant tensor:
#      x y z
#    x 3.834950 0.000000 -0.007330 
#    y 0.000000 3.581470 0.000000 
#    z -0.007330 0.000000 3.541130 
# 
# 
# High freq. dielectric constant tensor:
#      x y z
#    x 1.793520 0.000000 -0.001340 
#    y 0.000000 1.783500 0.000000 
#    z -0.001340 0.000000 1.771910 
# 
# From -- ./inp_files/374985.got.cif
#   From: 2010.06.25/outbox.cif.g09.slc.cpg/sg12_188_cif.got.tgz:374985.got - 2010.06.28 00:19:55.
