data_PCOD8108244
_publ_section_title
;
Structure prediction by ZEFSAII (Michael W. Deem and Ramdas Pophale) SiO2 
 PCOD8108244
Probable space group: C 2/M
;
_chemical_formula_sum "Si O2"
_cell_formula_units_Z 60
_cell_length_a 9.749261
_cell_length_b 14.778177
_cell_length_c 22.510039
_cell_angle_alpha 90.000000
_cell_angle_beta 66.341656
_cell_angle_gamma 90.000000
_cell_volume 2970.590225
_symmetry_space_group_name_H-M "C 2/M"
_symmetry_group_IT_number 12
_symmetry_cell_setting 'monoclinic'
loop_
_space_group_symop_operation_xyz
x,y,z
-x,y,-z
-x,-y,-z
x,-y,z
1/2+x,1/2+y,z
1/2-x,1/2+y,-z
1/2-x,1/2-y,-z
1/2+x,1/2-y,z
loop_
_atom_site_type_symbol
_atom_site_label
_atom_site_fract_x
_atom_site_fract_y
_atom_site_fract_z
Si Si1 0.513333 0.168794 0.375140
Si Si2 0.846731 0.893662 0.990454
Si Si3 0.836447 0.262126 0.187333
Si Si4 0.500000 0.739531 0.500000
Si Si5 0.812936 0.099103 0.278855
Si Si6 0.089839 0.151402 0.303355
Si Si7 0.836797 0.261986 0.899635
Si Si8 0.204099 0.097969 0.409557
O O1 0.470289 0.197242 0.449168
O O2 0.675166 0.121275 0.347082
O O3 0.515058 0.252162 0.329518
O O4 0.383456 0.104004 0.373576
O O5 0.712257 0.844870 0.049569
O O6 0.807868 0.000000 0.984032
O O7 0.863297 0.834763 0.927554
O O8 0.000000 0.887486 0.000000
O O9 0.819178 0.166471 0.222886
O O10 0.738094 0.338305 0.237250
O O11 0.790070 0.252394 0.127218
O O12 0.009434 0.292217 0.158921
O O13 0.643625 0.675881 0.463414
O O14 0.965532 0.095439 0.289974
O O15 0.788586 0.000000 0.255531
O O16 0.133086 0.103087 0.356690
O O17 0.162515 0.000000 0.443472
#
# Coordination Sequence:
#
# PCOD8108244 Si02
#       8
#     8   8   8   4   8   8   8   8
#     4  10  21  39  60  83 113 155 197 238 296 361
#     4  10  22  41  66  93 125 166 207 249 302 359
#     4  11  22  39  63  89 122 162 203 239 299 358
#     4  10  21  38  61  80 112 158 198 234 293 374
#     4  11  23  39  60  88 120 154 196 247 300 358
#     4  10  21  39  60  83 118 157 192 235 301 361
#     4  11  22  41  65  94 126 163 202 255 299 352
#     4  11  22  37  58  87 116 146 193 252 298 340
#
# _framework density 20.198005999999999
#
# number of rings (size 3 to 8) (size 9 to 14) (size 15 to 20)
#    0.000    1.467    2.667    3.800    1.867    2.133 
#    0.000    6.667    0.000    0.000    0.000    0.000 
#    0.000    0.000    0.000    0.000    0.000    0.000 
#
# Total GULP energy -372015.633426 kJ/mol
# GULP energy per Si atom -12400.521114 kJ/mol
# Density = 2.015203 g / cm^3
# Si number density = 20.198006 Si / 1000 Ang^3
#
#
#
# Elastic Constant Matrix: (Units=GPa)
#
#
# Indices 1 2 3 4 5 6 
#
# 1 87.4426 42.1017 25.1900 0.0000 -8.4580 0.0000
# 2 42.1017 112.1855 29.4274 0.0000 -3.0292 0.0000
# 3 25.1900 29.4274 86.3582 0.0000 -7.3923 0.0000
# 4 0.0000 0.0000 0.0000 1.8921 0.0000 13.0226
# 5 -8.4580 -3.0292 -7.3923 0.0000 34.5653 0.0000
# 6 0.0000 0.0000 0.0000 13.0226 0.0000 -2.8078
#
#
#
# Elastic Compliance Matrix: (Units=1/GPa)
#
#
# Indices 1 2 3 4 5 6 
#
# 1 0.014708 -0.004813 -0.002423 0.000000 0.002659 0.000000
# 2 -0.004813 0.011364 -0.002531 0.000000 -0.000723 0.000000
# 3 -0.002423 -0.002531 0.013323 0.000000 0.002035 0.000000
# 4 0.000000 0.000000 0.000000 0.016053 0.000000 0.074457
# 5 0.002659 -0.000723 0.002035 0.000000 0.029953 0.000000
# 6 0.000000 0.000000 0.000000 0.074457 0.000000 -0.010818
#
#
# Mechanical properties :
#
#
# Convention : Reuss Voigt Hill
#
# Bulk Modulus (GPa) = 50.34318 53.26942 51.80630
# Shear Modulus (GPa) = 49.63440 19.34775 34.49108
#
# Velocity S-wave (km/s) = 4.96259 3.09836 4.13685
# Velocity P-wave (km/s) = 7.60364 6.26344 6.96584
#
# Compressibility (1/GPa) = 0.01986366
#
# Stress axis : x y z
#
# Youngs Moduli (GPa) = 67.98862 87.99603 75.05897
#
# Poissons Ratio (x) = 0.42348 0.18185
# Poissons Ratio (y) = 0.32720 0.18994
# Poissons Ratio (z) = 0.16472 0.22268
#
# Static dielectric constant tensor:
#      x y z
#    x 3.664400 0.000000 -0.163340 
#    y 0.000000 3.644210 0.000000 
#    z -0.163340 0.000000 3.681690 
# 
# 
# High freq. dielectric constant tensor:
#      x y z
#    x 1.797480 0.000000 -0.007860 
#    y 0.000000 1.778620 0.000000 
#    z -0.007860 0.000000 1.789580 
# 
# From -- ./inp_files/332910.got.cif
#   From: 2010.06.25/outbox.cif.g09.slc.cpg/sg12_167_cif.got.tgz:332910.got - 2010.06.28 00:19:55.
