data_PCOD8108750
_publ_section_title
;
Structure prediction by ZEFSAII (Michael W. Deem and Ramdas Pophale) SiO2 
 PCOD8108750
Probable space group: C 2/M
;
_chemical_formula_sum "Si O2"
_cell_formula_units_Z 56
_cell_length_a 12.829202
_cell_length_b 15.768695
_cell_length_c 14.874075
_cell_angle_alpha 90.000000
_cell_angle_beta 57.137016
_cell_angle_gamma 90.000000
_cell_volume 2527.490040
_symmetry_space_group_name_H-M "C 2/M"
_symmetry_group_IT_number 12
_symmetry_cell_setting 'monoclinic'
loop_
_space_group_symop_operation_xyz
x,y,z
-x,y,-z
-x,-y,-z
x,-y,z
1/2+x,1/2+y,z
1/2-x,1/2+y,-z
1/2-x,1/2-y,-z
1/2+x,1/2-y,z
loop_
_atom_site_type_symbol
_atom_site_label
_atom_site_fract_x
_atom_site_fract_y
_atom_site_fract_z
Si Si1 0.402802 0.403049 0.974223
Si Si2 0.784362 0.754632 0.381489
Si Si3 0.031062 0.595118 0.890495
Si Si4 0.438748 0.685770 0.768513
Si Si5 0.795348 0.904450 0.694092
Si Si6 0.377305 0.094925 0.611675
Si Si7 0.644852 0.142017 0.180626
O O1 0.435823 0.500000 0.938748
O O2 0.420207 0.354598 0.873818
O O3 0.500000 0.364514 0.000000
O O4 0.265940 0.397462 0.079288
O O5 0.750000 0.750000 0.500000
O O6 0.729719 0.666043 0.369723
O O7 0.728124 0.837446 0.360387
O O8 0.930617 0.766435 0.302479
O O9 0.976057 0.500000 0.916218
O O10 0.968225 0.642769 0.837167
O O11 0.178645 0.594697 0.814861
O O12 0.000000 0.640189 0.000000
O O13 0.415675 0.618808 0.698665
O O14 0.333837 0.758979 0.805566
O O15 0.815000 0.000000 0.643865
O O16 0.500000 0.122387 0.500000
O O17 0.397501 0.092277 0.709879
O O18 0.337069 0.000000 0.600000
#
# Coordination Sequence:
#
# PCOD8108750 Si02
#       7
#     8   8   8   8   8   8   8
#     4  11  25  42  65 100 143 186 232 288 355 433
#     4  12  27  48  73 102 142 184 238 302 362 425
#     4  10  21  38  65 100 138 181 232 286 343 414
#     4  12  25  44  69 102 139 188 234 294 358 429
#     4  11  25  46  71 104 144 188 236 290 358 428
#     4  11  25  45  74 106 138 182 241 296 355 426
#     4  12  22  42  69 100 139 188 235 288 355 420
#
# _framework density 22.156369000000002
#
# number of rings (size 3 to 8) (size 9 to 14) (size 15 to 20)
#    0.000    0.714    2.857    4.714    0.000    4.571 
#    0.000    0.714    0.000    0.000    0.000    0.000 
#    0.000    0.000    0.000    0.000    0.000    0.000 
#
# Total GULP energy -347185.472696 kJ/mol
# GULP energy per Si atom -12399.481168 kJ/mol
# Density = 2.210594 g / cm^3
# Si number density = 22.156369 Si / 1000 Ang^3
#
#
#
# Elastic Constant Matrix: (Units=GPa)
#
#
# Indices 1 2 3 4 5 6 
#
# 1 108.6187 41.8781 41.8688 0.0000 11.6976 0.0000
# 2 41.8781 138.6752 35.6481 0.0000 9.4441 0.0000
# 3 41.8688 35.6481 147.1879 0.0000 20.1092 0.0000
# 4 0.0000 0.0000 0.0000 27.3366 0.0000 4.0835
# 5 11.6976 9.4441 20.1092 0.0000 32.1907 0.0000
# 6 0.0000 0.0000 0.0000 4.0835 0.0000 33.4746
#
#
#
# Elastic Compliance Matrix: (Units=1/GPa)
#
#
# Indices 1 2 3 4 5 6 
#
# 1 0.011344 -0.002702 -0.002315 0.000000 -0.001883 0.000000
# 2 -0.002702 0.008376 -0.001157 0.000000 -0.000753 0.000000
# 3 -0.002315 -0.001157 0.008278 0.000000 -0.003990 0.000000
# 4 0.000000 0.000000 0.000000 0.037260 0.000000 -0.004545
# 5 -0.001883 -0.000753 -0.003990 0.000000 0.034463 0.000000
# 6 0.000000 0.000000 0.000000 -0.004545 0.000000 0.030428
#
#
# Mechanical properties :
#
#
# Convention : Reuss Voigt Hill
#
# Bulk Modulus (GPa) = 63.90329 70.36353 67.13341
# Shear Modulus (GPa) = 33.84948 36.93951 35.39450
#
# Velocity S-wave (km/s) = 3.91289 4.08759 4.00119
# Velocity P-wave (km/s) = 7.02274 7.35558 7.19108
#
# Compressibility (1/GPa) = 0.01564865
#
# Stress axis : x y z
#
# Youngs Moduli (GPa) = 88.15600 119.39110 120.80228
#
# Poissons Ratio (x) = 0.32262 0.27966
# Poissons Ratio (y) = 0.23822 0.13978
# Poissons Ratio (z) = 0.20408 0.13815
#
# Static dielectric constant tensor:
#      x y z
#    x 3.842400 0.000000 0.126810 
#    y 0.000000 4.278350 0.000000 
#    z 0.126810 0.000000 3.964890 
# 
# 
# High freq. dielectric constant tensor:
#      x y z
#    x 1.869740 0.000000 0.008130 
#    y 0.000000 1.888630 0.000000 
#    z 0.008130 0.000000 1.873800 
# 
# From -- ./inp_files/206586.got.cif
#   From: 2010.06.25/outbox.cif.g09.slc.cpg/sg12_104_cif.got.tgz:206586.got - 2010.06.28 00:19:55.
