data_PCOD8108944
_publ_section_title
;
Structure prediction by ZEFSAII (Michael W. Deem and Ramdas Pophale) SiO2 
 PCOD8108944
Probable space group: C 2/M
;
_chemical_formula_sum "Si O2"
_cell_formula_units_Z 48
_cell_length_a 29.507685
_cell_length_b 8.852967
_cell_length_c 18.654650
_cell_angle_alpha 90.000000
_cell_angle_beta 30.138711
_cell_angle_gamma 90.000000
_cell_volume 2446.792352
_symmetry_space_group_name_H-M "C 2/M"
_symmetry_group_IT_number 12
_symmetry_cell_setting 'monoclinic'
loop_
_space_group_symop_operation_xyz
x,y,z
-x,y,-z
-x,-y,-z
x,-y,z
1/2+x,1/2+y,z
1/2-x,1/2+y,-z
1/2-x,1/2-y,-z
1/2+x,1/2-y,z
loop_
_atom_site_type_symbol
_atom_site_label
_atom_site_fract_x
_atom_site_fract_y
_atom_site_fract_z
Si Si1 0.798061 0.321659 0.646043
Si Si2 0.498555 0.822584 0.419126
Si Si3 0.015011 0.665547 0.896869
Si Si4 0.855288 0.822521 0.038007
Si Si5 0.284440 0.179597 0.381193
Si Si6 0.154970 0.179950 0.109603
O O1 0.786743 0.500000 0.651796
O O2 0.733840 0.261406 0.798568
O O3 0.770871 0.241305 0.610195
O O4 0.901018 0.277646 0.521592
O O5 0.500000 0.772489 0.500000
O O6 0.575686 0.736034 0.270006
O O7 0.517862 0.000000 0.385652
O O8 0.008246 0.500000 0.868591
O O9 0.113340 0.737579 0.757409
O O10 0.000000 0.643510 0.000000
O O11 0.944605 0.777644 0.957884
O O12 0.848922 0.000000 0.044282
O O13 0.862600 0.760934 0.947188
O O14 0.250000 0.250000 0.500000
O O15 0.277473 0.000000 0.389897
O O16 0.160174 0.000000 0.107134
O O17 0.250000 0.250000 0.000000
#
# Coordination Sequence:
#
# PCOD8108944 Si02
#       6
#     8   8   8   8   8   8
#     4  10  21  39  62  88 119 160 202 243 302 359
#     4  10  22  42  66  90 123 162 200 248 304 362
#     4  10  21  39  60  86 119 158 202 247 297 351
#     4  10  22  39  62  90 121 157 201 250 296 354
#     4  11  24  40  59  85 121 160 202 251 300 356
#     4  11  24  42  64  94 125 157 201 249 301 361
#
# _framework density 19.617521
#
# number of rings (size 3 to 8) (size 9 to 14) (size 15 to 20)
#    0.000    1.667    1.667    2.000    2.333    6.667 
#    0.000    1.667    0.000    0.000    0.000    0.000 
#    0.000    0.000    0.000    0.000    0.000    0.000 
#
# Total GULP energy -297564.823623 kJ/mol
# GULP energy per Si atom -12398.534318 kJ/mol
# Density = 1.957287 g / cm^3
# Si number density = 19.617521 Si / 1000 Ang^3
#
#
#
# Elastic Constant Matrix: (Units=GPa)
#
#
# Indices 1 2 3 4 5 6 
#
# 1 147.9725 47.1197 95.3808 -0.0042 0.6660 0.0014
# 2 47.1197 44.3937 51.6138 0.0047 1.4796 0.0028
# 3 95.3808 51.6138 182.1252 0.0024 -3.2007 0.0016
# 4 -0.0042 0.0047 0.0024 43.0015 0.0007 -1.5522
# 5 0.6660 1.4796 -3.2007 0.0007 41.6099 -0.0010
# 6 0.0014 0.0028 0.0016 -1.5522 -0.0010 34.4662
#
#
#
# Elastic Compliance Matrix: (Units=1/GPa)
#
#
# Indices 1 2 3 4 5 6 
#
# 1 0.011841 -0.007975 -0.003945 0.000002 -0.000209 0.000000
# 2 -0.007975 0.039121 -0.006942 -0.000005 -0.001797 -0.000003
# 3 -0.003945 -0.006942 0.009542 0.000000 0.001044 0.000000
# 4 0.000002 -0.000005 0.000000 0.023293 0.000000 0.001049
# 5 -0.000209 -0.001797 0.001044 0.000000 0.024180 0.000001
# 6 0.000000 -0.000003 0.000000 0.001049 0.000001 0.029061
#
#
# Mechanical properties :
#
#
# Convention : Reuss Voigt Hill
#
# Bulk Modulus (GPa) = 43.89563 84.74667 64.32115
# Shear Modulus (GPa) = 27.41880 35.84064 31.62972
#
# Velocity S-wave (km/s) = 3.74260 4.27895 4.01973
# Velocity P-wave (km/s) = 6.41096 8.22835 7.37584
#
# Compressibility (1/GPa) = 0.02278131
#
# Stress axis : x y z
#
# Youngs Moduli (GPa) = 84.44976 25.56168 104.79462
#
# Poissons Ratio (x) = 0.20385 0.41342
# Poissons Ratio (y) = 0.67347 0.72747
# Poissons Ratio (z) = 0.33316 0.17745
#
# Static dielectric constant tensor:
#      x y z
#    x 3.693630 -0.000010 0.049110 
#    y -0.000010 3.749770 -0.000040 
#    z 0.049110 -0.000040 3.777460 
# 
# 
# High freq. dielectric constant tensor:
#      x y z
#    x 1.777280 0.000000 -0.000400 
#    y 0.000000 1.756140 0.000000 
#    z -0.000400 0.000000 1.784000 
# 
# From -- ./inp_files/244770.got.cif
#   From: 2010.06.25/outbox.cif.g09.slc.cpg/sg12_123_cif.got.tgz:244770.got - 2010.06.28 00:19:55.
