data_PCOD8108165
_publ_section_title
;
Structure prediction by ZEFSAII (Michael W. Deem and Ramdas Pophale) SiO2 
 PCOD8108165
Probable space group: C 2/M
;
_chemical_formula_sum "Si O2"
_cell_formula_units_Z 64
_cell_length_a 14.505040
_cell_length_b 8.751166
_cell_length_c 32.693033
_cell_angle_alpha 90.000000
_cell_angle_beta 128.691192
_cell_angle_gamma 90.000000
_cell_volume 3239.125141
_symmetry_space_group_name_H-M "C 2/M"
_symmetry_group_IT_number 12
_symmetry_cell_setting 'monoclinic'
loop_
_space_group_symop_operation_xyz
x,y,z
-x,y,-z
-x,-y,-z
x,-y,z
1/2+x,1/2+y,z
1/2-x,1/2+y,-z
1/2-x,1/2-y,-z
1/2+x,1/2-y,z
loop_
_atom_site_type_symbol
_atom_site_label
_atom_site_fract_x
_atom_site_fract_y
_atom_site_fract_z
Si Si1 0.802284 0.181149 0.140966
Si Si2 0.669530 0.678389 0.943386
Si Si3 0.195259 0.178360 0.397588
Si Si4 0.087873 0.319277 0.490875
Si Si5 0.902684 0.819322 0.860526
Si Si6 0.448963 0.177903 0.788095
Si Si7 0.986910 0.679330 0.377646
Si Si8 0.754461 0.176446 0.331664
O O1 0.784995 0.230164 0.088786
O O2 0.693244 0.241060 0.137110
O O3 0.924860 0.253852 0.190291
O O4 0.811965 0.000000 0.148239
O O5 0.682118 0.500000 0.951164
O O6 0.533313 0.727084 0.912548
O O7 0.750000 0.750000 0.000000
O O8 0.279252 0.225816 0.459075
O O9 0.075743 0.277524 0.365772
O O10 0.259397 0.218309 0.373120
O O11 0.165629 0.000000 0.390425
O O12 0.073672 0.500000 0.486625
O O13 0.050998 0.256347 0.436380
O O14 0.000000 0.247241 0.500000
O O15 0.890892 0.762231 0.810807
O O16 0.883169 0.000000 0.855951
O O17 0.364112 0.206377 0.726356
O O18 0.462385 0.000000 0.802491
O O19 0.961573 0.500000 0.371258
O O20 0.866146 0.769906 0.335814
O O21 0.766652 0.000000 0.347204
#
# Coordination Sequence:
#
# PCOD8108165 Si02
#       8
#     8   8   8   8   8   8   8   8
#     4  10  21  38  60  87 117 152 196 239 284 338
#     4   9  20  36  55  84 121 158 195 237 281 330
#     4  11  22  38  60  84 114 148 184 228 279 336
#     4   9  17  34  58  83 110 144 184 225 274 333
#     4  10  21  38  60  87 117 152 196 239 284 338
#     4  10  22  40  61  83 111 147 188 240 291 339
#     4  11  22  38  60  84 114 148 184 228 279 336
#     4  11  24  41  59  84 114 145 188 234 284 342
#
# _framework density 19.758421999999999
#
# number of rings (size 3 to 8) (size 9 to 14) (size 15 to 20)
#    0.000    1.875    1.250    3.375    0.000    6.500 
#    0.000    5.000    0.000    0.000    0.000    0.000 
#    0.000    0.000    0.000    0.000    0.000    0.000 
#
# Total GULP energy -396829.238438 kJ/mol
# GULP energy per Si atom -12400.913701 kJ/mol
# Density = 1.971345 g / cm^3
# Si number density = 19.758422 Si / 1000 Ang^3
#
#
#
# Elastic Constant Matrix: (Units=GPa)
#
#
# Indices 1 2 3 4 5 6 
#
# 1 113.5923 25.0740 25.0296 0.0000 15.1133 0.0000
# 2 25.0740 61.2127 46.7585 0.0000 11.2719 0.0000
# 3 25.0296 46.7585 82.9640 0.0000 13.9619 0.0000
# 4 0.0000 0.0000 0.0000 30.9705 0.0000 0.8382
# 5 15.1133 11.2719 13.9619 0.0000 20.8914 0.0000
# 6 0.0000 0.0000 0.0000 0.8382 0.0000 38.0929
#
#
#
# Elastic Compliance Matrix: (Units=1/GPa)
#
#
# Indices 1 2 3 4 5 6 
#
# 1 0.010279 -0.002692 -0.000650 0.000000 -0.005549 0.000000
# 2 -0.002692 0.029915 -0.015390 0.000000 -0.003907 0.000000
# 3 -0.000650 -0.015390 0.021911 0.000000 -0.005870 0.000000
# 4 0.000000 0.000000 0.000000 0.032308 0.000000 -0.000711
# 5 -0.005549 -0.003907 -0.005870 0.000000 0.057912 0.000000
# 6 0.000000 0.000000 0.000000 -0.000711 0.000000 0.026267
#
#
# Mechanical properties :
#
#
# Convention : Reuss Voigt Hill
#
# Bulk Modulus (GPa) = 40.58358 50.16591 45.37474
# Shear Modulus (GPa) = 22.29446 28.71808 25.50627
#
# Velocity S-wave (km/s) = 3.36274 3.81656 3.59682
# Velocity P-wave (km/s) = 5.97175 6.69823 6.34540
#
# Compressibility (1/GPa) = 0.02464051
#
# Stress axis : x y z
#
# Youngs Moduli (GPa) = 97.28353 33.42810 45.63873
#
# Poissons Ratio (x) = 0.09000 0.02966
# Poissons Ratio (y) = 0.26191 0.70239
# Poissons Ratio (z) = 0.06323 0.51447
#
# Static dielectric constant tensor:
#      x y z
#    x 3.662670 0.000000 0.102090 
#    y 0.000000 3.491900 0.000000 
#    z 0.102090 0.000000 3.039070 
# 
# 
# High freq. dielectric constant tensor:
#      x y z
#    x 1.780390 0.000000 0.007010 
#    y 0.000000 1.769130 0.000000 
#    z 0.007010 0.000000 1.763280 
# 
# From -- ./inp_files/375667.got.cif
#   From: 2010.06.25/outbox.cif.g09.slc.cpg/sg12_188_cif.got.tgz:375667.got - 2010.06.28 00:19:55.
