data_PCOD8108171
_publ_section_title
;
Structure prediction by ZEFSAII (Michael W. Deem and Ramdas Pophale) SiO2 
 PCOD8108171
Probable space group: C 2/M
;
_chemical_formula_sum "Si O2"
_cell_formula_units_Z 64
_cell_length_a 20.011795
_cell_length_b 9.138531
_cell_length_c 32.832903
_cell_angle_alpha 90.000000
_cell_angle_beta 146.553133
_cell_angle_gamma 90.000000
_cell_volume 3309.421823
_symmetry_space_group_name_H-M "C 2/M"
_symmetry_group_IT_number 12
_symmetry_cell_setting 'monoclinic'
loop_
_space_group_symop_operation_xyz
x,y,z
-x,y,-z
-x,-y,-z
x,-y,z
1/2+x,1/2+y,z
1/2-x,1/2+y,-z
1/2-x,1/2-y,-z
1/2+x,1/2-y,z
loop_
_atom_site_type_symbol
_atom_site_label
_atom_site_fract_x
_atom_site_fract_y
_atom_site_fract_z
Si Si1 0.455658 0.333343 0.780517
Si Si2 0.053475 0.669143 0.306158
Si Si3 0.135882 0.325867 0.062842
Si Si4 0.997394 0.331469 0.451900
Si Si5 0.273605 0.668868 0.053589
Si Si6 0.325193 0.673773 0.226888
Si Si7 0.271113 0.833412 0.281589
Si Si8 0.785524 0.831052 0.477606
O O1 0.441492 0.500000 0.757312
O O2 0.431309 0.221807 0.732009
O O3 0.588329 0.304663 0.864723
O O4 0.362596 0.301270 0.769550
O O5 0.015065 0.500000 0.287649
O O6 0.183000 0.695837 0.392119
O O7 0.953567 0.760856 0.279396
O O8 0.135197 0.500000 0.062257
O O9 0.188909 0.267874 0.046821
O O10 0.221306 0.270230 0.143005
O O11 0.000000 0.263528 0.000000
O O12 0.038044 0.500000 0.468350
O O13 0.088010 0.230759 0.473327
O O14 0.000000 0.281726 0.500000
O O15 0.864341 0.305276 0.365839
O O16 0.243761 0.500000 0.031453
O O17 0.250000 0.750000 0.000000
O O18 0.335877 0.500000 0.231301
O O19 0.293352 0.724097 0.255935
O O20 0.283269 0.000000 0.271876
O O21 0.750000 0.750000 0.500000
O O22 0.802983 0.000000 0.496761
#
# Coordination Sequence:
#
# PCOD8108171 Si02
#       8
#     8   8   8   8   8   8   8   8
#     4  10  21  40  62  85 117 157 199 239 287 349
#     4  11  23  39  60  86 117 150 193 246 295 342
#     4   9  19  37  59  84 116 152 191 236 282 338
#     4  10  21  39  61  85 114 154 197 238 293 354
#     4  10  21  38  60  87 119 153 193 237 286 344
#     4  11  22  38  61  86 116 156 199 237 288 353
#     4  10  22  38  58  86 120 152 191 246 295 340
#     4  11  24  39  58  86 117 152 192 241 294 348
#
# _framework density 19.338725
#
# number of rings (size 3 to 8) (size 9 to 14) (size 15 to 20)
#    0.000    1.750    1.250    2.625    1.750    7.750 
#    0.000    0.000    0.000    1.875    0.000    0.000 
#    0.000    0.000    0.000    0.000    0.000    0.000 
#
# Total GULP energy -396932.392937 kJ/mol
# GULP energy per Si atom -12404.137279 kJ/mol
# Density = 1.929471 g / cm^3
# Si number density = 19.338725 Si / 1000 Ang^3
#
#
#
# Elastic Constant Matrix: (Units=GPa)
#
#
# Indices 1 2 3 4 5 6 
#
# 1 108.8061 36.1354 43.8846 0.0001 -1.4391 -0.0002
# 2 36.1354 68.1378 35.1417 0.0002 -4.0039 -0.0002
# 3 43.8846 35.1417 72.8360 0.0000 -3.0815 0.0000
# 4 0.0001 0.0002 0.0000 28.5628 0.0000 -5.8098
# 5 -1.4391 -4.0039 -3.0815 0.0000 43.7205 0.0000
# 6 -0.0002 -0.0002 0.0000 -5.8098 0.0000 36.4888
#
#
#
# Elastic Compliance Matrix: (Units=1/GPa)
#
#
# Indices 1 2 3 4 5 6 
#
# 1 0.012827 -0.003766 -0.005926 0.000000 -0.000340 0.000000
# 2 -0.003766 0.020699 -0.007666 0.000000 0.001231 0.000000
# 3 -0.005926 -0.007666 0.021023 0.000000 0.000585 0.000000
# 4 0.000000 0.000000 0.000000 0.036182 0.000000 0.005761
# 5 -0.000340 0.001231 0.000585 0.000000 0.023015 0.000000
# 6 0.000000 0.000000 0.000000 0.005761 0.000000 0.028323
#
#
# Mechanical properties :
#
#
# Convention : Reuss Voigt Hill
#
# Bulk Modulus (GPa) = 50.41816 53.34479 51.88148
# Shear Modulus (GPa) = 27.26332 30.72896 28.99614
#
# Velocity S-wave (km/s) = 3.75878 3.99053 3.87639
# Velocity P-wave (km/s) = 6.70563 6.99119 6.84990
#
# Compressibility (1/GPa) = 0.01983412
#
# Stress axis : x y z
#
# Youngs Moduli (GPa) = 77.96067 48.31052 47.56713
#
# Poissons Ratio (x) = 0.18196 0.28186
# Poissons Ratio (y) = 0.29363 0.36463
# Poissons Ratio (z) = 0.46196 0.37033
#
# Static dielectric constant tensor:
#      x y z
#    x 3.855450 0.000000 0.033740 
#    y 0.000000 3.455280 0.000000 
#    z 0.033740 0.000000 3.559860 
# 
# 
# High freq. dielectric constant tensor:
#      x y z
#    x 1.766680 0.000000 0.002810 
#    y 0.000000 1.740080 0.000000 
#    z 0.002810 0.000000 1.764630 
# 
# From -- ./inp_files/378368.got.cif
#   From: 2010.06.25/outbox.cif.g09.slc.cpg/sg12_190_cif.got.tgz:378368.got - 2010.06.28 00:19:55.
