data_PCOD8108716
_publ_section_title
;
Structure prediction by ZEFSAII (Michael W. Deem and Ramdas Pophale) SiO2 
 PCOD8108716
Probable space group: C 2/M
;
_chemical_formula_sum "Si O2"
_cell_formula_units_Z 56
_cell_length_a 9.636709
_cell_length_b 28.991544
_cell_length_c 11.777347
_cell_angle_alpha 90.000000
_cell_angle_beta 53.891631
_cell_angle_gamma 90.000000
_cell_volume 2658.319757
_symmetry_space_group_name_H-M "C 2/M"
_symmetry_group_IT_number 12
_symmetry_cell_setting 'monoclinic'
loop_
_space_group_symop_operation_xyz
x,y,z
-x,y,-z
-x,-y,-z
x,-y,z
1/2+x,1/2+y,z
1/2-x,1/2+y,-z
1/2-x,1/2-y,-z
1/2+x,1/2-y,z
loop_
_atom_site_type_symbol
_atom_site_label
_atom_site_fract_x
_atom_site_fract_y
_atom_site_fract_z
Si Si1 0.345028 0.052597 0.744713
Si Si2 0.275245 0.204731 0.852154
Si Si3 0.477602 0.859488 0.387472
Si Si4 0.471650 0.292649 0.827283
Si Si5 0.533380 0.553267 0.730870
Si Si6 0.906078 0.859529 0.430298
Si Si7 0.662655 0.054191 0.989621
O O1 0.486869 0.085501 0.619135
O O2 0.156731 0.059859 0.780557
O O3 0.407493 0.000000 0.698474
O O4 0.339399 0.067403 0.878217
O O5 0.382499 0.159869 0.766985
O O6 0.410825 0.246243 0.795308
O O7 0.138586 0.218282 0.821741
O O8 0.183648 0.191463 0.015069
O O9 0.500000 0.836670 0.500000
O O10 0.287062 0.846500 0.442824
O O11 0.515292 0.331327 0.713185
O O12 0.535748 0.500000 0.688996
O O13 0.594121 0.586022 0.599177
O O14 0.343032 0.571342 0.852249
O O15 0.000000 0.847522 0.500000
O O16 0.654856 0.000000 0.977990
O O17 0.500000 0.076515 0.000000
#
# Coordination Sequence:
#
# PCOD8108716 Si02
#       7
#     8   8   8   8   8   8   8
#     4  10  21  38  64  92 126 173 223 269 318 383
#     4  10  23  44  74  98 130 165 215 266 325 388
#     4  12  24  44  63  98 133 171 216 265 328 386
#     4  10  23  46  70 101 128 169 212 266 326 389
#     4  10  21  40  63  90 128 174 224 269 319 382
#     4  12  28  44  62  97 138 174 218 266 329 389
#     4   9  19  35  57  89 123 163 216 272 325 372
#
# _framework density 21.065937000000002
#
# number of rings (size 3 to 8) (size 9 to 14) (size 15 to 20)
#    0.000    1.571    2.857    0.429    6.000    4.000 
#    0.000    0.000    0.000    0.000    0.000    0.000 
#    0.000    0.000    0.000    0.000    0.000    0.000 
#
# Total GULP energy -347156.780345 kJ/mol
# GULP energy per Si atom -12398.456441 kJ/mol
# Density = 2.101799 g / cm^3
# Si number density = 21.065937 Si / 1000 Ang^3
#
#
#
# Elastic Constant Matrix: (Units=GPa)
#
#
# Indices 1 2 3 4 5 6 
#
# 1 154.5826 37.0725 51.8094 0.0000 -6.0838 0.0000
# 2 37.0725 92.6470 46.7031 0.0000 -5.8431 0.0000
# 3 51.8094 46.7031 92.5331 0.0000 -7.1671 0.0000
# 4 0.0000 0.0000 0.0000 67.6392 0.0000 -38.5670
# 5 -6.0838 -5.8431 -7.1671 0.0000 35.1361 0.0000
# 6 0.0000 0.0000 0.0000 -38.5670 0.0000 60.0131
#
#
#
# Elastic Compliance Matrix: (Units=1/GPa)
#
#
# Indices 1 2 3 4 5 6 
#
# 1 0.008080 -0.001265 -0.003855 0.000000 0.000402 0.000000
# 2 -0.001265 0.014705 -0.006646 0.000000 0.000871 0.000000
# 3 -0.003855 -0.006646 0.016442 0.000000 0.001581 0.000000
# 4 0.000000 0.000000 0.000000 0.023335 0.000000 0.014996
# 5 0.000402 0.000871 0.001581 0.000000 0.028998 0.000000
# 6 0.000000 0.000000 0.000000 0.014996 0.000000 0.026300
#
#
# Mechanical properties :
#
#
# Convention : Reuss Voigt Hill
#
# Bulk Modulus (GPa) = 63.71057 67.88144 65.79601
# Shear Modulus (GPa) = 34.10102 46.16951 40.13527
#
# Velocity S-wave (km/s) = 4.02777 4.68660 4.36962
# Velocity P-wave (km/s) = 7.20691 7.84722 7.53387
#
# Compressibility (1/GPa) = 0.01569598
#
# Stress axis : x y z
#
# Youngs Moduli (GPa) = 123.76144 68.00373 60.81960
#
# Poissons Ratio (x) = 0.08601 0.23443
# Poissons Ratio (y) = 0.15653 0.40423
# Poissons Ratio (z) = 0.47704 0.45197
#
# Static dielectric constant tensor:
#      x y z
#    x 4.060370 0.000000 -0.096860 
#    y 0.000000 3.667120 0.000000 
#    z -0.096860 0.000000 4.475970 
# 
# 
# High freq. dielectric constant tensor:
#      x y z
#    x 1.836950 0.000000 -0.005080 
#    y 0.000000 1.812510 0.000000 
#    z -0.005080 0.000000 1.825010 
# 
# From -- ./inp_files/125590.got.cif
#   From: 2010.06.25/outbox.cif.g09.slc.cpg/sg12_63_cif.got.tgz:125590.got - 2010.06.28 00:19:55.
