data_PCOD8108532
_publ_section_title
;
Structure prediction by ZEFSAII (Michael W. Deem and Ramdas Pophale) SiO2 
 PCOD8108532
Probable space group: C 2/M
;
_chemical_formula_sum "Si O2"
_cell_formula_units_Z 64
_cell_length_a 30.345250
_cell_length_b 8.761484
_cell_length_c 16.215369
_cell_angle_alpha 90.000000
_cell_angle_beta 46.802566
_cell_angle_gamma 90.000000
_cell_volume 3142.840420
_symmetry_space_group_name_H-M "C 2/M"
_symmetry_group_IT_number 12
_symmetry_cell_setting 'monoclinic'
loop_
_space_group_symop_operation_xyz
x,y,z
-x,y,-z
-x,-y,-z
x,-y,z
1/2+x,1/2+y,z
1/2-x,1/2+y,-z
1/2-x,1/2-y,-z
1/2+x,1/2-y,z
loop_
_atom_site_type_symbol
_atom_site_label
_atom_site_fract_x
_atom_site_fract_y
_atom_site_fract_z
Si Si1 0.774603 0.826240 0.049665
Si Si2 0.157973 0.326798 0.306732
Si Si3 0.384589 0.180240 0.999019
Si Si4 0.492094 0.680770 0.763393
Si Si5 0.294319 0.320591 0.601345
Si Si6 0.377309 0.319356 0.348535
Si Si7 0.953253 0.820779 0.630211
Si Si8 0.836066 0.180969 0.224222
O O1 0.724593 0.817824 0.183991
O O2 0.833050 0.734993 0.003023
O O3 0.793684 0.000000 0.006728
O O4 0.750000 0.750000 0.000000
O O5 0.141185 0.500000 0.351261
O O6 0.157631 0.222542 0.388906
O O7 0.110089 0.263738 0.302315
O O8 0.376102 0.248829 0.100603
O O9 0.382744 0.000000 0.007602
O O10 0.448322 0.235049 0.882686
O O11 0.485629 0.500000 0.783606
O O12 0.558761 0.741968 0.700335
O O13 0.478572 0.728438 0.686646
O O14 0.281217 0.500000 0.620519
O O15 0.323385 0.266385 0.477913
O O16 0.233168 0.229480 0.694689
O O17 0.379563 0.500000 0.345080
O O18 0.363453 0.256734 0.275031
O O19 0.000000 0.767827 0.500000
O O20 0.941424 0.000000 0.640541
O O21 0.839465 0.000000 0.213062
#
# Coordination Sequence:
#
# PCOD8108532 Si02
#       8
#     8   8   8   8   8   8   8   8
#     4  11  23  39  60  87 120 156 201 249 302 364
#     4  11  23  37  57  87 122 159 200 246 300 361
#     4  12  25  41  61  88 124 164 207 257 311 365
#     4  10  21  41  65  89 121 163 210 256 307 366
#     4  11  21  38  64  94 126 159 202 253 309 373
#     4   9  21  40  65  93 121 160 207 255 309 375
#     4  10  21  38  62  90 122 162 207 252 301 363
#     4  11  22  40  64  92 125 161 205 255 313 371
#
# _framework density 20.363745000000002
#
# number of rings (size 3 to 8) (size 9 to 14) (size 15 to 20)
#    0.000    1.375    1.250    4.500    0.000    6.750 
#    0.000    8.125    0.000    0.000    0.000    0.000 
#    0.000    0.000    0.000    0.000    0.000    0.000 
#
# Total GULP energy -396969.953770 kJ/mol
# GULP energy per Si atom -12405.311055 kJ/mol
# Density = 2.031740 g / cm^3
# Si number density = 20.363745 Si / 1000 Ang^3
#
#
#
# Elastic Constant Matrix: (Units=GPa)
#
#
# Indices 1 2 3 4 5 6 
#
# 1 120.7410 32.6710 45.4450 -0.0008 16.6832 0.0001
# 2 32.6710 87.4338 43.9793 -0.0044 6.9699 0.0020
# 3 45.4450 43.9793 129.0661 -0.0007 15.1581 0.0003
# 4 -0.0008 -0.0044 -0.0007 29.4327 0.0001 -2.5071
# 5 16.6832 6.9699 15.1581 0.0001 41.5631 0.0000
# 6 0.0001 0.0020 0.0003 -2.5071 0.0000 26.7624
#
#
#
# Elastic Compliance Matrix: (Units=1/GPa)
#
#
# Indices 1 2 3 4 5 6 
#
# 1 0.010239 -0.002359 -0.002471 0.000000 -0.002813 0.000000
# 2 -0.002359 0.014362 -0.004066 0.000002 0.000021 -0.000001
# 3 -0.002471 -0.004066 0.010246 0.000000 -0.002063 0.000000
# 4 0.000000 0.000002 0.000000 0.034249 0.000000 0.003209
# 5 -0.002813 0.000021 -0.002063 0.000000 0.025938 0.000000
# 6 0.000000 -0.000001 0.000000 0.003209 0.000000 0.037666
#
#
# Mechanical properties :
#
#
# Convention : Reuss Voigt Hill
#
# Bulk Modulus (GPa) = 58.63194 64.60349 61.61772
# Shear Modulus (GPa) = 32.01491 33.89467 32.95479
#
# Velocity S-wave (km/s) = 3.96934 4.08421 4.02718
# Velocity P-wave (km/s) = 7.06133 7.35083 7.20753
#
# Compressibility (1/GPa) = 0.01705555
#
# Stress axis : x y z
#
# Youngs Moduli (GPa) = 97.66318 69.62791 97.60114
#
# Poissons Ratio (x) = 0.16424 0.24119
# Poissons Ratio (y) = 0.23037 0.39683
# Poissons Ratio (z) = 0.24134 0.28309
#
# Static dielectric constant tensor:
#      x y z
#    x 3.849830 0.000000 0.126390 
#    y 0.000000 3.596770 0.000000 
#    z 0.126390 0.000000 3.893450 
# 
# 
# High freq. dielectric constant tensor:
#      x y z
#    x 1.805760 0.000000 0.005670 
#    y 0.000000 1.786360 0.000000 
#    z 0.005670 0.000000 1.807030 
# 
# From -- ./inp_files/249760.got.cif
#   From: 2010.06.25/outbox.cif.g09.slc.cpg/sg12_125_cif.got.tgz:249760.got - 2010.06.28 00:19:55.
