data_PCOD8108746
_publ_section_title
;
Structure prediction by ZEFSAII (Michael W. Deem and Ramdas Pophale) SiO2 
 PCOD8108746
Probable space group: C 2/M
;
_chemical_formula_sum "Si O2"
_cell_formula_units_Z 48
_cell_length_a 18.586055
_cell_length_b 27.355154
_cell_length_c 9.436016
_cell_angle_alpha 90.000000
_cell_angle_beta 151.343605
_cell_angle_gamma 90.000000
_cell_volume 2300.669334
_symmetry_space_group_name_H-M "C 2/M"
_symmetry_group_IT_number 12
_symmetry_cell_setting 'monoclinic'
loop_
_space_group_symop_operation_xyz
x,y,z
-x,y,-z
-x,-y,-z
x,-y,z
1/2+x,1/2+y,z
1/2-x,1/2+y,-z
1/2-x,1/2-y,-z
1/2+x,1/2-y,z
loop_
_atom_site_type_symbol
_atom_site_label
_atom_site_fract_x
_atom_site_fract_y
_atom_site_fract_z
Si Si1 0.365927 0.206648 0.381807
Si Si2 0.124247 0.598258 0.599373
Si Si3 0.086862 0.944339 0.791217
Si Si4 0.079746 0.111475 0.283641
Si Si5 0.149176 0.445648 0.345677
Si Si6 0.518728 0.701769 0.698175
O O1 0.500000 0.210543 0.500000
O O2 0.381264 0.152899 0.476353
O O3 0.413638 0.251851 0.565794
O O4 0.194942 0.212926 0.031222
O O5 0.114407 0.561175 0.452152
O O6 0.000000 0.586440 0.500000
O O7 0.275824 0.592666 0.952054
O O8 0.000000 0.928719 0.500000
O O9 0.983214 0.937406 0.750150
O O10 0.142927 0.000000 0.878904
O O11 0.250288 0.098177 0.542083
O O12 0.053952 0.157121 0.341641
O O13 0.000000 0.123829 0.000000
O O14 0.220952 0.500000 0.454287
O O15 0.000000 0.442647 0.000000
O O16 0.500000 0.689599 0.500000
#
# Coordination Sequence:
#
# PCOD8108746 Si02
#       6
#     8   8   8   8   8   8
#     4  10  21  38  64  98 131 169 220 274 335 386
#     4  11  24  43  67  95 135 170 219 273 330 398
#     4  11  24  41  67  99 128 170 224 275 326 384
#     4  12  24  43  66  93 133 178 219 271 333 398
#     4  11  26  44  64  94 131 177 220 266 336 403
#     4  11  22  40  66  97 129 172 223 277 325 393
#
# _framework density 20.863495
#
# number of rings (size 3 to 8) (size 9 to 14) (size 15 to 20)
#    0.000    1.000    3.333    3.500    2.333    4.667 
#    0.000    4.167    0.000    0.000    0.000    0.000 
#    0.000    0.000    0.000    0.000    0.000    0.000 
#
# Total GULP energy -297378.623317 kJ/mol
# GULP energy per Si atom -12390.775972 kJ/mol
# Density = 2.081601 g / cm^3
# Si number density = 20.863495 Si / 1000 Ang^3
#
#
#
# Elastic Constant Matrix: (Units=GPa)
#
#
# Indices 1 2 3 4 5 6 
#
# 1 111.1805 51.9379 55.2566 0.0000 5.4500 0.0000
# 2 51.9379 136.6751 57.2662 0.0000 6.5637 0.0000
# 3 55.2566 57.2662 120.8851 0.0000 5.7628 0.0000
# 4 0.0000 0.0000 0.0000 40.0521 0.0000 0.9301
# 5 5.4500 6.5637 5.7628 0.0000 32.1727 0.0000
# 6 0.0000 0.0000 0.0000 0.9301 0.0000 39.0968
#
#
#
# Elastic Compliance Matrix: (Units=1/GPa)
#
#
# Indices 1 2 3 4 5 6 
#
# 1 0.012539 -0.002922 -0.004311 0.000000 -0.000756 0.000000
# 2 -0.002922 0.009848 -0.003285 0.000000 -0.000926 0.000000
# 3 -0.004311 -0.003285 0.011834 0.000000 -0.000719 0.000000
# 4 0.000000 0.000000 0.000000 0.024981 0.000000 -0.000594
# 5 -0.000756 -0.000926 -0.000719 0.000000 0.031528 0.000000
# 6 0.000000 0.000000 0.000000 -0.000594 0.000000 0.025592
#
#
# Mechanical properties :
#
#
# Convention : Reuss Voigt Hill
#
# Bulk Modulus (GPa) = 75.85494 77.51801 76.68648
# Shear Modulus (GPa) = 35.27227 35.88299 35.57763
#
# Velocity S-wave (km/s) = 4.11618 4.15166 4.13396
# Velocity P-wave (km/s) = 7.68292 7.75997 7.72154
#
# Compressibility (1/GPa) = 0.01318306
#
# Stress axis : x y z
#
# Youngs Moduli (GPa) = 79.74912 101.54183 84.50472
#
# Poissons Ratio (x) = 0.29674 0.36433
# Poissons Ratio (y) = 0.23306 0.27763
# Poissons Ratio (z) = 0.34382 0.33360
#
# Static dielectric constant tensor:
#      x y z
#    x 3.725090 0.000000 0.139300 
#    y 0.000000 4.394760 0.000000 
#    z 0.139300 0.000000 3.868080 
# 
# 
# High freq. dielectric constant tensor:
#      x y z
#    x 1.803900 0.000000 0.009770 
#    y 0.000000 1.836790 0.000000 
#    z 0.009770 0.000000 1.820910 
# 
# From -- ./inp_files/80806.got.cif
#   From: 2010.06.25/outbox.cif.g09.slc.cpg/sg12_41_cif.got.tgz:80806.got - 2010.06.28 00:19:55.
