data_PCOD8108992
_publ_section_title
;
Structure prediction by ZEFSAII (Michael W. Deem and Ramdas Pophale) SiO2 
 PCOD8108992
Probable space group: C 2/M
;
_chemical_formula_sum "Si O2"
_cell_formula_units_Z 48
_cell_length_a 20.550408
_cell_length_b 8.739475
_cell_length_c 26.820672
_cell_angle_alpha 90.000000
_cell_angle_beta 150.161847
_cell_angle_gamma 90.000000
_cell_volume 2396.699887
_symmetry_space_group_name_H-M "C 2/M"
_symmetry_group_IT_number 12
_symmetry_cell_setting 'monoclinic'
loop_
_space_group_symop_operation_xyz
x,y,z
-x,y,-z
-x,-y,-z
x,-y,z
1/2+x,1/2+y,z
1/2-x,1/2+y,-z
1/2-x,1/2-y,-z
1/2+x,1/2-y,z
loop_
_atom_site_type_symbol
_atom_site_label
_atom_site_fract_x
_atom_site_fract_y
_atom_site_fract_z
Si Si1 0.873077 0.680133 0.054789
Si Si2 0.125266 0.179898 0.390594
Si Si3 0.120995 0.321508 0.720152
Si Si4 0.361219 0.823592 0.383052
Si Si5 0.125455 0.320407 0.282481
Si Si6 0.862210 0.677558 0.933924
O O1 0.862982 0.500000 0.051681
O O2 0.005285 0.737794 0.168861
O O3 0.750000 0.750000 0.000000
O O4 0.874174 0.734197 0.998515
O O5 0.250000 0.250000 0.500000
O O6 0.117864 0.232280 0.329016
O O7 0.994924 0.226223 0.332628
O O8 0.140650 0.000000 0.402197
O O9 0.089881 0.500000 0.705942
O O10 0.131814 0.275081 0.669773
O O11 0.256042 0.281727 0.836521
O O12 0.500000 0.792292 0.500000
O O13 0.258262 0.716138 0.342011
O O14 0.318884 0.000000 0.361021
O O15 0.117956 0.500000 0.288254
O O16 0.820760 0.500000 0.902603
O O17 0.000000 0.707355 0.000000
#
# Coordination Sequence:
#
# PCOD8108992 Si02
#       6
#     8   8   8   8   8   8
#     4  10  22  38  58  85 116 153 196 243 293 350
#     4  12  25  42  64  90 122 159 200 246 300 359
#     4  11  23  39  61  91 124 158 202 253 304 359
#     4  10  22  40  61  86 119 158 198 244 299 358
#     4  11  23  40  63  91 121 155 200 249 298 356
#     4  10  21  39  61  85 117 159 205 250 299 355
#
# _framework density 20.027539000000001
#
# number of rings (size 3 to 8) (size 9 to 14) (size 15 to 20)
#    0.000    1.333    0.000    5.500    0.000    9.333 
#    0.000    0.000    0.000    0.000    0.000    0.000 
#    0.000    0.000    0.000    0.000    0.000    0.000 
#
# Total GULP energy -297761.710455 kJ/mol
# GULP energy per Si atom -12406.737936 kJ/mol
# Density = 1.998196 g / cm^3
# Si number density = 20.027539 Si / 1000 Ang^3
#
#
#
# Elastic Constant Matrix: (Units=GPa)
#
#
# Indices 1 2 3 4 5 6 
#
# 1 174.8566 56.1561 84.4168 -0.0001 -15.7673 0.0000
# 2 56.1561 87.6572 50.2194 -0.0001 -8.3231 -0.0005
# 3 84.4168 50.2194 159.0499 -0.0016 -20.5827 -0.0004
# 4 -0.0001 -0.0001 -0.0016 35.7264 -0.0003 4.4903
# 5 -15.7673 -8.3231 -20.5827 -0.0003 42.8359 0.0000
# 6 0.0000 -0.0005 -0.0004 4.4903 0.0000 36.7066
#
#
#
# Elastic Compliance Matrix: (Units=1/GPa)
#
#
# Indices 1 2 3 4 5 6 
#
# 1 0.008510 -0.003474 -0.003307 0.000000 0.000868 0.000000
# 2 -0.003474 0.015362 -0.002970 0.000000 0.000279 0.000000
# 3 -0.003307 -0.002970 0.009328 0.000000 0.002688 0.000000
# 4 0.000000 0.000000 0.000000 0.028428 0.000000 -0.003478
# 5 0.000868 0.000279 0.002688 0.000000 0.025010 0.000000
# 6 0.000000 0.000000 0.000000 -0.003478 0.000000 0.027668
#
#
# Mechanical properties :
#
#
# Convention : Reuss Voigt Hill
#
# Bulk Modulus (GPa) = 73.01320 89.23871 81.12596
# Shear Modulus (GPa) = 36.13345 38.43853 37.28599
#
# Velocity S-wave (km/s) = 4.25218 4.38572 4.31946
# Velocity P-wave (km/s) = 7.78740 8.38455 8.09149
#
# Compressibility (1/GPa) = 0.01369615
#
# Stress axis : x y z
#
# Youngs Moduli (GPa) = 117.51238 65.09504 107.19978
#
# Poissons Ratio (x) = 0.22617 0.35453
# Poissons Ratio (y) = 0.40829 0.31842
# Poissons Ratio (z) = 0.38864 0.19336
#
# Static dielectric constant tensor:
#      x y z
#    x 3.790170 0.000000 -0.138160 
#    y 0.000000 3.621400 0.000000 
#    z -0.138160 0.000000 3.888840 
# 
# 
# High freq. dielectric constant tensor:
#      x y z
#    x 1.801420 0.000000 -0.003510 
#    y 0.000000 1.781500 0.000000 
#    z -0.003510 0.000000 1.802130 
# 
# From -- ./inp_files/365364.got.cif
#   From: 2010.06.25/outbox.cif.g09.slc.cpg/sg12_183_cif.got.tgz:365364.got - 2010.06.28 00:19:55.
