data_PCOD8108539
_publ_section_title
;
Structure prediction by ZEFSAII (Michael W. Deem and Ramdas Pophale) SiO2 
 PCOD8108539
Probable space group: C 2/M
;
_chemical_formula_sum "Si O2"
_cell_formula_units_Z 52
_cell_length_a 5.006470
_cell_length_b 25.850391
_cell_length_c 17.694616
_cell_angle_alpha 90.000000
_cell_angle_beta 104.436029
_cell_angle_gamma 90.000000
_cell_volume 2217.719325
_symmetry_space_group_name_H-M "C 2/M"
_symmetry_group_IT_number 12
_symmetry_cell_setting 'monoclinic'
loop_
_space_group_symop_operation_xyz
x,y,z
-x,y,-z
-x,-y,-z
x,-y,z
1/2+x,1/2+y,z
1/2-x,1/2+y,-z
1/2-x,1/2-y,-z
1/2+x,1/2-y,z
loop_
_atom_site_type_symbol
_atom_site_label
_atom_site_fract_x
_atom_site_fract_y
_atom_site_fract_z
Si Si1 0.528597 0.774931 0.089378
Si Si2 0.697137 0.115666 0.948196
Si Si3 0.299091 0.000000 0.557078
Si Si4 0.151846 0.557985 0.793819
Si Si5 0.089441 0.059812 0.695190
Si Si6 0.072848 0.603212 0.591562
Si Si7 0.550647 0.781390 0.592797
O O1 0.346848 0.737522 0.130898
O O2 0.450774 0.834074 0.096510
O O3 0.500000 0.757897 0.000000
O O4 0.729002 0.076221 0.882527
O O5 0.500000 0.092446 0.000000
O O6 0.000000 0.129889 0.000000
O O7 0.500000 0.000000 0.500000
O O8 0.380401 0.054131 0.610036
O O9 0.000000 0.000000 0.500000
O O10 0.043163 0.500000 0.796202
O O11 0.423294 0.561331 0.762504
O O12 0.887915 0.586478 0.735333
O O13 0.899495 0.091171 0.622485
O O14 0.108359 0.000000 0.664105
O O15 0.019786 0.659930 0.624090
O O16 0.000000 0.607850 0.500000
O O17 0.500000 0.782002 0.500000
O O18 0.351467 0.743357 0.625377
#
# Coordination Sequence:
#
# PCOD8108539 Si02
#       7
#     8   8   4   8   8   8   8
#     4   9  16  28  48  78 112 140 171 220 281 336
#     4  11  21  34  58  86 109 141 189 238 277 323
#     4  10  22  34  52  88 122 140 174 244 306 330
#     4  10  23  40  57  80 115 154 189 224 282 352
#     4  10  21  39  59  81 114 155 186 225 293 358
#     4  10  21  38  62  91 120 151 197 253 294 341
#     4   9  19  34  54  80 112 151 195 239 288 343
#
# _framework density 23.447510000000001
#
# number of rings (size 3 to 8) (size 9 to 14) (size 15 to 20)
#    0.000    2.154    0.769    3.231    0.000    8.615 
#    0.000    0.000    0.000    5.538    0.000    0.000 
#    0.000    0.000    0.000    0.000    0.000    0.000 
#
# Total GULP energy -322202.695210 kJ/mol
# GULP energy per Si atom -12392.411354 kJ/mol
# Density = 2.339414 g / cm^3
# Si number density = 23.447510 Si / 1000 Ang^3
#
#
#
# Elastic Constant Matrix: (Units=GPa)
#
#
# Indices 1 2 3 4 5 6 
#
# 1 101.6124 48.5980 -3.8720 0.0000 10.3812 0.0000
# 2 48.5980 147.6349 27.5395 0.0000 -1.1900 0.0000
# 3 -3.8720 27.5395 55.0787 0.0000 -4.1360 0.0000
# 4 0.0000 0.0000 0.0000 2.4281 0.0000 -1.7893
# 5 10.3812 -1.1900 -4.1360 0.0000 26.6673 0.0000
# 6 0.0000 0.0000 0.0000 -1.7893 0.0000 36.1383
#
#
#
# Elastic Compliance Matrix: (Units=1/GPa)
#
#
# Indices 1 2 3 4 5 6 
#
# 1 0.012715 -0.004769 0.002925 0.000000 -0.004709 0.000000
# 2 -0.004769 0.009261 -0.004852 0.000000 0.001517 0.000000
# 3 0.002925 -0.004852 0.020929 0.000000 0.001891 0.000000
# 4 0.000000 0.000000 0.000000 0.427447 0.000000 0.021163
# 5 -0.004709 0.001517 0.001891 0.000000 0.039693 0.000000
# 6 0.000000 0.000000 0.000000 0.021163 0.000000 0.028719
#
#
# Mechanical properties :
#
#
# Convention : Reuss Voigt Hill
#
# Bulk Modulus (GPa) = 33.88354 49.87300 41.87827
# Shear Modulus (GPa) = 8.89690 28.51744 18.70717
#
# Velocity S-wave (km/s) = 1.95003 3.49122 2.82766
# Velocity P-wave (km/s) = 4.42180 6.12926 5.34416
#
# Compressibility (1/GPa) = 0.02951286
#
# Stress axis : x y z
#
# Youngs Moduli (GPa) = 78.64933 107.98530 47.77994
#
# Poissons Ratio (x) = 0.51497 -0.13974
# Poissons Ratio (y) = 0.37507 0.23181
# Poissons Ratio (z) = -0.23003 0.52390
#
# Static dielectric constant tensor:
#      x y z
#    x 4.842380 0.000000 -0.008500 
#    y 0.000000 4.808080 0.000000 
#    z -0.008500 0.000000 3.851560 
# 
# 
# High freq. dielectric constant tensor:
#      x y z
#    x 1.961710 0.000000 -0.001430 
#    y 0.000000 1.914240 0.000000 
#    z -0.001430 0.000000 1.891670 
# 
# From -- ./inp_files/298128.got.cif
#   From: 2010.06.25/outbox.cif.g09.slc.cpg/sg12_150_cif.got.tgz:298128.got - 2010.06.28 00:19:55.
