data_PCOD8108657
_publ_section_title
;
Structure prediction by ZEFSAII (Michael W. Deem and Ramdas Pophale) SiO2 
 PCOD8108657
Probable space group: C 2/M
;
_chemical_formula_sum "Si O2"
_cell_formula_units_Z 56
_cell_length_a 30.954987
_cell_length_b 8.665566
_cell_length_c 11.855465
_cell_angle_alpha 90.000000
_cell_angle_beta 59.702008
_cell_angle_gamma 90.000000
_cell_volume 2745.774409
_symmetry_space_group_name_H-M "C 2/M"
_symmetry_group_IT_number 12
_symmetry_cell_setting 'monoclinic'
loop_
_space_group_symop_operation_xyz
x,y,z
-x,y,-z
-x,-y,-z
x,-y,z
1/2+x,1/2+y,z
1/2-x,1/2+y,-z
1/2-x,1/2-y,-z
1/2+x,1/2-y,z
loop_
_atom_site_type_symbol
_atom_site_label
_atom_site_fract_x
_atom_site_fract_y
_atom_site_fract_z
Si Si1 0.074293 0.320179 0.124242
Si Si2 0.098909 0.317934 0.632518
Si Si3 0.788207 0.319949 0.536751
Si Si4 0.330189 0.323291 0.913478
Si Si5 0.487862 0.682274 0.388198
Si Si6 0.735704 0.177778 0.180815
Si Si7 0.558681 0.322519 0.911420
O O1 0.068170 0.500000 0.108715
O O2 0.122107 0.286806 0.138858
O O3 0.025122 0.261473 0.251606
O O4 0.083879 0.233001 0.993908
O O5 0.096023 0.500000 0.615034
O O6 0.155621 0.254453 0.550605
O O7 0.067750 0.234618 0.573894
O O8 0.077883 0.279740 0.783300
O O9 0.789818 0.500000 0.513307
O O10 0.750000 0.250000 0.500000
O O11 0.766575 0.276392 0.686632
O O12 0.348310 0.500000 0.888673
O O13 0.303422 0.286220 0.831342
O O14 0.292001 0.289583 0.065791
O O15 0.500000 0.735126 0.500000
O O16 0.493278 0.500000 0.368199
O O17 0.720883 0.000000 0.178341
O O18 0.572945 0.500000 0.870304
O O19 0.500000 0.298148 0.000000
#
# Coordination Sequence:
#
# PCOD8108657 Si02
#       7
#     8   8   8   8   8   8   8
#     4  12  25  40  64  94 127 163 205 257 313 371
#     4  11  24  42  65  95 128 165 211 262 318 376
#     4  10  24  43  63  92 125 164 213 260 311 374
#     4  10  21  38  63  93 124 161 206 256 311 371
#     4  11  25  44  65  94 130 167 213 258 308 377
#     4   9  20  41  63  88 123 163 207 257 312 369
#     4  11  23  41  65  90 122 162 207 255 307 367
#
# _framework density 20.394974999999999
#
# number of rings (size 3 to 8) (size 9 to 14) (size 15 to 20)
#    0.000    1.429    1.429    3.000    4.000    4.000 
#    0.000    0.000    0.000    0.000    0.000    0.000 
#    0.000    0.000    0.000    0.000    0.000    0.000 
#
# Total GULP energy -347356.300999 kJ/mol
# GULP energy per Si atom -12405.582179 kJ/mol
# Density = 2.034855 g / cm^3
# Si number density = 20.394975 Si / 1000 Ang^3
#
#
#
# Elastic Constant Matrix: (Units=GPa)
#
#
# Indices 1 2 3 4 5 6 
#
# 1 137.2071 33.4437 58.1936 0.0000 -2.2618 0.0000
# 2 33.4437 52.9039 22.7738 0.0000 -3.2264 0.0000
# 3 58.1936 22.7738 91.6801 0.0000 12.9003 0.0000
# 4 0.0000 0.0000 0.0000 23.3589 0.0000 1.0678
# 5 -2.2618 -3.2264 12.9003 0.0000 31.1233 0.0000
# 6 0.0000 0.0000 0.0000 1.0678 0.0000 39.6543
#
#
#
# Elastic Compliance Matrix: (Units=1/GPa)
#
#
# Indices 1 2 3 4 5 6 
#
# 1 0.011054 -0.004026 -0.006447 0.000000 0.003058 0.000000
# 2 -0.004026 0.023284 -0.003745 0.000000 0.003673 0.000000
# 3 -0.006447 -0.003745 0.017045 0.000000 -0.007922 0.000000
# 4 0.000000 0.000000 0.000000 0.042863 0.000000 -0.001154
# 5 0.003058 0.003673 -0.007922 0.000000 0.036017 0.000000
# 6 0.000000 0.000000 0.000000 -0.001154 0.000000 0.025249
#
#
# Mechanical properties :
#
#
# Convention : Reuss Voigt Hill
#
# Bulk Modulus (GPa) = 43.58020 56.73481 50.15750
# Shear Modulus (GPa) = 26.09652 29.98596 28.04124
#
# Velocity S-wave (km/s) = 3.58097 3.83856 3.71200
# Velocity P-wave (km/s) = 6.20583 6.89380 6.55884
#
# Compressibility (1/GPa) = 0.02294620
#
# Stress axis : x y z
#
# Youngs Moduli (GPa) = 90.46166 42.94861 58.66991
#
# Poissons Ratio (x) = 0.17293 0.37824
# Poissons Ratio (y) = 0.36424 0.21971
# Poissons Ratio (z) = 0.58319 0.16084
#
# Static dielectric constant tensor:
#      x y z
#    x 3.050300 0.000000 0.689050 
#    y 0.000000 3.679550 0.000000 
#    z 0.689050 0.000000 3.126700 
# 
# 
# High freq. dielectric constant tensor:
#      x y z
#    x 1.807630 0.000000 0.001730 
#    y 0.000000 1.799380 0.000000 
#    z 0.001730 0.000000 1.801930 
# 
# From -- ./inp_files/187258.got.cif
#   From: 2010.06.25/outbox.cif.g09.slc.cpg/sg12_94_cif.got.tgz:187258.got - 2010.06.28 00:19:55.
