data_PCOD8108253
_publ_section_title
;
Structure prediction by ZEFSAII (Michael W. Deem and Ramdas Pophale) SiO2 
 PCOD8108253
Probable space group: C 2/M
;
_chemical_formula_sum "Si O2"
_cell_formula_units_Z 56
_cell_length_a 23.411967
_cell_length_b 14.170634
_cell_length_c 10.123465
_cell_angle_alpha 90.000000
_cell_angle_beta 63.542846
_cell_angle_gamma 90.000000
_cell_volume 3006.833117
_symmetry_space_group_name_H-M "C 2/M"
_symmetry_group_IT_number 12
_symmetry_cell_setting 'monoclinic'
loop_
_space_group_symop_operation_xyz
x,y,z
-x,y,-z
-x,-y,-z
x,-y,z
1/2+x,1/2+y,z
1/2-x,1/2+y,-z
1/2-x,1/2-y,-z
1/2+x,1/2-y,z
loop_
_atom_site_type_symbol
_atom_site_label
_atom_site_fract_x
_atom_site_fract_y
_atom_site_fract_z
Si Si1 0.065876 0.000000 0.267479
Si Si2 0.652362 0.251664 0.852481
Si Si3 0.061218 0.199445 0.171589
Si Si4 0.245568 0.608072 0.148002
Si Si5 0.745838 0.609570 0.172511
Si Si6 0.916262 0.000000 0.455710
Si Si7 0.138778 0.742624 0.332998
Si Si8 0.411780 0.300620 0.349552
O O1 0.084629 0.909391 0.160818
O O2 0.104314 0.000000 0.367740
O O3 0.992137 0.000000 0.376773
O O4 0.696789 0.339497 0.841122
O O5 0.690307 0.153356 0.828655
O O6 0.630506 0.261405 0.725129
O O7 0.591246 0.253291 0.011317
O O8 0.084175 0.253200 0.278536
O O9 0.985617 0.206508 0.235511
O O10 0.249410 0.500000 0.184427
O O11 0.178722 0.648062 0.268997
O O12 0.250128 0.624721 0.987710
O O13 0.741257 0.500000 0.217832
O O14 0.683969 0.665062 0.286926
O O15 0.891210 0.907979 0.404982
O O16 0.102787 0.735358 0.509435
#
# Coordination Sequence:
#
# PCOD8108253 Si02
#       8
#     4   8   8   8   8   4   8   8
#     4   9  18  29  53  79 109 155 193 211 256 334
#     4  11  22  39  57  87 116 150 187 231 290 337
#     4  11  20  36  58  83 116 155 189 227 271 344
#     4  10  21  38  61  85 110 147 194 243 278 322
#     4  10  21  38  63  85 105 147 200 242 275 326
#     4   9  18  33  45  81 119 149 181 217 270 335
#     4  11  20  37  60  87 111 150 192 230 278 337
#     4  11  24  34  55  86 126 149 179 230 289 341
#
# _framework density 18.624245999999999
#
# number of rings (size 3 to 8) (size 9 to 14) (size 15 to 20)
#    0.000    1.571    4.286    1.714    4.000    2.286 
#    0.000    4.286    0.000    5.143    0.000    0.000 
#    0.000    0.000    0.000    0.000    0.000    0.000 
#
# Total GULP energy -347243.293158 kJ/mol
# GULP energy per Si atom -12401.546184 kJ/mol
# Density = 1.858186 g / cm^3
# Si number density = 18.624246 Si / 1000 Ang^3
#
#
#
# Elastic Constant Matrix: (Units=GPa)
#
#
# Indices 1 2 3 4 5 6 
#
# 1 74.2995 24.9555 10.4319 0.0000 12.4080 0.0000
# 2 24.9555 76.2034 7.8589 0.0000 2.1396 0.0000
# 3 10.4319 7.8589 45.5426 0.0000 18.1696 0.0000
# 4 0.0000 0.0000 0.0000 14.8468 0.0000 -6.7758
# 5 12.4080 2.1396 18.1696 0.0000 30.2160 0.0000
# 6 0.0000 0.0000 0.0000 -6.7758 0.0000 19.6819
#
#
#
# Elastic Compliance Matrix: (Units=1/GPa)
#
#
# Indices 1 2 3 4 5 6 
#
# 1 0.016245 -0.005106 -0.000425 0.000000 -0.006054 0.000000
# 2 -0.005106 0.014973 -0.002405 0.000000 0.002483 0.000000
# 3 -0.000425 -0.002405 0.029381 0.000000 -0.017323 0.000000
# 4 0.000000 0.000000 0.000000 0.079910 0.000000 0.027510
# 5 -0.006054 0.002483 -0.017323 0.000000 0.045822 0.000000
# 6 0.000000 0.000000 0.000000 0.027510 0.000000 0.060279
#
#
# Mechanical properties :
#
#
# Convention : Reuss Voigt Hill
#
# Bulk Modulus (GPa) = 22.35740 31.39311 26.87525
# Shear Modulus (GPa) = 18.02518 23.13554 20.58036
#
# Velocity S-wave (km/s) = 3.11438 3.52835 3.32781
# Velocity P-wave (km/s) = 4.99630 5.78719 5.40623
#
# Compressibility (1/GPa) = 0.04472793
#
# Stress axis : x y z
#
# Youngs Moduli (GPa) = 61.55854 66.78577 34.03592
#
# Poissons Ratio (x) = 0.34102 0.01445
# Poissons Ratio (y) = 0.31433 0.08184
# Poissons Ratio (z) = 0.02614 0.16060
#
# Static dielectric constant tensor:
#      x y z
#    x 3.363160 0.000000 -0.083750 
#    y 0.000000 3.411410 0.000000 
#    z -0.083750 0.000000 3.396020 
# 
# 
# High freq. dielectric constant tensor:
#      x y z
#    x 1.721780 0.000000 -0.007580 
#    y 0.000000 1.702670 0.000000 
#    z -0.007580 0.000000 1.724820 
# 
# From -- ./inp_files/96817.got.cif
#   From: 2010.06.25/outbox.cif.g09.slc.cpg/sg12_49_cif.got.tgz:96817.got - 2010.06.28 00:19:55.
