data_PCOD8108372
_publ_section_title
;
Structure prediction by ZEFSAII (Michael W. Deem and Ramdas Pophale) SiO2 
 PCOD8108372
Probable space group: C 2/M
;
_chemical_formula_sum "Si O2"
_cell_formula_units_Z 40
_cell_length_a 9.346122
_cell_length_b 21.028812
_cell_length_c 8.763836
_cell_angle_alpha 90.000000
_cell_angle_beta 89.056703
_cell_angle_gamma 90.000000
_cell_volume 1722.191992
_symmetry_space_group_name_H-M "C 2/M"
_symmetry_group_IT_number 12
_symmetry_cell_setting 'monoclinic'
loop_
_space_group_symop_operation_xyz
x,y,z
-x,y,-z
-x,-y,-z
x,-y,z
1/2+x,1/2+y,z
1/2-x,1/2+y,-z
1/2-x,1/2-y,-z
1/2+x,1/2-y,z
loop_
_atom_site_type_symbol
_atom_site_label
_atom_site_fract_x
_atom_site_fract_y
_atom_site_fract_z
Si Si1 0.829725 0.427820 0.684157
Si Si2 0.496375 0.753090 0.171612
Si Si3 0.912445 0.608319 0.151289
Si Si4 0.258176 0.297294 0.360329
Si Si5 0.155960 0.073002 0.983832
O O1 0.788823 0.500000 0.630410
O O2 0.783122 0.368927 0.575078
O O3 0.745887 0.403162 0.836918
O O4 0.001929 0.425256 0.709766
O O5 0.399703 0.816504 0.171240
O O6 0.417939 0.703349 0.285821
O O7 0.651646 0.772604 0.230098
O O8 0.500000 0.724725 0.000000
O O9 0.749008 0.583931 0.136670
O O10 0.000000 0.587713 0.000000
O O11 0.250000 0.250000 0.500000
O O12 0.127791 0.000000 0.956008
O O13 0.000000 0.106953 0.000000
#
# Coordination Sequence:
#
# PCOD8108372 Si02
#       5
#     8   8   8   8   8
#     4   9  18  33  54  78 109 155 200 236 287 358
#     4  10  21  38  61  89 118 156 204 248 295 356
#     4   8  15  29  50  77 109 149 195 241 288 340
#     4  11  23  39  61  89 124 159 196 250 308 359
#     4   9  16  26  45  80 121 153 187 238 295 346
#
# _framework density 23.226213999999999
#
# number of rings (size 3 to 8) (size 9 to 14) (size 15 to 20)
#    0.000    2.600    0.000    3.000    0.000    4.800 
#    0.000    0.000    0.000   13.200    0.000    5.600 
#    0.000    0.000    0.000    0.000    0.000    0.000 
#
# Total GULP energy -247775.536709 kJ/mol
# GULP energy per Si atom -12388.776835 kJ/mol
# Density = 2.317335 g / cm^3
# Si number density = 23.226214 Si / 1000 Ang^3
#
#
#
# Elastic Constant Matrix: (Units=GPa)
#
#
# Indices 1 2 3 4 5 6 
#
# 1 117.9975 25.5271 3.7618 0.0000 -5.4217 0.0000
# 2 25.5271 130.8606 31.9789 0.0000 6.7513 0.0000
# 3 3.7618 31.9789 52.5433 0.0000 2.1230 0.0000
# 4 0.0000 0.0000 0.0000 27.2130 0.0000 5.6680
# 5 -5.4217 6.7513 2.1230 0.0000 21.1511 0.0000
# 6 0.0000 0.0000 0.0000 5.6680 0.0000 32.5009
#
#
#
# Elastic Compliance Matrix: (Units=1/GPa)
#
#
# Indices 1 2 3 4 5 6 
#
# 1 0.009032 -0.002027 0.000469 0.000000 0.002915 0.000000
# 2 -0.002027 0.009547 -0.005544 0.000000 -0.003011 0.000000
# 3 0.000469 -0.005544 0.022387 0.000000 -0.000357 0.000000
# 4 0.000000 0.000000 0.000000 0.038132 0.000000 -0.006650
# 5 0.002915 -0.003011 -0.000357 0.000000 0.049023 0.000000
# 6 0.000000 0.000000 0.000000 -0.006650 0.000000 0.031928
#
#
# Mechanical properties :
#
#
# Convention : Reuss Voigt Hill
#
# Bulk Modulus (GPa) = 37.36494 47.10412 42.23453
# Shear Modulus (GPa) = 27.29645 32.18191 29.73918
#
# Velocity S-wave (km/s) = 3.43190 3.72638 3.58217
# Velocity P-wave (km/s) = 5.64148 6.23211 5.94413
#
# Compressibility (1/GPa) = 0.02676305
#
# Stress axis : x y z
#
# Youngs Moduli (GPa) = 110.71435 104.74245 44.66907
#
# Poissons Ratio (x) = 0.21231 -0.02096
# Poissons Ratio (y) = 0.22442 0.24764
# Poissons Ratio (z) = -0.05195 0.58068
#
# Static dielectric constant tensor:
#      x y z
#    x 4.515150 0.000000 -0.082100 
#    y 0.000000 4.122770 0.000000 
#    z -0.082100 0.000000 3.844480 
# 
# 
# High freq. dielectric constant tensor:
#      x y z
#    x 1.916930 0.000000 -0.000330 
#    y 0.000000 1.924710 0.000000 
#    z -0.000330 0.000000 1.865120 
# 
# From -- ./inp_files/39211.got.cif
#   From: 2010.06.25/outbox.cif.g09.slc.cpg/sg12_20_cif.got.tgz:39211.got - 2010.06.28 00:19:55.
