data_PCOD8108682
_publ_section_title
;
Structure prediction by ZEFSAII (Michael W. Deem and Ramdas Pophale) SiO2 
 PCOD8108682
Probable space group: C 2/M
;
_chemical_formula_sum "Si O2"
_cell_formula_units_Z 44
_cell_length_a 17.272091
_cell_length_b 13.250312
_cell_length_c 11.305957
_cell_angle_alpha 90.000000
_cell_angle_beta 132.948300
_cell_angle_gamma 90.000000
_cell_volume 1893.960504
_symmetry_space_group_name_H-M "C 2/M"
_symmetry_group_IT_number 12
_symmetry_cell_setting 'monoclinic'
loop_
_space_group_symop_operation_xyz
x,y,z
-x,y,-z
-x,-y,-z
x,-y,z
1/2+x,1/2+y,z
1/2-x,1/2+y,-z
1/2-x,1/2-y,-z
1/2+x,1/2-y,z
loop_
_atom_site_type_symbol
_atom_site_label
_atom_site_fract_x
_atom_site_fract_y
_atom_site_fract_z
Si Si1 0.022244 0.116296 0.242739
Si Si2 0.861002 0.616525 0.591768
Si Si3 0.816810 0.116570 0.158666
Si Si4 0.801289 0.807899 0.402794
Si Si5 0.000000 0.758230 0.000000
Si Si6 0.413102 0.885217 0.081728
O O1 0.106768 0.132902 0.432518
O O2 0.907162 0.158732 0.165360
O O3 0.013898 0.000000 0.201041
O O4 0.056110 0.174083 0.158759
O O5 0.839722 0.500000 0.536134
O O6 0.809692 0.687656 0.437995
O O7 0.809261 0.645306 0.664652
O O8 0.987051 0.640846 0.730078
O O9 0.817566 0.177315 0.281564
O O10 0.841306 0.000000 0.213887
O O11 0.701691 0.128596 0.974915
O O12 0.910566 0.686920 0.964373
O O13 0.425458 0.000000 0.049655
#
# Coordination Sequence:
#
# PCOD8108682 Si02
#       6
#     8   8   8   8   4   8
#     4  11  24  41  61  92 130 167 209 257 315 377
#     4  10  21  38  63  95 129 164 210 260 307 371
#     4  10  22  40  67  95 124 163 210 263 311 369
#     4  11  21  38  63  96 126 163 210 256 318 370
#     4  12  22  38  60  94 122 168 204 256 314 368
#     4  10  21  40  65  94 123 160 213 261 306 366
#
# _framework density 23.231741
#
# number of rings (size 3 to 8) (size 9 to 14) (size 15 to 20)
#    0.000    1.455    1.818    3.818    2.545    5.091 
#    0.000    0.000    0.000    4.364    0.000    0.000 
#    0.000    0.000    0.000    0.000    0.000    0.000 
#
# Total GULP energy -272769.130862 kJ/mol
# GULP energy per Si atom -12398.596857 kJ/mol
# Density = 2.317886 g / cm^3
# Si number density = 23.231741 Si / 1000 Ang^3
#
#
#
# Elastic Constant Matrix: (Units=GPa)
#
#
# Indices 1 2 3 4 5 6 
#
# 1 66.9543 24.3838 23.2635 0.0000 18.7402 0.0000
# 2 24.3838 88.3939 18.6074 0.0000 2.8784 0.0000
# 3 23.2635 18.6074 75.8292 0.0000 18.1603 0.0000
# 4 0.0000 0.0000 0.0000 30.0608 0.0000 3.7508
# 5 18.7402 2.8784 18.1603 0.0000 37.5500 0.0000
# 6 0.0000 0.0000 0.0000 3.7508 0.0000 25.1614
#
#
#
# Elastic Compliance Matrix: (Units=1/GPa)
#
#
# Indices 1 2 3 4 5 6 
#
# 1 0.019942 -0.004596 -0.003044 0.000000 -0.008128 0.000000
# 2 -0.004596 0.012999 -0.002364 0.000000 0.002441 0.000000
# 3 -0.003044 -0.002364 0.016167 0.000000 -0.006119 0.000000
# 4 0.000000 0.000000 0.000000 0.033896 0.000000 -0.005053
# 5 -0.008128 0.002441 -0.006119 0.000000 0.033460 0.000000
# 6 0.000000 0.000000 0.000000 -0.005053 0.000000 0.040497
#
#
# Mechanical properties :
#
#
# Convention : Reuss Voigt Hill
#
# Bulk Modulus (GPa) = 34.36392 40.40965 37.38679
# Shear Modulus (GPa) = 26.78561 29.54930 28.16745
#
# Velocity S-wave (km/s) = 3.39923 3.57029 3.48581
# Velocity P-wave (km/s) = 5.49821 5.86753 5.68587
#
# Compressibility (1/GPa) = 0.02910029
#
# Stress axis : x y z
#
# Youngs Moduli (GPa) = 50.14610 76.92930 61.85526
#
# Poissons Ratio (x) = 0.35354 0.18826
# Poissons Ratio (y) = 0.23045 0.14625
# Poissons Ratio (z) = 0.15262 0.18189
#
# Static dielectric constant tensor:
#      x y z
#    x 4.290250 0.000000 0.449970 
#    y 0.000000 4.426870 0.000000 
#    z 0.449970 0.000000 3.896390 
# 
# 
# High freq. dielectric constant tensor:
#      x y z
#    x 1.906320 0.000000 0.033560 
#    y 0.000000 1.939930 0.000000 
#    z 0.033560 0.000000 1.903060 
# 
# From -- ./inp_files/156302.got.cif
#   From: 2010.06.25/outbox.cif.g09.slc.cpg/sg12_79_cif.got.tgz:156302.got - 2010.06.28 00:19:55.
