data_PCOD8108715
_publ_section_title
;
Structure prediction by ZEFSAII (Michael W. Deem and Ramdas Pophale) SiO2 
 PCOD8108715
Probable space group: C 2/M
;
_chemical_formula_sum "Si O2"
_cell_formula_units_Z 64
_cell_length_a 28.673838
_cell_length_b 8.475845
_cell_length_c 14.153641
_cell_angle_alpha 90.000000
_cell_angle_beta 113.744587
_cell_angle_gamma 90.000000
_cell_volume 3148.646967
_symmetry_space_group_name_H-M "C 2/M"
_symmetry_group_IT_number 12
_symmetry_cell_setting 'monoclinic'
loop_
_space_group_symop_operation_xyz
x,y,z
-x,y,-z
-x,-y,-z
x,-y,z
1/2+x,1/2+y,z
1/2-x,1/2+y,-z
1/2-x,1/2-y,-z
1/2+x,1/2-y,z
loop_
_atom_site_type_symbol
_atom_site_label
_atom_site_fract_x
_atom_site_fract_y
_atom_site_fract_z
Si Si1 0.465955 0.185716 0.888803
Si Si2 0.894169 0.816258 0.502894
Si Si3 0.186776 0.182787 0.868602
Si Si4 0.693377 0.187844 0.445876
Si Si5 0.484757 0.184091 0.692814
Si Si6 0.210020 0.181850 0.098581
Si Si7 0.646678 0.815653 0.213622
Si Si8 0.590973 0.183526 0.688693
O O1 0.491607 0.223701 0.808959
O O2 0.409223 0.260150 0.847429
O O3 0.462253 0.000000 0.902728
O O4 0.500000 0.262622 0.000000
O O5 0.839489 0.760831 0.496085
O O6 0.937556 0.783492 0.615311
O O7 0.906978 0.718002 0.420072
O O8 0.892030 0.000000 0.475956
O O9 0.229765 0.282540 0.849308
O O10 0.132338 0.216929 0.779460
O O11 0.200723 0.000000 0.868857
O O12 0.186344 0.230782 0.978364
O O13 0.750000 0.250000 0.500000
O O14 0.671283 0.253605 0.328996
O O15 0.692077 0.000000 0.451874
O O16 0.535778 0.235972 0.681017
O O17 0.472342 0.000000 0.667208
O O18 0.182399 0.284978 0.154117
O O19 0.200865 0.000000 0.114649
O O20 0.640279 0.000000 0.223576
O O21 0.600579 0.000000 0.716191
#
# Coordination Sequence:
#
# PCOD8108715 Si02
#       8
#     8   8   8   8   8   8   8   8
#     4   9  18  35  62  93 123 158 201 248 300 361
#     4  12  25  42  64  89 123 163 203 251 311 372
#     4  10  22  41  61  87 123 161 204 253 303 363
#     4  11  24  43  65  92 126 164 209 258 311 367
#     4  10  21  41  64  90 122 158 204 254 304 363
#     4  10  22  39  61  87 123 163 203 249 303 363
#     4  10  21  38  64  92 124 161 203 255 307 363
#     4  11  24  39  64  93 120 157 205 258 309 365
#
# _framework density 20.326193
#
# number of rings (size 3 to 8) (size 9 to 14) (size 15 to 20)
#    0.000    1.625    1.250    3.000    3.500    5.000 
#    0.000    0.000    0.000    0.750    0.000    0.000 
#    0.000    0.000    0.000    0.000    0.000    0.000 
#
# Total GULP energy -396957.798539 kJ/mol
# GULP energy per Si atom -12404.931204 kJ/mol
# Density = 2.027993 g / cm^3
# Si number density = 20.326193 Si / 1000 Ang^3
#
#
#
# Elastic Constant Matrix: (Units=GPa)
#
#
# Indices 1 2 3 4 5 6 
#
# 1 149.3292 13.7063 63.5424 0.0000 -2.3712 0.0000
# 2 13.7063 34.7527 16.2525 0.0000 2.2474 0.0000
# 3 63.5424 16.2525 107.8325 0.0000 5.7434 0.0000
# 4 0.0000 0.0000 0.0000 27.7580 0.0000 3.7123
# 5 -2.3712 2.2474 5.7434 0.0000 39.8136 0.0000
# 6 0.0000 0.0000 0.0000 3.7123 0.0000 27.1687
#
#
#
# Elastic Compliance Matrix: (Units=1/GPa)
#
#
# Indices 1 2 3 4 5 6 
#
# 1 0.009053 -0.001215 -0.005224 0.000000 0.001361 0.000000
# 2 -0.001215 0.031166 -0.003914 0.000000 -0.001267 0.000000
# 3 -0.005224 -0.003914 0.013047 0.000000 -0.001972 0.000000
# 4 0.000000 0.000000 0.000000 0.036696 0.000000 -0.005014
# 5 0.001361 -0.001267 -0.001972 0.000000 0.025554 0.000000
# 6 0.000000 0.000000 0.000000 -0.005014 0.000000 0.037492
#
#
# Mechanical properties :
#
#
# Convention : Reuss Voigt Hill
#
# Bulk Modulus (GPa) = 30.71250 53.21297 41.96274
# Shear Modulus (GPa) = 27.09040 32.17561 29.63301
#
# Velocity S-wave (km/s) = 3.65469 3.98296 3.82235
# Velocity P-wave (km/s) = 5.74035 6.88392 6.33798
#
# Compressibility (1/GPa) = 0.03256003
#
# Stress axis : x y z
#
# Youngs Moduli (GPa) = 110.46572 32.08588 76.64743
#
# Poissons Ratio (x) = 0.03900 0.40039
# Poissons Ratio (y) = 0.13426 0.29998
# Poissons Ratio (z) = 0.57704 0.12557
#
# Static dielectric constant tensor:
#      x y z
#    x 3.762010 0.000000 0.057400 
#    y 0.000000 3.496620 0.000000 
#    z 0.057400 0.000000 3.808960 
# 
# 
# High freq. dielectric constant tensor:
#      x y z
#    x 1.806580 0.000000 -0.001040 
#    y 0.000000 1.777910 0.000000 
#    z -0.001040 0.000000 1.803740 
# 
# From -- ./inp_files/244188.got.cif
#   From: 2010.06.25/outbox.cif.g09.slc.cpg/sg12_123_cif.got.tgz:244188.got - 2010.06.28 00:19:55.
