data_PCOD8108408
_publ_section_title
;
Structure prediction by ZEFSAII (Michael W. Deem and Ramdas Pophale) SiO2 
 PCOD8108408
Probable space group: C 2/M
;
_chemical_formula_sum "Si O2"
_cell_formula_units_Z 48
_cell_length_a 22.620910
_cell_length_b 8.788513
_cell_length_c 12.239157
_cell_angle_alpha 90.000000
_cell_angle_beta 73.651502
_cell_angle_gamma 90.000000
_cell_volume 2334.814878
_symmetry_space_group_name_H-M "C 2/M"
_symmetry_group_IT_number 12
_symmetry_cell_setting 'monoclinic'
loop_
_space_group_symop_operation_xyz
x,y,z
-x,y,-z
-x,-y,-z
x,-y,z
1/2+x,1/2+y,z
1/2-x,1/2+y,-z
1/2-x,1/2-y,-z
1/2+x,1/2-y,z
loop_
_atom_site_type_symbol
_atom_site_label
_atom_site_fract_x
_atom_site_fract_y
_atom_site_fract_z
Si Si1 0.633821 0.678391 0.315124
Si Si2 0.668968 0.824757 0.755290
Si Si3 0.527705 0.173831 0.871674
Si Si4 0.498636 0.677032 0.674696
Si Si5 0.762039 0.320425 0.875219
Si Si6 0.866818 0.821746 0.441679
O O1 0.636786 0.500000 0.284223
O O2 0.563087 0.739022 0.351452
O O3 0.671585 0.769451 0.204556
O O4 0.660911 0.707709 0.423024
O O5 0.600599 0.801389 0.835932
O O6 0.711780 0.730799 0.813622
O O7 0.673961 0.764605 0.627828
O O8 0.690058 0.000000 0.745652
O O9 0.494032 0.283442 0.804338
O O10 0.511309 0.000000 0.851491
O O11 0.500000 0.224744 0.000000
O O12 0.500770 0.500000 0.652670
O O13 0.562917 0.745070 0.595173
O O14 0.760647 0.500000 0.888865
O O15 0.750000 0.250000 0.000000
O O16 0.866949 0.000000 0.412280
#
# Coordination Sequence:
#
# PCOD8108408 Si02
#       6
#     8   8   8   8   8   8
#     4  10  21  38  61  90 122 159 200 241 291 349
#     4  10  21  39  61  86 119 155 196 246 294 346
#     4   9  19  34  54  82 115 153 192 237 295 348
#     4   9  18  33  56  89 122 154 193 238 288 343
#     4  12  27  45  63  84 115 155 200 247 297 350
#     4   9  18  36  62  91 124 158 194 240 293 348
#
# _framework density 20.558375000000002
#
# number of rings (size 3 to 8) (size 9 to 14) (size 15 to 20)
#    0.000    2.167    0.000    2.500    2.333    5.000 
#    0.000    0.000    0.000    5.000    0.000    0.000 
#    0.000    0.000    0.000    0.000    0.000    0.000 
#
# Total GULP energy -297549.465131 kJ/mol
# GULP energy per Si atom -12397.894380 kJ/mol
# Density = 2.051158 g / cm^3
# Si number density = 20.558375 Si / 1000 Ang^3
#
#
#
# Elastic Constant Matrix: (Units=GPa)
#
#
# Indices 1 2 3 4 5 6 
#
# 1 77.9878 35.3895 34.1713 0.0000 23.2544 0.0000
# 2 35.3895 83.3961 42.5592 0.0000 4.2189 0.0000
# 3 34.1713 42.5592 122.5238 0.0000 10.0437 0.0000
# 4 0.0000 0.0000 0.0000 34.0476 0.0000 1.5586
# 5 23.2544 4.2189 10.0437 0.0000 20.1698 0.0000
# 6 0.0000 0.0000 0.0000 1.5586 0.0000 27.8307
#
#
#
# Elastic Compliance Matrix: (Units=1/GPa)
#
#
# Indices 1 2 3 4 5 6 
#
# 1 0.025452 -0.008442 -0.001987 0.000000 -0.026590 0.000000
# 2 -0.008442 0.017380 -0.004361 0.000000 0.008269 0.000000
# 3 -0.001987 -0.004361 0.010392 0.000000 -0.001972 0.000000
# 4 0.000000 0.000000 0.000000 0.029446 0.000000 -0.001649
# 5 -0.026590 0.008269 -0.001972 0.000000 0.079488 0.000000
# 6 0.000000 0.000000 0.000000 -0.001649 0.000000 0.036024
#
#
# Mechanical properties :
#
#
# Convention : Reuss Voigt Hill
#
# Bulk Modulus (GPa) = 42.28928 56.46085 49.37506
# Shear Modulus (GPa) = 21.21861 27.86215 24.54038
#
# Velocity S-wave (km/s) = 3.21614 3.68539 3.45873
# Velocity P-wave (km/s) = 5.86570 6.75520 6.32610
#
# Compressibility (1/GPa) = 0.02364666
#
# Stress axis : x y z
#
# Youngs Moduli (GPa) = 39.28932 57.53637 96.22739
#
# Poissons Ratio (x) = 0.48571 0.19116
# Poissons Ratio (y) = 0.33168 0.41961
# Poissons Ratio (z) = 0.07805 0.25089
#
# Static dielectric constant tensor:
#      x y z
#    x 3.852910 0.000000 0.013060 
#    y 0.000000 3.606070 0.000000 
#    z 0.013060 0.000000 3.849920 
# 
# 
# High freq. dielectric constant tensor:
#      x y z
#    x 1.806810 0.000000 0.002990 
#    y 0.000000 1.787920 0.000000 
#    z 0.002990 0.000000 1.812290 
# 
# From -- ./inp_files/172410.got.cif
#   From: 2010.06.25/outbox.cif.g09.slc.cpg/sg12_87_cif.got.tgz:172410.got - 2010.06.28 00:19:55.
