data_PCOD8108332
_publ_section_title
;
Structure prediction by ZEFSAII (Michael W. Deem and Ramdas Pophale) SiO2 
 PCOD8108332
Probable space group: C 2/M
;
_chemical_formula_sum "Si O2"
_cell_formula_units_Z 64
_cell_length_a 23.739868
_cell_length_b 8.636191
_cell_length_c 28.865305
_cell_angle_alpha 90.000000
_cell_angle_beta 31.100769
_cell_angle_gamma 90.000000
_cell_volume 3056.924419
_symmetry_space_group_name_H-M "C 2/M"
_symmetry_group_IT_number 12
_symmetry_cell_setting 'monoclinic'
loop_
_space_group_symop_operation_xyz
x,y,z
-x,y,-z
-x,-y,-z
x,-y,z
1/2+x,1/2+y,z
1/2-x,1/2+y,-z
1/2-x,1/2-y,-z
1/2+x,1/2-y,z
loop_
_atom_site_type_symbol
_atom_site_label
_atom_site_fract_x
_atom_site_fract_y
_atom_site_fract_z
Si Si1 0.783081 0.824445 0.171679
Si Si2 0.123280 0.319055 0.976778
Si Si3 0.007985 0.818376 0.730561
Si Si4 0.297868 0.183192 0.919150
Si Si5 0.445334 0.679516 0.672802
Si Si6 0.697783 0.682093 0.661418
Si Si7 0.441043 0.816955 0.495274
Si Si8 0.918031 0.176945 0.166246
O O1 0.882404 0.768104 0.068759
O O2 0.682837 0.710159 0.233745
O O3 0.821610 0.811796 0.197082
O O4 0.749236 0.000000 0.183395
O O5 0.128653 0.500000 0.964337
O O6 0.234096 0.260623 0.921925
O O7 0.020455 0.280689 0.080794
O O8 0.924166 0.726860 0.822703
O O9 0.000972 0.766682 0.681884
O O10 0.130463 0.778513 0.662084
O O11 0.982060 0.000000 0.754019
O O12 0.282959 0.000000 0.929635
O O13 0.250000 0.250000 0.000000
O O14 0.467520 0.500000 0.647851
O O15 0.492360 0.777238 0.597442
O O16 0.709884 0.500000 0.659829
O O17 0.819222 0.755020 0.575410
O O18 0.630008 0.747303 0.752721
O O19 0.500000 0.749153 0.500000
O O20 0.435033 0.000000 0.503975
O O21 0.958598 0.000000 0.143238
#
# Coordination Sequence:
#
# PCOD8108332 Si02
#       8
#     8   8   8   8   8   8   8   8
#     4  11  22  38  61  88 120 162 211 258 306 369
#     4  12  24  38  57  87 124 162 205 253 312 374
#     4  10  21  39  61  87 122 162 206 253 310 373
#     4  12  24  39  61  87 120 164 213 261 310 366
#     4  11  23  38  60  90 125 162 203 257 317 375
#     4   9  19  38  63  88 117 156 202 255 306 360
#     4  10  21  40  66  93 120 157 207 256 307 374
#     4  10  21  38  61  88 118 158 209 260 313 368
#
# _framework density 20.936076
#
# number of rings (size 3 to 8) (size 9 to 14) (size 15 to 20)
#    0.000    1.375    1.250    4.875    0.000    6.750 
#    0.000    1.250    0.000    0.000    0.000    0.000 
#    0.000    0.000    0.000    0.000    0.000    0.000 
#
# Total GULP energy -396898.233610 kJ/mol
# GULP energy per Si atom -12403.069800 kJ/mol
# Density = 2.088842 g / cm^3
# Si number density = 20.936076 Si / 1000 Ang^3
#
#
#
# Elastic Constant Matrix: (Units=GPa)
#
#
# Indices 1 2 3 4 5 6 
#
# 1 120.2988 25.9865 51.4808 -0.0041 1.5153 0.0054
# 2 25.9865 49.0523 7.7622 -0.0043 -0.1644 0.0274
# 3 51.4808 7.7622 109.7025 0.0009 -0.3113 0.0025
# 4 -0.0041 -0.0043 0.0009 30.4187 -0.0014 0.2957
# 5 1.5153 -0.1644 -0.3113 -0.0014 39.9876 0.0056
# 6 0.0054 0.0274 0.0025 0.2957 0.0056 21.5880
#
#
#
# Elastic Compliance Matrix: (Units=1/GPa)
#
#
# Indices 1 2 3 4 5 6 
#
# 1 0.011659 -0.005372 -0.005092 0.000001 -0.000504 0.000005
# 2 -0.005372 0.023093 0.000888 0.000003 0.000305 -0.000028
# 3 -0.005092 0.000888 0.011443 -0.000001 0.000286 -0.000001
# 4 0.000001 0.000003 -0.000001 0.032879 0.000001 -0.000450
# 5 -0.000504 0.000305 0.000286 0.000001 0.025030 -0.000007
# 6 0.000005 -0.000028 -0.000001 -0.000450 -0.000007 0.046328
#
#
# Mechanical properties :
#
#
# Convention : Reuss Voigt Hill
#
# Bulk Modulus (GPa) = 36.98022 49.94584 43.46303
# Shear Modulus (GPa) = 27.99551 31.32046 29.65798
#
# Velocity S-wave (km/s) = 3.66073 3.87202 3.76785
# Velocity P-wave (km/s) = 5.96403 6.62557 6.30348
#
# Compressibility (1/GPa) = 0.02704148
#
# Stress axis : x y z
#
# Youngs Moduli (GPa) = 85.77235 43.30305 87.38724
#
# Poissons Ratio (x) = 0.23264 0.44502
# Poissons Ratio (y) = 0.46080 -0.07760
# Poissons Ratio (z) = 0.43679 -0.03845
#
# Static dielectric constant tensor:
#      x y z
#    x 4.029710 0.000000 -0.021350 
#    y 0.000000 3.586260 0.000000 
#    z -0.021350 0.000000 3.790590 
# 
# 
# High freq. dielectric constant tensor:
#      x y z
#    x 1.835560 0.000000 0.002190 
#    y 0.000000 1.799260 0.000000 
#    z 0.002190 0.000000 1.821270 
# 
# From -- ./inp_files/238616.got.cif
#   From: 2010.06.25/outbox.cif.g09.slc.cpg/sg12_120_cif.got.tgz:238616.got - 2010.06.28 00:19:55.
