data_PCOD8108982
_publ_section_title
;
Structure prediction by ZEFSAII (Michael W. Deem and Ramdas Pophale) SiO2 
 PCOD8108982
Probable space group: C 2/M
;
_chemical_formula_sum "Si O2"
_cell_formula_units_Z 64
_cell_length_a 9.662851
_cell_length_b 14.869755
_cell_length_c 27.801876
_cell_angle_alpha 90.000000
_cell_angle_beta 125.915785
_cell_angle_gamma 90.000000
_cell_volume 3235.220652
_symmetry_space_group_name_H-M "C 2/M"
_symmetry_group_IT_number 12
_symmetry_cell_setting 'monoclinic'
loop_
_space_group_symop_operation_xyz
x,y,z
-x,y,-z
-x,-y,-z
x,-y,z
1/2+x,1/2+y,z
1/2-x,1/2+y,-z
1/2-x,1/2-y,-z
1/2+x,1/2-y,z
loop_
_atom_site_type_symbol
_atom_site_label
_atom_site_fract_x
_atom_site_fract_y
_atom_site_fract_z
Si Si1 0.294282 0.743137 0.169156
Si Si2 0.998108 0.849401 0.652525
Si Si3 0.858943 0.893037 0.012962
Si Si4 0.757365 0.901203 0.379742
Si Si5 0.448873 0.403805 0.747625
Si Si6 0.689552 0.762994 0.541159
Si Si7 0.911156 0.726720 0.090113
Si Si8 0.890277 0.665881 0.283227
O O1 0.440571 0.668958 0.202509
O O2 0.306555 0.781680 0.118184
O O3 0.330199 0.819885 0.215958
O O4 0.107867 0.699557 0.138992
O O5 0.108851 0.902333 0.636531
O O6 0.097516 0.757889 0.684636
O O7 0.977718 0.905949 0.696515
O O8 0.809149 0.832474 0.593353
O O9 0.676113 0.850097 0.960570
O O10 0.839249 0.000000 0.022844
O O11 0.911972 0.829164 0.068799
O O12 0.000000 0.882883 0.000000
O O13 0.812704 0.832247 0.432051
O O14 0.571644 0.882735 0.319570
O O15 0.757998 0.000000 0.403440
O O16 0.506044 0.500000 0.779664
O O17 0.248664 0.392126 0.717131
O O18 0.500000 0.803983 0.500000
O O19 0.750000 0.750000 0.500000
#
# Coordination Sequence:
#
# PCOD8108982 Si02
#       8
#     8   8   8   8   8   8   8   8
#     4  11  22  39  63  89 120 162 201 241 303 354
#     4  10  21  39  62  83 117 158 195 234 295 363
#     4  10  22  41  65  91 122 166 208 245 302 363
#     4  11  23  39  60  88 119 152 192 244 297 348
#     4  11  23  38  59  90 123 153 195 249 297 353
#     4  11  22  40  63  86 110 155 202 241 288 359
#     4  11  22  41  64  91 125 161 202 258 298 351
#     4  10  21  39  61  84 118 161 197 230 292 369
#
# _framework density 19.782267999999998
#
# number of rings (size 3 to 8) (size 9 to 14) (size 15 to 20)
#    0.000    1.375    3.750    3.000    3.500    1.250 
#    0.000    1.875    0.000    1.875    0.000    0.000 
#    0.000    0.000    0.000    0.000    0.000    0.000 
#
# Total GULP energy -396760.841282 kJ/mol
# GULP energy per Si atom -12398.776290 kJ/mol
# Density = 1.973724 g / cm^3
# Si number density = 19.782268 Si / 1000 Ang^3
#
#
#
# Elastic Constant Matrix: (Units=GPa)
#
#
# Indices 1 2 3 4 5 6 
#
# 1 107.5567 18.6107 27.9769 0.0000 5.9904 0.0000
# 2 18.6107 89.6714 12.0969 0.0000 5.7592 0.0000
# 3 27.9769 12.0969 84.8440 0.0000 9.8585 0.0000
# 4 0.0000 0.0000 0.0000 4.1542 0.0000 -9.5587
# 5 5.9904 5.7592 9.8585 0.0000 40.7870 0.0000
# 6 0.0000 0.0000 0.0000 -9.5587 0.0000 3.8296
#
#
#
# Elastic Compliance Matrix: (Units=1/GPa)
#
#
# Indices 1 2 3 4 5 6 
#
# 1 0.010439 -0.001709 -0.003136 0.000000 -0.000534 0.000000
# 2 -0.001709 0.011713 -0.000971 0.000000 -0.001168 0.000000
# 3 -0.003136 -0.000971 0.013262 0.000000 -0.002608 0.000000
# 4 0.000000 0.000000 0.000000 -0.050750 0.000000 -0.126673
# 5 -0.000534 -0.001168 -0.002608 0.000000 0.025391 0.000000
# 6 0.000000 0.000000 0.000000 -0.126673 0.000000 -0.055051
#
#
# Mechanical properties :
#
#
# Convention : Reuss Voigt Hill
#
# Bulk Modulus (GPa) = 42.05061 44.38235 43.21648
# Shear Modulus (GPa) = -196.55851 24.64667 -85.95592
#
# Velocity S-wave (km/s) = -9.97881 3.53356 -6.59889
# Velocity P-wave (km/s) = 10.55775 6.25557 6.01390
#
# Compressibility (1/GPa) = 0.02378087
#
# Stress axis : x y z
#
# Youngs Moduli (GPa) = 95.79743 85.37878 75.40361
#
# Poissons Ratio (x) = 0.14592 0.23650
# Poissons Ratio (y) = 0.16373 0.07319
# Poissons Ratio (z) = 0.30046 0.08287
#
# Static dielectric constant tensor:
#      x y z
#    x 3.672540 0.000000 0.101740 
#    y 0.000000 4.043720 0.000000 
#    z 0.101740 0.000000 3.796900 
# 
# 
# High freq. dielectric constant tensor:
#      x y z
#    x 1.785450 0.000000 0.005540 
#    y 0.000000 1.752430 0.000000 
#    z 0.005540 0.000000 1.778810 
# 
# From -- ./inp_files/372569.got.cif
#   From: 2010.06.25/outbox.cif.g09.slc.cpg/sg12_187_cif.got.tgz:372569.got - 2010.06.28 00:19:55.
