data_PCOD8108058
_publ_section_title
;
Structure prediction by ZEFSAII (Michael W. Deem and Ramdas Pophale) SiO2 
 PCOD8108058
Probable space group: C 2/M
;
_chemical_formula_sum "Si O2"
_cell_formula_units_Z 64
_cell_length_a 17.781483
_cell_length_b 13.352737
_cell_length_c 13.370289
_cell_angle_alpha 90.000000
_cell_angle_beta 93.057625
_cell_angle_gamma 90.000000
_cell_volume 3170.008038
_symmetry_space_group_name_H-M "C 2/M"
_symmetry_group_IT_number 12
_symmetry_cell_setting 'monoclinic'
loop_
_space_group_symop_operation_xyz
x,y,z
-x,y,-z
-x,-y,-z
x,-y,z
1/2+x,1/2+y,z
1/2-x,1/2+y,-z
1/2-x,1/2-y,-z
1/2+x,1/2-y,z
loop_
_atom_site_type_symbol
_atom_site_label
_atom_site_fract_x
_atom_site_fract_y
_atom_site_fract_z
Si Si1 0.561144 0.616463 0.420043
Si Si2 0.707429 0.111955 0.659938
Si Si3 0.773677 0.295887 0.734608
Si Si4 0.585478 0.116981 0.804043
Si Si5 0.063325 0.742942 0.233922
Si Si6 0.717983 0.615069 0.529266
Si Si7 0.813464 0.777917 0.081908
Si Si8 0.581082 0.389476 0.052262
O O1 0.500000 0.638321 0.500000
O O2 0.559948 0.500000 0.387362
O O3 0.540829 0.684966 0.323539
O O4 0.641676 0.649428 0.469280
O O5 0.766165 0.174855 0.731544
O O6 0.622347 0.123843 0.695390
O O7 0.712863 0.140222 0.541971
O O8 0.737882 0.000000 0.675092
O O9 0.861862 0.324466 0.739348
O O10 0.729015 0.329676 0.633622
O O11 0.727521 0.333297 0.827714
O O12 0.502917 0.164979 0.793734
O O13 0.637545 0.179596 0.884500
O O14 0.580399 0.000000 0.837823
O O15 0.084681 0.808467 0.139752
O O16 0.713816 0.500000 0.557920
O O17 0.750000 0.750000 0.000000
O O18 0.865419 0.860566 0.035584
O O19 0.603757 0.500000 0.093846
O O20 0.500000 0.392635 0.000000
#
# Coordination Sequence:
#
# PCOD8108058 Si02
#       8
#     8   8   8   8   8   8   8   8
#     4  10  23  38  58  92 130 167 209 259 323 385
#     4   9  19  38  62  88 118 162 214 255 304 369
#     4  11  23  36  65  91 122 164 208 264 314 374
#     4  10  24  43  65  92 127 172 213 259 316 381
#     4  12  23  40  66  92 129 165 214 258 313 388
#     4  10  21  38  59  88 128 167 209 260 317 375
#     4  11  23  44  67  93 126 159 214 269 318 378
#     4  11  24  43  67  94 126 162 205 261 325 381
#
# _framework density 20.189222999999998
#
# number of rings (size 3 to 8) (size 9 to 14) (size 15 to 20)
#    0.000    1.500    3.750    0.750    3.500    2.000 
#    0.000    1.250    0.000    2.625    0.000    0.000 
#    0.000    0.000    0.000    0.000    0.000    0.000 
#
# Total GULP energy -396673.452691 kJ/mol
# GULP energy per Si atom -12396.045397 kJ/mol
# Density = 2.014327 g / cm^3
# Si number density = 20.189223 Si / 1000 Ang^3
#
#
#
# Elastic Constant Matrix: (Units=GPa)
#
#
# Indices 1 2 3 4 5 6 
#
# 1 120.0109 47.8934 42.3047 0.0000 -6.6846 0.0000
# 2 47.8934 62.1789 33.7840 0.0000 0.3690 0.0000
# 3 42.3047 33.7840 103.3546 0.0000 -9.7116 0.0000
# 4 0.0000 0.0000 0.0000 24.9395 0.0000 -1.6564
# 5 -6.6846 0.3690 -9.7116 0.0000 35.2974 0.0000
# 6 0.0000 0.0000 0.0000 -1.6564 0.0000 16.5254
#
#
#
# Elastic Compliance Matrix: (Units=1/GPa)
#
#
# Indices 1 2 3 4 5 6 
#
# 1 0.012618 -0.008536 -0.002199 0.000000 0.001874 0.000000
# 2 -0.008536 0.025471 -0.005142 0.000000 -0.003297 0.000000
# 3 -0.002199 -0.005142 0.012546 0.000000 0.003089 0.000000
# 4 0.000000 0.000000 0.000000 0.040366 0.000000 0.004046
# 5 0.001874 -0.003297 0.003089 0.000000 0.029570 0.000000
# 6 0.000000 0.000000 0.000000 0.004046 0.000000 0.060919
#
#
# Mechanical properties :
#
#
# Convention : Reuss Voigt Hill
#
# Bulk Modulus (GPa) = 52.95784 59.27873 56.11828
# Shear Modulus (GPa) = 22.77525 26.12329 24.44927
#
# Velocity S-wave (km/s) = 3.36235 3.60102 3.48373
# Velocity P-wave (km/s) = 6.43129 6.83484 6.63614
#
# Compressibility (1/GPa) = 0.01888295
#
# Stress axis : x y z
#
# Youngs Moduli (GPa) = 79.24885 39.26093 79.70452
#
# Poissons Ratio (x) = 0.33513 0.17525
# Poissons Ratio (y) = 0.67646 0.40981
# Poissons Ratio (z) = 0.17424 0.20187
#
# Static dielectric constant tensor:
#      x y z
#    x 3.854700 0.000000 -0.238360 
#    y 0.000000 3.878150 0.000000 
#    z -0.238360 0.000000 3.753890 
# 
# 
# High freq. dielectric constant tensor:
#      x y z
#    x 1.793000 0.000000 -0.015510 
#    y 0.000000 1.782880 0.000000 
#    z -0.015510 0.000000 1.792850 
# 
# From -- ./inp_files/156646.got.cif
#   From: 2010.06.25/outbox.cif.g09.slc.cpg/sg12_79_cif.got.tgz:156646.got - 2010.06.28 00:19:55.
