data_PCOD8108373
_publ_section_title
;
Structure prediction by ZEFSAII (Michael W. Deem and Ramdas Pophale) SiO2 
 PCOD8108373
Probable space group: C 2/M
;
_chemical_formula_sum "Si O2"
_cell_formula_units_Z 44
_cell_length_a 5.163552
_cell_length_b 23.738347
_cell_length_c 19.906113
_cell_angle_alpha 90.000000
_cell_angle_beta 59.504701
_cell_angle_gamma 90.000000
_cell_volume 2102.455779
_symmetry_space_group_name_H-M "C 2/M"
_symmetry_group_IT_number 12
_symmetry_cell_setting 'monoclinic'
loop_
_space_group_symop_operation_xyz
x,y,z
-x,y,-z
-x,-y,-z
x,-y,z
1/2+x,1/2+y,z
1/2-x,1/2+y,-z
1/2-x,1/2-y,-z
1/2+x,1/2-y,z
loop_
_atom_site_type_symbol
_atom_site_label
_atom_site_fract_x
_atom_site_fract_y
_atom_site_fract_z
Si Si1 0.335032 0.566163 0.590036
Si Si2 0.320384 0.868553 0.092089
Si Si3 0.446796 0.287079 0.775900
Si Si4 0.820136 0.937242 0.092215
Si Si5 0.500000 0.212016 0.500000
Si Si6 0.264843 0.627508 0.359084
O O1 0.500000 0.585974 0.500000
O O2 0.280260 0.500000 0.596521
O O3 0.536692 0.581982 0.627318
O O4 0.015472 0.596498 0.638203
O O5 0.234388 0.807963 0.134383
O O6 0.515527 0.903097 0.120196
O O7 0.019368 0.904465 0.120113
O O8 0.500000 0.856785 0.000000
O O9 0.740177 0.252305 0.757449
O O10 0.538366 0.343404 0.724342
O O11 0.745053 0.000000 0.129141
O O12 0.000000 0.942732 0.000000
O O13 0.250000 0.250000 0.500000
O O14 0.656272 0.175339 0.423189
#
# Coordination Sequence:
#
# PCOD8108373 Si02
#       6
#     8   8   8   8   4   8
#     4  11  22  41  67  95 125 161 198 241 300 364
#     4  10  21  38  61  89 118 160 211 252 301 367
#     4  12  26  44  62  85 123 164 202 261 316 349
#     4   9  17  33  59  90 121 152 190 245 307 363
#     4  12  22  36  59  86 113 152 202 242 280 342
#     4  12  23  42  62  92 124 159 201 247 300 363
#
# _framework density 20.927909
#
# number of rings (size 3 to 8) (size 9 to 14) (size 15 to 20)
#    0.000    1.091    1.818    5.455    0.000    4.364 
#    0.000    5.455    0.000    0.000    0.000    0.000 
#    0.000    0.000    0.000    0.000    0.000    0.000 
#
# Total GULP energy -272932.793983 kJ/mol
# GULP energy per Si atom -12406.036090 kJ/mol
# Density = 2.088028 g / cm^3
# Si number density = 20.927909 Si / 1000 Ang^3
#
#
#
# Elastic Constant Matrix: (Units=GPa)
#
#
# Indices 1 2 3 4 5 6 
#
# 1 136.9960 35.0113 18.2209 0.0000 -2.4182 0.0000
# 2 35.0113 87.4014 31.4318 0.0000 -4.7627 0.0000
# 3 18.2209 31.4318 69.3580 0.0000 -4.6167 0.0000
# 4 0.0000 0.0000 0.0000 -3.8458 0.0000 -4.9302
# 5 -2.4182 -4.7627 -4.6167 0.0000 16.4039 0.0000
# 6 0.0000 0.0000 0.0000 -4.9302 0.0000 51.3917
#
#
#
# Elastic Compliance Matrix: (Units=1/GPa)
#
#
# Indices 1 2 3 4 5 6 
#
# 1 0.008168 -0.002983 -0.000786 0.000000 0.000117 0.000000
# 2 -0.002983 0.014842 -0.005793 0.000000 0.002239 0.000000
# 3 -0.000786 -0.005793 0.017457 0.000000 0.003115 0.000000
# 4 0.000000 0.000000 0.000000 -0.231545 0.000000 -0.022213
# 5 0.000117 0.002239 0.003115 0.000000 0.062505 0.000000
# 6 0.000000 0.000000 0.000000 -0.022213 0.000000 0.017327
#
#
# Mechanical properties :
#
#
# Convention : Reuss Voigt Hill
#
# Bulk Modulus (GPa) = 46.85528 51.45370 49.15449
# Shear Modulus (GPa) = -58.81947 26.72939 -16.04504
#
# Velocity S-wave (km/s) = -5.30724 3.57769 -2.77191
# Velocity P-wave (km/s) = 3.88821 6.45802 3.64608
#
# Compressibility (1/GPa) = 0.02134231
#
# Stress axis : x y z
#
# Youngs Moduli (GPa) = 122.42188 67.37711 57.28251
#
# Poissons Ratio (x) = 0.20099 0.04504
# Poissons Ratio (y) = 0.36518 0.33186
# Poissons Ratio (z) = 0.09626 0.39034
#
# Static dielectric constant tensor:
#      x y z
#    x 4.145080 0.000000 0.041830 
#    y 0.000000 3.848880 0.000000 
#    z 0.041830 0.000000 3.605130 
# 
# 
# High freq. dielectric constant tensor:
#      x y z
#    x 1.840490 0.000000 -0.000100 
#    y 0.000000 1.828820 0.000000 
#    z -0.000100 0.000000 1.803890 
# 
# From -- ./inp_files/297917.got.cif
#   From: 2010.06.25/outbox.cif.g09.slc.cpg/sg12_149_cif.got.tgz:297917.got - 2010.06.28 00:19:55.
