data_PCOD8108633
_publ_section_title
;
Structure prediction by ZEFSAII (Michael W. Deem and Ramdas Pophale) SiO2 
 PCOD8108633
Probable space group: C 2/M
;
_chemical_formula_sum "Si O2"
_cell_formula_units_Z 56
_cell_length_a 27.439581
_cell_length_b 8.838574
_cell_length_c 12.646922
_cell_angle_alpha 90.000000
_cell_angle_beta 113.224328
_cell_angle_gamma 90.000000
_cell_volume 2818.674332
_symmetry_space_group_name_H-M "C 2/M"
_symmetry_group_IT_number 12
_symmetry_cell_setting 'monoclinic'
loop_
_space_group_symop_operation_xyz
x,y,z
-x,y,-z
-x,-y,-z
x,-y,z
1/2+x,1/2+y,z
1/2-x,1/2+y,-z
1/2-x,1/2-y,-z
1/2+x,1/2-y,z
loop_
_atom_site_type_symbol
_atom_site_label
_atom_site_fract_x
_atom_site_fract_y
_atom_site_fract_z
Si Si1 0.286913 0.672415 0.115916
Si Si2 0.559849 0.677486 0.023799
Si Si3 0.591853 0.329134 0.820631
Si Si4 0.942218 0.679163 0.420384
Si Si5 0.643886 0.179354 0.251925
Si Si6 0.755832 0.322250 0.300288
Si Si7 0.856680 0.321410 0.511929
O O1 0.268695 0.500000 0.122326
O O2 0.345204 0.677041 0.118054
O O3 0.285446 0.770709 0.220100
O O4 0.250000 0.750000 0.000000
O O5 0.571210 0.500000 0.044529
O O6 0.598322 0.762703 0.136571
O O7 0.500000 0.720827 0.000000
O O8 0.569979 0.733283 0.913134
O O9 0.571996 0.500000 0.783500
O O10 0.570053 0.224947 0.709397
O O11 0.940961 0.500000 0.425774
O O12 0.899164 0.749547 0.465710
O O13 0.000000 0.742660 0.500000
O O14 0.700913 0.236143 0.263841
O O15 0.632316 0.240435 0.360747
O O16 0.644715 0.000000 0.250254
O O17 0.744428 0.500000 0.285969
O O18 0.796295 0.278328 0.429188
O O19 0.863411 0.500000 0.514445
#
# Coordination Sequence:
#
# PCOD8108633 Si02
#       7
#     8   8   8   8   8   8   8
#     4  11  22  36  58  88 121 159 202 249 299 356
#     4  10  23  43  63  86 120 161 203 247 301 359
#     4  10  22  40  60  86 120 154 196 248 295 350
#     4  10  21  38  63  91 120 156 196 242 300 359
#     4  11  23  39  61  90 123 157 203 253 301 359
#     4  11  21  38  61  86 121 161 200 244 303 364
#     4   9  20  38  59  89 124 157 195 246 300 357
#
# _framework density 19.867497
#
# number of rings (size 3 to 8) (size 9 to 14) (size 15 to 20)
#    0.000    1.714    1.429    2.571    2.000    2.857 
#    0.000    3.571    0.000    0.000    0.000    0.000 
#    0.000    0.000    0.000    0.000    0.000    0.000 
#
# Total GULP energy -347268.236012 kJ/mol
# GULP energy per Si atom -12402.437000 kJ/mol
# Density = 1.982228 g / cm^3
# Si number density = 19.867497 Si / 1000 Ang^3
#
#
#
# Elastic Constant Matrix: (Units=GPa)
#
#
# Indices 1 2 3 4 5 6 
#
# 1 137.2601 35.7339 69.6274 0.0000 -4.4416 0.0000
# 2 35.7339 42.7039 34.9178 0.0000 8.1501 0.0000
# 3 69.6274 34.9178 119.6175 0.0000 -9.9312 0.0000
# 4 0.0000 0.0000 0.0000 28.6460 0.0000 -4.2661
# 5 -4.4416 8.1501 -9.9312 0.0000 38.4440 0.0000
# 6 0.0000 0.0000 0.0000 -4.2661 0.0000 19.1075
#
#
#
# Elastic Compliance Matrix: (Units=1/GPa)
#
#
# Indices 1 2 3 4 5 6 
#
# 1 0.011239 -0.005766 -0.004751 0.000000 0.001294 0.000000
# 2 -0.005766 0.037128 -0.008370 0.000000 -0.010700 0.000000
# 3 -0.004751 -0.008370 0.013970 0.000000 0.004834 0.000000
# 4 0.000000 0.000000 0.000000 0.036110 0.000000 0.008062
# 5 0.001294 -0.010700 0.004834 0.000000 0.029679 0.000000
# 6 0.000000 0.000000 0.000000 0.008062 0.000000 0.054136
#
#
# Mechanical properties :
#
#
# Convention : Reuss Voigt Hill
#
# Bulk Modulus (GPa) = 40.71321 64.45998 52.58659
# Shear Modulus (GPa) = 21.90842 27.85964 24.88403
#
# Velocity S-wave (km/s) = 3.32434 3.74875 3.54291
# Velocity P-wave (km/s) = 5.93901 7.15911 6.57741
#
# Compressibility (1/GPa) = 0.02456206
#
# Stress axis : x y z
#
# Youngs Moduli (GPa) = 88.97939 26.93379 71.58073
#
# Poissons Ratio (x) = 0.15531 0.34009
# Poissons Ratio (y) = 0.51307 0.59913
# Poissons Ratio (z) = 0.42276 0.22544
#
# Static dielectric constant tensor:
#      x y z
#    x 3.629200 0.000000 0.161220 
#    y 0.000000 3.534320 0.000000 
#    z 0.161220 0.000000 3.400760 
# 
# 
# High freq. dielectric constant tensor:
#      x y z
#    x 1.786990 0.000000 -0.002130 
#    y 0.000000 1.759100 0.000000 
#    z -0.002130 0.000000 1.789090 
# 
# From -- ./inp_files/180676.got.cif
#   From: 2010.06.25/outbox.cif.g09.slc.cpg/sg12_91_cif.got.tgz:180676.got - 2010.06.28 00:19:55.
