data_PCOD8108764
_publ_section_title
;
Structure prediction by ZEFSAII (Michael W. Deem and Ramdas Pophale) SiO2 
 PCOD8108764
Probable space group: C 2/M
;
_chemical_formula_sum "Si O2"
_cell_formula_units_Z 64
_cell_length_a 18.305364
_cell_length_b 13.463572
_cell_length_c 24.675455
_cell_angle_alpha 90.000000
_cell_angle_beta 149.799018
_cell_angle_gamma 90.000000
_cell_volume 3059.157461
_symmetry_space_group_name_H-M "C 2/M"
_symmetry_group_IT_number 12
_symmetry_cell_setting 'monoclinic'
loop_
_space_group_symop_operation_xyz
x,y,z
-x,y,-z
-x,-y,-z
x,-y,z
1/2+x,1/2+y,z
1/2-x,1/2+y,-z
1/2-x,1/2-y,-z
1/2+x,1/2-y,z
loop_
_atom_site_type_symbol
_atom_site_label
_atom_site_fract_x
_atom_site_fract_y
_atom_site_fract_z
Si Si1 0.652720 0.732135 0.990664
Si Si2 0.142035 0.112526 0.744180
Si Si3 0.083484 0.298591 0.772273
Si Si4 0.571010 0.616072 0.101595
Si Si5 0.165022 0.382621 0.319341
Si Si6 0.037619 0.197539 0.463804
Si Si7 0.100546 0.614273 0.673235
Si Si8 0.414983 0.886788 0.852170
O O1 0.524713 0.649075 0.907127
O O2 0.569590 0.831903 0.955387
O O3 0.750000 0.750000 0.000000
O O4 0.753587 0.688495 0.102455
O O5 0.074300 0.183982 0.746535
O O6 0.307736 0.140971 0.833235
O O7 0.044149 0.122513 0.628087
O O8 0.133804 0.000000 0.760438
O O9 0.045513 0.375133 0.699715
O O10 0.979157 0.325079 0.754633
O O11 0.581057 0.500000 0.103950
O O12 0.733687 0.655184 0.218695
O O13 0.500000 0.658476 0.000000
O O14 0.163585 0.500000 0.332652
O O15 0.291309 0.324165 0.432258
O O16 0.171421 0.364913 0.259015
O O17 0.000000 0.165659 0.500000
O O18 0.996204 0.313487 0.426506
O O19 0.084504 0.500000 0.643287
O O20 0.461333 0.000000 0.884938
#
# Coordination Sequence:
#
# PCOD8108764 Si02
#       8
#     8   8   8   8   8   8   8   8
#     4  12  23  37  60  91 130 163 204 254 312 367
#     4  10  22  40  63  92 125 162 205 257 310 370
#     4  11  23  39  61  91 126 166 204 255 309 374
#     4  10  21  38  65  93 118 158 210 254 299 364
#     4  11  23  40  64  93 124 160 210 263 311 366
#     4  11  22  38  66  92 122 160 210 259 311 366
#     4  10  22  40  62  92 127 162 206 257 310 372
#     4  10  22  39  62  92 125 162 207 257 311 370
#
# _framework density 20.920793
#
# number of rings (size 3 to 8) (size 9 to 14) (size 15 to 20)
#    0.000    1.375    3.750    2.250    0.000    4.250 
#    0.000    3.125    0.000    0.000    0.000    0.000 
#    0.000    0.000    0.000    0.000    0.000    0.000 
#
# Total GULP energy -396548.939793 kJ/mol
# GULP energy per Si atom -12392.154369 kJ/mol
# Density = 2.087318 g / cm^3
# Si number density = 20.920793 Si / 1000 Ang^3
#
#
#
# Elastic Constant Matrix: (Units=GPa)
#
#
# Indices 1 2 3 4 5 6 
#
# 1 48.7513 25.1467 13.6644 -0.0016 6.7412 -0.0002
# 2 25.1467 103.8963 40.1500 -0.0015 13.2992 -0.0003
# 3 13.6644 40.1500 73.0075 -0.0048 22.9579 -0.0013
# 4 -0.0016 -0.0015 -0.0048 26.8124 -0.0017 6.5495
# 5 6.7412 13.2992 22.9579 -0.0017 25.4048 -0.0002
# 6 -0.0002 -0.0003 -0.0013 6.5495 -0.0002 27.7853
#
#
#
# Elastic Compliance Matrix: (Units=1/GPa)
#
#
# Indices 1 2 3 4 5 6 
#
# 1 0.023751 -0.005094 -0.000699 0.000001 -0.003004 0.000000
# 2 -0.005094 0.013319 -0.006431 -0.000001 0.000191 0.000000
# 3 -0.000699 -0.006431 0.022698 0.000002 -0.016960 0.000000
# 4 0.000001 -0.000001 0.000002 0.039575 0.000000 -0.009328
# 5 -0.003004 0.000191 -0.016960 0.000000 0.055386 0.000000
# 6 0.000000 0.000000 0.000000 -0.009328 0.000000 0.038189
#
#
# Mechanical properties :
#
#
# Convention : Reuss Voigt Hill
#
# Bulk Modulus (GPa) = 28.31361 42.61969 35.46665
# Shear Modulus (GPa) = 21.82074 25.78010 23.80042
#
# Velocity S-wave (km/s) = 3.23308 3.51418 3.37656
# Velocity P-wave (km/s) = 5.24406 6.07306 5.67372
#
# Compressibility (1/GPa) = 0.03531870
#
# Stress axis : x y z
#
# Youngs Moduli (GPa) = 42.10314 75.08219 44.05660
#
# Poissons Ratio (x) = 0.38246 0.03082
# Poissons Ratio (y) = 0.21447 0.28334
# Poissons Ratio (z) = 0.02945 0.48288
#
# Static dielectric constant tensor:
#      x y z
#    x 3.694340 0.000000 0.058650 
#    y 0.000000 3.735920 0.000000 
#    z 0.058650 0.000000 3.921800 
# 
# 
# High freq. dielectric constant tensor:
#      x y z
#    x 1.807300 0.000000 0.009020 
#    y 0.000000 1.821550 0.000000 
#    z 0.009020 0.000000 1.819540 
# 
# From -- ./inp_files/344056.got.cif
#   From: 2010.06.25/outbox.cif.g09.slc.cpg/sg12_173_cif.got.tgz:344056.got - 2010.06.28 00:19:55.
