data_PCOD8108347
_publ_section_title
;
Structure prediction by ZEFSAII (Michael W. Deem and Ramdas Pophale) SiO2 
 PCOD8108347
Probable space group: C 2/M
;
_chemical_formula_sum "Si O2"
_cell_formula_units_Z 48
_cell_length_a 23.824003
_cell_length_b 8.695722
_cell_length_c 11.828429
_cell_angle_alpha 90.000000
_cell_angle_beta 89.216484
_cell_angle_gamma 90.000000
_cell_volume 2450.229932
_symmetry_space_group_name_H-M "C 2/M"
_symmetry_group_IT_number 12
_symmetry_cell_setting 'monoclinic'
loop_
_space_group_symop_operation_xyz
x,y,z
-x,y,-z
-x,-y,-z
x,-y,z
1/2+x,1/2+y,z
1/2-x,1/2+y,-z
1/2-x,1/2-y,-z
1/2+x,1/2-y,z
loop_
_atom_site_type_symbol
_atom_site_label
_atom_site_fract_x
_atom_site_fract_y
_atom_site_fract_z
Si Si1 0.834444 0.821923 0.018745
Si Si2 0.043597 0.178438 0.899932
Si Si3 0.770293 0.322820 0.824554
Si Si4 0.917470 0.182488 0.536829
Si Si5 0.292250 0.679934 0.587494
Si Si6 0.017685 0.680649 0.664748
O O1 0.895074 0.770524 0.060448
O O2 0.790007 0.788190 0.118712
O O3 0.833523 0.000000 0.982968
O O4 0.819901 0.722733 0.908868
O O5 0.026790 0.282037 0.794934
O O6 0.042766 0.000000 0.864208
O O7 0.000000 0.212910 0.000000
O O8 0.777058 0.500000 0.791170
O O9 0.773507 0.221051 0.713502
O O10 0.854709 0.241547 0.561136
O O11 0.935119 0.233688 0.410729
O O12 0.956363 0.261738 0.629747
O O13 0.923435 0.000000 0.548175
O O14 0.290744 0.500000 0.571278
O O15 0.250000 0.750000 0.500000
O O16 0.022490 0.500000 0.643454
#
# Coordination Sequence:
#
# PCOD8108347 Si02
#       6
#     8   8   8   8   8   8
#     4   9  20  39  61  86 117 158 203 241 289 353
#     4  10  22  39  61  87 119 160 203 242 288 355
#     4  10  21  38  61  88 120 156 196 245 298 352
#     4  10  22  42  65  86 116 161 203 239 291 361
#     4  11  25  41  62  90 121 156 200 247 294 353
#     4  11  23  39  62  92 123 153 194 251 303 348
#
# _framework density 19.59
#
# number of rings (size 3 to 8) (size 9 to 14) (size 15 to 20)
#    0.000    1.833    0.000    4.000    4.667    4.333 
#    0.000    0.000    0.000    0.000    0.000    0.000 
#    0.000    0.000    0.000    0.000    0.000    0.000 
#
# Total GULP energy -297733.835545 kJ/mol
# GULP energy per Si atom -12405.576481 kJ/mol
# Density = 1.954541 g / cm^3
# Si number density = 19.590000 Si / 1000 Ang^3
#
#
#
# Elastic Constant Matrix: (Units=GPa)
#
#
# Indices 1 2 3 4 5 6 
#
# 1 149.0821 36.7044 71.2002 0.0000 8.6366 0.0000
# 2 36.7044 49.6010 24.6250 0.0000 2.5431 0.0000
# 3 71.2002 24.6250 114.2943 0.0000 7.6314 0.0000
# 4 0.0000 0.0000 0.0000 38.1461 0.0000 4.1396
# 5 8.6366 2.5431 7.6314 0.0000 20.2369 0.0000
# 6 0.0000 0.0000 0.0000 4.1396 0.0000 28.0188
#
#
#
# Elastic Compliance Matrix: (Units=1/GPa)
#
#
# Indices 1 2 3 4 5 6 
#
# 1 0.010659 -0.005103 -0.005416 0.000000 -0.001865 0.000000
# 2 -0.005103 0.025040 -0.002207 0.000000 -0.000137 0.000000
# 3 -0.005416 -0.002207 0.012747 0.000000 -0.002218 0.000000
# 4 0.000000 0.000000 0.000000 0.026642 0.000000 -0.003936
# 5 -0.001865 -0.000137 -0.002218 0.000000 0.051064 0.000000
# 6 0.000000 0.000000 0.000000 -0.003936 0.000000 0.036272
#
#
# Mechanical properties :
#
#
# Convention : Reuss Voigt Hill
#
# Bulk Modulus (GPa) = 43.49008 64.22629 53.85819
# Shear Modulus (GPa) = 25.57029 29.31022 27.44025
#
# Velocity S-wave (km/s) = 3.61678 3.87225 3.74669
# Velocity P-wave (km/s) = 6.29998 7.26972 6.80215
#
# Compressibility (1/GPa) = 0.02299375
#
# Stress axis : x y z
#
# Youngs Moduli (GPa) = 93.81987 39.93672 78.45116
#
# Poissons Ratio (x) = 0.20380 0.42489
# Poissons Ratio (y) = 0.47876 0.17313
# Poissons Ratio (z) = 0.50812 0.08813
#
# Static dielectric constant tensor:
#      x y z
#    x 3.065900 0.000000 0.755340 
#    y 0.000000 3.555340 0.000000 
#    z 0.755340 0.000000 2.731260 
# 
# 
# High freq. dielectric constant tensor:
#      x y z
#    x 1.773190 0.000000 0.000430 
#    y 0.000000 1.766260 0.000000 
#    z 0.000430 0.000000 1.769110 
# 
# From -- ./inp_files/172318.got.cif
#   From: 2010.06.25/outbox.cif.g09.slc.cpg/sg12_87_cif.got.tgz:172318.got - 2010.06.28 00:19:55.
