data_PCOD8108140
_publ_section_title
;
Structure prediction by ZEFSAII (Michael W. Deem and Ramdas Pophale) SiO2 
 PCOD8108140
Probable space group: C 2/M
;
_chemical_formula_sum "Si O2"
_cell_formula_units_Z 56
_cell_length_a 29.220766
_cell_length_b 8.590412
_cell_length_c 20.175040
_cell_angle_alpha 90.000000
_cell_angle_beta 32.515742
_cell_angle_gamma 90.000000
_cell_volume 2722.223382
_symmetry_space_group_name_H-M "C 2/M"
_symmetry_group_IT_number 12
_symmetry_cell_setting 'monoclinic'
loop_
_space_group_symop_operation_xyz
x,y,z
-x,y,-z
-x,-y,-z
x,-y,z
1/2+x,1/2+y,z
1/2-x,1/2+y,-z
1/2-x,1/2-y,-z
1/2+x,1/2-y,z
loop_
_atom_site_type_symbol
_atom_site_label
_atom_site_fract_x
_atom_site_fract_y
_atom_site_fract_z
Si Si1 0.362664 0.319572 0.445776
Si Si2 0.250371 0.819452 0.795010
Si Si3 0.700259 0.318869 0.710448
Si Si4 0.418800 0.318581 0.641425
Si Si5 0.532705 0.180670 0.283707
Si Si6 0.079321 0.320140 0.758756
Si Si7 0.393038 0.821410 0.946853
O O1 0.340429 0.500000 0.481957
O O2 0.284827 0.217684 0.566323
O O3 0.445956 0.279132 0.387047
O O4 0.376539 0.282906 0.351740
O O5 0.210978 0.766241 0.773243
O O6 0.334743 0.718947 0.702738
O O7 0.275701 0.000000 0.763754
O O8 0.181805 0.788566 0.936064
O O9 0.679619 0.500000 0.730345
O O10 0.619866 0.224589 0.779605
O O11 0.500000 0.263804 0.500000
O O12 0.423414 0.500000 0.652281
O O13 0.415405 0.223862 0.714120
O O14 0.591849 0.219798 0.148579
O O15 0.507360 0.000000 0.313767
O O16 0.095700 0.500000 0.721341
O O17 0.978624 0.286518 0.884026
O O18 0.364657 0.000000 0.990089
#
# Coordination Sequence:
#
# PCOD8108140 Si02
#       7
#     8   8   8   8   8   8   8
#     4  11  21  35  58  88 120 154 193 240 292 346
#     4  11  25  41  60  85 116 155 195 240 290 342
#     4  11  23  38  56  83 118 156 197 242 293 346
#     4  11  24  41  63  91 120 152 191 235 287 346
#     4  10  21  39  63  89 118 154 193 237 291 345
#     4  10  21  38  60  86 116 154 196 240 292 346
#     4   9  21  41  62  85 115 151 194 240 285 342
#
# _framework density 20.57142
#
# number of rings (size 3 to 8) (size 9 to 14) (size 15 to 20)
#    0.000    1.571    0.000    5.571    0.000   10.286 
#    0.000    2.857    0.000    0.000    0.000    0.000 
#    0.000    0.000    0.000    0.000    0.000    0.000 
#
# Total GULP energy -347400.221835 kJ/mol
# GULP energy per Si atom -12407.150780 kJ/mol
# Density = 2.052460 g / cm^3
# Si number density = 20.571420 Si / 1000 Ang^3
#
#
#
# Elastic Constant Matrix: (Units=GPa)
#
#
# Indices 1 2 3 4 5 6 
#
# 1 122.2185 31.8820 40.7816 0.0061 7.2933 -0.0029
# 2 31.8820 54.9414 25.0940 -0.0027 1.4296 -0.0040
# 3 40.7816 25.0940 101.4869 -0.0104 -3.7199 -0.0011
# 4 0.0061 -0.0027 -0.0104 27.9398 0.0034 -1.5319
# 5 7.2933 1.4296 -3.7199 0.0034 15.8379 -0.0010
# 6 -0.0029 -0.0040 -0.0011 -1.5319 -0.0010 36.4610
#
#
#
# Elastic Compliance Matrix: (Units=1/GPa)
#
#
# Indices 1 2 3 4 5 6 
#
# 1 0.010841 -0.004589 -0.003419 -0.000003 -0.005381 0.000000
# 2 -0.004589 0.022610 -0.003776 0.000002 -0.000814 0.000002
# 3 -0.003419 -0.003776 0.012337 0.000004 0.004813 0.000000
# 4 -0.000003 0.000002 0.000004 0.035874 -0.000005 0.001507
# 5 -0.005381 -0.000814 0.004813 -0.000005 0.066822 0.000001
# 6 0.000000 0.000002 0.000000 0.001507 0.000001 0.027490
#
#
# Mechanical properties :
#
#
# Convention : Reuss Voigt Hill
#
# Bulk Modulus (GPa) = 45.00500 52.68465 48.84483
# Shear Modulus (GPa) = 24.16039 28.10704 26.13371
#
# Velocity S-wave (km/s) = 3.43076 3.70038 3.56812
# Velocity P-wave (km/s) = 6.13339 6.62746 6.38521
#
# Compressibility (1/GPa) = 0.02221975
#
# Stress axis : x y z
#
# Youngs Moduli (GPa) = 92.24083 44.22738 81.05378
#
# Poissons Ratio (x) = 0.20298 0.27711
# Poissons Ratio (y) = 0.42334 0.30609
# Poissons Ratio (z) = 0.31536 0.16702
#
# Static dielectric constant tensor:
#      x y z
#    x 3.835870 -0.000020 0.004490 
#    y -0.000020 3.630780 0.000050 
#    z 0.004490 0.000050 3.554920 
# 
# 
# High freq. dielectric constant tensor:
#      x y z
#    x 1.813450 0.000000 -0.001350 
#    y 0.000000 1.809540 0.000000 
#    z -0.001350 0.000000 1.797210 
# 
# From -- ./inp_files/292387.got.cif
#   From: 2010.06.25/outbox.cif.g09.slc.cpg/sg12_147_cif.got.tgz:292387.got - 2010.06.28 00:19:55.
