data_PCOD8108996
_publ_section_title
;
Structure prediction by ZEFSAII (Michael W. Deem and Ramdas Pophale) SiO2 
 PCOD8108996
Probable space group: C 2/M
;
_chemical_formula_sum "Si O2"
_cell_formula_units_Z 64
_cell_length_a 29.190767
_cell_length_b 8.895060
_cell_length_c 12.696491
_cell_angle_alpha 90.000000
_cell_angle_beta 91.793451
_cell_angle_gamma 90.000000
_cell_volume 3295.074996
_symmetry_space_group_name_H-M "C 2/M"
_symmetry_group_IT_number 12
_symmetry_cell_setting 'monoclinic'
loop_
_space_group_symop_operation_xyz
x,y,z
-x,y,-z
-x,-y,-z
x,-y,z
1/2+x,1/2+y,z
1/2-x,1/2+y,-z
1/2-x,1/2-y,-z
1/2+x,1/2-y,z
loop_
_atom_site_type_symbol
_atom_site_label
_atom_site_fract_x
_atom_site_fract_y
_atom_site_fract_z
Si Si1 0.248515 0.664510 0.895221
Si Si2 0.739926 0.322166 0.607727
Si Si3 0.171118 0.321462 0.736881
Si Si4 0.446198 0.832526 0.493784
Si Si5 0.005856 0.822799 0.124149
Si Si6 0.076835 0.176816 0.725400
Si Si7 0.417721 0.820648 0.724489
Si Si8 0.820537 0.169868 0.738579
O O1 0.229689 0.500000 0.917757
O O2 0.209979 0.739282 0.819138
O O3 0.300179 0.658432 0.854369
O O4 0.250000 0.750000 0.000000
O O5 0.737065 0.500000 0.604600
O O6 0.750000 0.250000 0.500000
O O7 0.689499 0.255057 0.631480
O O8 0.782819 0.269981 0.679271
O O9 0.169637 0.500000 0.723505
O O10 0.122203 0.259497 0.769316
O O11 0.500000 0.843740 0.500000
O O12 0.432513 0.727405 0.395369
O O13 0.430502 0.767279 0.606393
O O14 0.425210 0.000000 0.474294
O O15 0.048399 0.740477 0.182708
O O16 0.961919 0.778374 0.192297
O O17 0.015108 0.000000 0.129272
O O18 0.000000 0.772849 0.000000
O O19 0.084405 0.000000 0.724563
O O20 0.368312 0.754729 0.746110
O O21 0.417883 0.000000 0.730847
O O22 0.825469 0.000000 0.691290
#
# Coordination Sequence:
#
# PCOD8108996 Si02
#       8
#     8   8   8   8   8   8   8   8
#     4   9  20  38  61  86 114 154 197 245 299 348
#     4  11  22  38  59  85 118 155 195 239 289 346
#     4  10  22  40  59  84 120 157 196 242 296 352
#     4  10  21  39  61  85 120 159 195 246 305 357
#     4  10  23  43  63  86 121 161 201 252 309 362
#     4  11  23  38  61  91 120 157 205 249 300 362
#     4  11  23  39  62  91 120 158 205 249 303 363
#     4  10  22  40  59  85 121 157 195 242 295 351
#
# _framework density 19.422927000000001
#
# number of rings (size 3 to 8) (size 9 to 14) (size 15 to 20)
#    0.000    1.750    1.250    3.375    1.750    6.000 
#    0.000    3.750    0.000    0.000    0.000    0.000 
#    0.000    0.000    0.000    0.000    0.000    0.000 
#
# Total GULP energy -396529.611397 kJ/mol
# GULP energy per Si atom -12391.550356 kJ/mol
# Density = 1.937872 g / cm^3
# Si number density = 19.422927 Si / 1000 Ang^3
#
#
#
# Elastic Constant Matrix: (Units=GPa)
#
#
# Indices 1 2 3 4 5 6 
#
# 1 140.3964 53.9795 49.6141 0.0000 -4.5268 0.0000
# 2 53.9795 97.9064 45.9041 0.0000 -5.3734 0.0000
# 3 49.6141 45.9041 122.5065 0.0000 -7.1520 0.0000
# 4 0.0000 0.0000 0.0000 32.1434 0.0000 -1.0591
# 5 -4.5268 -5.3734 -7.1520 0.0000 16.4923 0.0000
# 6 0.0000 0.0000 0.0000 -1.0591 0.0000 34.4680
#
#
#
# Elastic Compliance Matrix: (Units=1/GPa)
#
#
# Indices 1 2 3 4 5 6 
#
# 1 0.009544 -0.004176 -0.002285 0.000000 0.000268 0.000000
# 2 -0.004176 0.014288 -0.003547 0.000000 0.001971 0.000000
# 3 -0.002285 -0.003547 0.010581 0.000000 0.002806 0.000000
# 4 0.000000 0.000000 0.000000 0.031142 0.000000 0.000957
# 5 0.000268 0.001971 0.002806 0.000000 0.062567 0.000000
# 6 0.000000 0.000000 0.000000 0.000957 0.000000 0.029042
#
#
# Mechanical properties :
#
#
# Convention : Reuss Voigt Hill
#
# Bulk Modulus (GPa) = 69.46156 73.31163 71.38659
# Shear Modulus (GPa) = 27.47562 30.70820 29.09191
#
# Velocity S-wave (km/s) = 3.76519 3.98053 3.87436
# Velocity P-wave (km/s) = 7.39882 7.67808 7.53975
#
# Compressibility (1/GPa) = 0.01439645
#
# Stress axis : x y z
#
# Youngs Moduli (GPa) = 104.77283 69.99040 94.50719
#
# Poissons Ratio (x) = 0.29229 0.21594
# Poissons Ratio (y) = 0.43755 0.33525
# Poissons Ratio (z) = 0.23940 0.24828
#
# Static dielectric constant tensor:
#      x y z
#    x 3.770310 0.000000 -0.054370 
#    y 0.000000 3.630290 0.000000 
#    z -0.054370 0.000000 3.880780 
# 
# 
# High freq. dielectric constant tensor:
#      x y z
#    x 1.765300 0.000000 -0.006380 
#    y 0.000000 1.762900 0.000000 
#    z -0.006380 0.000000 1.755930 
# 
# From -- ./inp_files/187394.got.cif
#   From: 2010.06.25/outbox.cif.g09.slc.cpg/sg12_94_cif.got.tgz:187394.got - 2010.06.28 00:19:55.
