data_PCOD8108208
_publ_section_title
;
Structure prediction by ZEFSAII (Michael W. Deem and Ramdas Pophale) SiO2 
 PCOD8108208
Probable space group: C 2/M
;
_chemical_formula_sum "Si O2"
_cell_formula_units_Z 64
_cell_length_a 15.536846
_cell_length_b 8.814015
_cell_length_c 30.463031
_cell_angle_alpha 90.000000
_cell_angle_beta 130.136861
_cell_angle_gamma 90.000000
_cell_volume 3189.268908
_symmetry_space_group_name_H-M "C 2/M"
_symmetry_group_IT_number 12
_symmetry_cell_setting 'monoclinic'
loop_
_space_group_symop_operation_xyz
x,y,z
-x,y,-z
-x,-y,-z
x,-y,z
1/2+x,1/2+y,z
1/2-x,1/2+y,-z
1/2-x,1/2-y,-z
1/2+x,1/2-y,z
loop_
_atom_site_type_symbol
_atom_site_label
_atom_site_fract_x
_atom_site_fract_y
_atom_site_fract_z
Si Si1 0.359955 0.825650 0.055841
Si Si2 0.164303 0.179757 0.626268
Si Si3 0.048036 0.179381 0.062312
Si Si4 0.742179 0.679057 0.828753
Si Si5 0.312005 0.820276 0.756660
Si Si6 0.424231 0.823658 0.561564
Si Si7 0.438108 0.174391 0.177229
Si Si8 0.261137 0.323832 0.572654
O O1 0.470941 0.743507 0.075416
O O2 0.361119 0.810203 0.108609
O O3 0.362594 0.000000 0.042002
O O4 0.250000 0.750000 0.000000
O O5 0.229618 0.234354 0.691134
O O6 0.237963 0.231595 0.609168
O O7 0.043581 0.258324 0.586429
O O8 0.148122 0.000000 0.619394
O O9 0.172312 0.245218 0.108811
O O10 0.052267 0.000000 0.066708
O O11 0.000000 0.234302 0.000000
O O12 0.755962 0.500000 0.835502
O O13 0.764815 0.742315 0.787269
O O14 0.617241 0.728261 0.801982
O O15 0.437613 0.757264 0.789879
O O16 0.317989 0.000000 0.760873
O O17 0.375980 0.737591 0.588403
O O18 0.342835 0.795806 0.493832
O O19 0.435255 0.000000 0.576714
O O20 0.445391 0.000000 0.194711
O O21 0.277175 0.500000 0.589117
#
# Coordination Sequence:
#
# PCOD8108208 Si02
#       8
#     8   8   8   8   8   8   8   8
#     4  11  22  37  59  85 118 153 188 237 291 352
#     4  11  22  37  61  89 121 160 203 251 303 360
#     4  11  23  38  57  85 119 151 188 236 292 354
#     4  11  22  40  63  87 114 150 195 242 292 351
#     4   9  21  42  61  82 118 159 198 245 298 351
#     4  10  21  38  60  88 124 163 203 250 303 358
#     4  10  21  41  62  82 114 154 190 235 295 351
#     4  10  21  38  60  88 124 162 203 252 302 356
#
# _framework density 20.067294
#
# number of rings (size 3 to 8) (size 9 to 14) (size 15 to 20)
#    0.000    1.625    1.250    3.375    0.000    9.000 
#    0.000    6.250    0.000    0.000    0.000    0.000 
#    0.000    0.000    0.000    0.000    0.000    0.000 
#
# Total GULP energy -396950.588023 kJ/mol
# GULP energy per Si atom -12404.705876 kJ/mol
# Density = 2.002162 g / cm^3
# Si number density = 20.067294 Si / 1000 Ang^3
#
#
#
# Elastic Constant Matrix: (Units=GPa)
#
#
# Indices 1 2 3 4 5 6 
#
# 1 125.7067 28.0943 28.8759 0.0000 -13.4950 0.0000
# 2 28.0943 67.3848 36.2035 0.0000 -5.8383 0.0000
# 3 28.8759 36.2035 64.9764 0.0000 -14.7421 0.0000
# 4 0.0000 0.0000 0.0000 22.3275 0.0000 1.1741
# 5 -13.4950 -5.8383 -14.7421 0.0000 24.5881 0.0000
# 6 0.0000 0.0000 0.0000 1.1741 0.0000 41.5951
#
#
#
# Elastic Compliance Matrix: (Units=1/GPa)
#
#
# Indices 1 2 3 4 5 6 
#
# 1 0.009335 -0.002541 -0.001976 0.000000 0.003335 0.000000
# 2 -0.002541 0.021992 -0.011871 0.000000 -0.003290 0.000000
# 3 -0.001976 -0.011871 0.025460 0.000000 0.011362 0.000000
# 4 0.000000 0.000000 0.000000 0.044854 0.000000 -0.001266
# 5 0.003335 -0.003290 0.011362 0.000000 0.048532 0.000000
# 6 0.000000 0.000000 0.000000 -0.001266 0.000000 0.024077
#
#
# Mechanical properties :
#
#
# Convention : Reuss Voigt Hill
#
# Bulk Modulus (GPa) = 41.64640 49.37949 45.51295
# Shear Modulus (GPa) = 23.25254 28.69510 25.97382
#
# Velocity S-wave (km/s) = 3.40770 3.78556 3.60159
# Velocity P-wave (km/s) = 6.02343 6.61571 6.32651
#
# Compressibility (1/GPa) = 0.02401168
#
# Stress axis : x y z
#
# Youngs Moduli (GPa) = 107.12466 45.47017 39.27699
#
# Poissons Ratio (x) = 0.11556 0.07760
# Poissons Ratio (y) = 0.27226 0.46625
# Poissons Ratio (z) = 0.21164 0.53977
#
# Static dielectric constant tensor:
#      x y z
#    x 3.802670 0.000000 -0.027100 
#    y 0.000000 3.564150 0.000000 
#    z -0.027100 0.000000 3.663430 
# 
# 
# High freq. dielectric constant tensor:
#      x y z
#    x 1.799540 0.000000 -0.000330 
#    y 0.000000 1.779280 0.000000 
#    z -0.000330 0.000000 1.777820 
# 
# From -- ./inp_files/375669.got.cif
#   From: 2010.06.25/outbox.cif.g09.slc.cpg/sg12_188_cif.got.tgz:375669.got - 2010.06.28 00:19:55.
