data_PCOD8108664
_publ_section_title
;
Structure prediction by ZEFSAII (Michael W. Deem and Ramdas Pophale) SiO2 
 PCOD8108664
Probable space group: C 2/M
;
_chemical_formula_sum "Si O2"
_cell_formula_units_Z 60
_cell_length_a 15.565954
_cell_length_b 27.512118
_cell_length_c 15.334979
_cell_angle_alpha 90.000000
_cell_angle_beta 153.175233
_cell_angle_gamma 90.000000
_cell_volume 2963.555059
_symmetry_space_group_name_H-M "C 2/M"
_symmetry_group_IT_number 12
_symmetry_cell_setting 'monoclinic'
loop_
_space_group_symop_operation_xyz
x,y,z
-x,y,-z
-x,-y,-z
x,-y,z
1/2+x,1/2+y,z
1/2-x,1/2+y,-z
1/2-x,1/2-y,-z
1/2+x,1/2-y,z
loop_
_atom_site_type_symbol
_atom_site_label
_atom_site_fract_x
_atom_site_fract_y
_atom_site_fract_z
Si Si1 0.995629 0.340963 0.397927
Si Si2 0.716159 0.266917 0.370515
Si Si3 0.908083 0.553895 0.079215
Si Si4 0.000000 0.606586 0.000000
Si Si5 0.732245 0.892138 0.467690
Si Si6 0.563902 0.655046 0.961033
Si Si7 0.978877 0.945552 0.168130
Si Si8 0.804218 0.169783 0.375005
O O1 0.081589 0.287096 0.481272
O O2 0.155128 0.368270 0.486129
O O3 0.000000 0.363886 0.500000
O O4 0.792544 0.339965 0.165692
O O5 0.750000 0.250000 0.500000
O O6 0.539819 0.305732 0.197286
O O7 0.687044 0.219604 0.284538
O O8 0.992325 0.500000 0.153794
O O9 0.054578 0.589781 0.254415
O O10 0.878323 0.572460 0.954426
O O11 0.720284 0.556245 0.965125
O O12 0.838167 0.637888 0.809267
O O13 0.864860 0.937024 0.615475
O O14 0.846427 0.854617 0.508484
O O15 0.510184 0.598882 0.890840
O O16 0.500000 0.667442 0.000000
O O17 0.009802 0.000000 0.154357
O O18 0.000000 0.177049 0.500000
#
# Coordination Sequence:
#
# PCOD8108664 Si02
#       8
#     8   8   8   4   8   8   8   8
#     4  12  23  42  66  89 126 168 211 266 321 380
#     4  12  25  43  64  94 128 169 218 264 321 389
#     4  10  21  38  63  93 128 170 212 257 315 378
#     4  10  23  38  62  92 130 166 211 262 310 374
#     4  11  21  42  63  93 131 169 210 262 322 372
#     4  12  25  43  67  92 127 168 211 268 327 381
#     4  11  22  39  66  93 124 165 213 262 320 383
#     4  11  24  40  63  93 131 167 212 260 312 378
#
# _framework density 20.245954000000001
#
# number of rings (size 3 to 8) (size 9 to 14) (size 15 to 20)
#    0.000    0.800    5.333    1.800    0.933    0.800 
#    0.000    0.000    0.000    8.400    0.000    0.000 
#    0.000    0.000    0.000    0.000    0.000    0.000 
#
# Total GULP energy -371745.620513 kJ/mol
# GULP energy per Si atom -12391.520684 kJ/mol
# Density = 2.019987 g / cm^3
# Si number density = 20.245954 Si / 1000 Ang^3
#
#
#
# Elastic Constant Matrix: (Units=GPa)
#
#
# Indices 1 2 3 4 5 6 
#
# 1 142.8621 -5.6227 10.5219 0.0002 -9.3617 0.0000
# 2 -5.6227 164.0994 43.9494 -0.0006 -9.4095 -0.0001
# 3 10.5219 43.9494 101.0748 -0.0008 -1.2624 -0.0001
# 4 0.0002 -0.0006 -0.0008 30.3806 -0.0002 -2.2977
# 5 -9.3617 -9.4095 -1.2624 -0.0002 31.5604 0.0000
# 6 0.0000 -0.0001 -0.0001 -2.2977 0.0000 34.4230
#
#
#
# Elastic Compliance Matrix: (Units=1/GPa)
#
#
# Indices 1 2 3 4 5 6 
#
# 1 0.007251 0.000651 -0.001009 0.000000 0.002304 0.000000
# 2 0.000651 0.007076 -0.003117 0.000000 0.002178 0.000000
# 3 -0.001009 -0.003117 0.011344 0.000000 -0.000775 0.000000
# 4 0.000000 0.000000 0.000000 0.033083 0.000000 0.002208
# 5 0.002304 0.002178 -0.000775 0.000000 0.032987 0.000000
# 6 0.000000 0.000000 0.000000 0.002208 0.000000 0.029198
#
#
# Mechanical properties :
#
#
# Convention : Reuss Voigt Hill
#
# Bulk Modulus (GPa) = 53.41846 56.19260 54.80553
# Shear Modulus (GPa) = 37.27731 43.21865 40.24798
#
# Velocity S-wave (km/s) = 4.29560 4.62527 4.46348
# Velocity P-wave (km/s) = 7.14458 7.50596 7.32750
#
# Compressibility (1/GPa) = 0.01872012
#
# Stress axis : x y z
#
# Youngs Moduli (GPa) = 137.91783 141.32401 88.14852
#
# Poissons Ratio (x) = -0.09197 0.08894
# Poissons Ratio (y) = -0.08976 0.27479
# Poissons Ratio (z) = 0.13916 0.44055
#
# Static dielectric constant tensor:
#      x y z
#    x 3.824560 0.000000 -0.097990 
#    y 0.000000 3.976290 0.000000 
#    z -0.097990 0.000000 3.776890 
# 
# 
# High freq. dielectric constant tensor:
#      x y z
#    x 1.794960 0.000000 -0.002370 
#    y 0.000000 1.798200 0.000000 
#    z -0.002370 0.000000 1.795270 
# 
# From -- ./inp_files/219476.got.cif
#   From: 2010.06.25/outbox.cif.g09.slc.cpg/sg12_110_cif.got.tgz:219476.got - 2010.06.28 00:19:55.
