data_PCOD8108661
_publ_section_title
;
Structure prediction by ZEFSAII (Michael W. Deem and Ramdas Pophale) SiO2 
 PCOD8108661
Probable space group: C 2/M
;
_chemical_formula_sum "Si O2"
_cell_formula_units_Z 40
_cell_length_a 20.925873
_cell_length_b 8.753266
_cell_length_c 25.691066
_cell_angle_alpha 90.000000
_cell_angle_beta 156.941627
_cell_angle_gamma 90.000000
_cell_volume 1843.124804
_symmetry_space_group_name_H-M "C 2/M"
_symmetry_group_IT_number 12
_symmetry_cell_setting 'monoclinic'
loop_
_space_group_symop_operation_xyz
x,y,z
-x,y,-z
-x,-y,-z
x,-y,z
1/2+x,1/2+y,z
1/2-x,1/2+y,-z
1/2-x,1/2-y,-z
1/2+x,1/2-y,z
loop_
_atom_site_type_symbol
_atom_site_label
_atom_site_fract_x
_atom_site_fract_y
_atom_site_fract_z
Si Si1 0.853066 0.332022 0.006126
Si Si2 0.767955 0.680188 0.456480
Si Si3 0.457128 0.680523 0.409138
Si Si4 0.447808 0.832076 0.193395
Si Si5 0.390719 0.321916 0.868269
O O1 0.858008 0.500000 0.982886
O O2 0.680511 0.249956 0.863574
O O3 0.862564 0.354989 0.074569
O O4 0.002984 0.226706 0.101499
O O5 0.780777 0.500000 0.469622
O O6 0.750000 0.750000 0.500000
O O7 0.607359 0.729622 0.304772
O O8 0.924431 0.741914 0.543579
O O9 0.500000 0.735930 0.500000
O O10 0.477853 0.500000 0.420533
O O11 0.274960 0.726328 0.256478
O O12 0.491752 0.000000 0.249582
O O13 0.347552 0.500000 0.833150
O O14 0.500000 0.280081 0.000000
#
# Coordination Sequence:
#
# PCOD8108661 Si02
#       5
#     8   8   8   8   8
#     4  10  21  38  63  93 125 166 211 260 318 380
#     4  12  26  43  66  95 131 172 217 270 329 389
#     4  11  25  46  71  99 133 175 224 276 331 397
#     4  10  21  39  63  92 127 164 209 262 317 382
#     4  11  25  42  63  93 131 172 216 269 325 384
#
# _framework density 21.702275
#
# number of rings (size 3 to 8) (size 9 to 14) (size 15 to 20)
#    0.000    1.200    0.000    5.400    2.800   10.400 
#    0.000    0.000    0.000    0.000    0.000    0.000 
#    0.000    0.000    0.000    0.000    0.000    0.000 
#
# Total GULP energy -248028.494310 kJ/mol
# GULP energy per Si atom -12401.424716 kJ/mol
# Density = 2.165288 g / cm^3
# Si number density = 21.702275 Si / 1000 Ang^3
#
#
#
# Elastic Constant Matrix: (Units=GPa)
#
#
# Indices 1 2 3 4 5 6 
#
# 1 100.5611 50.5602 41.8549 0.0034 20.0022 0.0018
# 2 50.5602 137.2753 48.8004 -0.0167 2.0686 -0.0044
# 3 41.8549 48.8004 123.9354 -0.0083 26.6301 -0.0033
# 4 0.0034 -0.0167 -0.0083 40.9164 -0.0019 6.8784
# 5 20.0022 2.0686 26.6301 -0.0019 41.4251 -0.0005
# 6 0.0018 -0.0044 -0.0033 6.8784 -0.0005 34.2119
#
#
#
# Elastic Compliance Matrix: (Units=1/GPa)
#
#
# Indices 1 2 3 4 5 6 
#
# 1 0.013997 -0.004422 -0.001834 -0.000003 -0.005359 -0.000001
# 2 -0.004422 0.010012 -0.003249 0.000004 0.003724 0.000000
# 3 -0.001834 -0.003249 0.011304 0.000001 -0.006219 0.000001
# 4 -0.000003 0.000004 0.000001 0.025295 0.000002 -0.005086
# 5 -0.005359 0.003724 -0.006219 0.000002 0.030539 0.000000
# 6 -0.000001 0.000000 0.000001 -0.005086 0.000000 0.030252
#
#
# Mechanical properties :
#
#
# Convention : Reuss Voigt Hill
#
# Bulk Modulus (GPa) = 61.34405 71.57810 66.46107
# Shear Modulus (GPa) = 34.28302 38.01444 36.14873
#
# Velocity S-wave (km/s) = 3.97885 4.18979 4.08568
# Velocity P-wave (km/s) = 7.03107 7.51394 7.27651
#
# Compressibility (1/GPa) = 0.01630150
#
# Stress axis : x y z
#
# Youngs Moduli (GPa) = 71.44379 99.87608 88.46622
#
# Poissons Ratio (x) = 0.44170 0.16227
# Poissons Ratio (y) = 0.31596 0.28744
# Poissons Ratio (z) = 0.13105 0.32451
#
# Static dielectric constant tensor:
#      x y z
#    x 3.873640 -0.000030 0.138420 
#    y -0.000030 4.337130 -0.000050 
#    z 0.138420 -0.000050 4.102310 
# 
# 
# High freq. dielectric constant tensor:
#      x y z
#    x 1.848520 0.000000 0.012230 
#    y 0.000000 1.871400 0.000000 
#    z 0.012230 0.000000 1.860760 
# 
# From -- ./inp_files/353126.got.cif
#   From: 2010.06.25/outbox.cif.g09.slc.cpg/sg12_177_cif.got.tgz:353126.got - 2010.06.28 00:19:55.
