data_PCOD8108583
_publ_section_title
;
Structure prediction by ZEFSAII (Michael W. Deem and Ramdas Pophale) SiO2 
 PCOD8108583
Probable space group: C 2/M
;
_chemical_formula_sum "Si O2"
_cell_formula_units_Z 40
_cell_length_a 17.445679
_cell_length_b 13.919960
_cell_length_c 15.605820
_cell_angle_alpha 90.000000
_cell_angle_beta 30.193327
_cell_angle_gamma 90.000000
_cell_volume 1905.946681
_symmetry_space_group_name_H-M "C 2/M"
_symmetry_group_IT_number 12
_symmetry_cell_setting 'monoclinic'
loop_
_space_group_symop_operation_xyz
x,y,z
-x,y,-z
-x,-y,-z
x,-y,z
1/2+x,1/2+y,z
1/2-x,1/2+y,-z
1/2-x,1/2-y,-z
1/2+x,1/2-y,z
loop_
_atom_site_type_symbol
_atom_site_label
_atom_site_fract_x
_atom_site_fract_y
_atom_site_fract_z
Si Si1 0.710828 0.763203 0.439264
Si Si2 0.588702 0.108529 0.830980
Si Si3 0.673635 0.389680 0.806932
Si Si4 0.697025 0.890963 0.004821
Si Si5 0.645713 0.782585 0.225052
O O1 0.750000 0.750000 0.500000
O O2 0.762525 0.670370 0.334387
O O3 0.804170 0.855322 0.312873
O O4 0.534598 0.782265 0.594603
O O5 0.642720 0.000000 0.797940
O O6 0.500000 0.149688 0.000000
O O7 0.477750 0.113564 0.856373
O O8 0.722183 0.500000 0.769550
O O9 0.785387 0.323367 0.754392
O O10 0.500000 0.373104 0.000000
O O11 0.800696 0.826721 0.842104
O O12 0.759414 0.000000 0.941659
O O13 0.707475 0.852022 0.090855
#
# Coordination Sequence:
#
# PCOD8108583 Si02
#       5
#     8   8   8   8   8
#     4  12  24  40  64  97 134 168 213 273 329 387
#     4  10  21  40  64  90 127 173 217 263 323 395
#     4  11  26  46  70  96 131 178 225 271 329 398
#     4  10  21  38  62  92 129 173 219 269 329 393
#     4  11  23  40  65  96 132 172 218 279 328 393
#
# _framework density 20.986947000000001
#
# number of rings (size 3 to 8) (size 9 to 14) (size 15 to 20)
#    0.000    1.200    2.000    4.200    2.800    4.000 
#    0.000    0.000    0.000    6.000    0.000    0.000 
#    0.000    0.000    0.000    0.000    0.000    0.000 
#
# Total GULP energy -248082.161770 kJ/mol
# GULP energy per Si atom -12404.108089 kJ/mol
# Density = 2.093918 g / cm^3
# Si number density = 20.986947 Si / 1000 Ang^3
#
#
#
# Elastic Constant Matrix: (Units=GPa)
#
#
# Indices 1 2 3 4 5 6 
#
# 1 98.7666 41.0764 42.6471 -0.0003 8.7880 0.0002
# 2 41.0764 159.5563 73.6903 -0.0004 4.2673 0.0003
# 3 42.6471 73.6903 134.1761 -0.0001 1.9492 0.0003
# 4 -0.0003 -0.0004 -0.0001 25.9752 0.0001 -1.9535
# 5 8.7880 4.2673 1.9492 0.0001 35.2237 -0.0001
# 6 0.0002 0.0003 0.0003 -1.9535 -0.0001 28.6568
#
#
#
# Elastic Compliance Matrix: (Units=1/GPa)
#
#
# Indices 1 2 3 4 5 6 
#
# 1 0.012360 -0.001760 -0.002923 0.000000 -0.002709 0.000000
# 2 -0.001760 0.008668 -0.004196 0.000000 -0.000379 0.000000
# 3 -0.002923 -0.004196 0.010677 0.000000 0.000647 0.000000
# 4 0.000000 0.000000 0.000000 0.038697 0.000000 0.002638
# 5 -0.002709 -0.000379 0.000647 0.000000 0.029076 0.000000
# 6 0.000000 0.000000 0.000000 0.002638 0.000000 0.035076
#
#
# Mechanical properties :
#
#
# Convention : Reuss Voigt Hill
#
# Bulk Modulus (GPa) = 71.69253 78.59185 75.14219
# Shear Modulus (GPa) = 31.85539 33.64346 32.74943
#
# Velocity S-wave (km/s) = 3.90021 4.00817 3.95456
# Velocity P-wave (km/s) = 7.38355 7.67788 7.53216
#
# Compressibility (1/GPa) = 0.01394845
#
# Stress axis : x y z
#
# Youngs Moduli (GPa) = 80.90793 115.36168 93.66007
#
# Poissons Ratio (x) = 0.20299 0.27374
# Poissons Ratio (y) = 0.14237 0.39299
# Poissons Ratio (z) = 0.23647 0.48405
#
# Static dielectric constant tensor:
#      x y z
#    x 3.905730 0.000000 0.159230 
#    y 0.000000 3.979630 0.000000 
#    z 0.159230 0.000000 3.799380 
# 
# 
# High freq. dielectric constant tensor:
#      x y z
#    x 1.825860 0.000000 0.010720 
#    y 0.000000 1.831600 0.000000 
#    z 0.010720 0.000000 1.819850 
# 
# From -- ./inp_files/73328.got.cif
#   From: 2010.06.25/outbox.cif.g09.slc.cpg/sg12_37_cif.got.tgz:73328.got - 2010.06.28 00:19:55.
