data_PCOD8108392
_publ_section_title
;
Structure prediction by ZEFSAII (Michael W. Deem and Ramdas Pophale) SiO2 
 PCOD8108392
Probable space group: C 2/M
;
_chemical_formula_sum "Si O2"
_cell_formula_units_Z 64
_cell_length_a 18.405701
_cell_length_b 9.130122
_cell_length_c 32.171156
_cell_angle_alpha 90.000000
_cell_angle_beta 37.525803
_cell_angle_gamma 90.000000
_cell_volume 3293.043808
_symmetry_space_group_name_H-M "C 2/M"
_symmetry_group_IT_number 12
_symmetry_cell_setting 'monoclinic'
loop_
_space_group_symop_operation_xyz
x,y,z
-x,y,-z
-x,-y,-z
x,-y,z
1/2+x,1/2+y,z
1/2-x,1/2+y,-z
1/2-x,1/2-y,-z
1/2+x,1/2-y,z
loop_
_atom_site_type_symbol
_atom_site_label
_atom_site_fract_x
_atom_site_fract_y
_atom_site_fract_z
Si Si1 0.538868 0.166593 0.302943
Si Si2 0.645486 0.828371 0.685277
Si Si3 0.929389 0.826947 0.197372
Si Si4 0.705574 0.672461 0.061522
Si Si5 0.633219 0.826295 0.935738
Si Si6 0.632716 0.165834 0.542261
Si Si7 0.281200 0.826468 0.193028
Si Si8 0.120841 0.160146 0.469027
O O1 0.460675 0.209287 0.298410
O O2 0.462528 0.185459 0.378715
O O3 0.645273 0.279921 0.260637
O O4 0.586209 0.000000 0.277397
O O5 0.627352 0.735463 0.734936
O O6 0.771345 0.778184 0.608203
O O7 0.647691 0.000000 0.695580
O O8 0.866928 0.753274 0.186429
O O9 0.068845 0.787376 0.132594
O O10 0.907350 0.000000 0.205938
O O11 0.723311 0.500000 0.047631
O O12 0.783631 0.733360 0.064742
O O13 0.750000 0.750000 0.000000
O O14 0.683702 0.773488 0.868874
O O15 0.630932 0.000000 0.939034
O O16 0.500000 0.761716 0.000000
O O17 0.750000 0.250000 0.500000
O O18 0.582986 0.230169 0.522276
O O19 0.667406 0.000000 0.518942
O O20 0.293974 0.000000 0.193234
O O21 0.000000 0.137848 0.500000
O O22 0.163090 0.000000 0.467067
#
# Coordination Sequence:
#
# PCOD8108392 Si02
#       8
#     8   8   8   8   8   8   8   8
#     4  10  22  40  60  85 121 155 191 246 302 351
#     4  10  21  40  61  85 118 158 199 241 298 360
#     4  11  24  40  58  86 125 160 198 249 299 346
#     4  10  21  38  61  89 122 158 196 241 293 350
#     4   9  18  35  60  88 118 150 191 243 289 339
#     4  11  22  39  62  88 118 154 198 246 301 360
#     4  11  23  39  62  89 116 156 205 244 295 358
#     4  10  22  40  61  87 120 154 196 249 300 355
#
# _framework density 19.434906000000002
#
# number of rings (size 3 to 8) (size 9 to 14) (size 15 to 20)
#    0.000    1.750    1.250    2.625    1.750    5.250 
#    0.000    1.250    0.000    3.375    0.000    0.000 
#    0.000    0.000    0.000    0.000    0.000    0.000 
#
# Total GULP energy -396848.373059 kJ/mol
# GULP energy per Si atom -12401.511658 kJ/mol
# Density = 1.939067 g / cm^3
# Si number density = 19.434906 Si / 1000 Ang^3
#
#
#
# Elastic Constant Matrix: (Units=GPa)
#
#
# Indices 1 2 3 4 5 6 
#
# 1 157.9853 56.1629 68.6459 0.0131 7.1468 -0.1283
# 2 56.1629 81.3897 51.9661 -0.0334 10.0453 0.1428
# 3 68.6459 51.9661 86.5053 0.0014 12.1712 -0.0264
# 4 0.0131 -0.0334 0.0014 64.5269 0.0038 -178.1196
# 5 7.1468 10.0453 12.1712 0.0038 41.6730 -0.0170
# 6 -0.1283 0.1428 -0.0264 -178.1196 -0.0170 1051.2168
#
#
#
# Elastic Compliance Matrix: (Units=1/GPa)
#
#
# Indices 1 2 3 4 5 6 
#
# 1 0.010122 -0.003057 -0.006315 0.000001 0.000845 0.000002
# 2 -0.003057 0.020929 -0.009918 0.000004 -0.001624 -0.000003
# 3 -0.006315 -0.009918 0.022985 -0.000002 -0.003239 0.000001
# 4 0.000001 0.000004 -0.000002 0.029115 -0.000001 0.004933
# 5 0.000845 -0.001624 -0.003239 -0.000001 0.025189 0.000000
# 6 0.000002 -0.000003 0.000001 0.004933 0.000000 0.001787
#
#
# Mechanical properties :
#
#
# Convention : Reuss Voigt Hill
#
# Bulk Modulus (GPa) = 64.70018 75.49224 70.09621
# Shear Modulus (GPa) = 32.49701 241.42370 136.96035
#
# Velocity S-wave (km/s) = 4.09356 11.15757 8.40383
# Velocity P-wave (km/s) = 7.46364 14.31490 11.41539
#
# Compressibility (1/GPa) = 0.01545591
#
# Stress axis : x y z
#
# Youngs Moduli (GPa) = 98.79393 47.77988 43.50673
#
# Poissons Ratio (x) = 0.14607 0.27473
# Poissons Ratio (y) = 0.30203 0.43151
# Poissons Ratio (z) = 0.62386 0.47389
#
# Static dielectric constant tensor:
#      x y z
#    x 4.115110 0.000110 0.289240 
#    y 0.000110 4.291490 0.000050 
#    z 0.289240 0.000050 3.783120 
# 
# 
# High freq. dielectric constant tensor:
#      x y z
#    x 1.771880 0.000000 0.000120 
#    y 0.000000 1.746180 0.000000 
#    z 0.000120 0.000000 1.769130 
# 
# From -- ./inp_files/378130.got.cif
#   From: 2010.06.25/outbox.cif.g09.slc.cpg/sg12_190_cif.got.tgz:378130.got - 2010.06.28 00:19:55.
