data_PCOD8108491
_publ_section_title
;
Structure prediction by ZEFSAII (Michael W. Deem and Ramdas Pophale) SiO2 
 PCOD8108491
Probable space group: C 2/M
;
_chemical_formula_sum "Si O2"
_cell_formula_units_Z 40
_cell_length_a 18.977212
_cell_length_b 16.168035
_cell_length_c 9.658993
_cell_angle_alpha 90.000000
_cell_angle_beta 41.655773
_cell_angle_gamma 90.000000
_cell_volume 1969.776751
_symmetry_space_group_name_H-M "C 2/M"
_symmetry_group_IT_number 12
_symmetry_cell_setting 'monoclinic'
loop_
_space_group_symop_operation_xyz
x,y,z
-x,y,-z
-x,-y,-z
x,-y,z
1/2+x,1/2+y,z
1/2-x,1/2+y,-z
1/2-x,1/2-y,-z
1/2+x,1/2-y,z
loop_
_atom_site_type_symbol
_atom_site_label
_atom_site_fract_x
_atom_site_fract_y
_atom_site_fract_z
Si Si1 0.016055 0.597610 0.637585
Si Si2 0.092320 0.901396 0.457865
Si Si3 0.916492 0.905163 0.225902
Si Si4 0.827340 0.402902 0.113760
Si Si5 0.801467 0.661082 0.447979
O O1 0.040672 0.500000 0.621363
O O2 0.110964 0.653529 0.559986
O O3 0.000000 0.619235 0.500000
O O4 0.910245 0.624413 0.875287
O O5 0.072491 0.863874 0.639330
O O6 0.209833 0.874712 0.235216
O O7 0.000000 0.861866 0.500000
O O8 0.083902 0.000000 0.471766
O O9 0.794409 0.897616 0.358734
O O10 0.949486 0.000000 0.187885
O O11 0.000000 0.860266 0.000000
O O12 0.829756 0.500000 0.132720
O O13 0.854317 0.365619 0.224885
O O14 0.750000 0.750000 0.500000
#
# Coordination Sequence:
#
# PCOD8108491 Si02
#       5
#     8   8   8   8   8
#     4  10  21  38  62  89 114 145 194 252 296 335
#     4   8  14  26  46  74 104 131 165 211 266 324
#     4   9  18  32  50  72  99 135 179 225 271 323
#     4   9  18  35  59  83 109 148 195 240 288 344
#     4  11  22  36  54  80 113 152 189 228 285 352
#
# _framework density 20.30687
#
# number of rings (size 3 to 8) (size 9 to 14) (size 15 to 20)
#    0.000    2.600    0.000    3.600    0.000    4.800 
#    0.000   11.000    0.000    0.000    0.000    0.000 
#    0.000    0.000    0.000    0.000    0.000    0.000 
#
# Total GULP energy -247845.382561 kJ/mol
# GULP energy per Si atom -12392.269128 kJ/mol
# Density = 2.026065 g / cm^3
# Si number density = 20.306870 Si / 1000 Ang^3
#
#
#
# Elastic Constant Matrix: (Units=GPa)
#
#
# Indices 1 2 3 4 5 6 
#
# 1 189.2055 30.3501 91.8406 0.0000 -5.0767 0.0000
# 2 30.3501 33.7601 25.0689 0.0000 1.8453 0.0000
# 3 91.8406 25.0689 195.6221 0.0000 -0.3577 0.0000
# 4 0.0000 0.0000 0.0000 10.0553 0.0000 -4.1726
# 5 -5.0767 1.8453 -0.3577 0.0000 21.4375 0.0000
# 6 0.0000 0.0000 0.0000 -4.1726 0.0000 22.1185
#
#
#
# Elastic Compliance Matrix: (Units=1/GPa)
#
#
# Indices 1 2 3 4 5 6 
#
# 1 0.007515 -0.004703 -0.002922 0.000000 0.002136 0.000000
# 2 -0.004703 0.035859 -0.002395 0.000000 -0.004240 0.000000
# 3 -0.002922 -0.002395 0.006790 0.000000 -0.000372 0.000000
# 4 0.000000 0.000000 0.000000 0.107896 0.000000 0.020354
# 5 0.002136 -0.004240 -0.000372 0.000000 0.047512 0.000000
# 6 0.000000 0.000000 0.000000 0.020354 0.000000 0.049051
#
#
# Mechanical properties :
#
#
# Convention : Reuss Voigt Hill
#
# Bulk Modulus (GPa) = 33.19574 79.23409 56.21491
# Shear Modulus (GPa) = 17.56210 28.81080 23.18645
#
# Velocity S-wave (km/s) = 2.94400 3.77074 3.38272
# Velocity P-wave (km/s) = 5.28571 7.61978 6.55743
#
# Compressibility (1/GPa) = 0.03012435
#
# Stress axis : x y z
#
# Youngs Moduli (GPa) = 133.06434 27.88680 147.28078
#
# Poissons Ratio (x) = 0.13116 0.43029
# Poissons Ratio (y) = 0.62585 0.35273
# Poissons Ratio (z) = 0.38876 0.06679
#
# Static dielectric constant tensor:
#      x y z
#    x 3.955890 0.000000 -0.225000 
#    y 0.000000 3.282840 0.000000 
#    z -0.225000 0.000000 4.196880 
# 
# 
# High freq. dielectric constant tensor:
#      x y z
#    x 1.790260 0.000000 -0.008960 
#    y 0.000000 1.756790 0.000000 
#    z -0.008960 0.000000 1.801800 
# 
# From -- ./inp_files/74960.got.cif
#   From: 2010.06.25/outbox.cif.g09.slc.cpg/sg12_38_cif.got.tgz:74960.got - 2010.06.28 00:19:55.
