data_PCOD8108042
_publ_section_title
;
Structure prediction by ZEFSAII (Michael W. Deem and Ramdas Pophale) SiO2 
 PCOD8108042
Probable space group: C 2/M
;
_chemical_formula_sum "Si O2"
_cell_formula_units_Z 56
_cell_length_a 25.286713
_cell_length_b 14.172870
_cell_length_c 8.270721
_cell_angle_alpha 90.000000
_cell_angle_beta 117.781136
_cell_angle_gamma 90.000000
_cell_volume 2622.445714
_symmetry_space_group_name_H-M "C 2/M"
_symmetry_group_IT_number 12
_symmetry_cell_setting 'monoclinic'
loop_
_space_group_symop_operation_xyz
x,y,z
-x,y,-z
-x,-y,-z
x,-y,z
1/2+x,1/2+y,z
1/2-x,1/2+y,-z
1/2-x,1/2-y,-z
1/2+x,1/2-y,z
loop_
_atom_site_type_symbol
_atom_site_label
_atom_site_fract_x
_atom_site_fract_y
_atom_site_fract_z
Si Si1 0.605420 0.109822 0.865498
Si Si2 0.008759 0.695356 0.205258
Si Si3 0.697599 0.768186 0.800240
Si Si4 0.842780 0.892422 0.485446
Si Si5 0.881964 0.394495 0.754081
Si Si6 0.242955 0.394476 0.587320
Si Si7 0.022473 0.898929 0.214894
O O1 0.534157 0.130491 0.745483
O O2 0.644307 0.168845 0.795802
O O3 0.619250 0.000000 0.856454
O O4 0.619583 0.146481 0.066405
O O5 0.078614 0.665270 0.320738
O O6 0.995366 0.802569 0.249374
O O7 0.000000 0.681903 0.000000
O O8 0.666307 0.673528 0.685149
O O9 0.734159 0.824630 0.720045
O O10 0.750000 0.750000 0.000000
O O11 0.797526 0.856402 0.558028
O O12 0.906700 0.886952 0.663716
O O13 0.828473 0.000000 0.410751
O O14 0.909362 0.500000 0.797874
O O15 0.814490 0.394995 0.606163
O O16 0.256604 0.500000 0.671472
O O17 0.002922 0.000000 0.269693
O O18 0.000000 0.903683 0.000000
#
# Coordination Sequence:
#
# PCOD8108042 Si02
#       7
#     8   8   8   8   8   8   8
#     4  10  21  38  59  87 122 156 194 247 309 366
#     4   9  17  31  56  86 115 150 193 240 292 353
#     4  12  25  38  58  88 126 165 198 241 305 371
#     4  10  22  41  63  87 118 159 208 258 305 361
#     4   9  17  33  59  87 115 153 203 253 299 355
#     4  10  21  38  61  86 114 154 204 254 299 354
#     4   9  18  34  59  88 114 144 193 257 310 352
#
# _framework density 21.354112000000001
#
# number of rings (size 3 to 8) (size 9 to 14) (size 15 to 20)
#    0.000    2.143    0.000    3.000    0.000    7.429 
#    0.000    3.571    0.000    7.714    0.000    0.000 
#    0.000    0.000    0.000    0.000    0.000    0.000 
#
# Total GULP energy -346914.160254 kJ/mol
# GULP energy per Si atom -12389.791438 kJ/mol
# Density = 2.130551 g / cm^3
# Si number density = 21.354112 Si / 1000 Ang^3
#
#
#
# Elastic Constant Matrix: (Units=GPa)
#
#
# Indices 1 2 3 4 5 6 
#
# 1 100.8115 48.8441 35.2581 0.0000 -2.7234 0.0000
# 2 48.8441 120.6686 40.9374 0.0000 -15.8152 0.0000
# 3 35.2581 40.9374 85.7442 0.0000 8.7408 0.0000
# 4 0.0000 0.0000 0.0000 22.7013 0.0000 -2.9561
# 5 -2.7234 -15.8152 8.7408 0.0000 25.7356 0.0000
# 6 0.0000 0.0000 0.0000 -2.9561 0.0000 37.4773
#
#
#
# Elastic Compliance Matrix: (Units=1/GPa)
#
#
# Indices 1 2 3 4 5 6 
#
# 1 0.013127 -0.004156 -0.003413 0.000000 -0.000006 0.000000
# 2 -0.004156 0.013075 -0.005498 0.000000 0.009462 0.000000
# 3 -0.003413 -0.005498 0.016648 0.000000 -0.009394 0.000000
# 4 0.000000 0.000000 0.000000 0.044508 0.000000 0.003511
# 5 -0.000006 0.009462 -0.009394 0.000000 0.047862 0.000000
# 6 0.000000 0.000000 0.000000 0.003511 0.000000 0.026960
#
#
# Mechanical properties :
#
#
# Convention : Reuss Voigt Hill
#
# Bulk Modulus (GPa) = 59.82271 61.92261 60.87266
# Shear Modulus (GPa) = 25.78848 29.32849 27.55848
#
# Velocity S-wave (km/s) = 3.47891 3.71001 3.59632
# Velocity P-wave (km/s) = 6.64925 6.88572 6.76852
#
# Compressibility (1/GPa) = 0.01671606
#
# Stress axis : x y z
#
# Youngs Moduli (GPa) = 76.18041 76.48198 60.06572
#
# Poissons Ratio (x) = 0.31789 0.20498
# Poissons Ratio (y) = 0.31664 0.33024
# Poissons Ratio (z) = 0.25998 0.42049
#
# Static dielectric constant tensor:
#      x y z
#    x 3.834260 0.000000 0.205750 
#    y 0.000000 4.489250 0.000000 
#    z 0.205750 0.000000 3.790520 
# 
# 
# High freq. dielectric constant tensor:
#      x y z
#    x 1.825930 0.000000 0.022110 
#    y 0.000000 1.859160 0.000000 
#    z 0.022110 0.000000 1.820790 
# 
# From -- ./inp_files/104734.got.cif
#   From: 2010.06.25/outbox.cif.g09.slc.cpg/sg12_53_cif.got.tgz:104734.got - 2010.06.28 00:19:55.
