data_PCOD8108007
_publ_section_title
;
Structure prediction by ZEFSAII (Michael W. Deem and Ramdas Pophale) SiO2 
 PCOD8108007
Probable space group: C 2/M
;
_chemical_formula_sum "Si O2"
_cell_formula_units_Z 48
_cell_length_a 30.373686
_cell_length_b 8.877910
_cell_length_c 9.361364
_cell_angle_alpha 90.000000
_cell_angle_beta 89.586679
_cell_angle_gamma 90.000000
_cell_volume 2524.271530
_symmetry_space_group_name_H-M "C 2/M"
_symmetry_group_IT_number 12
_symmetry_cell_setting 'monoclinic'
loop_
_space_group_symop_operation_xyz
x,y,z
-x,y,-z
-x,-y,-z
x,-y,z
1/2+x,1/2+y,z
1/2-x,1/2+y,-z
1/2-x,1/2-y,-z
1/2+x,1/2-y,z
loop_
_atom_site_type_symbol
_atom_site_label
_atom_site_fract_x
_atom_site_fract_y
_atom_site_fract_z
Si Si1 0.787704 0.677959 0.406295
Si Si2 0.041081 0.677487 0.091870
Si Si3 0.384730 0.671693 0.086446
Si Si4 0.122742 0.175980 0.588249
Si Si5 0.039518 0.823525 0.400041
Si Si6 0.715479 0.674529 0.897211
O O1 0.784295 0.500000 0.413251
O O2 0.750000 0.750000 0.500000
O O3 0.835036 0.730584 0.464403
O O4 0.780927 0.734417 0.247496
O O5 0.039799 0.500000 0.104255
O O6 0.037821 0.742642 0.249576
O O7 0.086476 0.724364 0.016358
O O8 0.000000 0.738338 0.000000
O O9 0.400462 0.500000 0.066571
O O10 0.391368 0.722653 0.250870
O O11 0.333932 0.689756 0.039921
O O12 0.084575 0.216276 0.478988
O O13 0.135187 0.000000 0.587774
O O14 0.000000 0.764035 0.500000
O O15 0.034678 0.000000 0.372273
O O16 0.727332 0.500000 0.871092
O O17 0.750000 0.750000 0.000000
#
# Coordination Sequence:
#
# PCOD8108007 Si02
#       6
#     8   8   8   8   8   8
#     4  11  22  37  58  83 113 151 191 232 281 334
#     4  11  24  38  54  81 115 148 183 226 274 325
#     4   9  19  37  60  82 108 144 184 227 273 327
#     4   9  19  37  59  84 112 141 182 234 282 330
#     4  10  21  38  61  85 109 143 185 227 274 330
#     4  10  21  38  59  85 115 148 188 233 282 334
#
# _framework density 19.015387
#
# number of rings (size 3 to 8) (size 9 to 14) (size 15 to 20)
#    0.000    2.000    0.000    4.500    0.000    8.333 
#    0.000    1.667    0.000    0.000    0.000    0.000 
#    0.000    0.000    0.000    0.000    0.000    0.000 
#
# Total GULP energy -297669.897452 kJ/mol
# GULP energy per Si atom -12402.912394 kJ/mol
# Density = 1.897211 g / cm^3
# Si number density = 19.015387 Si / 1000 Ang^3
#
#
#
# Elastic Constant Matrix: (Units=GPa)
#
#
# Indices 1 2 3 4 5 6 
#
# 1 136.0817 73.3012 86.9100 0.0000 -3.9638 0.0000
# 2 73.3012 106.0510 60.7858 0.0000 -0.6331 0.0000
# 3 86.9100 60.7858 126.5906 0.0000 0.0476 0.0000
# 4 0.0000 0.0000 0.0000 32.5133 0.0000 2.8263
# 5 -3.9638 -0.6331 0.0476 0.0000 37.8627 0.0000
# 6 0.0000 0.0000 0.0000 2.8263 0.0000 31.1350
#
#
#
# Elastic Compliance Matrix: (Units=1/GPa)
#
#
# Indices 1 2 3 4 5 6 
#
# 1 0.015853 -0.006498 -0.007764 0.000000 0.001561 0.000000
# 2 -0.006498 0.015675 -0.003066 0.000000 -0.000414 0.000000
# 3 -0.007764 -0.003066 0.014702 0.000000 -0.000883 0.000000
# 4 0.000000 0.000000 0.000000 0.031001 0.000000 -0.002814
# 5 0.001561 -0.000414 -0.000883 0.000000 0.026569 0.000000
# 6 0.000000 0.000000 0.000000 -0.002814 0.000000 0.032374
#
#
# Mechanical properties :
#
#
# Convention : Reuss Voigt Hill
#
# Bulk Modulus (GPa) = 86.39215 90.07970 88.23593
# Shear Modulus (GPa) = 28.62258 30.15063 29.38661
#
# Velocity S-wave (km/s) = 3.88394 3.98627 3.93544
# Velocity P-wave (km/s) = 8.10214 8.28625 8.19471
#
# Compressibility (1/GPa) = 0.01157513
#
# Stress axis : x y z
#
# Youngs Moduli (GPa) = 63.08128 63.79464 68.01647
#
# Poissons Ratio (x) = 0.41451 0.52808
# Poissons Ratio (y) = 0.40988 0.20853
# Poissons Ratio (z) = 0.48977 0.19558
#
# Static dielectric constant tensor:
#      x y z
#    x 3.719250 0.000000 0.080710 
#    y 0.000000 3.463270 0.000000 
#    z 0.080710 0.000000 3.401490 
# 
# 
# High freq. dielectric constant tensor:
#      x y z
#    x 1.752770 0.000000 0.002160 
#    y 0.000000 1.739780 0.000000 
#    z 0.002160 0.000000 1.740190 
# 
# From -- ./inp_files/108746.got.cif
#   From: 2010.06.25/outbox.cif.g09.slc.cpg/sg12_55_cif.got.tgz:108746.got - 2010.06.28 00:19:55.
