data_PCOD8108890
_publ_section_title
;
Structure prediction by ZEFSAII (Michael W. Deem and Ramdas Pophale) SiO2 
 PCOD8108890
Probable space group: C 2/M
;
_chemical_formula_sum "Si O2"
_cell_formula_units_Z 48
_cell_length_a 13.864886
_cell_length_b 25.977757
_cell_length_c 11.795471
_cell_angle_alpha 90.000000
_cell_angle_beta 148.843904
_cell_angle_gamma 90.000000
_cell_volume 2198.040412
_symmetry_space_group_name_H-M "C 2/M"
_symmetry_group_IT_number 12
_symmetry_cell_setting 'monoclinic'
loop_
_space_group_symop_operation_xyz
x,y,z
-x,y,-z
-x,-y,-z
x,-y,z
1/2+x,1/2+y,z
1/2-x,1/2+y,-z
1/2-x,1/2-y,-z
1/2+x,1/2-y,z
loop_
_atom_site_type_symbol
_atom_site_label
_atom_site_fract_x
_atom_site_fract_y
_atom_site_fract_z
Si Si1 0.623823 0.227419 0.727500
Si Si2 0.013692 0.757256 0.176071
Si Si3 0.199282 0.618574 0.882000
Si Si4 0.637110 0.363780 0.342481
Si Si5 0.281941 0.443318 0.758840
Si Si6 0.937507 0.640048 0.811593
O O1 0.500000 0.247344 0.500000
O O2 0.572304 0.262445 0.783532
O O3 0.594961 0.167562 0.723832
O O4 0.842875 0.234986 0.915284
O O5 0.091630 0.701240 0.230892
O O6 0.165092 0.804236 0.324451
O O7 0.174409 0.572140 0.767166
O O8 0.094743 0.610792 0.895622
O O9 0.417583 0.626257 0.127880
O O10 0.750310 0.400415 0.369551
O O11 0.732380 0.376957 0.560353
O O12 0.209945 0.500000 0.649344
O O13 0.500000 0.445485 0.000000
O O14 0.000000 0.624148 0.000000
#
# Coordination Sequence:
#
# PCOD8108890 Si02
#       6
#     8   8   8   8   8   8
#     4   9  18  31  55  80 118 160 200 237 285 353
#     4   9  20  35  49  85 115 163 204 234 293 345
#     4   9  21  39  57  86 120 154 192 247 306 347
#     4  10  21  39  59  86 122 154 195 252 304 352
#     4   9  19  38  68  97 117 148 197 253 314 369
#     4  11  24  37  56  86 119 163 210 238 280 363
#
# _framework density 21.837633
#
# number of rings (size 3 to 8) (size 9 to 14) (size 15 to 20)
#    0.000    2.500    0.000    1.500    7.000    4.000 
#    0.000    1.667    0.000    2.000    0.000    4.667 
#    0.000    0.000    0.000    0.000    0.000    0.000 
#
# Total GULP energy -297371.167204 kJ/mol
# GULP energy per Si atom -12390.465300 kJ/mol
# Density = 2.178793 g / cm^3
# Si number density = 21.837633 Si / 1000 Ang^3
#
#
#
# Elastic Constant Matrix: (Units=GPa)
#
#
# Indices 1 2 3 4 5 6 
#
# 1 79.5674 46.9592 37.9356 0.0000 -8.1967 0.0000
# 2 46.9592 109.8583 20.5118 0.0000 -8.3323 0.0000
# 3 37.9356 20.5118 136.9284 0.0000 -33.0766 0.0000
# 4 0.0000 0.0000 0.0000 10.3494 0.0000 -6.6365
# 5 -8.1967 -8.3323 -33.0766 0.0000 24.6503 0.0000
# 6 0.0000 0.0000 0.0000 -6.6365 0.0000 23.6342
#
#
#
# Elastic Compliance Matrix: (Units=1/GPa)
#
#
# Indices 1 2 3 4 5 6 
#
# 1 0.018943 -0.007404 -0.004767 0.000000 -0.002601 0.000000
# 2 -0.007404 0.012319 0.000913 0.000000 0.002927 0.000000
# 3 -0.004767 0.000913 0.012101 0.000000 0.014961 0.000000
# 4 0.000000 0.000000 0.000000 0.117843 0.000000 0.033091
# 5 -0.002601 0.002927 0.014961 0.000000 0.060767 0.000000
# 6 0.000000 0.000000 0.000000 0.033091 0.000000 0.051604
#
#
# Mechanical properties :
#
#
# Convention : Reuss Voigt Hill
#
# Bulk Modulus (GPa) = 47.97028 59.68524 53.82776
# Shear Modulus (GPa) = 16.49932 26.45660 21.47796
#
# Velocity S-wave (km/s) = 2.75170 3.48446 3.13953
# Velocity P-wave (km/s) = 5.66659 6.60146 6.15181
#
# Compressibility (1/GPa) = 0.02084624
#
# Stress axis : x y z
#
# Youngs Moduli (GPa) = 52.79061 81.17434 82.63757
#
# Poissons Ratio (x) = 0.60104 0.39394
# Poissons Ratio (y) = 0.39088 -0.07545
# Poissons Ratio (z) = 0.25166 -0.07411
#
# Static dielectric constant tensor:
#      x y z
#    x 3.940140 0.000000 -0.021550 
#    y 0.000000 3.913430 0.000000 
#    z -0.021550 0.000000 4.038420 
# 
# 
# High freq. dielectric constant tensor:
#      x y z
#    x 1.845330 0.000000 0.006770 
#    y 0.000000 1.814170 0.000000 
#    z 0.006770 0.000000 1.878450 
# 
# From -- ./inp_files/150333.got.cif
#   From: 2010.06.25/outbox.cif.g09.slc.cpg/sg12_76_cif.got.tgz:150333.got - 2010.06.28 00:19:55.
