data_PCOD8108711
_publ_section_title
;
Structure prediction by ZEFSAII (Michael W. Deem and Ramdas Pophale) SiO2 
 PCOD8108711
Probable space group: C 2/M
;
_chemical_formula_sum "Si O2"
_cell_formula_units_Z 48
_cell_length_a 16.791033
_cell_length_b 32.740204
_cell_length_c 8.148768
_cell_angle_alpha 90.000000
_cell_angle_beta 32.549915
_cell_angle_gamma 90.000000
_cell_volume 2410.241681
_symmetry_space_group_name_H-M "C 2/M"
_symmetry_group_IT_number 12
_symmetry_cell_setting 'monoclinic'
loop_
_space_group_symop_operation_xyz
x,y,z
-x,y,-z
-x,-y,-z
x,-y,z
1/2+x,1/2+y,z
1/2-x,1/2+y,-z
1/2-x,1/2-y,-z
1/2+x,1/2-y,z
loop_
_atom_site_type_symbol
_atom_site_label
_atom_site_fract_x
_atom_site_fract_y
_atom_site_fract_z
Si Si1 0.221417 0.827025 0.200909
Si Si2 0.877933 0.604702 0.098068
Si Si3 0.912636 0.828278 0.909685
Si Si4 0.069087 0.452053 0.555542
Si Si5 0.839083 0.091769 0.239599
Si Si6 0.640789 0.242679 0.836206
O O1 0.336020 0.863649 0.029520
O O2 0.202204 0.824931 0.040053
O O3 0.288066 0.784065 0.143589
O O4 0.073666 0.837847 0.557629
O O5 0.736647 0.592888 0.451296
O O6 0.000000 0.626797 0.000000
O O7 0.953210 0.564444 0.890815
O O8 0.863787 0.863094 0.122046
O O9 0.915177 0.785428 0.995816
O O10 0.083920 0.500000 0.553248
O O11 0.234839 0.433388 0.293675
O O12 0.000000 0.440459 0.500000
O O13 0.000000 0.071442 0.000000
O O14 0.750000 0.250000 0.500000
O O15 0.500000 0.219797 0.000000
#
# Coordination Sequence:
#
# PCOD8108711 Si02
#       6
#     8   8   8   8   8   8
#     4  11  22  39  60  87 120 161 205 254 308 364
#     4  10  21  38  64  92 120 159 203 248 304 367
#     4  11  23  39  59  87 125 157 203 257 310 361
#     4  10  23  44  66  93 129 164 201 251 310 370
#     4  11  21  39  66  93 125 161 204 253 305 368
#     4  12  23  40  59  83 119 160 206 258 305 358
#
# _framework density 19.915015
#
# number of rings (size 3 to 8) (size 9 to 14) (size 15 to 20)
#    0.000    1.167    3.333    3.500    0.000    4.667 
#    0.000    3.333    0.000    2.000    0.000    0.000 
#    0.000    0.000    0.000    0.000    0.000    0.000 
#
# Total GULP energy -297551.553436 kJ/mol
# GULP energy per Si atom -12397.981393 kJ/mol
# Density = 1.986969 g / cm^3
# Si number density = 19.915015 Si / 1000 Ang^3
#
#
#
# Elastic Constant Matrix: (Units=GPa)
#
#
# Indices 1 2 3 4 5 6 
#
# 1 145.5063 43.1938 42.3181 0.0000 -19.7548 0.0000
# 2 43.1938 92.0352 22.7270 0.0000 -10.7822 0.0000
# 3 42.3181 22.7270 102.5380 0.0000 -11.3413 0.0000
# 4 0.0000 0.0000 0.0000 17.8442 0.0000 -1.8608
# 5 -19.7548 -10.7822 -11.3413 0.0000 35.2305 0.0000
# 6 0.0000 0.0000 0.0000 -1.8608 0.0000 35.7877
#
#
#
# Elastic Compliance Matrix: (Units=1/GPa)
#
#
# Indices 1 2 3 4 5 6 
#
# 1 0.009037 -0.003205 -0.002662 0.000000 0.003229 0.000000
# 2 -0.003205 0.012904 -0.001347 0.000000 0.001718 0.000000
# 3 -0.002662 -0.001347 0.011343 0.000000 0.001747 0.000000
# 4 0.000000 0.000000 0.000000 0.056346 0.000000 0.002930
# 5 0.003229 0.001718 0.001747 0.000000 0.031283 0.000000
# 6 0.000000 0.000000 0.000000 0.002930 0.000000 0.028095
#
#
# Mechanical properties :
#
#
# Convention : Reuss Voigt Hill
#
# Bulk Modulus (GPa) = 53.03803 61.83970 57.43886
# Shear Modulus (GPa) = 29.46010 33.22851 31.34431
#
# Velocity S-wave (km/s) = 3.85033 4.08918 3.97155
# Velocity P-wave (km/s) = 6.81591 7.30851 7.06651
#
# Compressibility (1/GPa) = 0.01885440
#
# Stress axis : x y z
#
# Youngs Moduli (GPa) = 110.66018 77.49705 88.16158
#
# Poissons Ratio (x) = 0.24841 0.23467
# Poissons Ratio (y) = 0.35472 0.11876
# Poissons Ratio (z) = 0.29456 0.10440
#
# Static dielectric constant tensor:
#      x y z
#    x 4.060930 0.000000 -0.149580 
#    y 0.000000 3.486650 0.000000 
#    z -0.149580 0.000000 3.663860 
# 
# 
# High freq. dielectric constant tensor:
#      x y z
#    x 1.803460 0.000000 -0.008580 
#    y 0.000000 1.760870 0.000000 
#    z -0.008580 0.000000 1.778390 
# 
# From -- ./inp_files/80565.got.cif
#   From: 2010.06.25/outbox.cif.g09.slc.cpg/sg12_41_cif.got.tgz:80565.got - 2010.06.28 00:19:55.
