data_PCOD8108796
_publ_section_title
;
Structure prediction by ZEFSAII (Michael W. Deem and Ramdas Pophale) SiO2 
 PCOD8108796
Probable space group: C 2/M
;
_chemical_formula_sum "Si O2"
_cell_formula_units_Z 64
_cell_length_a 14.909806
_cell_length_b 27.898805
_cell_length_c 10.530114
_cell_angle_alpha 90.000000
_cell_angle_beta 136.166413
_cell_angle_gamma 90.000000
_cell_volume 3033.555397
_symmetry_space_group_name_H-M "C 2/M"
_symmetry_group_IT_number 12
_symmetry_cell_setting 'monoclinic'
loop_
_space_group_symop_operation_xyz
x,y,z
-x,y,-z
-x,-y,-z
x,-y,z
1/2+x,1/2+y,z
1/2-x,1/2+y,-z
1/2-x,1/2-y,-z
1/2+x,1/2-y,z
loop_
_atom_site_type_symbol
_atom_site_label
_atom_site_fract_x
_atom_site_fract_y
_atom_site_fract_z
Si Si1 0.793181 0.364989 0.568933
Si Si2 0.533606 0.828172 0.675423
Si Si3 0.705380 0.906938 0.951624
Si Si4 0.944424 0.052916 0.084738
Si Si5 0.540882 0.651471 0.186202
Si Si6 0.146754 0.139591 0.675333
Si Si7 0.881415 0.773049 0.184060
Si Si8 0.459263 0.054721 0.820313
O O1 0.696436 0.349550 0.356243
O O2 0.724827 0.349282 0.627710
O O3 0.831597 0.420787 0.628561
O O4 0.927668 0.339204 0.675455
O O5 0.500000 0.847135 0.500000
O O6 0.538303 0.771118 0.678906
O O7 0.666756 0.854918 0.853514
O O8 0.789908 0.937289 0.936098
O O9 0.783479 0.899118 0.162982
O O10 0.578999 0.938726 0.847085
O O11 0.002273 0.100289 0.214881
O O12 0.975130 0.000000 0.176939
O O13 0.000000 0.052448 0.000000
O O14 0.468718 0.696930 0.173089
O O15 0.500000 0.650620 0.000000
O O16 0.151156 0.192499 0.735126
O O17 0.000000 0.122019 0.500000
O O18 0.750000 0.750000 0.000000
O O19 0.420228 0.000000 0.796054
O O20 0.500000 0.076417 0.000000
#
# Coordination Sequence:
#
# PCOD8108796 Si02
#       8
#     8   8   8   8   8   8   8   8
#     4  11  25  43  68  94 131 174 215 275 335 398
#     4  11  27  43  68  97 129 177 222 274 331 398
#     4  11  21  43  67  93 139 172 217 271 337 391
#     4  10  21  38  66  96 129 174 219 263 322 390
#     4  11  25  43  65  94 132 173 219 273 333 388
#     4  12  22  42  65  95 131 173 213 267 333 391
#     4  12  24  43  66  95 132 173 218 274 325 399
#     4  10  21  39  68  99 129 169 216 274 331 395
#
# _framework density 21.097356000000001
#
# number of rings (size 3 to 8) (size 9 to 14) (size 15 to 20)
#    0.000    1.000    5.000    0.750    5.250    2.000 
#    0.000    0.000    0.000    3.750    0.000    0.000 
#    0.000    0.000    0.000    0.000    0.000    0.000 
#
# Total GULP energy -396471.116370 kJ/mol
# GULP energy per Si atom -12389.722387 kJ/mol
# Density = 2.104934 g / cm^3
# Si number density = 21.097356 Si / 1000 Ang^3
#
#
#
# Elastic Constant Matrix: (Units=GPa)
#
#
# Indices 1 2 3 4 5 6 
#
# 1 121.6948 16.7954 31.3826 0.0000 6.3604 0.0000
# 2 16.7954 100.7166 25.9630 0.0000 5.2587 0.0000
# 3 31.3826 25.9630 117.7641 0.0000 1.2451 0.0000
# 4 0.0000 0.0000 0.0000 24.5774 0.0000 2.3847
# 5 6.3604 5.2587 1.2451 0.0000 29.6342 0.0000
# 6 0.0000 0.0000 0.0000 2.3847 0.0000 22.1052
#
#
#
# Elastic Compliance Matrix: (Units=1/GPa)
#
#
# Indices 1 2 3 4 5 6 
#
# 1 0.008987 -0.000846 -0.002191 0.000000 -0.001687 0.000000
# 2 -0.000846 0.010701 -0.002116 0.000000 -0.001628 0.000000
# 3 -0.002191 -0.002116 0.009537 0.000000 0.000445 0.000000
# 4 0.000000 0.000000 0.000000 0.041118 0.000000 -0.004436
# 5 -0.001687 -0.001628 0.000445 0.000000 0.034377 0.000000
# 6 0.000000 0.000000 0.000000 -0.004436 0.000000 0.045717
#
#
# Mechanical properties :
#
#
# Convention : Reuss Voigt Hill
#
# Bulk Modulus (GPa) = 52.85727 54.27305 53.56516
# Shear Modulus (GPa) = 29.93133 32.99900 31.46517
#
# Velocity S-wave (km/s) = 3.77068 3.95920 3.86609
# Velocity P-wave (km/s) = 6.63820 6.83237 6.73598
#
# Compressibility (1/GPa) = 0.01891887
#
# Stress axis : x y z
#
# Youngs Moduli (GPa) = 111.27065 93.45339 104.85233
#
# Poissons Ratio (x) = 0.07905 0.22969
# Poissons Ratio (y) = 0.09412 0.22192
# Poissons Ratio (z) = 0.24375 0.19779
#
# Static dielectric constant tensor:
#      x y z
#    x 4.004570 0.000000 0.263120 
#    y 0.000000 4.248520 0.000000 
#    z 0.263120 0.000000 4.026380 
# 
# 
# High freq. dielectric constant tensor:
#      x y z
#    x 1.840010 0.000000 0.012390 
#    y 0.000000 1.826850 0.000000 
#    z 0.012390 0.000000 1.816440 
# 
# From -- ./inp_files/150304.got.cif
#   From: 2010.06.25/outbox.cif.g09.slc.cpg/sg12_76_cif.got.tgz:150304.got - 2010.06.28 00:19:55.
