data_PCOD8108414
_publ_section_title
;
Structure prediction by ZEFSAII (Michael W. Deem and Ramdas Pophale) SiO2 
 PCOD8108414
Probable space group: C 2/M
;
_chemical_formula_sum "Si O2"
_cell_formula_units_Z 56
_cell_length_a 27.363302
_cell_length_b 8.599257
_cell_length_c 13.591909
_cell_angle_alpha 90.000000
_cell_angle_beta 60.086138
_cell_angle_gamma 90.000000
_cell_volume 2772.150654
_symmetry_space_group_name_H-M "C 2/M"
_symmetry_group_IT_number 12
_symmetry_cell_setting 'monoclinic'
loop_
_space_group_symop_operation_xyz
x,y,z
-x,y,-z
-x,-y,-z
x,-y,z
1/2+x,1/2+y,z
1/2-x,1/2+y,-z
1/2-x,1/2-y,-z
1/2+x,1/2-y,z
loop_
_atom_site_type_symbol
_atom_site_label
_atom_site_fract_x
_atom_site_fract_y
_atom_site_fract_z
Si Si1 0.596819 0.818801 0.271699
Si Si2 0.166658 0.816190 0.834186
Si Si3 0.765761 0.315189 0.589506
Si Si4 0.975919 0.319359 0.306750
Si Si5 0.047451 0.816469 0.879714
Si Si6 0.692091 0.818127 0.020024
Si Si7 0.883591 0.181519 0.539301
O O1 0.536364 0.773884 0.289245
O O2 0.643190 0.774146 0.144955
O O3 0.608206 0.713187 0.354261
O O4 0.600096 0.000000 0.298236
O O5 0.217034 0.762557 0.713095
O O6 0.108279 0.747888 0.849397
O O7 0.164324 0.000000 0.843044
O O8 0.175996 0.751490 0.932303
O O9 0.773256 0.500000 0.578501
O O10 0.750000 0.250000 0.500000
O O11 0.822343 0.235360 0.568503
O O12 0.972517 0.500000 0.284299
O O13 0.966066 0.224058 0.218159
O O14 0.929452 0.278134 0.433545
O O15 0.048694 0.000000 0.889189
O O16 0.000000 0.745317 0.000000
O O17 0.699148 0.000000 0.001434
O O18 0.750000 0.750000 0.000000
O O19 0.891126 0.000000 0.509241
#
# Coordination Sequence:
#
# PCOD8108414 Si02
#       7
#     8   8   8   8   8   8   8
#     4  10  23  42  61  86 120 156 196 244 298 354
#     4  10  22  39  59  86 120 156 195 240 290 345
#     4  11  23  40  62  88 121 160 201 247 296 350
#     4  11  23  40  63  88 118 157 199 246 299 357
#     4  10  21  38  61  90 124 158 194 242 296 350
#     4  11  23  39  61  88 119 155 196 242 291 348
#     4  12  25  40  61  89 119 154 199 248 300 359
#
# _framework density 20.200923
#
# number of rings (size 3 to 8) (size 9 to 14) (size 15 to 20)
#    0.000    1.286    0.000    5.571    0.000   10.571 
#    0.000    0.000    0.000    0.000    0.000    0.000 
#    0.000    0.000    0.000    0.000    0.000    0.000 
#
# Total GULP energy -347366.941565 kJ/mol
# GULP energy per Si atom -12405.962199 kJ/mol
# Density = 2.015494 g / cm^3
# Si number density = 20.200923 Si / 1000 Ang^3
#
#
#
# Elastic Constant Matrix: (Units=GPa)
#
#
# Indices 1 2 3 4 5 6 
#
# 1 179.7805 28.7204 78.2071 0.0000 -6.4953 0.0000
# 2 28.7204 76.1695 79.9834 0.0000 12.6556 0.0000
# 3 78.2071 79.9834 214.4422 0.0000 14.8072 0.0000
# 4 0.0000 0.0000 0.0000 31.9198 0.0000 4.3260
# 5 -6.4953 12.6556 14.8072 0.0000 47.6226 0.0000
# 6 0.0000 0.0000 0.0000 4.3260 0.0000 27.7814
#
#
#
# Elastic Compliance Matrix: (Units=1/GPa)
#
#
# Indices 1 2 3 4 5 6 
#
# 1 0.006749 -0.000205 -0.002506 0.000000 0.001754 0.000000
# 2 -0.000205 0.022108 -0.007934 0.000000 -0.003436 0.000000
# 3 -0.002506 -0.007934 0.008599 0.000000 -0.000907 0.000000
# 4 0.000000 0.000000 0.000000 0.032004 0.000000 -0.004983
# 5 0.001754 -0.003436 -0.000907 0.000000 0.022433 0.000000
# 6 0.000000 0.000000 0.000000 -0.004983 0.000000 0.036771
#
#
# Mechanical properties :
#
#
# Convention : Reuss Voigt Hill
#
# Bulk Modulus (GPa) = 61.85664 93.80157 77.82911
# Shear Modulus (GPa) = 32.18714 40.36354 36.27534
#
# Velocity S-wave (km/s) = 3.99601 4.47486 4.24220
# Velocity P-wave (km/s) = 7.20957 8.55771 7.91240
#
# Compressibility (1/GPa) = 0.01616641
#
# Stress axis : x y z
#
# Youngs Moduli (GPa) = 148.18028 45.23258 116.29107
#
# Poissons Ratio (x) = 0.00925 0.29143
# Poissons Ratio (y) = 0.03031 0.92266
# Poissons Ratio (z) = 0.37134 0.35888
#
# Static dielectric constant tensor:
#      x y z
#    x 3.932210 0.000000 -0.164210 
#    y 0.000000 3.669000 0.000000 
#    z -0.164210 0.000000 3.872250 
# 
# 
# High freq. dielectric constant tensor:
#      x y z
#    x 1.812810 0.000000 -0.002610 
#    y 0.000000 1.786730 0.000000 
#    z -0.002610 0.000000 1.808500 
# 
# From -- ./inp_files/180844.got.cif
#   From: 2010.06.25/outbox.cif.g09.slc.cpg/sg12_91_cif.got.tgz:180844.got - 2010.06.28 00:19:55.
