data_PCOD8108751
_publ_section_title
;
Structure prediction by ZEFSAII (Michael W. Deem and Ramdas Pophale) SiO2 
 PCOD8108751
Probable space group: C 2/M
;
_chemical_formula_sum "Si O2"
_cell_formula_units_Z 64
_cell_length_a 18.047595
_cell_length_b 32.753542
_cell_length_c 9.735975
_cell_angle_alpha 90.000000
_cell_angle_beta 32.610739
_cell_angle_gamma 90.000000
_cell_volume 3101.618312
_symmetry_space_group_name_H-M "C 2/M"
_symmetry_group_IT_number 12
_symmetry_cell_setting 'monoclinic'
loop_
_space_group_symop_operation_xyz
x,y,z
-x,y,-z
-x,-y,-z
x,-y,z
1/2+x,1/2+y,z
1/2-x,1/2+y,-z
1/2-x,1/2-y,-z
1/2+x,1/2-y,z
loop_
_atom_site_type_symbol
_atom_site_label
_atom_site_fract_x
_atom_site_fract_y
_atom_site_fract_z
Si Si1 0.375825 0.045861 0.302081
Si Si2 0.443261 0.546106 0.234722
Si Si3 0.001744 0.765725 0.842245
Si Si4 0.623571 0.868475 0.584027
Si Si5 0.103531 0.689711 0.119117
Si Si6 0.277591 0.671086 0.593395
Si Si7 0.505765 0.612092 0.337568
Si Si8 0.278771 0.672631 0.098718
O O1 0.221200 0.050140 0.483154
O O2 0.387752 0.082261 0.393955
O O3 0.389903 0.000000 0.345184
O O4 0.500000 0.052068 0.000000
O O5 0.492003 0.500000 0.179227
O O6 0.528450 0.572363 0.210398
O O7 0.500000 0.562174 0.000000
O O8 0.003956 0.727277 0.733923
O O9 0.134912 0.793867 0.617653
O O10 0.863272 0.790661 0.031764
O O11 0.000000 0.748623 0.000000
O O12 0.472556 0.853254 0.780204
O O13 0.667129 0.847968 0.660725
O O14 0.726007 0.855561 0.303944
O O15 0.163045 0.691993 0.180369
O O16 0.215420 0.693079 0.823976
O O17 0.367762 0.633311 0.501179
O O18 0.500000 0.595817 0.500000
O O19 0.629413 0.644071 0.140389
#
# Coordination Sequence:
#
# PCOD8108751 Si02
#       8
#     8   8   8   8   8   8   8   8
#     4  10  21  38  65 103 137 169 215 274 332 390
#     4  10  21  38  65  99 129 164 216 270 322 387
#     4  11  24  42  68  91 123 168 218 274 321 384
#     4  12  23  41  69  92 128 170 219 269 321 395
#     4  12  26  42  62  92 130 170 210 270 329 390
#     4  11  23  41  64  93 118 164 223 261 316 382
#     4  11  22  39  64  88 127 170 206 263 322 384
#     4  11  25  44  61  94 129 167 213 270 331 387
#
# _framework density 20.634388999999999
#
# number of rings (size 3 to 8) (size 9 to 14) (size 15 to 20)
#    0.000    1.000    3.750    3.375    1.750    1.250 
#    2.250    0.000    0.000    2.250    0.000    0.000 
#    0.000    0.000    0.000    0.000    0.000    0.000 
#
# Total GULP energy -396783.452221 kJ/mol
# GULP energy per Si atom -12399.482882 kJ/mol
# Density = 2.058742 g / cm^3
# Si number density = 20.634389 Si / 1000 Ang^3
#
#
#
# Elastic Constant Matrix: (Units=GPa)
#
#
# Indices 1 2 3 4 5 6 
#
# 1 67.7117 37.2972 14.8107 0.0000 7.9103 0.0000
# 2 37.2972 125.3186 12.7707 0.0000 9.8126 0.0000
# 3 14.8107 12.7707 51.7837 0.0000 2.6051 0.0000
# 4 0.0000 0.0000 0.0000 19.9446 0.0000 15.9886
# 5 7.9103 9.8126 2.6051 0.0000 33.8654 0.0000
# 6 0.0000 0.0000 0.0000 15.9886 0.0000 7.6457
#
#
#
# Elastic Compliance Matrix: (Units=1/GPa)
#
#
# Indices 1 2 3 4 5 6 
#
# 1 0.018671 -0.004945 -0.003989 0.000000 -0.002621 0.000000
# 2 -0.004945 0.009666 -0.000890 0.000000 -0.001577 0.000000
# 3 -0.003989 -0.000890 0.020692 0.000000 -0.000402 0.000000
# 4 0.000000 0.000000 0.000000 -0.074125 0.000000 0.155010
# 5 -0.002621 -0.001577 -0.000402 0.000000 0.030629 0.000000
# 6 0.000000 0.000000 0.000000 0.155010 0.000000 -0.193363
#
#
# Mechanical properties :
#
#
# Convention : Reuss Voigt Hill
#
# Bulk Modulus (GPa) = 34.03598 41.61902 37.82750
# Shear Modulus (GPa) = -31.56768 24.28683 -3.64042
#
# Velocity S-wave (km/s) = -3.91558 3.43448 -1.32969
# Velocity P-wave (km/s) = 1.97782 5.99508 4.00183
#
# Compressibility (1/GPa) = 0.02938068
#
# Stress axis : x y z
#
# Youngs Moduli (GPa) = 53.55866 103.45959 48.32871
#
# Poissons Ratio (x) = 0.51162 0.19277
# Poissons Ratio (y) = 0.26486 0.04301
# Poissons Ratio (z) = 0.21363 0.09208
#
# Static dielectric constant tensor:
#      x y z
#    x 3.663940 0.000000 -0.035070 
#    y 0.000000 3.918110 0.000000 
#    z -0.035070 0.000000 3.854010 
# 
# 
# High freq. dielectric constant tensor:
#      x y z
#    x 1.794760 0.000000 -0.005700 
#    y 0.000000 1.815610 0.000000 
#    z -0.005700 0.000000 1.814060 
# 
# From -- ./inp_files/80733.got.cif
#   From: 2010.06.25/outbox.cif.g09.slc.cpg/sg12_41_cif.got.tgz:80733.got - 2010.06.28 00:19:55.
