data_PCOD8108815
_publ_section_title
;
Structure prediction by ZEFSAII (Michael W. Deem and Ramdas Pophale) SiO2 
 PCOD8108815
Probable space group: C 2/M
;
_chemical_formula_sum "Si O2"
_cell_formula_units_Z 36
_cell_length_a 13.328635
_cell_length_b 26.238831
_cell_length_c 8.289740
_cell_angle_alpha 90.000000
_cell_angle_beta 145.771187
_cell_angle_gamma 90.000000
_cell_volume 1630.771074
_symmetry_space_group_name_H-M "C 2/M"
_symmetry_group_IT_number 12
_symmetry_cell_setting 'monoclinic'
loop_
_space_group_symop_operation_xyz
x,y,z
-x,y,-z
-x,-y,-z
x,-y,z
1/2+x,1/2+y,z
1/2-x,1/2+y,-z
1/2-x,1/2-y,-z
1/2+x,1/2-y,z
loop_
_atom_site_type_symbol
_atom_site_label
_atom_site_fract_x
_atom_site_fract_y
_atom_site_fract_z
Si Si1 0.749986 0.000000 0.454997
Si Si2 0.367933 0.390672 0.560343
Si Si3 0.255969 0.107447 0.962218
Si Si4 0.699692 0.295866 0.319914
Si Si5 0.500000 0.827554 0.500000
Si Si6 0.375081 0.000000 0.076063
O O1 0.862340 0.052136 0.627392
O O2 0.589802 0.000000 0.371683
O O3 0.678574 0.000000 0.180258
O O4 0.255544 0.386051 0.245952
O O5 0.573328 0.375501 0.804806
O O6 0.283763 0.351057 0.573667
O O7 0.420867 0.139616 0.247654
O O8 0.292506 0.048703 0.055059
O O9 0.750000 0.250000 0.500000
O O10 0.839121 0.293580 0.356785
O O11 0.500000 0.285620 0.000000
#
# Coordination Sequence:
#
# PCOD8108815 Si02
#       6
#     4   8   8   8   4   4
#     4   9  17  33  65  97 135 183 224 278 325 407
#     4  10  21  43  68 100 139 180 232 275 340 401
#     4  10  21  38  68  99 139 185 225 281 331 409
#     4  12  29  50  72 102 136 177 228 286 342 406
#     4  12  26  45  72 100 138 173 230 282 346 398
#     4   9  17  32  56 100 136 182 233 262 335 399
#
# _framework density 22.075447
#
# number of rings (size 3 to 8) (size 9 to 14) (size 15 to 20)
#    0.000    1.556    2.222    2.000    3.111    7.556 
#    0.000    1.667    0.000    0.000    0.000    0.000 
#    0.000    0.000    0.000    0.000    0.000    0.000 
#
# Total GULP energy -223216.309333 kJ/mol
# GULP energy per Si atom -12400.906074 kJ/mol
# Density = 2.202520 g / cm^3
# Si number density = 22.075447 Si / 1000 Ang^3
#
#
#
# Elastic Constant Matrix: (Units=GPa)
#
#
# Indices 1 2 3 4 5 6 
#
# 1 113.6981 43.2673 40.0607 0.0000 22.0118 0.0000
# 2 43.2673 125.5300 42.7543 0.0000 0.8549 0.0000
# 3 40.0607 42.7543 125.7012 0.0000 14.2222 0.0000
# 4 0.0000 0.0000 0.0000 16.4200 0.0000 -10.5145
# 5 22.0118 0.8549 14.2222 0.0000 27.2406 0.0000
# 6 0.0000 0.0000 0.0000 -10.5145 0.0000 23.0284
#
#
#
# Elastic Compliance Matrix: (Units=1/GPa)
#
#
# Indices 1 2 3 4 5 6 
#
# 1 0.012575 -0.003687 -0.001719 0.000000 -0.009148 0.000000
# 2 -0.003687 0.010141 -0.002737 0.000000 0.004090 0.000000
# 3 -0.001719 -0.002737 0.009849 0.000000 -0.003668 0.000000
# 4 0.000000 0.000000 0.000000 0.086064 0.000000 0.039296
# 5 -0.009148 0.004090 -0.003668 0.000000 0.045889 0.000000
# 6 0.000000 0.000000 0.000000 0.039296 0.000000 0.061367
#
#
# Mechanical properties :
#
#
# Convention : Reuss Voigt Hill
#
# Bulk Modulus (GPa) = 61.42360 68.56602 64.99481
# Shear Modulus (GPa) = 20.19418 29.26094 24.72756
#
# Velocity S-wave (km/s) = 3.02781 3.64469 3.35048
# Velocity P-wave (km/s) = 6.33311 6.98849 6.66886
#
# Compressibility (1/GPa) = 0.01628039
#
# Stress axis : x y z
#
# Youngs Moduli (GPa) = 79.52455 98.60670 101.53298
#
# Poissons Ratio (x) = 0.36352 0.17449
# Poissons Ratio (y) = 0.29317 0.27791
# Poissons Ratio (z) = 0.13667 0.26990
#
# Static dielectric constant tensor:
#      x y z
#    x 3.931370 0.000000 0.217250 
#    y 0.000000 3.996040 0.000000 
#    z 0.217250 0.000000 4.085340 
# 
# 
# High freq. dielectric constant tensor:
#      x y z
#    x 1.867780 0.000000 0.014730 
#    y 0.000000 1.863430 0.000000 
#    z 0.014730 0.000000 1.867620 
# 
# From -- ./inp_files/67493.got.cif
#   From: 2010.06.25/outbox.cif.g09.slc.cpg/sg12_34_cif.got.tgz:67493.got - 2010.06.28 00:19:55.
