data_PCOD8108125
_publ_section_title
;
Structure prediction by ZEFSAII (Michael W. Deem and Ramdas Pophale) SiO2 
 PCOD8108125
Probable space group: C 2/M
;
_chemical_formula_sum "Si O2"
_cell_formula_units_Z 64
_cell_length_a 30.869032
_cell_length_b 8.700677
_cell_length_c 14.311367
_cell_angle_alpha 90.000000
_cell_angle_beta 55.706307
_cell_angle_gamma 90.000000
_cell_volume 3175.568674
_symmetry_space_group_name_H-M "C 2/M"
_symmetry_group_IT_number 12
_symmetry_cell_setting 'monoclinic'
loop_
_space_group_symop_operation_xyz
x,y,z
-x,y,-z
-x,-y,-z
x,-y,z
1/2+x,1/2+y,z
1/2-x,1/2+y,-z
1/2-x,1/2-y,-z
1/2+x,1/2-y,z
loop_
_atom_site_type_symbol
_atom_site_label
_atom_site_fract_x
_atom_site_fract_y
_atom_site_fract_z
Si Si1 0.641106 0.821457 0.227994
Si Si2 0.736406 0.820701 0.229211
Si Si3 0.893768 0.319214 0.226693
Si Si4 0.720668 0.678660 0.622964
Si Si5 0.975138 0.320692 0.630042
Si Si6 0.572974 0.679783 0.001055
Si Si7 0.022269 0.818996 0.752663
Si Si8 0.168503 0.321948 0.988124
O O1 0.678193 0.766408 0.268312
O O2 0.583326 0.746116 0.300498
O O3 0.630848 0.000000 0.252830
O O4 0.670177 0.783660 0.095750
O O5 0.742981 0.790398 0.331070
O O6 0.775614 0.716357 0.122640
O O7 0.745867 0.000000 0.193050
O O8 0.888592 0.500000 0.236999
O O9 0.835704 0.251866 0.291334
O O10 0.927752 0.268732 0.095917
O O11 0.923357 0.259864 0.282949
O O12 0.712417 0.500000 0.614775
O O13 0.750000 0.750000 0.500000
O O14 0.974731 0.500000 0.657785
O O15 0.009929 0.231724 0.662885
O O16 0.000000 0.291004 0.500000
O O17 0.569714 0.500000 0.982745
O O18 0.625874 0.714172 0.992019
O O19 0.524147 0.736405 0.122132
O O20 0.029516 0.000000 0.747983
O O21 0.154345 0.500000 0.986775
#
# Coordination Sequence:
#
# PCOD8108125 Si02
#       8
#     8   8   8   8   8   8   8   8
#     4   9  19  36  58  88 121 155 197 246 300 360
#     4  10  21  38  60  85 121 162 199 246 303 362
#     4  12  25  41  65  93 124 160 204 255 311 370
#     4  11  24  42  64  89 123 164 210 257 304 359
#     4  10  21  39  63  89 121 161 207 256 303 359
#     4  11  22  38  61  90 125 162 199 246 310 375
#     4  11  24  41  63  91 126 163 204 253 309 373
#     4  11  20  33  59  89 121 155 196 248 300 364
#
# _framework density 20.153870000000001
#
# number of rings (size 3 to 8) (size 9 to 14) (size 15 to 20)
#    0.000    1.375    2.500    3.375    0.000    4.750 
#    0.000    3.750    0.000    0.000    0.000    0.000 
#    0.000    0.000    0.000    0.000    0.000    0.000 
#
# Total GULP energy -396916.113467 kJ/mol
# GULP energy per Si atom -12403.628546 kJ/mol
# Density = 2.010800 g / cm^3
# Si number density = 20.153870 Si / 1000 Ang^3
#
#
#
# Elastic Constant Matrix: (Units=GPa)
#
#
# Indices 1 2 3 4 5 6 
#
# 1 142.0514 37.7855 22.1623 0.0000 16.7414 0.0000
# 2 37.7855 80.4241 38.7638 0.0000 9.6233 0.0000
# 3 22.1623 38.7638 73.3513 0.0000 16.2052 0.0000
# 4 0.0000 0.0000 0.0000 27.6977 0.0000 1.9865
# 5 16.7414 9.6233 16.2052 0.0000 21.6217 0.0000
# 6 0.0000 0.0000 0.0000 1.9865 0.0000 26.5187
#
#
#
# Elastic Compliance Matrix: (Units=1/GPa)
#
#
# Indices 1 2 3 4 5 6 
#
# 1 0.008560 -0.003628 0.000526 0.000000 -0.005407 0.000000
# 2 -0.003628 0.018239 -0.008832 0.000000 0.001311 0.000000
# 3 0.000526 -0.008832 0.020809 0.000000 -0.012072 0.000000
# 4 0.000000 0.000000 0.000000 0.036299 0.000000 -0.002719
# 5 -0.005407 0.001311 -0.012072 0.000000 0.058901 0.000000
# 6 0.000000 0.000000 0.000000 -0.002719 0.000000 0.037913
#
#
# Mechanical properties :
#
#
# Convention : Reuss Voigt Hill
#
# Bulk Modulus (GPa) = 42.12597 54.80554 48.46575
# Shear Modulus (GPa) = 23.52920 28.30865 25.91892
#
# Velocity S-wave (km/s) = 3.42054 3.75190 3.59005
# Velocity P-wave (km/s) = 6.04547 6.78392 6.42531
#
# Compressibility (1/GPa) = 0.02373832
#
# Stress axis : x y z
#
# Youngs Moduli (GPa) = 116.82234 54.82830 48.05679
#
# Poissons Ratio (x) = 0.19892 -0.02526
# Poissons Ratio (y) = 0.42384 0.42444
# Poissons Ratio (z) = -0.06140 0.48425
#
# Static dielectric constant tensor:
#      x y z
#    x 3.926170 0.000000 -0.036400 
#    y 0.000000 3.578450 0.000000 
#    z -0.036400 0.000000 3.696800 
# 
# 
# High freq. dielectric constant tensor:
#      x y z
#    x 1.805280 0.000000 0.002370 
#    y 0.000000 1.777150 0.000000 
#    z 0.002370 0.000000 1.781470 
# 
# From -- ./inp_files/249664.got.cif
#   From: 2010.06.25/outbox.cif.g09.slc.cpg/sg12_125_cif.got.tgz:249664.got - 2010.06.28 00:19:55.
