data_PCOD8108561
_publ_section_title
;
Structure prediction by ZEFSAII (Michael W. Deem and Ramdas Pophale) SiO2 
 PCOD8108561
Probable space group: C 2/M
;
_chemical_formula_sum "Si O2"
_cell_formula_units_Z 56
_cell_length_a 22.942312
_cell_length_b 8.437801
_cell_length_c 14.978743
_cell_angle_alpha 90.000000
_cell_angle_beta 64.494582
_cell_angle_gamma 90.000000
_cell_volume 2617.040764
_symmetry_space_group_name_H-M "C 2/M"
_symmetry_group_IT_number 12
_symmetry_cell_setting 'monoclinic'
loop_
_space_group_symop_operation_xyz
x,y,z
-x,y,-z
-x,-y,-z
x,-y,z
1/2+x,1/2+y,z
1/2-x,1/2+y,-z
1/2-x,1/2-y,-z
1/2+x,1/2-y,z
loop_
_atom_site_type_symbol
_atom_site_label
_atom_site_fract_x
_atom_site_fract_y
_atom_site_fract_z
Si Si1 0.146105 0.817742 0.546906
Si Si2 0.820726 0.685290 0.969852
Si Si3 0.535100 0.183627 0.886782
Si Si4 0.731150 0.815405 0.644873
Si Si5 0.664672 0.683450 0.847724
Si Si6 0.489849 0.184071 0.406103
Si Si7 0.057209 0.183277 0.197894
O O1 0.195509 0.782603 0.433360
O O2 0.181080 0.779216 0.616416
O O3 0.083698 0.709588 0.575867
O O4 0.124182 0.000000 0.562513
O O5 0.823333 0.500000 0.949330
O O6 0.842082 0.719455 0.056659
O O7 0.750000 0.750000 0.000000
O O8 0.868739 0.770633 0.869111
O O9 0.599539 0.288014 0.833977
O O10 0.489427 0.212468 0.832973
O O11 0.554530 0.000000 0.877332
O O12 0.500000 0.238232 0.000000
O O13 0.724366 0.749956 0.750066
O O14 0.714048 0.000000 0.650432
O O15 0.675698 0.500000 0.862219
O O16 0.500000 0.245994 0.500000
O O17 0.539757 0.281343 0.311897
O O18 0.506975 0.000000 0.386791
O O19 0.046630 0.000000 0.182666
#
# Coordination Sequence:
#
# PCOD8108561 Si02
#       7
#     8   8   8   8   8   8   8
#     4  10  21  39  63  92 124 161 207 262 318 373
#     4  12  26  46  67  91 125 166 211 256 309 374
#     4  11  22  38  64  94 128 169 209 259 314 375
#     4  10  21  38  62  91 127 166 205 255 316 379
#     4  12  24  39  62  94 129 166 210 259 313 375
#     4  11  25  44  66  91 124 168 215 263 315 376
#     4  12  25  43  68  97 130 167 209 264 321 378
#
# _framework density 21.398212999999998
#
# number of rings (size 3 to 8) (size 9 to 14) (size 15 to 20)
#    0.000    0.857    1.429    6.429    0.000    4.571 
#    0.000    2.857    0.000    0.000    0.000    0.000 
#    0.000    0.000    0.000    0.000    0.000    0.000 
#
# Total GULP energy -347433.030893 kJ/mol
# GULP energy per Si atom -12408.322532 kJ/mol
# Density = 2.134951 g / cm^3
# Si number density = 21.398213 Si / 1000 Ang^3
#
#
#
# Elastic Constant Matrix: (Units=GPa)
#
#
# Indices 1 2 3 4 5 6 
#
# 1 82.0616 10.5807 34.1101 0.0000 -13.5906 0.0000
# 2 10.5807 86.7194 38.6776 0.0000 -6.0451 0.0000
# 3 34.1101 38.6776 152.0076 0.0000 -12.4193 0.0000
# 4 0.0000 0.0000 0.0000 34.3800 0.0000 -0.3316
# 5 -13.5906 -6.0451 -12.4193 0.0000 29.5423 0.0000
# 6 0.0000 0.0000 0.0000 -0.3316 0.0000 31.2474
#
#
#
# Elastic Compliance Matrix: (Units=1/GPa)
#
#
# Indices 1 2 3 4 5 6 
#
# 1 0.014223 -0.000150 -0.002715 0.000000 0.005371 0.000000
# 2 -0.000150 0.013059 -0.003186 0.000000 0.001264 0.000000
# 3 -0.002715 -0.003186 0.008122 0.000000 0.001514 0.000000
# 4 0.000000 0.000000 0.000000 0.029090 0.000000 0.000309
# 5 0.005371 0.001264 0.001514 0.000000 0.037216 0.000000
# 6 0.000000 0.000000 0.000000 0.000309 0.000000 0.032006
#
#
# Mechanical properties :
#
#
# Convention : Reuss Voigt Hill
#
# Bulk Modulus (GPa) = 42.91314 54.16950 48.54132
# Shear Modulus (GPa) = 32.55541 34.86195 33.70868
#
# Velocity S-wave (km/s) = 3.90475 4.04071 3.97332
# Velocity P-wave (km/s) = 6.35827 6.86584 6.61692
#
# Compressibility (1/GPa) = 0.02330289
#
# Stress axis : x y z
#
# Youngs Moduli (GPa) = 70.30728 76.57698 123.12167
#
# Poissons Ratio (x) = 0.01150 0.33423
# Poissons Ratio (y) = 0.01056 0.39224
# Poissons Ratio (z) = 0.19086 0.24396
#
# Static dielectric constant tensor:
#      x y z
#    x 3.703880 0.000000 -0.111560 
#    y 0.000000 3.813340 0.000000 
#    z -0.111560 0.000000 4.186810 
# 
# 
# High freq. dielectric constant tensor:
#      x y z
#    x 1.825590 0.000000 -0.010900 
#    y 0.000000 1.849400 0.000000 
#    z -0.010900 0.000000 1.856980 
# 
# From -- ./inp_files/238389.got.cif
#   From: 2010.06.25/outbox.cif.g09.slc.cpg/sg12_120_cif.got.tgz:238389.got - 2010.06.28 00:19:55.
