data_PCOD8108599
_publ_section_title
;
Structure prediction by ZEFSAII (Michael W. Deem and Ramdas Pophale) SiO2 
 PCOD8108599
Probable space group: C 2/M
;
_chemical_formula_sum "Si O2"
_cell_formula_units_Z 48
_cell_length_a 19.270014
_cell_length_b 14.403865
_cell_length_c 17.328648
_cell_angle_alpha 90.000000
_cell_angle_beta 22.612457
_cell_angle_gamma 90.000000
_cell_volume 1849.343635
_symmetry_space_group_name_H-M "C 2/M"
_symmetry_group_IT_number 12
_symmetry_cell_setting 'monoclinic'
loop_
_space_group_symop_operation_xyz
x,y,z
-x,y,-z
-x,-y,-z
x,-y,z
1/2+x,1/2+y,z
1/2-x,1/2+y,-z
1/2-x,1/2-y,-z
1/2+x,1/2-y,z
loop_
_atom_site_type_symbol
_atom_site_label
_atom_site_fract_x
_atom_site_fract_y
_atom_site_fract_z
Si Si1 0.997934 0.394260 0.675633
Si Si2 0.300667 0.606691 0.895563
Si Si3 0.730094 0.265638 0.671972
Si Si4 0.795596 0.897514 0.494331
Si Si5 0.931266 0.898574 0.983979
Si Si6 0.169795 0.248312 0.272271
O O1 0.978939 0.500000 0.663117
O O2 0.057352 0.312634 0.551127
O O3 0.186450 0.385284 0.528143
O O4 0.841276 0.361268 0.893964
O O5 0.262648 0.500000 0.910590
O O6 0.493453 0.620249 0.738177
O O7 0.285430 0.668727 0.834794
O O8 0.721258 0.171475 0.634834
O O9 0.580357 0.334317 0.789435
O O10 0.678892 0.247171 0.814031
O O11 0.765143 0.000000 0.560214
O O12 0.921518 0.000000 0.952854
O O13 0.726009 0.854199 0.181913
O O14 0.000000 0.915448 0.000000
O O15 0.000000 0.223937 0.500000
#
# Coordination Sequence:
#
# PCOD8108599 Si02
#       6
#     8   8   8   8   8   8
#     4  10  22  41  65  94 128 174 227 276 331 391
#     4  10  22  42  67  97 137 175 217 275 332 395
#     4  11  21  39  65  93 128 171 216 274 331 393
#     4  10  21  38  62  94 130 173 220 265 326 393
#     4   9  20  38  60  84 120 168 217 268 321 382
#     4  11  22  39  61  96 131 171 221 266 331 397
#
# _framework density 25.955154
#
# number of rings (size 3 to 8) (size 9 to 14) (size 15 to 20)
#    0.000    1.833    1.667    2.000    0.000    2.667 
#    3.000    0.000    0.000    6.000    0.000    0.000 
#    0.000    0.000    0.000    0.000    0.000    0.000 
#
# Total GULP energy -297441.900732 kJ/mol
# GULP energy per Si atom -12393.412530 kJ/mol
# Density = 2.589608 g / cm^3
# Si number density = 25.955154 Si / 1000 Ang^3
#
#
#
# Elastic Constant Matrix: (Units=GPa)
#
#
# Indices 1 2 3 4 5 6 
#
# 1 71.4523 48.0016 18.3861 0.0091 24.4681 -0.0471
# 2 48.0016 145.2152 51.6662 -0.0833 17.3660 0.1339
# 3 18.3861 51.6662 114.5374 -0.0975 -1.5183 0.1737
# 4 0.0091 -0.0833 -0.0975 61.2379 0.0290 -42.1903
# 5 24.4681 17.3660 -1.5183 0.0290 38.6006 -0.0317
# 6 -0.0471 0.1339 0.1737 -42.1903 -0.0317 191.9074
#
#
#
# Elastic Compliance Matrix: (Units=1/GPa)
#
#
# Indices 1 2 3 4 5 6 
#
# 1 0.021886 -0.005429 -0.001216 -0.000002 -0.011479 0.000008
# 2 -0.005429 0.010160 -0.003728 0.000007 -0.001276 -0.000004
# 3 -0.001216 -0.003728 0.010646 0.000007 0.002867 -0.000005
# 4 -0.000002 0.000007 0.000007 0.019245 -0.000013 0.004231
# 5 -0.011479 -0.001276 0.002867 -0.000013 0.033869 -0.000002
# 6 0.000008 -0.000004 -0.000005 0.004231 -0.000002 0.006141
#
#
# Mechanical properties :
#
#
# Convention : Reuss Voigt Hill
#
# Bulk Modulus (GPa) = 45.57000 63.03475 54.30237
# Shear Modulus (GPa) = 38.45843 72.55923 55.50883
#
# Velocity S-wave (km/s) = 3.85350 5.29304 4.62956
# Velocity P-wave (km/s) = 6.11511 7.85454 7.03876
#
# Compressibility (1/GPa) = 0.02194426
#
# Stress axis : x y z
#
# Youngs Moduli (GPa) = 45.69048 98.42365 93.93250
#
# Poissons Ratio (x) = 0.53436 0.11426
# Poissons Ratio (y) = 0.24806 0.35023
# Poissons Ratio (z) = 0.05558 0.36697
#
# Static dielectric constant tensor:
#      x y z
#    x 6.336880 0.000020 -0.714270 
#    y 0.000020 4.828290 0.000100 
#    z -0.714270 0.000100 4.985770 
# 
# 
# High freq. dielectric constant tensor:
#      x y z
#    x 2.072430 0.000000 -0.025180 
#    y 0.000000 2.038300 0.000010 
#    z -0.025180 0.000010 2.065990 
# 
# From -- ./inp_files/325642.got.cif
#   From: 2010.06.25/outbox.cif.g09.slc.cpg/sg12_163_cif.got.tgz:325642.got - 2010.06.28 00:19:55.
