data_PCOD8108678
_publ_section_title
;
Structure prediction by ZEFSAII (Michael W. Deem and Ramdas Pophale) SiO2 
 PCOD8108678
Probable space group: C 2/M
;
_chemical_formula_sum "Si O2"
_cell_formula_units_Z 56
_cell_length_a 19.066368
_cell_length_b 13.140691
_cell_length_c 11.366628
_cell_angle_alpha 90.000000
_cell_angle_beta 93.373273
_cell_angle_gamma 90.000000
_cell_volume 2842.920420
_symmetry_space_group_name_H-M "C 2/M"
_symmetry_group_IT_number 12
_symmetry_cell_setting 'monoclinic'
loop_
_space_group_symop_operation_xyz
x,y,z
-x,y,-z
-x,-y,-z
x,-y,z
1/2+x,1/2+y,z
1/2-x,1/2+y,-z
1/2-x,1/2-y,-z
1/2+x,1/2-y,z
loop_
_atom_site_type_symbol
_atom_site_label
_atom_site_fract_x
_atom_site_fract_y
_atom_site_fract_z
Si Si1 0.330467 0.882693 0.781916
Si Si2 0.191102 0.780626 0.403409
Si Si3 0.206347 0.119994 0.946898
Si Si4 0.485350 0.112560 0.863358
Si Si5 0.604483 0.742133 0.789495
Si Si6 0.921593 0.882668 0.446813
Si Si7 0.734201 0.882039 0.795915
O O1 0.328785 0.825049 0.658937
O O2 0.266780 0.848200 0.859918
O O3 0.404093 0.856203 0.849294
O O4 0.322735 0.000000 0.750131
O O5 0.250000 0.750000 0.500000
O O6 0.125032 0.827524 0.461352
O O7 0.213905 0.862403 0.307326
O O8 0.134002 0.176347 0.902811
O O9 0.192260 0.000000 0.945061
O O10 0.230813 0.156641 0.078507
O O11 0.532342 0.200018 0.810280
O O12 0.498523 0.000000 0.806863
O O13 0.500000 0.104271 0.000000
O O14 0.589340 0.667060 0.680913
O O15 0.661807 0.825703 0.760322
O O16 0.000000 0.870392 0.500000
O O17 0.899201 0.000000 0.433204
O O18 0.716151 0.000000 0.805761
#
# Coordination Sequence:
#
# PCOD8108678 Si02
#       7
#     8   8   8   8   8   8   8
#     4  10  21  39  62  91 126 160 200 249 303 364
#     4  12  23  41  62  90 119 161 210 254 302 359
#     4  10  21  38  63  95 126 156 198 252 309 367
#     4  10  22  38  60  93 129 161 195 240 301 369
#     4  12  21  39  65  91 123 161 204 248 304 364
#     4  11  25  45  64  85 121 166 211 254 299 358
#     4  11  23  37  60  93 126 155 196 254 310 363
#
# _framework density 19.698053999999999
#
# number of rings (size 3 to 8) (size 9 to 14) (size 15 to 20)
#    0.000    1.143    2.857    3.429    2.000    4.571 
#    0.000    0.000    0.000    3.857    0.000    0.000 
#    0.000    0.000    0.000    0.000    0.000    0.000 
#
# Total GULP energy -347254.903169 kJ/mol
# GULP energy per Si atom -12401.960827 kJ/mol
# Density = 1.965322 g / cm^3
# Si number density = 19.698054 Si / 1000 Ang^3
#
#
#
# Elastic Constant Matrix: (Units=GPa)
#
#
# Indices 1 2 3 4 5 6 
#
# 1 66.2119 37.5809 29.5010 0.0000 7.0867 0.0000
# 2 37.5809 100.8777 46.5805 0.0000 4.2122 0.0000
# 3 29.5010 46.5805 115.0901 0.0000 10.9682 0.0000
# 4 0.0000 0.0000 0.0000 38.2610 0.0000 3.5552
# 5 7.0867 4.2122 10.9682 0.0000 38.0654 0.0000
# 6 0.0000 0.0000 0.0000 3.5552 0.0000 34.4168
#
#
#
# Elastic Compliance Matrix: (Units=1/GPa)
#
#
# Indices 1 2 3 4 5 6 
#
# 1 0.019950 -0.006243 -0.002364 0.000000 -0.002342 0.000000
# 2 -0.006243 0.014145 -0.004202 0.000000 0.000808 0.000000
# 3 -0.002364 -0.004202 0.011217 0.000000 -0.002327 0.000000
# 4 0.000000 0.000000 0.000000 0.026390 0.000000 -0.002726
# 5 -0.002342 0.000808 -0.002327 0.000000 0.027288 0.000000
# 6 0.000000 0.000000 0.000000 -0.002726 0.000000 0.029337
#
#
# Mechanical properties :
#
#
# Convention : Reuss Voigt Hill
#
# Bulk Modulus (GPa) = 50.77307 56.61160 53.69234
# Shear Modulus (GPa) = 31.15081 33.38314 32.26698
#
# Velocity S-wave (km/s) = 3.98102 4.12119 4.05171
# Velocity P-wave (km/s) = 6.85295 7.17271 7.01465
#
# Compressibility (1/GPa) = 0.01969548
#
# Stress axis : x y z
#
# Youngs Moduli (GPa) = 50.12437 70.69562 89.14941
#
# Poissons Ratio (x) = 0.44135 0.21075
# Poissons Ratio (y) = 0.31292 0.37458
# Poissons Ratio (z) = 0.11849 0.29704
#
# Static dielectric constant tensor:
#      x y z
#    x 3.563050 0.000000 0.058450 
#    y 0.000000 4.099290 0.000000 
#    z 0.058450 0.000000 3.589000 
# 
# 
# High freq. dielectric constant tensor:
#      x y z
#    x 1.767510 0.000000 0.010720 
#    y 0.000000 1.789850 0.000000 
#    z 0.010720 0.000000 1.768940 
# 
# From -- ./inp_files/143747.got.cif
#   From: 2010.06.25/outbox.cif.g09.slc.cpg/sg12_72_cif.got.tgz:143747.got - 2010.06.28 00:19:55.
