data_PCOD8108411
_publ_section_title
;
Structure prediction by ZEFSAII (Michael W. Deem and Ramdas Pophale) SiO2 
 PCOD8108411
Probable space group: C 2/M
;
_chemical_formula_sum "Si O2"
_cell_formula_units_Z 56
_cell_length_a 17.625163
_cell_length_b 14.932420
_cell_length_c 11.897891
_cell_angle_alpha 90.000000
_cell_angle_beta 118.095163
_cell_angle_gamma 90.000000
_cell_volume 2762.383355
_symmetry_space_group_name_H-M "C 2/M"
_symmetry_group_IT_number 12
_symmetry_cell_setting 'monoclinic'
loop_
_space_group_symop_operation_xyz
x,y,z
-x,y,-z
-x,-y,-z
x,-y,z
1/2+x,1/2+y,z
1/2-x,1/2+y,-z
1/2-x,1/2-y,-z
1/2+x,1/2-y,z
loop_
_atom_site_type_symbol
_atom_site_label
_atom_site_fract_x
_atom_site_fract_y
_atom_site_fract_z
Si Si1 0.948416 0.099194 0.569334
Si Si2 0.345952 0.228599 0.828889
Si Si3 0.731170 0.898154 0.776681
Si Si4 0.376256 0.897530 0.512665
Si Si5 0.664461 0.191633 0.933753
Si Si6 0.251098 0.402656 0.381686
Si Si7 0.980807 0.736790 0.730398
O O1 0.850927 0.095083 0.467227
O O2 0.958557 0.162076 0.683102
O O3 0.000000 0.139369 0.500000
O O4 0.983060 0.000000 0.624677
O O5 0.313018 0.330982 0.822121
O O6 0.268002 0.174799 0.719402
O O7 0.431427 0.219087 0.813234
O O8 0.365236 0.175644 0.958806
O O9 0.655215 0.873476 0.635080
O O10 0.690391 0.893119 0.874157
O O11 0.763625 0.000000 0.778586
O O12 0.292189 0.881580 0.529353
O O13 0.451686 0.832845 0.611922
O O14 0.410374 0.000000 0.542551
O O15 0.583074 0.236392 0.815886
O O16 0.750000 0.250000 0.000000
O O17 0.218673 0.500000 0.314894
#
# Coordination Sequence:
#
# PCOD8108411 Si02
#       7
#     8   8   8   8   8   8   8
#     4  10  22  35  54  89 123 152 190 236 294 355
#     4  10  21  39  61  88 114 157 204 240 283 348
#     4  10  21  38  61  90 123 155 188 239 302 357
#     4   9  19  35  59  92 119 146 189 237 295 358
#     4  10  24  40  56  79 114 157 201 243 286 343
#     4   9  18  35  59  87 120 152 187 237 292 349
#     4  11  22  37  63  85 117 158 195 245 297 341
#
# _framework density 20.272348000000001
#
# number of rings (size 3 to 8) (size 9 to 14) (size 15 to 20)
#    0.000    2.143    0.000    2.143    6.000    5.143 
#    0.000    4.286    0.000    8.571    0.000    0.000 
#    0.000    0.000    0.000    0.000    0.000    0.000 
#
# Total GULP energy -346986.545259 kJ/mol
# GULP energy per Si atom -12392.376616 kJ/mol
# Density = 2.022621 g / cm^3
# Si number density = 20.272348 Si / 1000 Ang^3
#
#
#
# Elastic Constant Matrix: (Units=GPa)
#
#
# Indices 1 2 3 4 5 6 
#
# 1 74.7425 24.5377 36.5699 0.0000 10.0107 0.0000
# 2 24.5377 90.3440 40.5006 0.0000 -1.2132 0.0000
# 3 36.5699 40.5006 98.9267 0.0000 -9.0152 0.0000
# 4 0.0000 0.0000 0.0000 18.1723 0.0000 -13.6634
# 5 10.0107 -1.2132 -9.0152 0.0000 33.8763 0.0000
# 6 0.0000 0.0000 0.0000 -13.6634 0.0000 15.4210
#
#
#
# Elastic Compliance Matrix: (Units=1/GPa)
#
#
# Indices 1 2 3 4 5 6 
#
# 1 0.018235 -0.002123 -0.006528 0.000000 -0.007202 0.000000
# 2 -0.002123 0.013838 -0.004897 0.000000 -0.000180 0.000000
# 3 -0.006528 -0.004897 0.015051 0.000000 0.005759 0.000000
# 4 0.000000 0.000000 0.000000 0.164847 0.000000 0.146058
# 5 -0.007202 -0.000180 0.005759 0.000000 0.033174 0.000000
# 6 0.000000 0.000000 0.000000 0.146058 0.000000 0.194257
#
#
# Mechanical properties :
#
#
# Convention : Reuss Voigt Hill
#
# Bulk Modulus (GPa) = 49.92868 51.91440 50.92154
# Shear Modulus (GPa) = 10.56692 24.32092 17.44392
#
# Velocity S-wave (km/s) = 2.28556 3.46744 2.93657
# Velocity P-wave (km/s) = 5.62561 6.45716 6.05568
#
# Compressibility (1/GPa) = 0.02002857
#
# Stress axis : x y z
#
# Youngs Moduli (GPa) = 54.84026 72.26330 66.43919
#
# Poissons Ratio (x) = 0.15341 0.43371
# Poissons Ratio (y) = 0.11642 0.32536
# Poissons Ratio (z) = 0.35800 0.35388
#
# Static dielectric constant tensor:
#      x y z
#    x 3.372970 0.000000 -0.814010 
#    y 0.000000 3.931010 0.000000 
#    z -0.814010 0.000000 2.924120 
# 
# 
# High freq. dielectric constant tensor:
#      x y z
#    x 1.797580 0.000000 -0.010140 
#    y 0.000000 1.784610 0.000000 
#    z -0.010140 0.000000 1.785140 
# 
# From -- ./inp_files/156743.got.cif
#   From: 2010.06.25/outbox.cif.g09.slc.cpg/sg12_79_cif.got.tgz:156743.got - 2010.06.28 00:19:55.
