data_PCOD8108044
_publ_section_title
;
Structure prediction by ZEFSAII (Michael W. Deem and Ramdas Pophale) SiO2 
 PCOD8108044
Probable space group: C 2/M
;
_chemical_formula_sum "Si O2"
_cell_formula_units_Z 56
_cell_length_a 10.201461
_cell_length_b 9.361020
_cell_length_c 29.523253
_cell_angle_alpha 90.000000
_cell_angle_beta 113.251567
_cell_angle_gamma 90.000000
_cell_volume 2590.368102
_symmetry_space_group_name_H-M "C 2/M"
_symmetry_group_IT_number 12
_symmetry_cell_setting 'monoclinic'
loop_
_space_group_symop_operation_xyz
x,y,z
-x,y,-z
-x,-y,-z
x,-y,z
1/2+x,1/2+y,z
1/2-x,1/2+y,-z
1/2-x,1/2-y,-z
1/2+x,1/2-y,z
loop_
_atom_site_type_symbol
_atom_site_label
_atom_site_fract_x
_atom_site_fract_y
_atom_site_fract_z
Si Si1 0.962215 0.835746 0.860455
Si Si2 0.508101 0.669587 0.708449
Si Si3 0.217754 0.164622 0.658812
Si Si4 0.394897 0.333652 0.024902
Si Si5 0.694701 0.150434 0.424884
Si Si6 0.630365 0.167501 0.807957
Si Si7 0.582642 0.654948 0.471686
O O1 0.034784 0.797535 0.917638
O O2 0.026307 0.730090 0.831939
O O3 0.794192 0.809353 0.844035
O O4 0.991524 0.000000 0.850104
O O5 0.498578 0.500000 0.715782
O O6 0.351235 0.736402 0.690215
O O7 0.579218 0.707302 0.669300
O O8 0.607203 0.744433 0.758944
O O9 0.195250 0.190051 0.601044
O O10 0.256956 0.000000 0.674726
O O11 0.361287 0.500000 0.014867
O O12 0.500000 0.280217 0.000000
O O13 0.250000 0.250000 0.000000
O O14 0.581646 0.275188 0.421088
O O15 0.763142 0.130562 0.484149
O O16 0.618285 0.000000 0.401462
O O17 0.595018 0.000000 0.796309
O O18 0.500000 0.742344 0.500000
O O19 0.507746 0.500000 0.453323
#
# Coordination Sequence:
#
# PCOD8108044 Si02
#       7
#     8   8   8   8   8   8   8
#     4  10  22  39  61  90 122 159 202 247 295 350
#     4  11  24  41  63  89 118 153 193 242 299 356
#     4  10  23  41  61  87 119 153 193 240 292 351
#     4  10  21  38  59  87 125 163 202 248 295 346
#     4   9  19  35  52  77 110 142 181 229 277 335
#     4  11  23  40  63  88 118 154 198 248 299 353
#     4   9  18  32  54  78 106 142 181 225 275 330
#
# _framework density 21.618549999999999
#
# number of rings (size 3 to 8) (size 9 to 14) (size 15 to 20)
#    0.000    2.000    0.000    2.571    2.000    7.429 
#    0.000    0.000    0.000    0.000    0.000    0.000 
#    0.000    0.000    0.000    0.000    0.000    0.000 
#
# Total GULP energy -346914.294820 kJ/mol
# GULP energy per Si atom -12389.796244 kJ/mol
# Density = 2.156934 g / cm^3
# Si number density = 21.618550 Si / 1000 Ang^3
#
#
#
# Elastic Constant Matrix: (Units=GPa)
#
#
# Indices 1 2 3 4 5 6 
#
# 1 83.0497 30.2847 10.4412 0.0000 -23.1467 0.0000
# 2 30.2847 85.3691 33.1038 0.0000 -16.8337 0.0000
# 3 10.4412 33.1038 85.6670 0.0000 -17.4886 0.0000
# 4 0.0000 0.0000 0.0000 24.9128 0.0000 -3.4723
# 5 -23.1467 -16.8337 -17.4886 0.0000 42.0417 0.0000
# 6 0.0000 0.0000 0.0000 -3.4723 0.0000 34.0379
#
#
#
# Elastic Compliance Matrix: (Units=1/GPa)
#
#
# Indices 1 2 3 4 5 6 
#
# 1 0.015590 -0.004625 0.001378 0.000000 0.007305 0.000000
# 2 -0.004625 0.015670 -0.005170 0.000000 0.001578 0.000000
# 3 0.001378 -0.005170 0.014463 0.000000 0.004705 0.000000
# 4 0.000000 0.000000 0.000000 0.040719 0.000000 0.004154
# 5 0.007305 0.001578 0.004705 0.000000 0.030397 0.000000
# 6 0.000000 0.000000 0.000000 0.004154 0.000000 0.029803
#
#
# Mechanical properties :
#
#
# Convention : Reuss Voigt Hill
#
# Bulk Modulus (GPa) = 34.61205 44.63835 39.62520
# Shear Modulus (GPa) = 28.88428 32.21555 30.54992
#
# Velocity S-wave (km/s) = 3.65922 3.86447 3.76325
# Velocity P-wave (km/s) = 5.82222 6.37222 6.10342
#
# Compressibility (1/GPa) = 0.02889167
#
# Stress axis : x y z
#
# Youngs Moduli (GPa) = 64.14351 63.81564 69.14021
#
# Poissons Ratio (x) = 0.29512 -0.09529
# Poissons Ratio (y) = 0.29663 0.35742
# Poissons Ratio (z) = -0.08840 0.32990
#
# Static dielectric constant tensor:
#      x y z
#    x 3.865780 0.000000 -0.143080 
#    y 0.000000 4.412950 0.000000 
#    z -0.143080 0.000000 4.033750 
# 
# 
# High freq. dielectric constant tensor:
#      x y z
#    x 1.855270 0.000000 -0.007490 
#    y 0.000000 1.849090 0.000000 
#    z -0.007490 0.000000 1.854960 
# 
# From -- ./inp_files/357525.got.cif
#   From: 2010.06.25/outbox.cif.g09.slc.cpg/sg12_179_cif.got.tgz:357525.got - 2010.06.28 00:19:55.
