data_PCOD8108413
_publ_section_title
;
Structure prediction by ZEFSAII (Michael W. Deem and Ramdas Pophale) SiO2 
 PCOD8108413
Probable space group: C 2/M
;
_chemical_formula_sum "Si O2"
_cell_formula_units_Z 56
_cell_length_a 9.108442
_cell_length_b 18.353267
_cell_length_c 28.146730
_cell_angle_alpha 90.000000
_cell_angle_beta 37.336300
_cell_angle_gamma 90.000000
_cell_volume 2853.715577
_symmetry_space_group_name_H-M "C 2/M"
_symmetry_group_IT_number 12
_symmetry_cell_setting 'monoclinic'
loop_
_space_group_symop_operation_xyz
x,y,z
-x,y,-z
-x,-y,-z
x,-y,z
1/2+x,1/2+y,z
1/2-x,1/2+y,-z
1/2-x,1/2-y,-z
1/2+x,1/2-y,z
loop_
_atom_site_type_symbol
_atom_site_label
_atom_site_fract_x
_atom_site_fract_y
_atom_site_fract_z
Si Si1 0.985927 0.296526 0.449148
Si Si2 0.383402 0.581322 0.777821
Si Si3 0.940424 0.695328 0.308786
Si Si4 0.724774 0.725722 0.059146
Si Si5 0.736887 0.421812 0.087832
Si Si6 0.052493 0.415089 0.355872
Si Si7 0.637893 0.200228 0.780077
O O1 0.750000 0.250000 0.500000
O O2 0.963986 0.370757 0.424772
O O3 0.000000 0.320859 0.500000
O O4 0.215298 0.247443 0.376863
O O5 0.340759 0.500000 0.769867
O O6 0.233498 0.597894 0.864100
O O7 0.292758 0.632731 0.759233
O O8 0.660299 0.594423 0.720561
O O9 0.924516 0.618962 0.341568
O O10 0.959933 0.682277 0.247267
O O11 0.185705 0.730800 0.265840
O O12 0.598625 0.645422 0.097410
O O13 0.592669 0.784327 0.126698
O O14 0.750000 0.750000 0.000000
O O15 0.000000 0.712858 0.000000
O O16 0.594521 0.500000 0.118974
O O17 0.000000 0.434076 0.000000
O O18 0.975730 0.500000 0.379661
#
# Coordination Sequence:
#
# PCOD8108413 Si02
#       7
#     8   8   8   8   8   8   8
#     4  12  23  42  68  94 125 162 207 256 308 387
#     4  10  21  38  61  90 123 160 212 268 313 373
#     4  12  22  39  64  94 121 168 214 254 308 386
#     4  11  22  35  54  88 123 156 207 268 313 366
#     4   9  17  32  54  79 112 156 202 249 310 365
#     4  11  24  43  65  97 131 163 210 268 321 375
#     4  12  21  37  64  88 124 169 219 255 319 376
#
# _framework density 19.623539999999998
#
# number of rings (size 3 to 8) (size 9 to 14) (size 15 to 20)
#    0.000    1.000    4.286    4.286    0.000    0.857 
#    0.000    1.429    0.000    3.429    0.000    0.000 
#    0.000    0.000    0.000    0.000    0.000    0.000 
#
# Total GULP energy -347035.408947 kJ/mol
# GULP energy per Si atom -12394.121748 kJ/mol
# Density = 1.957888 g / cm^3
# Si number density = 19.623540 Si / 1000 Ang^3
#
#
#
# Elastic Constant Matrix: (Units=GPa)
#
#
# Indices 1 2 3 4 5 6 
#
# 1 107.5095 66.6836 37.4776 -0.0105 35.7844 0.0006
# 2 66.6836 157.0677 38.0996 -0.0059 23.7137 0.0022
# 3 37.4776 38.0996 95.5862 0.0099 23.3331 0.0339
# 4 -0.0105 -0.0059 0.0099 28.7292 0.0423 5.5755
# 5 35.7844 23.7137 23.3331 0.0423 41.3103 -0.0037
# 6 0.0006 0.0022 0.0339 5.5755 -0.0037 36.2523
#
#
#
# Elastic Compliance Matrix: (Units=1/GPa)
#
#
# Indices 1 2 3 4 5 6 
#
# 1 0.016513 -0.004972 -0.001969 0.000021 -0.010338 -0.000002
# 2 -0.004972 0.008848 -0.001611 0.000000 0.000138 0.000001
# 3 -0.001969 -0.001611 0.013030 0.000004 -0.004730 -0.000013
# 4 0.000021 0.000000 0.000004 0.035879 -0.000058 -0.005518
# 5 -0.010338 0.000138 -0.004730 -0.000058 0.035754 0.000017
# 6 -0.000002 0.000001 -0.000013 -0.005518 0.000017 0.028433
#
#
# Mechanical properties :
#
#
# Convention : Reuss Voigt Hill
#
# Bulk Modulus (GPa) = 46.97757 71.63167 59.30462
# Shear Modulus (GPa) = 30.73969 35.78519 33.26244
#
# Velocity S-wave (km/s) = 3.96216 4.27498 4.12154
# Velocity P-wave (km/s) = 6.70246 7.80701 7.27573
#
# Compressibility (1/GPa) = 0.02128676
#
# Stress axis : x y z
#
# Youngs Moduli (GPa) = 60.55901 113.02612 76.74403
#
# Poissons Ratio (x) = 0.56199 0.15111
# Poissons Ratio (y) = 0.30111 0.12361
# Poissons Ratio (z) = 0.11924 0.18205
#
# Static dielectric constant tensor:
#      x y z
#    x 3.478890 -0.000110 0.171440 
#    y -0.000110 3.599440 0.000000 
#    z 0.171440 0.000000 3.710700 
# 
# 
# High freq. dielectric constant tensor:
#      x y z
#    x 1.747620 0.000000 0.012190 
#    y 0.000000 1.771790 0.000000 
#    z 0.012190 0.000000 1.776960 
# 
# From -- ./inp_files/356628.got.cif
#   From: 2010.06.25/outbox.cif.g09.slc.cpg/sg12_179_cif.got.tgz:356628.got - 2010.06.28 00:19:55.
