data_PCOD8108037
_publ_section_title
;
Structure prediction by ZEFSAII (Michael W. Deem and Ramdas Pophale) SiO2 
 PCOD8108037
Probable space group: C 2/M
;
_chemical_formula_sum "Si O2"
_cell_formula_units_Z 64
_cell_length_a 15.283498
_cell_length_b 8.521530
_cell_length_c 33.534396
_cell_angle_alpha 90.000000
_cell_angle_beta 44.909744
_cell_angle_gamma 90.000000
_cell_volume 3083.405374
_symmetry_space_group_name_H-M "C 2/M"
_symmetry_group_IT_number 12
_symmetry_cell_setting 'monoclinic'
loop_
_space_group_symop_operation_xyz
x,y,z
-x,y,-z
-x,-y,-z
x,-y,z
1/2+x,1/2+y,z
1/2-x,1/2+y,-z
1/2-x,1/2-y,-z
1/2+x,1/2-y,z
loop_
_atom_site_type_symbol
_atom_site_label
_atom_site_fract_x
_atom_site_fract_y
_atom_site_fract_z
Si Si1 0.585381 0.313572 0.437286
Si Si2 0.835748 0.683282 0.938030
Si Si3 0.365124 0.816053 0.355275
Si Si4 0.896838 0.181904 0.133387
Si Si5 0.475176 0.684593 0.631023
Si Si6 0.527014 0.680786 0.756499
Si Si7 0.733685 0.680511 0.121460
Si Si8 0.282246 0.181362 0.245608
O O1 0.500000 0.242928 0.500000
O O2 0.587235 0.500000 0.438975
O O3 0.725293 0.251447 0.396918
O O4 0.529922 0.257847 0.413009
O O5 0.855438 0.500000 0.937924
O O6 0.771362 0.714950 0.916481
O O7 0.967659 0.767506 0.896457
O O8 0.750000 0.750000 0.000000
O O9 0.413672 0.778470 0.383901
O O10 0.452226 0.723014 0.296311
O O11 0.371434 0.000000 0.344005
O O12 0.855859 0.274211 0.106944
O O13 0.802622 0.214954 0.199883
O O14 0.896067 0.000000 0.123279
O O15 0.500283 0.500000 0.625732
O O16 0.346998 0.730909 0.693387
O O17 0.561464 0.500000 0.753531
O O18 0.384366 0.713963 0.812518
O O19 0.611155 0.791640 0.756408
O O20 0.741568 0.500000 0.105831
O O21 0.284107 0.000000 0.232207
#
# Coordination Sequence:
#
# PCOD8108037 Si02
#       8
#     8   8   8   8   8   8   8   8
#     4   9  19  38  60  81 113 159 205 250 304 364
#     4  12  26  46  70  95 127 168 213 264 313 366
#     4  11  22  37  59  89 119 156 202 249 303 368
#     4  12  25  42  65  97 131 168 210 254 311 373
#     4  10  21  38  59  87 120 158 199 248 306 366
#     4  11  22  37  62  92 126 162 199 249 309 370
#     4  11  24  43  66  96 129 165 210 258 312 372
#     4  11  21  37  62  91 125 163 204 248 307 371
#
# _framework density 20.756271000000002
#
# number of rings (size 3 to 8) (size 9 to 14) (size 15 to 20)
#    0.000    1.125    2.500    4.500    0.000    6.500 
#    0.000    2.500    0.000    2.625    0.000    0.000 
#    0.000    0.000    0.000    0.000    0.000    0.000 
#
# Total GULP energy -397021.461043 kJ/mol
# GULP energy per Si atom -12406.920658 kJ/mol
# Density = 2.070903 g / cm^3
# Si number density = 20.756271 Si / 1000 Ang^3
#
#
#
# Elastic Constant Matrix: (Units=GPa)
#
#
# Indices 1 2 3 4 5 6 
#
# 1 106.5523 9.4285 26.5139 0.0025 25.6145 0.0040
# 2 9.4285 65.6212 28.0576 -0.0024 -1.0804 0.0015
# 3 26.5139 28.0576 119.9123 -0.0002 21.0679 0.0003
# 4 0.0025 -0.0024 -0.0002 23.4236 -0.0010 5.6536
# 5 25.6145 -1.0804 21.0679 -0.0010 20.7737 0.0000
# 6 0.0040 0.0015 0.0003 5.6536 0.0000 36.9521
#
#
#
# Elastic Compliance Matrix: (Units=1/GPa)
#
#
# Indices 1 2 3 4 5 6 
#
# 1 0.013700 -0.002551 0.000680 -0.000002 -0.017715 -0.000001
# 2 -0.002551 0.018037 -0.005322 0.000003 0.009481 -0.000001
# 3 0.000680 -0.005322 0.011718 -0.000001 -0.013000 0.000000
# 4 -0.000002 0.000003 -0.000001 0.044329 0.000006 -0.006782
# 5 -0.017715 0.009481 -0.013000 0.000006 0.083658 0.000001
# 6 -0.000001 -0.000001 0.000000 -0.006782 0.000001 0.028100
#
#
# Mechanical properties :
#
#
# Convention : Reuss Voigt Hill
#
# Bulk Modulus (GPa) = 34.40015 46.67621 40.53818
# Shear Modulus (GPa) = 22.35960 31.43561 26.89761
#
# Velocity S-wave (km/s) = 3.28570 3.89589 3.60374
# Velocity P-wave (km/s) = 5.56811 6.54018 6.07362
#
# Compressibility (1/GPa) = 0.02906964
#
# Stress axis : x y z
#
# Youngs Moduli (GPa) = 72.99209 55.44105 85.33662
#
# Poissons Ratio (x) = 0.14142 -0.05803
# Poissons Ratio (y) = 0.18619 0.45417
# Poissons Ratio (z) = -0.04964 0.29506
#
# Static dielectric constant tensor:
#      x y z
#    x 3.871000 -0.000010 0.033080 
#    y -0.000010 3.613670 -0.000010 
#    z 0.033080 -0.000010 3.854630 
# 
# 
# High freq. dielectric constant tensor:
#      x y z
#    x 1.824650 0.000000 0.007100 
#    y 0.000000 1.804070 0.000000 
#    z 0.007100 0.000000 1.810610 
# 
# From -- ./inp_files/375406.got.cif
#   From: 2010.06.25/outbox.cif.g09.slc.cpg/sg12_188_cif.got.tgz:375406.got - 2010.06.28 00:19:55.
