data_PCOD8108793
_publ_section_title
;
Structure prediction by ZEFSAII (Michael W. Deem and Ramdas Pophale) SiO2 
 PCOD8108793
Probable space group: C 2/M
;
_chemical_formula_sum "Si O2"
_cell_formula_units_Z 60
_cell_length_a 14.038230
_cell_length_b 21.234591
_cell_length_c 9.314402
_cell_angle_alpha 90.000000
_cell_angle_beta 80.304219
_cell_angle_gamma 90.000000
_cell_volume 2736.925537
_symmetry_space_group_name_H-M "C 2/M"
_symmetry_group_IT_number 12
_symmetry_cell_setting 'monoclinic'
loop_
_space_group_symop_operation_xyz
x,y,z
-x,y,-z
-x,-y,-z
x,-y,z
1/2+x,1/2+y,z
1/2-x,1/2+y,-z
1/2-x,1/2-y,-z
1/2+x,1/2-y,z
loop_
_atom_site_type_symbol
_atom_site_label
_atom_site_fract_x
_atom_site_fract_y
_atom_site_fract_z
Si Si1 0.507654 0.213548 0.238613
Si Si2 0.003736 0.142145 0.166511
Si Si3 0.500000 0.882159 0.000000
Si Si4 0.667363 0.572856 0.621180
Si Si5 0.811652 0.893799 0.708425
Si Si6 0.799240 0.432524 0.005193
Si Si7 0.284964 0.158893 0.762280
Si Si8 0.198312 0.728068 0.653590
O O1 0.521310 0.283148 0.172685
O O2 0.467293 0.164854 0.132986
O O3 0.606452 0.186846 0.282496
O O4 0.413143 0.215745 0.365814
O O5 0.911717 0.115298 0.276463
O O6 0.093100 0.109477 0.220624
O O7 0.000000 0.122201 0.000000
O O8 0.414296 0.927701 0.977176
O O9 0.660716 0.500000 0.670514
O O10 0.659773 0.575605 0.450884
O O11 0.769312 0.605198 0.643256
O O12 0.757452 0.828636 0.703550
O O13 0.739208 0.935259 0.822150
O O14 0.773459 0.500000 0.939182
O O15 0.760714 0.373344 0.921961
O O16 0.206839 0.215253 0.768092
O O17 0.250000 0.750000 0.500000
#
# Coordination Sequence:
#
# PCOD8108793 Si02
#       8
#     8   8   4   8   8   8   8   8
#     4  11  22  40  68 106 140 174 233 292 364 419
#     4  12  25  42  72 109 141 181 235 299 361 423
#     4  10  21  38  66  94 137 184 228 294 350 420
#     4  12  27  49  69  99 147 196 240 285 354 435
#     4  12  25  43  71 101 138 189 239 293 357 429
#     4  11  24  42  65  97 137 186 241 289 350 425
#     4  11  24  42  72 104 136 183 228 301 353 415
#     4  12  23  42  68 104 141 179 232 296 367 424
#
# _framework density 21.922408000000001
#
# number of rings (size 3 to 8) (size 9 to 14) (size 15 to 20)
#    0.000    0.533    6.000    2.200    0.000    2.933 
#    0.000    0.000    0.000    0.800    0.000    0.000 
#    0.000    0.000    0.000    0.000    0.000    0.000 
#
# Total GULP energy -371747.543090 kJ/mol
# GULP energy per Si atom -12391.584770 kJ/mol
# Density = 2.187251 g / cm^3
# Si number density = 21.922408 Si / 1000 Ang^3
#
#
#
# Elastic Constant Matrix: (Units=GPa)
#
#
# Indices 1 2 3 4 5 6 
#
# 1 120.8249 46.3627 48.1861 0.0000 -1.7352 0.0000
# 2 46.3627 142.9432 33.0137 0.0000 -2.4922 0.0000
# 3 48.1861 33.0137 125.5829 0.0000 -6.3729 0.0000
# 4 0.0000 0.0000 0.0000 36.0437 0.0000 1.1598
# 5 -1.7352 -2.4922 -6.3729 0.0000 35.4486 0.0000
# 6 0.0000 0.0000 0.0000 1.1598 0.0000 24.0428
#
#
#
# Elastic Compliance Matrix: (Units=1/GPa)
#
#
# Indices 1 2 3 4 5 6 
#
# 1 0.010655 -0.002676 -0.003399 0.000000 -0.000278 0.000000
# 2 -0.002676 0.008121 -0.001096 0.000000 0.000243 0.000000
# 3 -0.003399 -0.001096 0.009631 0.000000 0.001488 0.000000
# 4 0.000000 0.000000 0.000000 0.027787 0.000000 -0.001340
# 5 -0.000278 0.000243 0.001488 0.000000 0.028481 0.000000
# 6 0.000000 0.000000 0.000000 -0.001340 0.000000 0.041657
#
#
# Mechanical properties :
#
#
# Convention : Reuss Voigt Hill
#
# Bulk Modulus (GPa) = 71.09647 71.60845 71.35246
# Shear Modulus (GPa) = 34.39717 36.55958 35.47837
#
# Velocity S-wave (km/s) = 3.96541 4.08815 4.02725
# Velocity P-wave (km/s) = 7.31214 7.41751 7.36501
#
# Compressibility (1/GPa) = 0.01406540
#
# Stress axis : x y z
#
# Youngs Moduli (GPa) = 93.85579 123.13845 103.83539
#
# Poissons Ratio (x) = 0.32947 0.35293
# Poissons Ratio (y) = 0.25112 0.11379
# Poissons Ratio (z) = 0.31901 0.13495
#
# Static dielectric constant tensor:
#      x y z
#    x 4.982010 0.000000 0.402390 
#    y 0.000000 3.936640 0.000000 
#    z 0.402390 0.000000 4.032610 
# 
# 
# High freq. dielectric constant tensor:
#      x y z
#    x 1.873160 0.000000 0.002050 
#    y 0.000000 1.870980 0.000000 
#    z 0.002050 0.000000 1.853670 
# 
# From -- ./inp_files/65850.got.cif
#   From: 2010.06.25/outbox.cif.g09.slc.cpg/sg12_33_cif.got.tgz:65850.got - 2010.06.28 00:19:55.
