data_PCOD8108339
_publ_section_title
;
Structure prediction by ZEFSAII (Michael W. Deem and Ramdas Pophale) SiO2 
 PCOD8108339
Probable space group: C 2/M
;
_chemical_formula_sum "Si O2"
_cell_formula_units_Z 56
_cell_length_a 8.683443
_cell_length_b 17.919193
_cell_length_c 24.747213
_cell_angle_alpha 90.000000
_cell_angle_beta 134.806716
_cell_angle_gamma 90.000000
_cell_volume 2732.007200
_symmetry_space_group_name_H-M "C 2/M"
_symmetry_group_IT_number 12
_symmetry_cell_setting 'monoclinic'
loop_
_space_group_symop_operation_xyz
x,y,z
-x,y,-z
-x,-y,-z
x,-y,z
1/2+x,1/2+y,z
1/2-x,1/2+y,-z
1/2-x,1/2-y,-z
1/2+x,1/2-y,z
loop_
_atom_site_type_symbol
_atom_site_label
_atom_site_fract_x
_atom_site_fract_y
_atom_site_fract_z
Si Si1 0.142985 0.829961 0.914296
Si Si2 0.741959 0.914353 0.782836
Si Si3 0.446091 0.327572 0.635686
Si Si4 0.503988 0.171685 0.089721
Si Si5 0.320495 0.412593 0.497963
Si Si6 0.098004 0.334241 0.643018
Si Si7 0.869169 0.586444 0.776395
O O1 0.286221 0.828069 0.896076
O O2 0.967480 0.895849 0.868350
O O3 0.016461 0.751966 0.887376
O O4 0.287055 0.846409 0.002591
O O5 0.726607 0.861929 0.727102
O O6 0.542362 0.897485 0.772722
O O7 0.744732 0.000000 0.765319
O O8 0.356068 0.373962 0.563669
O O9 0.264050 0.325820 0.635757
O O10 0.486161 0.244189 0.626308
O O11 0.661122 0.363736 0.713174
O O12 0.528632 0.108272 0.140855
O O13 0.500000 0.383837 0.500000
O O14 0.343112 0.500000 0.513036
O O15 0.084104 0.394770 0.416395
O O16 0.801534 0.500000 0.761345
#
# Coordination Sequence:
#
# PCOD8108339 Si02
#       7
#     8   8   8   8   8   8   8
#     4  10  21  38  61  88 119 156 199 247 298 355
#     4  11  24  41  61  87 121 159 199 246 301 357
#     4  12  25  42  65  91 122 159 202 248 295 352
#     4  10  21  38  61  88 119 156 199 247 298 355
#     4  11  24  43  66  93 127 161 196 243 298 353
#     4  12  25  42  65  91 122 159 202 248 295 352
#     4  11  24  41  61  87 121 159 199 246 301 357
#
# _framework density 20.497751000000001
#
# number of rings (size 3 to 8) (size 9 to 14) (size 15 to 20)
#    0.000    1.000    0.000    6.857    0.000    9.143 
#    0.000    2.857    0.000    0.000    0.000    0.000 
#    0.000    0.000    0.000    0.000    0.000    0.000 
#
# Total GULP energy -347431.181576 kJ/mol
# GULP energy per Si atom -12408.256485 kJ/mol
# Density = 2.045110 g / cm^3
# Si number density = 20.497751 Si / 1000 Ang^3
#
#
#
# Elastic Constant Matrix: (Units=GPa)
#
#
# Indices 1 2 3 4 5 6 
#
# 1 139.9709 49.1183 35.5992 0.0000 -1.2673 0.0001
# 2 49.1183 78.5437 31.5236 0.0000 -4.3167 0.0000
# 3 35.5992 31.5236 94.4285 -0.0001 -1.6945 0.0001
# 4 0.0000 0.0000 -0.0001 37.5522 0.0000 0.7090
# 5 -1.2673 -4.3167 -1.6945 0.0000 41.0248 0.0000
# 6 0.0001 0.0000 0.0001 0.7090 0.0000 36.8348
#
#
#
# Elastic Compliance Matrix: (Units=1/GPa)
#
#
# Indices 1 2 3 4 5 6 
#
# 1 0.009423 -0.005177 -0.001830 0.000000 -0.000329 0.000000
# 2 -0.005177 0.017620 -0.003903 0.000000 0.001533 0.000000
# 3 -0.001830 -0.003903 0.012584 0.000000 0.000053 0.000000
# 4 0.000000 0.000000 0.000000 0.026639 0.000000 -0.000513
# 5 -0.000329 0.001533 0.000053 0.000000 0.024529 0.000000
# 6 0.000000 0.000000 0.000000 -0.000513 0.000000 0.027158
#
#
# Mechanical properties :
#
#
# Convention : Reuss Voigt Hill
#
# Bulk Modulus (GPa) = 56.15707 60.60279 58.37993
# Shear Modulus (GPa) = 34.31500 36.19585 35.25543
#
# Velocity S-wave (km/s) = 4.09600 4.20675 4.15175
# Velocity P-wave (km/s) = 7.05874 7.29558 7.17814
#
# Compressibility (1/GPa) = 0.01780720
#
# Stress axis : x y z
#
# Youngs Moduli (GPa) = 106.11862 56.75469 79.46597
#
# Poissons Ratio (x) = 0.29379 0.14545
# Poissons Ratio (y) = 0.54932 0.31016
# Poissons Ratio (z) = 0.19424 0.22152
#
# Static dielectric constant tensor:
#      x y z
#    x 3.902350 0.000000 0.003310 
#    y 0.000000 3.723640 0.000000 
#    z 0.003310 0.000000 3.850180 
# 
# 
# High freq. dielectric constant tensor:
#      x y z
#    x 1.820280 0.000000 0.000030 
#    y 0.000000 1.806750 0.000000 
#    z 0.000030 0.000000 1.816510 
# 
# From -- ./inp_files/356718.got.cif
#   From: 2010.06.25/outbox.cif.g09.slc.cpg/sg12_179_cif.got.tgz:356718.got - 2010.06.28 00:19:55.
