data_PCOD8108077
_publ_section_title
;
Structure prediction by ZEFSAII (Michael W. Deem and Ramdas Pophale) SiO2 
 PCOD8108077
Probable space group: C 2/M
;
_chemical_formula_sum "Si O2"
_cell_formula_units_Z 64
_cell_length_a 30.924711
_cell_length_b 8.782143
_cell_length_c 16.229555
_cell_angle_alpha 90.000000
_cell_angle_beta 134.136173
_cell_angle_gamma 90.000000
_cell_volume 3163.353482
_symmetry_space_group_name_H-M "C 2/M"
_symmetry_group_IT_number 12
_symmetry_cell_setting 'monoclinic'
loop_
_space_group_symop_operation_xyz
x,y,z
-x,y,-z
-x,-y,-z
x,-y,z
1/2+x,1/2+y,z
1/2-x,1/2+y,-z
1/2-x,1/2-y,-z
1/2+x,1/2-y,z
loop_
_atom_site_type_symbol
_atom_site_label
_atom_site_fract_x
_atom_site_fract_y
_atom_site_fract_z
Si Si1 0.997806 0.327206 0.684100
Si Si2 0.109491 0.176517 0.532451
Si Si3 0.568110 0.322094 0.071656
Si Si4 0.314127 0.321421 0.068660
Si Si5 0.900812 0.326604 0.308646
Si Si6 0.400275 0.179403 0.056551
Si Si7 0.667666 0.324682 0.335847
Si Si8 0.200935 0.325057 0.545290
O O1 0.975878 0.500000 0.669774
O O2 0.033961 0.314727 0.646491
O O3 0.039308 0.270665 0.814743
O O4 0.940147 0.216831 0.603145
O O5 0.093326 0.275539 0.590076
O O6 0.174905 0.222263 0.584507
O O7 0.108231 0.000000 0.553077
O O8 0.570967 0.500000 0.053767
O O9 0.609143 0.282505 0.204840
O O10 0.500000 0.269731 0.000000
O O11 0.594558 0.229094 0.030584
O O12 0.307478 0.500000 0.049809
O O13 0.354929 0.283531 0.201318
O O14 0.342336 0.256319 0.021687
O O15 0.250000 0.250000 0.000000
O O16 0.876929 0.500000 0.271918
O O17 0.391137 0.000000 0.051638
O O18 0.665912 0.500000 0.362798
O O19 0.727670 0.294448 0.361858
O O20 0.668828 0.218263 0.416967
O O21 0.186240 0.500000 0.544478
#
# Coordination Sequence:
#
# PCOD8108077 Si02
#       8
#     8   8   8   8   8   8   8   8
#     4   9  20  38  58  81 115 155 192 239 295 350
#     4  12  24  35  55  86 117 151 196 242 289 351
#     4  10  22  39  61  90 123 158 198 249 308 366
#     4  11  22  39  63  89 120 158 200 244 297 356
#     4  10  21  39  59  83 117 153 193 241 292 347
#     4  10  22  40  60  87 121 157 201 248 299 361
#     4   9  20  40  61  84 115 150 192 242 296 356
#     4  10  21  38  60  83 113 154 196 242 297 351
#
# _framework density 20.231694999999998
#
# number of rings (size 3 to 8) (size 9 to 14) (size 15 to 20)
#    0.000    1.875    0.000    4.500    1.750    6.750 
#    0.000    3.750    0.000    0.000    0.000    0.000 
#    0.000    0.000    0.000    0.000    0.000    0.000 
#
# Total GULP energy -396944.553620 kJ/mol
# GULP energy per Si atom -12404.517301 kJ/mol
# Density = 2.018565 g / cm^3
# Si number density = 20.231695 Si / 1000 Ang^3
#
#
#
# Elastic Constant Matrix: (Units=GPa)
#
#
# Indices 1 2 3 4 5 6 
#
# 1 73.6208 34.2835 28.5655 0.0000 11.4557 0.0000
# 2 34.2835 90.4797 18.8810 0.0000 4.7579 0.0000
# 3 28.5655 18.8810 73.8473 0.0000 11.8243 0.0000
# 4 0.0000 0.0000 0.0000 31.5443 0.0000 -3.5269
# 5 11.4557 4.7579 11.8243 0.0000 28.9268 0.0000
# 6 0.0000 0.0000 0.0000 -3.5269 0.0000 34.3855
#
#
#
# Elastic Compliance Matrix: (Units=1/GPa)
#
#
# Indices 1 2 3 4 5 6 
#
# 1 0.019016 -0.005900 -0.005133 0.000000 -0.004462 0.000000
# 2 -0.005900 0.013521 -0.001276 0.000000 0.000634 0.000000
# 3 -0.005133 -0.001276 0.016579 0.000000 -0.004534 0.000000
# 4 0.000000 0.000000 0.000000 0.032069 0.000000 0.003289
# 5 -0.004462 0.000634 -0.004534 0.000000 0.038086 0.000000
# 6 0.000000 0.000000 0.000000 0.003289 0.000000 0.029419
#
#
# Mechanical properties :
#
#
# Convention : Reuss Voigt Hill
#
# Bulk Modulus (GPa) = 40.81903 44.60086 42.70995
# Shear Modulus (GPa) = 27.55192 29.38587 28.46889
#
# Velocity S-wave (km/s) = 3.69429 3.81526 3.75526
# Velocity P-wave (km/s) = 6.19811 6.44214 6.32130
#
# Compressibility (1/GPa) = 0.02449838
#
# Stress axis : x y z
#
# Youngs Moduli (GPa) = 52.58605 73.96107 60.31593
#
# Poissons Ratio (x) = 0.43635 0.30960
# Poissons Ratio (y) = 0.31024 0.07698
# Poissons Ratio (z) = 0.26992 0.09440
#
# Static dielectric constant tensor:
#      x y z
#    x 3.705360 0.000000 0.111350 
#    y 0.000000 3.681570 0.000000 
#    z 0.111350 0.000000 3.642600 
# 
# 
# High freq. dielectric constant tensor:
#      x y z
#    x 1.795950 0.000000 0.003380 
#    y 0.000000 1.791640 0.000000 
#    z 0.003380 0.000000 1.784680 
# 
# From -- ./inp_files/250103.got.cif
#   From: 2010.06.25/outbox.cif.g09.slc.cpg/sg12_126_cif.got.tgz:250103.got - 2010.06.28 00:19:55.
