data_PCOD8108721
_publ_section_title
;
Structure prediction by ZEFSAII (Michael W. Deem and Ramdas Pophale) SiO2 
 PCOD8108721
Probable space group: C 2/M
;
_chemical_formula_sum "Si O2"
_cell_formula_units_Z 64
_cell_length_a 9.728762
_cell_length_b 26.869739
_cell_length_c 12.325737
_cell_angle_alpha 90.000000
_cell_angle_beta 75.087379
_cell_angle_gamma 90.000000
_cell_volume 3113.541288
_symmetry_space_group_name_H-M "C 2/M"
_symmetry_group_IT_number 12
_symmetry_cell_setting 'monoclinic'
loop_
_space_group_symop_operation_xyz
x,y,z
-x,y,-z
-x,-y,-z
x,-y,z
1/2+x,1/2+y,z
1/2-x,1/2+y,-z
1/2-x,1/2-y,-z
1/2+x,1/2-y,z
loop_
_atom_site_type_symbol
_atom_site_label
_atom_site_fract_x
_atom_site_fract_y
_atom_site_fract_z
Si Si1 0.124789 0.104005 0.402652
Si Si2 0.815846 0.392360 0.834912
Si Si3 0.863194 0.207134 0.476363
Si Si4 0.397334 0.940986 0.256864
Si Si5 0.042390 0.214491 0.778612
Si Si6 0.747714 0.941927 0.934120
Si Si7 0.011472 0.109106 0.805787
Si Si8 0.215134 0.723844 0.120939
O O1 0.168825 0.157881 0.445003
O O2 0.269686 0.071828 0.367665
O O3 0.046653 0.106899 0.303844
O O4 0.000000 0.078545 0.500000
O O5 0.678594 0.405631 0.787532
O O6 0.809321 0.335315 0.876527
O O7 0.960909 0.408585 0.742219
O O8 0.824529 0.425463 0.940593
O O9 0.750000 0.250000 0.500000
O O10 0.891763 0.192857 0.346005
O O11 0.000000 0.233641 0.500000
O O12 0.343315 0.922288 0.149836
O O13 0.429696 0.000000 0.256544
O O14 0.159200 0.241394 0.827219
O O15 0.988226 0.165500 0.853446
O O16 0.920397 0.254406 0.789564
O O17 0.912137 0.924796 0.900976
O O18 0.747190 0.000000 0.926745
O O19 0.250000 0.750000 0.000000
#
# Coordination Sequence:
#
# PCOD8108721 Si02
#       8
#     8   8   8   8   8   8   8   8
#     4  10  21  43  66  89 120 165 212 263 317 379
#     4  11  23  38  60  93 131 167 205 265 315 377
#     4  11  22  39  64  95 120 163 207 265 314 362
#     4  10  23  41  65  95 127 165 210 265 328 386
#     4  11  22  39  60  86 125 161 211 250 301 372
#     4  10  21  38  64  93 124 167 213 256 310 380
#     4  10  21  39  61  89 126 164 209 257 309 371
#     4  11  25  39  58  90 128 174 203 245 307 379
#
# _framework density 20.555371999999998
#
# number of rings (size 3 to 8) (size 9 to 14) (size 15 to 20)
#    0.000    1.500    2.500    3.000    1.750    7.750 
#    0.000    0.625    0.000    0.750    0.000    0.000 
#    0.000    0.000    0.000    0.000    0.000    0.000 
#
# Total GULP energy -396488.309537 kJ/mol
# GULP energy per Si atom -12390.259673 kJ/mol
# Density = 2.050859 g / cm^3
# Si number density = 20.555372 Si / 1000 Ang^3
#
#
#
# Elastic Constant Matrix: (Units=GPa)
#
#
# Indices 1 2 3 4 5 6 
#
# 1 163.7267 44.1563 32.5300 0.0000 4.2386 0.0000
# 2 44.1563 61.3687 14.9235 0.0000 -3.4175 0.0000
# 3 32.5300 14.9235 72.0342 0.0000 -1.6871 0.0000
# 4 0.0000 0.0000 0.0000 30.6654 0.0000 -4.7268
# 5 4.2386 -3.4175 -1.6871 0.0000 37.1916 0.0000
# 6 0.0000 0.0000 0.0000 -4.7268 0.0000 34.2350
#
#
#
# Elastic Compliance Matrix: (Units=1/GPa)
#
#
# Indices 1 2 3 4 5 6 
#
# 1 0.008084 -0.005271 -0.002594 0.000000 -0.001523 0.000000
# 2 -0.005271 0.020671 -0.001846 0.000000 0.002416 0.000000
# 3 -0.002594 -0.001846 0.015456 0.000000 0.000827 0.000000
# 4 0.000000 0.000000 0.000000 0.033319 0.000000 0.004600
# 5 -0.001523 0.002416 0.000827 0.000000 0.027321 0.000000
# 6 0.000000 0.000000 0.000000 0.004600 0.000000 0.029845
#
#
# Mechanical properties :
#
#
# Convention : Reuss Voigt Hill
#
# Bulk Modulus (GPa) = 40.34045 53.37213 46.85629
# Shear Modulus (GPa) = 30.79193 34.11970 32.45581
#
# Velocity S-wave (km/s) = 3.87460 4.07860 3.97791
# Velocity P-wave (km/s) = 6.29957 6.94272 6.62895
#
# Compressibility (1/GPa) = 0.02478901
#
# Stress axis : x y z
#
# Youngs Moduli (GPa) = 123.69933 48.37770 64.70119
#
# Poissons Ratio (x) = 0.25498 0.16786
# Poissons Ratio (y) = 0.65197 0.11941
# Poissons Ratio (z) = 0.32093 0.08929
#
# Static dielectric constant tensor:
#      x y z
#    x 3.998720 0.000000 -0.076100 
#    y 0.000000 3.794960 0.000000 
#    z -0.076100 0.000000 3.652270 
# 
# 
# High freq. dielectric constant tensor:
#      x y z
#    x 1.818620 0.000000 0.000950 
#    y 0.000000 1.797830 0.000000 
#    z 0.000950 0.000000 1.795680 
# 
# From -- ./inp_files/125732.got.cif
#   From: 2010.06.25/outbox.cif.g09.slc.cpg/sg12_63_cif.got.tgz:125732.got - 2010.06.28 00:19:55.
