data_PCOD8108514
_publ_section_title
;
Structure prediction by ZEFSAII (Michael W. Deem and Ramdas Pophale) SiO2 
 PCOD8108514
Probable space group: C 2/M
;
_chemical_formula_sum "Si O2"
_cell_formula_units_Z 56
_cell_length_a 24.006033
_cell_length_b 10.277376
_cell_length_c 12.234489
_cell_angle_alpha 90.000000
_cell_angle_beta 66.747446
_cell_angle_gamma 90.000000
_cell_volume 2773.300903
_symmetry_space_group_name_H-M "C 2/M"
_symmetry_group_IT_number 12
_symmetry_cell_setting 'monoclinic'
loop_
_space_group_symop_operation_xyz
x,y,z
-x,y,-z
-x,-y,-z
x,-y,z
1/2+x,1/2+y,z
1/2-x,1/2+y,-z
1/2-x,1/2-y,-z
1/2+x,1/2-y,z
loop_
_atom_site_type_symbol
_atom_site_label
_atom_site_fract_x
_atom_site_fract_y
_atom_site_fract_z
Si Si1 0.042727 0.853472 0.066296
Si Si2 0.583692 0.143503 0.539611
Si Si3 0.866507 0.720513 0.718968
Si Si4 0.241690 0.647003 0.788892
Si Si5 0.857940 0.645495 0.968414
Si Si6 0.487498 0.354614 0.671260
Si Si7 0.298979 0.849773 0.415826
O O1 0.002811 0.840432 0.206670
O O2 0.069613 0.000000 0.036104
O O3 0.095794 0.749909 0.021624
O O4 0.000000 0.818689 0.000000
O O5 0.610282 0.129611 0.396893
O O6 0.530117 0.249393 0.579443
O O7 0.635406 0.186179 0.585488
O O8 0.557996 0.000000 0.590974
O O9 0.802558 0.772757 0.727896
O O10 0.916477 0.832724 0.700368
O O11 0.855026 0.642464 0.839559
O O12 0.263774 0.500000 0.779414
O O13 0.206152 0.684864 0.927350
O O14 0.198438 0.668805 0.717114
O O15 0.876283 0.500000 0.993436
O O16 0.505332 0.500000 0.617657
O O17 0.250000 0.750000 0.500000
O O18 0.282029 0.000000 0.459254
#
# Coordination Sequence:
#
# PCOD8108514 Si02
#       7
#     8   8   8   8   8   8   8
#     4   9  20  40  61  84 118 158 199 244 292 348
#     4  11  24  39  60  88 122 157 194 243 297 351
#     4  11  21  39  62  84 122 159 198 238 294 348
#     4  10  21  38  62  89 121 155 196 247 295 348
#     4  10  22  38  60  91 120 152 196 243 296 353
#     4  10  23  39  60  89 117 154 203 244 288 349
#     4  10  21  40  61  87 117 154 198 243 296 350
#
# _framework density 20.192544999999999
#
# number of rings (size 3 to 8) (size 9 to 14) (size 15 to 20)
#    0.000    1.857    1.429    1.714    2.000    6.571 
#    0.000    2.143    0.000    0.000    0.000    0.000 
#    0.000    0.000    0.000    0.000    0.000    0.000 
#
# Total GULP energy -347124.796932 kJ/mol
# GULP energy per Si atom -12397.314176 kJ/mol
# Density = 2.014659 g / cm^3
# Si number density = 20.192545 Si / 1000 Ang^3
#
#
#
# Elastic Constant Matrix: (Units=GPa)
#
#
# Indices 1 2 3 4 5 6 
#
# 1 99.7058 46.9594 43.7478 0.0000 4.4523 0.0000
# 2 46.9594 110.2361 30.3421 0.0000 -14.9369 0.0000
# 3 43.7478 30.3421 101.0386 0.0000 1.5925 0.0000
# 4 0.0000 0.0000 0.0000 -6.3529 0.0000 -36.6505
# 5 4.4523 -14.9369 1.5925 0.0000 34.5458 0.0000
# 6 0.0000 0.0000 0.0000 -36.6505 0.0000 -9.4386
#
#
#
# Elastic Compliance Matrix: (Units=1/GPa)
#
#
# Indices 1 2 3 4 5 6 
#
# 1 0.014930 -0.005624 -0.004710 0.000000 -0.004139 0.000000
# 2 -0.005624 0.012730 -0.001487 0.000000 0.006298 0.000000
# 3 -0.004710 -0.001487 0.012393 0.000000 -0.000607 0.000000
# 4 0.000000 0.000000 0.000000 0.007355 0.000000 -0.028560
# 5 -0.004139 0.006298 -0.000607 0.000000 0.032231 0.000000
# 6 0.000000 0.000000 0.000000 -0.028560 0.000000 0.004950
#
#
# Mechanical properties :
#
#
# Convention : Reuss Voigt Hill
#
# Bulk Modulus (GPa) = 60.93896 61.45323 61.19610
# Shear Modulus (GPa) = 43.97456 16.41294 30.19375
#
# Velocity S-wave (km/s) = 4.67171 2.85410 3.87110
# Velocity P-wave (km/s) = 7.70353 6.43124 7.09596
#
# Compressibility (1/GPa) = 0.01640986
#
# Stress axis : x y z
#
# Youngs Moduli (GPa) = 66.97947 78.55509 80.69282
#
# Poissons Ratio (x) = 0.44182 0.38008
# Poissons Ratio (y) = 0.37672 0.11998
# Poissons Ratio (z) = 0.31548 0.11680
#
# Static dielectric constant tensor:
#      x y z
#    x 3.550480 0.000000 0.176880 
#    y 0.000000 3.658680 0.000000 
#    z 0.176880 0.000000 3.867680 
# 
# 
# High freq. dielectric constant tensor:
#      x y z
#    x 1.780570 0.000000 0.014040 
#    y 0.000000 1.789330 0.000000 
#    z 0.014040 0.000000 1.799340 
# 
# From -- ./inp_files/180702.got.cif
#   From: 2010.06.25/outbox.cif.g09.slc.cpg/sg12_91_cif.got.tgz:180702.got - 2010.06.28 00:19:55.
