data_PCOD8108785
_publ_section_title
;
Structure prediction by ZEFSAII (Michael W. Deem and Ramdas Pophale) SiO2 
 PCOD8108785
Probable space group: C 2/M
;
_chemical_formula_sum "Si O2"
_cell_formula_units_Z 48
_cell_length_a 18.422756
_cell_length_b 14.285240
_cell_length_c 18.631864
_cell_angle_alpha 90.000000
_cell_angle_beta 153.359346
_cell_angle_gamma 90.000000
_cell_volume 2198.657980
_symmetry_space_group_name_H-M "C 2/M"
_symmetry_group_IT_number 12
_symmetry_cell_setting 'monoclinic'
loop_
_space_group_symop_operation_xyz
x,y,z
-x,y,-z
-x,-y,-z
x,-y,z
1/2+x,1/2+y,z
1/2-x,1/2+y,-z
1/2-x,1/2-y,-z
1/2+x,1/2-y,z
loop_
_atom_site_type_symbol
_atom_site_label
_atom_site_fract_x
_atom_site_fract_y
_atom_site_fract_z
Si Si1 0.444030 0.713296 0.104173
Si Si2 0.394162 0.607237 0.471330
Si Si3 0.069260 0.240068 0.366936
Si Si4 0.477654 0.105704 0.897129
Si Si5 0.150488 0.896894 0.186322
Si Si6 0.154787 0.389696 0.774897
O O1 0.455193 0.711848 0.199628
O O2 0.414854 0.820348 0.052366
O O3 0.613044 0.676197 0.217109
O O4 0.297043 0.647152 0.952212
O O5 0.500000 0.649096 0.500000
O O6 0.441260 0.500000 0.525360
O O7 0.445283 0.658451 0.588685
O O8 0.206808 0.619736 0.288323
O O9 0.250000 0.250000 0.500000
O O10 0.011263 0.337914 0.351002
O O11 0.536897 0.000000 0.932470
O O12 0.500000 0.129252 0.000000
O O13 0.304193 0.867891 0.272780
O O14 0.179443 0.000000 0.245684
O O15 0.000000 0.900582 0.000000
O O16 0.133344 0.500000 0.768851
#
# Coordination Sequence:
#
# PCOD8108785 Si02
#       6
#     8   8   8   8   8   8
#     4  11  21  39  67 102 131 173 217 274 334 397
#     4  10  24  45  67  93 130 174 223 275 327 394
#     4  12  26  42  64  96 136 179 217 266 342 402
#     4  10  21  38  65  99 129 168 221 273 327 384
#     4   8  16  34  63  93 121 157 208 265 316 373
#     4  10  23  43  67  96 132 175 223 272 320 388
#
# _framework density 21.831499999999998
#
# number of rings (size 3 to 8) (size 9 to 14) (size 15 to 20)
#    0.000    1.833    1.667    3.500    4.667    2.667 
#    0.000    0.000    0.000    2.500    0.000    0.000 
#    0.000    0.000    0.000    0.000    0.000    0.000 
#
# Total GULP energy -297604.522877 kJ/mol
# GULP energy per Si atom -12400.188453 kJ/mol
# Density = 2.178181 g / cm^3
# Si number density = 21.831500 Si / 1000 Ang^3
#
#
#
# Elastic Constant Matrix: (Units=GPa)
#
#
# Indices 1 2 3 4 5 6 
#
# 1 130.7647 73.4833 26.1719 -0.0008 -5.6714 -0.0011
# 2 73.4833 133.5691 37.2166 -0.0009 -6.6333 -0.0013
# 3 26.1719 37.2166 46.9426 0.0006 -9.7599 -0.0028
# 4 -0.0008 -0.0009 0.0006 36.0446 0.0003 9.8260
# 5 -5.6714 -6.6333 -9.7599 0.0003 43.7062 -0.0017
# 6 -0.0011 -0.0013 -0.0028 9.8260 -0.0017 34.3978
#
#
#
# Elastic Compliance Matrix: (Units=1/GPa)
#
#
# Indices 1 2 3 4 5 6 
#
# 1 0.011181 -0.005668 -0.001696 0.000000 0.000212 0.000000
# 2 -0.005668 0.012486 -0.006814 0.000000 -0.000362 0.000000
# 3 -0.001696 -0.006814 0.028723 -0.000001 0.005160 0.000003
# 4 0.000000 0.000000 -0.000001 0.030086 -0.000001 -0.008594
# 5 0.000212 -0.000362 0.005160 -0.000001 0.024005 0.000002
# 6 0.000000 0.000000 0.000003 -0.008594 0.000002 0.031527
#
#
# Mechanical properties :
#
#
# Convention : Reuss Voigt Hill
#
# Bulk Modulus (GPa) = 41.60808 65.00223 53.30516
# Shear Modulus (GPa) = 28.67376 34.45670 31.56523
#
# Velocity S-wave (km/s) = 3.62804 3.97709 3.80657
# Velocity P-wave (km/s) = 6.05395 7.13645 6.61737
#
# Compressibility (1/GPa) = 0.02403379
#
# Stress axis : x y z
#
# Youngs Moduli (GPa) = 89.43531 80.09103 34.81528
#
# Poissons Ratio (x) = 0.45398 0.05904
# Poissons Ratio (y) = 0.50695 0.23723
# Poissons Ratio (z) = 0.15168 0.54573
#
# Static dielectric constant tensor:
#      x y z
#    x 4.207430 -0.000010 -0.009360 
#    y -0.000010 4.125340 -0.000010 
#    z -0.009360 -0.000010 3.729120 
# 
# 
# High freq. dielectric constant tensor:
#      x y z
#    x 1.860770 0.000000 -0.000410 
#    y 0.000000 1.867950 0.000000 
#    z -0.000410 0.000000 1.838990 
# 
# From -- ./inp_files/278243.got.cif
#   From: 2010.06.25/outbox.cif.g09.slc.cpg/sg12_140_cif.got.tgz:278243.got - 2010.06.28 00:19:55.
