data_PCOD8108234
_publ_section_title
;
Structure prediction by ZEFSAII (Michael W. Deem and Ramdas Pophale) SiO2 
 PCOD8108234
Probable space group: C 2/M
;
_chemical_formula_sum "Si O2"
_cell_formula_units_Z 48
_cell_length_a 26.361324
_cell_length_b 17.783871
_cell_length_c 8.491851
_cell_angle_alpha 90.000000
_cell_angle_beta 37.682387
_cell_angle_gamma 90.000000
_cell_volume 2433.541516
_symmetry_space_group_name_H-M "C 2/M"
_symmetry_group_IT_number 12
_symmetry_cell_setting 'monoclinic'
loop_
_space_group_symop_operation_xyz
x,y,z
-x,y,-z
-x,-y,-z
x,-y,z
1/2+x,1/2+y,z
1/2-x,1/2+y,-z
1/2-x,1/2-y,-z
1/2+x,1/2-y,z
loop_
_atom_site_type_symbol
_atom_site_label
_atom_site_fract_x
_atom_site_fract_y
_atom_site_fract_z
Si Si1 0.048954 0.162712 0.168630
Si Si2 0.818211 0.197888 0.412244
Si Si3 0.400792 0.414582 0.645083
Si Si4 0.918334 0.586622 0.599822
Si Si5 0.448254 0.791315 0.279823
Si Si6 0.756680 0.414062 0.174130
O O1 0.090452 0.146788 0.236432
O O2 0.973509 0.101885 0.336825
O O3 0.006396 0.244728 0.258117
O O4 0.118706 0.156907 0.863223
O O5 0.750000 0.250000 0.500000
O O6 0.868458 0.243117 0.422308
O O7 0.764805 0.131810 0.618539
O O8 0.410681 0.500000 0.683566
O O9 0.311489 0.402335 0.792330
O O10 0.905634 0.500000 0.582064
O O11 0.918967 0.633377 0.437341
O O12 0.000000 0.598839 0.500000
O O13 0.842913 0.615609 0.892459
O O14 0.500000 0.815679 0.000000
O O15 0.763677 0.500000 0.210390
#
# Coordination Sequence:
#
# PCOD8108234 Si02
#       6
#     8   8   8   8   8   8
#     4  10  21  38  60  92 122 156 195 242 292 361
#     4  11  25  40  59  89 123 161 200 244 298 350
#     4  10  21  38  63  93 122 158 198 239 295 363
#     4  10  24  43  64  87 115 156 203 253 305 352
#     4  10  23  40  61  89 118 153 200 247 297 357
#     4  10  23  41  61  90 123 155 200 247 295 358
#
# _framework density 19.724340000000002
#
# number of rings (size 3 to 8) (size 9 to 14) (size 15 to 20)
#    0.000    1.833    1.667    1.000    9.333    2.333 
#    0.000    2.500    0.000    0.000    0.000    0.000 
#    0.000    0.000    0.000    0.000    0.000    0.000 
#
# Total GULP energy -297534.851736 kJ/mol
# GULP energy per Si atom -12397.285489 kJ/mol
# Density = 1.967945 g / cm^3
# Si number density = 19.724340 Si / 1000 Ang^3
#
#
#
# Elastic Constant Matrix: (Units=GPa)
#
#
# Indices 1 2 3 4 5 6 
#
# 1 84.6063 50.6360 63.1591 0.0000 -4.1463 0.0000
# 2 50.6360 98.4094 78.4806 0.0000 17.3096 0.0000
# 3 63.1591 78.4806 169.3035 0.0000 -4.6736 0.0000
# 4 0.0000 0.0000 0.0000 39.2598 0.0000 4.9092
# 5 -4.1463 17.3096 -4.6736 0.0000 33.9841 0.0000
# 6 0.0000 0.0000 0.0000 4.9092 0.0000 33.2305
#
#
#
# Elastic Compliance Matrix: (Units=1/GPa)
#
#
# Indices 1 2 3 4 5 6 
#
# 1 0.019724 -0.008825 -0.003088 0.000000 0.006477 0.000000
# 2 -0.008825 0.023624 -0.008051 0.000000 -0.014217 0.000000
# 3 -0.003088 -0.008051 0.010935 0.000000 0.005228 0.000000
# 4 0.000000 0.000000 0.000000 0.025951 0.000000 -0.003834
# 5 0.006477 -0.014217 0.005228 0.000000 0.038176 0.000000
# 6 0.000000 0.000000 0.000000 -0.003834 0.000000 0.030659
#
#
# Mechanical properties :
#
#
# Convention : Reuss Voigt Hill
#
# Bulk Modulus (GPa) = 69.66811 81.87450 75.77131
# Shear Modulus (GPa) = 25.80211 31.96444 28.88328
#
# Velocity S-wave (km/s) = 3.62074 4.02998 3.83083
# Velocity P-wave (km/s) = 7.27167 7.95323 7.62007
#
# Compressibility (1/GPa) = 0.01435377
#
# Stress axis : x y z
#
# Youngs Moduli (GPa) = 50.69921 42.33028 91.44904
#
# Poissons Ratio (x) = 0.37357 0.28244
# Poissons Ratio (y) = 0.44743 0.73625
# Poissons Ratio (z) = 0.15658 0.34080
#
# Static dielectric constant tensor:
#      x y z
#    x 3.505340 0.000000 -0.187310 
#    y 0.000000 3.597610 0.000000 
#    z -0.187310 0.000000 3.797000 
# 
# 
# High freq. dielectric constant tensor:
#      x y z
#    x 1.767170 0.000000 -0.014850 
#    y 0.000000 1.765120 0.000000 
#    z -0.014850 0.000000 1.778260 
# 
# From -- ./inp_files/104948.got.cif
#   From: 2010.06.25/outbox.cif.g09.slc.cpg/sg12_53_cif.got.tgz:104948.got - 2010.06.28 00:19:55.
