data_PCOD8108686
_publ_section_title
;
Structure prediction by ZEFSAII (Michael W. Deem and Ramdas Pophale) SiO2 
 PCOD8108686
Probable space group: C 2/M
;
_chemical_formula_sum "Si O2"
_cell_formula_units_Z 60
_cell_length_a 16.112302
_cell_length_b 15.325687
_cell_length_c 11.750558
_cell_angle_alpha 90.000000
_cell_angle_beta 76.137362
_cell_angle_gamma 90.000000
_cell_volume 2817.075105
_symmetry_space_group_name_H-M "C 2/M"
_symmetry_group_IT_number 12
_symmetry_cell_setting 'monoclinic'
loop_
_space_group_symop_operation_xyz
x,y,z
-x,y,-z
-x,-y,-z
x,-y,z
1/2+x,1/2+y,z
1/2-x,1/2+y,-z
1/2-x,1/2-y,-z
1/2+x,1/2-y,z
loop_
_atom_site_type_symbol
_atom_site_label
_atom_site_fract_x
_atom_site_fract_y
_atom_site_fract_z
Si Si1 0.107446 0.316534 0.834438
Si Si2 0.735699 0.898519 0.957481
Si Si3 0.082671 0.901195 0.179035
Si Si4 0.521230 0.902984 0.282862
Si Si5 0.219618 0.402935 0.207843
Si Si6 0.500000 0.323326 0.000000
Si Si7 0.756136 0.746814 0.633669
Si Si8 0.051309 0.224965 0.378493
O O1 0.152200 0.356537 0.930223
O O2 0.039000 0.384614 0.805783
O O3 0.177026 0.299615 0.712288
O O4 0.058842 0.231576 0.894737
O O5 0.815743 0.882120 0.848074
O O6 0.717221 0.000000 0.981694
O O7 0.755815 0.860279 0.078313
O O8 0.056986 0.887265 0.057118
O O9 0.030767 0.834113 0.275569
O O10 0.062446 0.000000 0.223715
O O11 0.619120 0.903168 0.213786
O O12 0.513393 0.823211 0.375394
O O13 0.497458 0.000000 0.340961
O O14 0.254758 0.500000 0.218939
O O15 0.247223 0.350043 0.310909
O O16 0.750000 0.750000 0.500000
O O17 0.848016 0.785429 0.635147
O O18 0.000000 0.183496 0.500000
#
# Coordination Sequence:
#
# PCOD8108686 Si02
#       8
#     8   8   8   8   8   4   8   8
#     4  12  22  37  64 100 136 166 209 253 324 382
#     4  10  21  38  63  96 131 166 206 261 319 382
#     4  11  24  44  65  92 125 170 223 266 316 373
#     4  10  21  39  64  97 130 165 205 252 315 389
#     4   9  20  40  63  91 127 166 208 254 315 378
#     4  12  25  38  67  98 132 174 207 264 319 382
#     4  11  24  40  63  92 125 168 211 265 315 373
#     4  11  23  45  68  90 126 167 219 269 319 376
#
# _framework density 21.298687000000001
#
# number of rings (size 3 to 8) (size 9 to 14) (size 15 to 20)
#    0.000    1.333    2.667    3.000    1.867    1.600 
#    0.000    8.000    0.000    0.000    0.000    0.000 
#    0.000    0.000    0.000    0.000    0.000    0.000 
#
# Total GULP energy -371853.093438 kJ/mol
# GULP energy per Si atom -12395.103115 kJ/mol
# Density = 2.125021 g / cm^3
# Si number density = 21.298687 Si / 1000 Ang^3
#
#
#
# Elastic Constant Matrix: (Units=GPa)
#
#
# Indices 1 2 3 4 5 6 
#
# 1 72.2926 40.1146 25.5121 0.0000 13.6821 0.0000
# 2 40.1146 93.7740 52.5608 0.0000 7.7009 0.0000
# 3 25.5121 52.5608 137.0610 0.0000 10.2441 0.0000
# 4 0.0000 0.0000 0.0000 14.8206 0.0000 4.4351
# 5 13.6821 7.7009 10.2441 0.0000 36.3462 0.0000
# 6 0.0000 0.0000 0.0000 4.4351 0.0000 23.7597
#
#
#
# Elastic Compliance Matrix: (Units=1/GPa)
#
#
# Indices 1 2 3 4 5 6 
#
# 1 0.019196 -0.007625 -0.000235 0.000000 -0.005544 0.000000
# 2 -0.007625 0.016686 -0.005036 0.000000 0.000754 0.000000
# 3 -0.000235 -0.005036 0.009382 0.000000 -0.001489 0.000000
# 4 0.000000 0.000000 0.000000 0.071466 0.000000 -0.013340
# 5 -0.005544 0.000754 -0.001489 0.000000 0.029860 0.000000
# 6 0.000000 0.000000 0.000000 -0.013340 0.000000 0.044578
#
#
# Mechanical properties :
#
#
# Convention : Reuss Voigt Hill
#
# Bulk Modulus (GPa) = 51.35200 59.94474 55.64837
# Shear Modulus (GPa) = 22.37628 27.31463 24.84546
#
# Velocity S-wave (km/s) = 3.24480 3.58502 3.41915
# Velocity P-wave (km/s) = 6.18070 6.73368 6.46311
#
# Compressibility (1/GPa) = 0.01947344
#
# Stress axis : x y z
#
# Youngs Moduli (GPa) = 52.09504 59.92888 106.58394
#
# Poissons Ratio (x) = 0.45694 0.02501
# Poissons Ratio (y) = 0.39721 0.53677
# Poissons Ratio (z) = 0.01223 0.30181
#
# Static dielectric constant tensor:
#      x y z
#    x 3.889320 0.000000 0.021130 
#    y 0.000000 3.867200 0.000000 
#    z 0.021130 0.000000 3.806400 
# 
# 
# High freq. dielectric constant tensor:
#      x y z
#    x 1.842220 0.000000 0.000390 
#    y 0.000000 1.827180 0.000000 
#    z 0.000390 0.000000 1.830690 
# 
# From -- ./inp_files/156584.got.cif
#   From: 2010.06.25/outbox.cif.g09.slc.cpg/sg12_79_cif.got.tgz:156584.got - 2010.06.28 00:19:55.
