data_PCOD8108588
_publ_section_title
;
Structure prediction by ZEFSAII (Michael W. Deem and Ramdas Pophale) SiO2 
 PCOD8108588
Probable space group: C 2/M
;
_chemical_formula_sum "Si O2"
_cell_formula_units_Z 64
_cell_length_a 23.608489
_cell_length_b 8.908971
_cell_length_c 15.174655
_cell_angle_alpha 90.000000
_cell_angle_beta 92.796239
_cell_angle_gamma 90.000000
_cell_volume 3187.844722
_symmetry_space_group_name_H-M "C 2/M"
_symmetry_group_IT_number 12
_symmetry_cell_setting 'monoclinic'
loop_
_space_group_symop_operation_xyz
x,y,z
-x,y,-z
-x,-y,-z
x,-y,z
1/2+x,1/2+y,z
1/2-x,1/2+y,-z
1/2-x,1/2-y,-z
1/2+x,1/2-y,z
loop_
_atom_site_type_symbol
_atom_site_label
_atom_site_fract_x
_atom_site_fract_y
_atom_site_fract_z
Si Si1 0.402745 0.670088 0.477884
Si Si2 0.725254 0.669361 0.579680
Si Si3 0.087551 0.672769 0.333812
Si Si4 0.456614 0.827060 0.318504
Si Si5 0.872047 0.825572 0.182861
Si Si6 0.727846 0.165789 0.744536
Si Si7 0.651216 0.332617 0.180743
Si Si8 0.313183 0.678606 0.001106
O O1 0.424043 0.500000 0.492432
O O2 0.342448 0.673626 0.425792
O O3 0.398638 0.744126 0.573854
O O4 0.444760 0.751690 0.412720
O O5 0.748191 0.500000 0.590277
O O6 0.750000 0.750000 0.500000
O O7 0.752477 0.777100 0.654605
O O8 0.102819 0.500000 0.350180
O O9 0.123851 0.728605 0.252776
O O10 0.022464 0.695691 0.302943
O O11 0.425000 0.759334 0.230787
O O12 0.439541 0.000000 0.326372
O O13 0.817018 0.794384 0.236927
O O14 0.887166 0.000000 0.184667
O O15 0.853683 0.767022 0.084653
O O16 0.780573 0.159837 0.812920
O O17 0.699362 0.000000 0.735948
O O18 0.625568 0.500000 0.191060
O O19 0.646934 0.273700 0.079607
O O20 0.304250 0.500000 0.004105
O O21 0.250000 0.750000 0.000000
#
# Coordination Sequence:
#
# PCOD8108588 Si02
#       8
#     8   8   8   8   8   8   8   8
#     4  11  23  39  61  89 119 156 204 251 298 358
#     4  11  23  36  52  81 120 158 200 242 294 358
#     4  11  25  42  61  88 119 159 207 253 302 355
#     4  11  24  42  63  87 120 160 206 254 300 354
#     4  11  22  37  61  92 121 153 197 245 297 357
#     4  11  21  35  58  85 119 158 195 239 297 356
#     4  10  22  40  61  89 123 160 200 245 301 362
#     4  10  21  38  62  93 125 157 198 244 297 361
#
# _framework density 20.076260000000001
#
# number of rings (size 3 to 8) (size 9 to 14) (size 15 to 20)
#    0.000    1.250    2.500    3.375    0.000   10.000 
#    0.000    0.625    0.000    3.750    0.000    0.000 
#    0.000    0.000    0.000    0.000    0.000    0.000 
#
# Total GULP energy -396575.208456 kJ/mol
# GULP energy per Si atom -12392.975264 kJ/mol
# Density = 2.003057 g / cm^3
# Si number density = 20.076260 Si / 1000 Ang^3
#
#
#
# Elastic Constant Matrix: (Units=GPa)
#
#
# Indices 1 2 3 4 5 6 
#
# 1 57.5958 33.1483 28.1592 0.0000 -3.2619 0.0000
# 2 33.1483 114.1973 50.9881 0.0000 3.4829 0.0000
# 3 28.1592 50.9881 143.7788 0.0000 5.9694 0.0000
# 4 0.0000 0.0000 0.0000 28.9029 0.0000 -1.2010
# 5 -3.2619 3.4829 5.9694 0.0000 25.3466 0.0000
# 6 0.0000 0.0000 0.0000 -1.2010 0.0000 30.2584
#
#
#
# Elastic Compliance Matrix: (Units=1/GPa)
#
#
# Indices 1 2 3 4 5 6 
#
# 1 0.021932 -0.005344 -0.002573 0.000000 0.004163 0.000000
# 2 -0.005344 0.011715 -0.003042 0.000000 -0.001581 0.000000
# 3 -0.002573 -0.003042 0.008618 0.000000 -0.001943 0.000000
# 4 0.000000 0.000000 0.000000 0.034656 0.000000 0.001375
# 5 0.004163 -0.001581 -0.001943 0.000000 0.040664 0.000000
# 6 0.000000 0.000000 0.000000 0.001375 0.000000 0.033103
#
#
# Mechanical properties :
#
#
# Convention : Reuss Voigt Hill
#
# Bulk Modulus (GPa) = 49.14887 60.01813 54.58350
# Shear Modulus (GPa) = 27.87248 30.45332 29.16290
#
# Velocity S-wave (km/s) = 3.73007 3.89894 3.81544
# Velocity P-wave (km/s) = 6.56395 7.08724 6.83061
#
# Compressibility (1/GPa) = 0.02034635
#
# Stress axis : x y z
#
# Youngs Moduli (GPa) = 45.59553 85.36398 116.02977
#
# Poissons Ratio (x) = 0.45622 0.29854
# Poissons Ratio (y) = 0.24368 0.35296
# Poissons Ratio (z) = 0.11732 0.25967
#
# Static dielectric constant tensor:
#      x y z
#    x 3.123030 0.000000 0.012140 
#    y 0.000000 3.782180 0.000000 
#    z 0.012140 0.000000 3.839920 
# 
# 
# High freq. dielectric constant tensor:
#      x y z
#    x 1.768500 0.000000 0.005730 
#    y 0.000000 1.790640 0.000000 
#    z 0.005730 0.000000 1.799980 
# 
# From -- ./inp_files/238765.got.cif
#   From: 2010.06.25/outbox.cif.g09.slc.cpg/sg12_120_cif.got.tgz:238765.got - 2010.06.28 00:19:55.
