data_PCOD8108284
_publ_section_title
;
Structure prediction by ZEFSAII (Michael W. Deem and Ramdas Pophale) SiO2 
 PCOD8108284
Probable space group: C 2/M
;
_chemical_formula_sum "Si O2"
_cell_formula_units_Z 48
_cell_length_a 15.061588
_cell_length_b 8.572126
_cell_length_c 29.897337
_cell_angle_alpha 90.000000
_cell_angle_beta 142.948186
_cell_angle_gamma 90.000000
_cell_volume 2325.816993
_symmetry_space_group_name_H-M "C 2/M"
_symmetry_group_IT_number 12
_symmetry_cell_setting 'monoclinic'
loop_
_space_group_symop_operation_xyz
x,y,z
-x,y,-z
-x,-y,-z
x,-y,z
1/2+x,1/2+y,z
1/2-x,1/2+y,-z
1/2-x,1/2-y,-z
1/2+x,1/2-y,z
loop_
_atom_site_type_symbol
_atom_site_label
_atom_site_fract_x
_atom_site_fract_y
_atom_site_fract_z
Si Si1 0.469516 0.816327 0.569545
Si Si2 0.168288 0.183637 0.402840
Si Si3 0.210385 0.683753 0.067397
Si Si4 0.935422 0.185099 0.907329
Si Si5 0.275432 0.182540 0.666537
Si Si6 0.521381 0.816811 0.169121
O O1 0.328803 0.760395 0.484287
O O2 0.456934 0.752727 0.615009
O O3 0.612197 0.750339 0.602776
O O4 0.481476 0.000000 0.575623
O O5 0.139404 0.246224 0.341591
O O6 0.153186 0.000000 0.397261
O O7 0.179093 0.500000 0.053170
O O8 0.187217 0.748064 0.108165
O O9 0.373652 0.719027 0.116808
O O10 0.098611 0.770482 0.989247
O O11 0.904115 0.263914 0.847091
O O12 0.919994 0.000000 0.897871
O O13 0.364716 0.229321 0.746508
O O14 0.265199 0.000000 0.656152
O O15 0.485177 0.000000 0.154286
#
# Coordination Sequence:
#
# PCOD8108284 Si02
#       6
#     8   8   8   8   8   8
#     4  10  21  38  61  87 115 149 191 238 286 339
#     4  10  21  38  61  87 115 149 191 238 286 339
#     4  11  22  39  63  89 116 150 191 237 286 337
#     4  11  22  39  63  89 116 150 191 237 286 337
#     4  11  24  39  58  84 117 155 192 235 286 341
#     4  11  24  41  58  83 118 155 194 235 284 341
#
# _framework density 20.637906999999998
#
# number of rings (size 3 to 8) (size 9 to 14) (size 15 to 20)
#    0.000    1.333    0.000    7.000    0.000    8.000 
#    0.000    0.000    0.000    0.000    0.000    0.000 
#    0.000    0.000    0.000    0.000    0.000    0.000 
#
# Total GULP energy -297767.467453 kJ/mol
# GULP energy per Si atom -12406.977811 kJ/mol
# Density = 2.059093 g / cm^3
# Si number density = 20.637907 Si / 1000 Ang^3
#
#
#
# Elastic Constant Matrix: (Units=GPa)
#
#
# Indices 1 2 3 4 5 6 
#
# 1 80.7852 12.7086 18.5267 0.0000 -32.0895 0.0000
# 2 12.7086 66.3427 19.8062 0.0000 -15.2741 -0.0001
# 3 18.5267 19.8062 53.1995 0.0000 -30.9896 0.0000
# 4 0.0000 0.0000 0.0000 29.1911 0.0000 -3.0333
# 5 -32.0895 -15.2741 -30.9896 0.0000 38.3992 0.0000
# 6 0.0000 -0.0001 0.0000 -3.0333 0.0000 42.7964
#
#
#
# Elastic Compliance Matrix: (Units=1/GPa)
#
#
# Indices 1 2 3 4 5 6 
#
# 1 0.019238 -0.000627 0.005197 0.000000 0.020022 0.000000
# 2 -0.000627 0.017178 -0.004722 0.000000 0.002498 0.000000
# 3 0.005197 -0.004722 0.038086 0.000000 0.033201 0.000000
# 4 0.000000 0.000000 0.000000 0.034511 0.000000 0.002446
# 5 0.020022 0.002498 0.033201 0.000000 0.070562 0.000000
# 6 0.000000 0.000000 0.000000 0.002446 0.000000 0.023540
#
#
# Mechanical properties :
#
#
# Convention : Reuss Voigt Hill
#
# Bulk Modulus (GPa) = 13.47755 33.60115 23.53935
# Shear Modulus (GPa) = 21.91518 32.02973 26.97245
#
# Velocity S-wave (km/s) = 3.26220 3.94380 3.61908
# Velocity P-wave (km/s) = 4.55345 6.08726 5.37534
#
# Compressibility (1/GPa) = 0.07419746
#
# Stress axis : x y z
#
# Youngs Moduli (GPa) = 51.97948 58.21326 26.25668
#
# Poissons Ratio (x) = 0.03651 -0.13645
# Poissons Ratio (y) = 0.03260 0.12398
# Poissons Ratio (z) = -0.27012 0.27487
#
# Static dielectric constant tensor:
#      x y z
#    x 3.858360 0.000000 -0.178960 
#    y 0.000000 3.782950 0.000000 
#    z -0.178960 0.000000 3.724510 
# 
# 
# High freq. dielectric constant tensor:
#      x y z
#    x 1.821250 0.000000 -0.013550 
#    y 0.000000 1.823090 0.000000 
#    z -0.013550 0.000000 1.795270 
# 
# From -- ./inp_files/360336.got.cif
#   From: 2010.06.25/outbox.cif.g09.slc.cpg/sg12_181_cif.got.tgz:360336.got - 2010.06.28 00:19:55.
