data_PCOD8108629
_publ_section_title
;
Structure prediction by ZEFSAII (Michael W. Deem and Ramdas Pophale) SiO2 
 PCOD8108629
Probable space group: C 2/M
;
_chemical_formula_sum "Si O2"
_cell_formula_units_Z 52
_cell_length_a 22.979782
_cell_length_b 13.014092
_cell_length_c 10.947027
_cell_angle_alpha 90.000000
_cell_angle_beta 129.082853
_cell_angle_gamma 90.000000
_cell_volume 2541.260885
_symmetry_space_group_name_H-M "C 2/M"
_symmetry_group_IT_number 12
_symmetry_cell_setting 'monoclinic'
loop_
_space_group_symop_operation_xyz
x,y,z
-x,y,-z
-x,-y,-z
x,-y,z
1/2+x,1/2+y,z
1/2-x,1/2+y,-z
1/2-x,1/2-y,-z
1/2+x,1/2-y,z
loop_
_atom_site_type_symbol
_atom_site_label
_atom_site_fract_x
_atom_site_fract_y
_atom_site_fract_z
Si Si1 0.155572 0.117944 0.591567
Si Si2 0.651167 0.611057 0.094975
Si Si3 0.000000 0.844560 0.000000
Si Si4 0.707500 0.790207 0.328823
Si Si5 0.429870 0.225623 0.702731
Si Si6 0.462630 0.881527 0.325198
Si Si7 0.335930 0.717788 0.134552
O O1 0.243802 0.120439 0.670005
O O2 0.107758 0.191224 0.438663
O O3 0.149086 0.157072 0.720838
O O4 0.127350 0.000000 0.544210
O O5 0.692691 0.500000 0.151783
O O6 0.575185 0.591870 0.072695
O O7 0.702158 0.697108 0.225185
O O8 0.636461 0.642455 0.935838
O O9 0.992523 0.779820 0.866504
O O10 0.750000 0.750000 0.500000
O O11 0.627479 0.827003 0.275479
O O12 0.472359 0.135702 0.688417
O O13 0.500000 0.845013 0.500000
O O14 0.386768 0.819596 0.198825
O O15 0.439182 0.000000 0.296066
O O16 0.250000 0.750000 0.000000
#
# Coordination Sequence:
#
# PCOD8108629 Si02
#       7
#     8   8   4   8   8   8   8
#     4  11  23  41  64  92 130 172 211 263 330 386
#     4  11  22  38  63  92 123 165 208 257 320 382
#     4  10  21  38  63  90 128 160 203 264 317 378
#     4   9  21  39  60  90 129 166 210 263 312 381
#     4  10  21  42  65  94 129 162 215 273 316 383
#     4  11  24  45  72  95 125 173 220 271 332 386
#     4  12  24  44  64  95 134 168 217 274 322 395
#
# _framework density 20.462284
#
# number of rings (size 3 to 8) (size 9 to 14) (size 15 to 20)
#    0.000    1.385    4.615    0.692    0.000    8.000 
#    0.000    3.462    0.000    0.000    0.000    0.000 
#    0.000    0.000    0.000    0.000    0.000    0.000 
#
# Total GULP energy -322212.668235 kJ/mol
# GULP energy per Si atom -12392.794932 kJ/mol
# Density = 2.041571 g / cm^3
# Si number density = 20.462284 Si / 1000 Ang^3
#
#
#
# Elastic Constant Matrix: (Units=GPa)
#
#
# Indices 1 2 3 4 5 6 
#
# 1 100.6579 31.9715 25.7499 0.0000 -9.5141 0.0000
# 2 31.9715 68.9562 28.0638 0.0000 0.8902 0.0000
# 3 25.7499 28.0638 103.1832 0.0000 -14.4951 0.0000
# 4 0.0000 0.0000 0.0000 21.2992 0.0000 3.0397
# 5 -9.5141 0.8902 -14.4951 0.0000 41.8263 0.0000
# 6 0.0000 0.0000 0.0000 3.0397 0.0000 20.3910
#
#
#
# Elastic Compliance Matrix: (Units=1/GPa)
#
#
# Indices 1 2 3 4 5 6 
#
# 1 0.012122 -0.005126 -0.001291 0.000000 0.002419 0.000000
# 2 -0.005126 0.018632 -0.004213 0.000000 -0.003023 0.000000
# 3 -0.001291 -0.004213 0.011701 0.000000 0.003851 0.000000
# 4 0.000000 0.000000 0.000000 0.047971 0.000000 -0.007151
# 5 0.002419 -0.003023 0.003851 0.000000 0.025857 0.000000
# 6 0.000000 0.000000 0.000000 -0.007151 0.000000 0.050107
#
#
# Mechanical properties :
#
#
# Convention : Reuss Voigt Hill
#
# Bulk Modulus (GPa) = 47.18239 49.37421 48.27830
# Shear Modulus (GPa) = 25.67859 29.17077 27.42468
#
# Velocity S-wave (km/s) = 3.54633 3.77979 3.66492
# Velocity P-wave (km/s) = 6.31482 6.57502 6.44623
#
# Compressibility (1/GPa) = 0.02119435
#
# Stress axis : x y z
#
# Youngs Moduli (GPa) = 82.49659 53.67029 85.46642
#
# Poissons Ratio (x) = 0.27512 0.11034
# Poissons Ratio (y) = 0.42288 0.36007
# Poissons Ratio (z) = 0.10651 0.22611
#
# Static dielectric constant tensor:
#      x y z
#    x 4.479910 0.000000 0.064990 
#    y 0.000000 3.419580 0.000000 
#    z 0.064990 0.000000 3.851770 
# 
# 
# High freq. dielectric constant tensor:
#      x y z
#    x 1.818870 0.000000 -0.012450 
#    y 0.000000 1.776720 0.000000 
#    z -0.012450 0.000000 1.808150 
# 
# From -- ./inp_files/175331.got.cif
#   From: 2010.06.25/outbox.cif.g09.slc.cpg/sg12_88_cif.got.tgz:175331.got - 2010.06.28 00:19:55.
