data_PCOD8108788
_publ_section_title
;
Structure prediction by ZEFSAII (Michael W. Deem and Ramdas Pophale) SiO2 
 PCOD8108788
Probable space group: C 2/M
;
_chemical_formula_sum "Si O2"
_cell_formula_units_Z 52
_cell_length_a 14.986258
_cell_length_b 10.345288
_cell_length_c 20.488756
_cell_angle_alpha 90.000000
_cell_angle_beta 121.104371
_cell_angle_gamma 90.000000
_cell_volume 2719.823004
_symmetry_space_group_name_H-M "C 2/M"
_symmetry_group_IT_number 12
_symmetry_cell_setting 'monoclinic'
loop_
_space_group_symop_operation_xyz
x,y,z
-x,y,-z
-x,-y,-z
x,-y,z
1/2+x,1/2+y,z
1/2-x,1/2+y,-z
1/2-x,1/2-y,-z
1/2+x,1/2-y,z
loop_
_atom_site_type_symbol
_atom_site_label
_atom_site_fract_x
_atom_site_fract_y
_atom_site_fract_z
Si Si1 0.611789 0.500000 0.921033
Si Si2 0.703794 0.646883 0.734005
Si Si3 0.731855 0.000000 0.900746
Si Si4 0.377493 0.730433 0.731908
Si Si5 0.687816 0.352694 0.432623
Si Si6 0.622747 0.500000 0.169249
Si Si7 0.118945 0.244894 0.831731
Si Si8 0.973307 0.854251 0.421631
O O1 0.494128 0.500000 0.904120
O O2 0.632723 0.626983 0.886339
O O3 0.687461 0.500000 0.010325
O O4 0.671096 0.500000 0.736415
O O5 0.818612 0.649970 0.744881
O O6 0.693451 0.723081 0.797787
O O7 0.623005 0.712368 0.651982
O O8 0.657463 0.875837 0.880165
O O9 0.793331 0.000000 0.856168
O O10 0.314983 0.693459 0.642984
O O11 0.360994 0.620656 0.778478
O O12 0.498397 0.760775 0.764170
O O13 0.733746 0.500000 0.456000
O O14 0.750000 0.250000 0.500000
O O15 0.569587 0.353294 0.410005
O O16 0.000000 0.781065 0.500000
O O17 0.938029 0.000000 0.426294
#
# Coordination Sequence:
#
# PCOD8108788 Si02
#       8
#     4   8   4   8   8   4   8   8
#     4  10  23  42  67  90 123 169 208 242 305 388
#     4  11  21  37  63  88 122 164 211 254 296 372
#     4  12  23  42  63  99 129 152 200 269 316 357
#     4  11  22  39  62  91 124 164 209 253 309 366
#     4  11  22  37  60  87 124 163 208 258 308 356
#     4  10  21  38  66  87 116 169 211 245 298 379
#     4  11  23  40  66  93 124 166 204 250 312 369
#     4   9  18  33  55  83 114 157 208 249 293 357
#
# _framework density 19.118891000000001
#
# number of rings (size 3 to 8) (size 9 to 14) (size 15 to 20)
#    0.000    1.385    4.615    1.615    1.077    1.846 
#    0.000    0.000    1.692    2.308    0.000    0.000 
#    0.000    0.000    0.000    0.000    0.000    0.000 
#
# Total GULP energy -322287.559652 kJ/mol
# GULP energy per Si atom -12395.675371 kJ/mol
# Density = 1.907538 g / cm^3
# Si number density = 19.118891 Si / 1000 Ang^3
#
#
#
# Elastic Constant Matrix: (Units=GPa)
#
#
# Indices 1 2 3 4 5 6 
#
# 1 90.1588 26.1036 22.8510 0.0000 -2.8817 0.0000
# 2 26.1036 94.6057 45.2286 0.0000 8.6015 0.0000
# 3 22.8510 45.2286 120.1127 0.0000 1.6202 0.0000
# 4 0.0000 0.0000 0.0000 83.9418 0.0000 -30.4346
# 5 -2.8817 8.6015 1.6202 0.0000 21.9603 0.0000
# 6 0.0000 0.0000 0.0000 -30.4346 0.0000 44.3334
#
#
#
# Elastic Compliance Matrix: (Units=1/GPa)
#
#
# Indices 1 2 3 4 5 6 
#
# 1 0.012394 -0.003098 -0.001231 0.000000 0.002931 0.000000
# 2 -0.003098 0.014168 -0.004670 0.000000 -0.005611 0.000000
# 3 -0.001231 -0.004670 0.010306 0.000000 0.000907 0.000000
# 4 0.000000 0.000000 0.000000 0.015861 0.000000 0.010888
# 5 0.002931 -0.005611 0.000907 0.000000 0.048052 0.000000
# 6 0.000000 0.000000 0.000000 0.010888 0.000000 0.030031
#
#
# Mechanical properties :
#
#
# Convention : Reuss Voigt Hill
#
# Bulk Modulus (GPa) = 52.99274 54.80487 53.89880
# Shear Modulus (GPa) = 32.23753 44.09338 38.16546
#
# Velocity S-wave (km/s) = 4.11074 4.80758 4.47275
# Velocity P-wave (km/s) = 7.09286 7.71651 7.41125
#
# Compressibility (1/GPa) = 0.01887051
#
# Stress axis : x y z
#
# Youngs Moduli (GPa) = 80.68363 70.58363 97.03182
#
# Poissons Ratio (x) = 0.21865 0.11945
# Poissons Ratio (y) = 0.24993 0.45312
# Poissons Ratio (z) = 0.09932 0.32961
#
# Static dielectric constant tensor:
#      x y z
#    x 3.537170 0.000000 -0.032060 
#    y 0.000000 3.392420 0.000000 
#    z -0.032060 0.000000 3.555530 
# 
# 
# High freq. dielectric constant tensor:
#      x y z
#    x 1.750070 0.000000 -0.005820 
#    y 0.000000 1.727910 0.000000 
#    z -0.005820 0.000000 1.748610 
# 
# From -- ./inp_files/310060.got.cif
#   From: 2010.06.25/outbox.cif.g09.slc.cpg/sg12_156_cif.got.tgz:310060.got - 2010.06.28 00:19:55.
