data_PCOD8108887
_publ_section_title
;
Structure prediction by ZEFSAII (Michael W. Deem and Ramdas Pophale) SiO2 
 PCOD8108887
Probable space group: C 2/M
;
_chemical_formula_sum "Si O2"
_cell_formula_units_Z 64
_cell_length_a 15.536349
_cell_length_b 30.027160
_cell_length_c 8.926717
_cell_angle_alpha 90.000000
_cell_angle_beta 51.238534
_cell_angle_gamma 90.000000
_cell_volume 3247.248353
_symmetry_space_group_name_H-M "C 2/M"
_symmetry_group_IT_number 12
_symmetry_cell_setting 'monoclinic'
loop_
_space_group_symop_operation_xyz
x,y,z
-x,y,-z
-x,-y,-z
x,-y,z
1/2+x,1/2+y,z
1/2-x,1/2+y,-z
1/2-x,1/2-y,-z
1/2+x,1/2-y,z
loop_
_atom_site_type_symbol
_atom_site_label
_atom_site_fract_x
_atom_site_fract_y
_atom_site_fract_z
Si Si1 0.798274 0.777862 0.083038
Si Si2 0.305561 0.052207 0.355313
Si Si3 0.862654 0.109830 0.296109
Si Si4 0.821572 0.321991 0.529201
Si Si5 0.879634 0.696130 0.148449
Si Si6 0.300433 0.887819 0.075713
Si Si7 0.514934 0.098160 0.646874
Si Si8 0.607603 0.626370 0.072801
O O1 0.697593 0.791448 0.303843
O O2 0.881792 0.744427 0.072141
O O3 0.750000 0.750000 0.000000
O O4 0.867242 0.820942 0.959974
O O5 0.196536 0.067629 0.563484
O O6 0.311803 0.073725 0.184904
O O7 0.416444 0.065081 0.322847
O O8 0.299835 0.000000 0.339686
O O9 0.790563 0.153735 0.398384
O O10 0.979448 0.118324 0.251161
O O11 0.871283 0.101868 0.108440
O O12 0.853635 0.293413 0.349687
O O13 0.918475 0.356617 0.458161
O O14 0.797586 0.660510 0.160120
O O15 0.000000 0.673871 0.000000
O O16 0.185033 0.895219 0.114849
O O17 0.397975 0.890567 0.848509
O O18 0.500000 0.075252 0.500000
#
# Coordination Sequence:
#
# PCOD8108887 Si02
#       8
#     8   8   8   8   8   8   8   8
#     4  11  23  37  57  91 125 166 226 275 304 364
#     4  11  24  43  68  97 126 158 207 267 325 393
#     4   9  20  42  66  88 119 173 209 260 321 379
#     4  10  21  39  59  85 128 171 209 258 319 379
#     4  12  22  37  59  88 130 172 210 263 322 374
#     4  12  21  41  64  93 128 168 203 258 331 387
#     4  11  22  39  67  94 126 167 205 249 319 394
#     4  10  22  41  65  86 126 173 216 259 316 378
#
# _framework density 19.708993
#
# number of rings (size 3 to 8) (size 9 to 14) (size 15 to 20)
#    0.000    1.250    5.000    3.000    3.500    1.750 
#    0.000    4.375    0.000    0.000    0.000    0.000 
#    0.000    0.000    0.000    0.000    0.000    0.000 
#
# Total GULP energy -396778.640023 kJ/mol
# GULP energy per Si atom -12399.332501 kJ/mol
# Density = 1.966413 g / cm^3
# Si number density = 19.708993 Si / 1000 Ang^3
#
#
#
# Elastic Constant Matrix: (Units=GPa)
#
#
# Indices 1 2 3 4 5 6 
#
# 1 149.0579 40.7705 55.6781 0.0000 3.4466 0.0000
# 2 40.7705 99.6535 33.1918 0.0000 14.4503 0.0000
# 3 55.6781 33.1918 101.5704 0.0000 7.5235 0.0000
# 4 0.0000 0.0000 0.0000 21.3480 0.0000 0.6167
# 5 3.4466 14.4503 7.5235 0.0000 33.6180 0.0000
# 6 0.0000 0.0000 0.0000 0.6167 0.0000 10.7423
#
#
#
# Elastic Compliance Matrix: (Units=1/GPa)
#
#
# Indices 1 2 3 4 5 6 
#
# 1 0.008900 -0.002405 -0.004171 0.000000 0.001055 0.000000
# 2 -0.002405 0.012490 -0.002424 0.000000 -0.004580 0.000000
# 3 -0.004171 -0.002424 0.013031 0.000000 -0.001447 0.000000
# 4 0.000000 0.000000 0.000000 0.046921 0.000000 -0.002694
# 5 0.001055 -0.004580 -0.001447 0.000000 0.031930 0.000000
# 6 0.000000 0.000000 0.000000 -0.002694 0.000000 0.093244
#
#
# Mechanical properties :
#
#
# Convention : Reuss Voigt Hill
#
# Bulk Modulus (GPa) = 60.89625 67.72917 64.31271
# Shear Modulus (GPa) = 21.74002 27.85110 24.79556
#
# Velocity S-wave (km/s) = 3.32482 3.76322 3.55080
# Velocity P-wave (km/s) = 6.76048 7.30217 7.03654
#
# Compressibility (1/GPa) = 0.01642137
#
# Stress axis : x y z
#
# Youngs Moduli (GPa) = 112.35623 80.06301 76.73905
#
# Poissons Ratio (x) = 0.19255 0.32009
# Poissons Ratio (y) = 0.27021 0.18602
# Poissons Ratio (z) = 0.46865 0.19408
#
# Static dielectric constant tensor:
#      x y z
#    x 3.744650 0.000000 0.019900 
#    y 0.000000 3.323740 0.000000 
#    z 0.019900 0.000000 3.917920 
# 
# 
# High freq. dielectric constant tensor:
#      x y z
#    x 1.776370 0.000000 0.006880 
#    y 0.000000 1.738770 0.000000 
#    z 0.006880 0.000000 1.778530 
# 
# From -- ./inp_files/68585.got.cif
#   From: 2010.06.25/outbox.cif.g09.slc.cpg/sg12_35_cif.got.tgz:68585.got - 2010.06.28 00:19:55.
