data_PCOD8108436
_publ_section_title
;
Structure prediction by ZEFSAII (Michael W. Deem and Ramdas Pophale) SiO2 
 PCOD8108436
Probable space group: C 2/M
;
_chemical_formula_sum "Si O2"
_cell_formula_units_Z 64
_cell_length_a 23.507879
_cell_length_b 15.083100
_cell_length_c 8.990109
_cell_angle_alpha 90.000000
_cell_angle_beta 94.748196
_cell_angle_gamma 90.000000
_cell_volume 3176.698513
_symmetry_space_group_name_H-M "C 2/M"
_symmetry_group_IT_number 12
_symmetry_cell_setting 'monoclinic'
loop_
_space_group_symop_operation_xyz
x,y,z
-x,y,-z
-x,-y,-z
x,-y,z
1/2+x,1/2+y,z
1/2-x,1/2+y,-z
1/2-x,1/2-y,-z
1/2+x,1/2-y,z
loop_
_atom_site_type_symbol
_atom_site_label
_atom_site_fract_x
_atom_site_fract_y
_atom_site_fract_z
Si Si1 0.939560 0.898422 0.954744
Si Si2 0.726666 0.594254 0.736320
Si Si3 0.853259 0.606233 0.260085
Si Si4 0.253675 0.348476 0.564214
Si Si5 0.695772 0.808101 0.039055
Si Si6 0.604733 0.395907 0.734540
Si Si7 0.632520 0.296985 0.278572
Si Si8 0.065758 0.264836 0.546741
O O1 0.914889 0.861203 0.797117
O O2 0.950432 0.000000 0.920919
O O3 0.900567 0.883899 0.090155
O O4 0.000000 0.851220 0.000000
O O5 0.702283 0.500000 0.780941
O O6 0.753776 0.588214 0.578475
O O7 0.775098 0.614243 0.863280
O O8 0.667534 0.649420 0.719367
O O9 0.864978 0.500000 0.254011
O O10 0.794483 0.625757 0.331172
O O11 0.906733 0.656084 0.348175
O O12 0.843626 0.649217 0.096056
O O13 0.250000 0.250000 0.500000
O O14 0.315450 0.358308 0.653425
O O15 0.653918 0.761125 0.145413
O O16 0.750000 0.750000 0.000000
O O17 0.594766 0.500000 0.684908
O O18 0.564060 0.330898 0.630695
O O19 0.603572 0.240071 0.404058
O O20 0.000000 0.290688 0.500000
#
# Coordination Sequence:
#
# PCOD8108436 Si02
#       8
#     8   8   8   8   8   8   8   8
#     4  10  22  39  56  83 126 168 209 257 311 383
#     4  11  21  35  56  86 124 158 191 240 313 389
#     4  12  26  43  66  97 132 175 224 272 328 393
#     4  12  20  40  63  93 130 162 201 261 334 389
#     4  12  22  39  63  90 126 164 205 265 323 396
#     4  10  21  38  61  91 129 168 213 267 324 392
#     4  12  23  37  67  93 126 167 216 266 331 396
#     4  12  25  44  68  92 128 177 227 281 331 384
#
# _framework density 20.146702999999999
#
# number of rings (size 3 to 8) (size 9 to 14) (size 15 to 20)
#    0.000    0.625    5.000    3.750    0.000    2.000 
#    0.000    0.625    0.000    0.750    0.000    0.000 
#    0.000    0.000    0.000    0.000    0.000    0.000 
#
# Total GULP energy -396522.895267 kJ/mol
# GULP energy per Si atom -12391.340477 kJ/mol
# Density = 2.010085 g / cm^3
# Si number density = 20.146703 Si / 1000 Ang^3
#
#
#
# Elastic Constant Matrix: (Units=GPa)
#
#
# Indices 1 2 3 4 5 6 
#
# 1 112.2125 34.2024 48.7530 0.0000 25.8731 0.0000
# 2 34.2024 98.6240 51.4712 0.0000 15.1910 0.0000
# 3 48.7530 51.4712 131.5790 0.0000 18.4522 0.0000
# 4 0.0000 0.0000 0.0000 6.7871 0.0000 4.8054
# 5 25.8731 15.1910 18.4522 0.0000 41.8953 0.0000
# 6 0.0000 0.0000 0.0000 4.8054 0.0000 25.7611
#
#
#
# Elastic Compliance Matrix: (Units=1/GPa)
#
#
# Indices 1 2 3 4 5 6 
#
# 1 0.012008 -0.001760 -0.002995 0.000000 -0.005458 0.000000
# 2 -0.001760 0.013267 -0.004280 0.000000 -0.001838 0.000000
# 3 -0.002995 -0.004280 0.010559 0.000000 -0.001249 0.000000
# 4 0.000000 0.000000 0.000000 0.169758 0.000000 -0.031666
# 5 -0.005458 -0.001838 -0.001249 0.000000 0.028457 0.000000
# 6 0.000000 0.000000 0.000000 -0.031666 0.000000 0.044725
#
#
# Mechanical properties :
#
#
# Convention : Reuss Voigt Hill
#
# Bulk Modulus (GPa) = 56.29555 67.91876 62.10716
# Shear Modulus (GPa) = 16.51445 28.75462 22.63453
#
# Velocity S-wave (km/s) = 2.86616 3.78201 3.35548
# Velocity P-wave (km/s) = 6.24153 7.27026 6.77545
#
# Compressibility (1/GPa) = 0.01776339
#
# Stress axis : x y z
#
# Youngs Moduli (GPa) = 83.27718 75.37674 94.70561
#
# Poissons Ratio (x) = 0.13270 0.28366
# Poissons Ratio (y) = 0.14661 0.40530
# Poissons Ratio (z) = 0.24943 0.32258
#
# Static dielectric constant tensor:
#      x y z
#    x 3.778120 0.000000 0.030760 
#    y 0.000000 3.706560 0.000000 
#    z 0.030760 0.000000 3.957120 
# 
# 
# High freq. dielectric constant tensor:
#      x y z
#    x 1.785770 0.000000 0.003350 
#    y 0.000000 1.772130 0.000000 
#    z 0.003350 0.000000 1.804800 
# 
# From -- ./inp_files/96918.got.cif
#   From: 2010.06.25/outbox.cif.g09.slc.cpg/sg12_49_cif.got.tgz:96918.got - 2010.06.28 00:19:55.
