data_PCOD8108497
_publ_section_title
;
Structure prediction by ZEFSAII (Michael W. Deem and Ramdas Pophale) SiO2 
 PCOD8108497
Probable space group: C 2/M
;
_chemical_formula_sum "Si O2"
_cell_formula_units_Z 56
_cell_length_a 18.599520
_cell_length_b 8.732342
_cell_length_c 18.232217
_cell_angle_alpha 90.000000
_cell_angle_beta 74.768291
_cell_angle_gamma 90.000000
_cell_volume 2857.204448
_symmetry_space_group_name_H-M "C 2/M"
_symmetry_group_IT_number 12
_symmetry_cell_setting 'monoclinic'
loop_
_space_group_symop_operation_xyz
x,y,z
-x,y,-z
-x,-y,-z
x,-y,z
1/2+x,1/2+y,z
1/2-x,1/2+y,-z
1/2-x,1/2-y,-z
1/2+x,1/2-y,z
loop_
_atom_site_type_symbol
_atom_site_label
_atom_site_fract_x
_atom_site_fract_y
_atom_site_fract_z
Si Si1 0.437853 0.821412 0.574868
Si Si2 0.849299 0.680150 0.297221
Si Si3 0.053249 0.174673 0.126777
Si Si4 0.827345 0.320359 0.003179
Si Si5 0.113852 0.822912 0.864575
Si Si6 0.773017 0.320344 0.570519
Si Si7 0.999936 0.821566 0.300155
O O1 0.500000 0.771256 0.500000
O O2 0.358444 0.777256 0.562810
O O3 0.448946 0.726093 0.645935
O O4 0.443901 0.000000 0.592415
O O5 0.842494 0.500000 0.305058
O O6 0.852733 0.729470 0.211996
O O7 0.775938 0.753705 0.350956
O O8 0.921955 0.731854 0.323073
O O9 0.045386 0.217624 0.214284
O O10 0.974833 0.198230 0.106918
O O11 0.080936 0.000000 0.109364
O O12 0.112474 0.289622 0.076253
O O13 0.819552 0.500000 0.018369
O O14 0.851064 0.239448 0.071218
O O15 0.750000 0.250000 0.000000
O O16 0.134854 0.000000 0.847968
O O17 0.760945 0.500000 0.569698
O O18 0.750000 0.250000 0.500000
O O19 0.980202 0.000000 0.307564
#
# Coordination Sequence:
#
# PCOD8108497 Si02
#       7
#     8   8   8   8   8   8   8
#     4  10  22  39  59  85 117 152 191 239 292 345
#     4  11  22  38  61  88 120 155 194 239 287 345
#     4   9  20  39  61  86 117 151 189 237 291 347
#     4  12  25  39  58  85 118 156 197 241 291 346
#     4  10  21  40  64  88 117 152 192 240 292 346
#     4  11  23  39  60  87 120 156 196 242 293 348
#     4  10  21  38  62  89 117 151 192 239 290 345
#
# _framework density 19.599578000000001
#
# number of rings (size 3 to 8) (size 9 to 14) (size 15 to 20)
#    0.000    1.571    0.000    6.000    0.000    8.857 
#    0.000    2.857    0.000    0.000    0.000    0.000 
#    0.000    0.000    0.000    0.000    0.000    0.000 
#
# Total GULP energy -347374.462940 kJ/mol
# GULP energy per Si atom -12406.230819 kJ/mol
# Density = 1.955497 g / cm^3
# Si number density = 19.599578 Si / 1000 Ang^3
#
#
#
# Elastic Constant Matrix: (Units=GPa)
#
#
# Indices 1 2 3 4 5 6 
#
# 1 134.0103 67.5330 80.9902 0.0000 3.2947 0.0000
# 2 67.5330 74.4540 29.5306 0.0000 3.9870 0.0000
# 3 80.9902 29.5306 102.1474 0.0000 6.5178 0.0000
# 4 0.0000 0.0000 0.0000 39.0784 0.0000 1.5210
# 5 3.2947 3.9870 6.5178 0.0000 38.3254 0.0000
# 6 0.0000 0.0000 0.0000 1.5210 0.0000 33.7340
#
#
#
# Elastic Compliance Matrix: (Units=1/GPa)
#
#
# Indices 1 2 3 4 5 6 
#
# 1 0.025012 -0.016810 -0.015110 0.000000 0.002168 0.000000
# 2 -0.016810 0.026495 0.005815 0.000000 -0.002300 0.000000
# 3 -0.015110 0.005815 0.020264 0.000000 -0.002752 0.000000
# 4 0.000000 0.000000 0.000000 0.025635 0.000000 -0.001156
# 5 0.002168 -0.002300 -0.002752 0.000000 0.026613 0.000000
# 6 0.000000 0.000000 0.000000 -0.001156 0.000000 0.029696
#
#
# Mechanical properties :
#
#
# Convention : Reuss Voigt Hill
#
# Bulk Modulus (GPa) = 51.11881 74.07992 62.59937
# Shear Modulus (GPa) = 23.53560 31.06476 27.30018
#
# Velocity S-wave (km/s) = 3.46905 3.98549 3.73620
# Velocity P-wave (km/s) = 6.49492 7.68489 7.11483
#
# Compressibility (1/GPa) = 0.01956227
#
# Stress axis : x y z
#
# Youngs Moduli (GPa) = 39.98146 37.74304 49.34756
#
# Poissons Ratio (x) = 0.63445 0.74563
# Poissons Ratio (y) = 0.67208 -0.28696
# Poissons Ratio (z) = 0.60411 -0.21948
#
# Static dielectric constant tensor:
#      x y z
#    x 3.597960 0.000000 -0.027170 
#    y 0.000000 3.663560 0.000000 
#    z -0.027170 0.000000 3.667080 
# 
# 
# High freq. dielectric constant tensor:
#      x y z
#    x 1.765890 0.000000 0.001800 
#    y 0.000000 1.772770 0.000000 
#    z 0.001800 0.000000 1.776350 
# 
# From -- ./inp_files/275017.got.cif
#   From: 2010.06.25/outbox.cif.g09.slc.cpg/sg12_138_cif.got.tgz:275017.got - 2010.06.28 00:19:55.
