data_PCOD8108973
_publ_section_title
;
Structure prediction by ZEFSAII (Michael W. Deem and Ramdas Pophale) SiO2 
 PCOD8108973
Probable space group: C 2/M
;
_chemical_formula_sum "Si O2"
_cell_formula_units_Z 64
_cell_length_a 29.859245
_cell_length_b 8.483505
_cell_length_c 18.492829
_cell_angle_alpha 90.000000
_cell_angle_beta 139.837130
_cell_angle_gamma 90.000000
_cell_volume 3021.287231
_symmetry_space_group_name_H-M "C 2/M"
_symmetry_group_IT_number 12
_symmetry_cell_setting 'monoclinic'
loop_
_space_group_symop_operation_xyz
x,y,z
-x,y,-z
-x,-y,-z
x,-y,z
1/2+x,1/2+y,z
1/2-x,1/2+y,-z
1/2-x,1/2-y,-z
1/2+x,1/2-y,z
loop_
_atom_site_type_symbol
_atom_site_label
_atom_site_fract_x
_atom_site_fract_y
_atom_site_fract_z
Si Si1 0.703841 0.313606 0.079356
Si Si2 0.576747 0.316607 0.829009
Si Si3 0.563179 0.684478 0.126382
Si Si4 0.076773 0.182920 0.568516
Si Si5 0.708030 0.687787 0.245837
Si Si6 0.144452 0.685211 0.516039
Si Si7 0.942550 0.680699 0.724714
Si Si8 0.150494 0.681560 0.788294
O O1 0.701191 0.500000 0.083354
O O2 0.710622 0.241744 0.167989
O O3 0.768805 0.266253 0.108858
O O4 0.634109 0.251639 0.955870
O O5 0.559666 0.500000 0.819817
O O6 0.509175 0.212275 0.757220
O O7 0.604755 0.293096 0.782639
O O8 0.564216 0.500000 0.112985
O O9 0.637850 0.756776 0.195700
O O10 0.552579 0.713595 0.198082
O O11 0.500000 0.757548 0.000000
O O12 0.090087 0.225031 0.501177
O O13 0.128481 0.291697 0.678358
O O14 0.000000 0.226687 0.500000
O O15 0.092503 0.000000 0.601308
O O16 0.706002 0.500000 0.243384
O O17 0.776598 0.745476 0.373671
O O18 0.137328 0.500000 0.522879
O O19 0.124041 0.723189 0.407552
O O20 0.940252 0.500000 0.746350
O O21 0.140364 0.500000 0.798041
#
# Coordination Sequence:
#
# PCOD8108973 Si02
#       8
#     8   8   8   8   8   8   8   8
#     4   9  18  34  59  86 114 151 196 243 292 351
#     4  11  22  37  58  85 118 156 199 247 296 351
#     4  10  21  39  66  93 118 153 195 240 297 361
#     4  11  23  37  55  82 117 157 202 251 294 342
#     4   9  17  35  62  88 113 150 198 243 290 352
#     4  10  21  39  61  83 114 157 200 243 293 354
#     4  11  24  40  59  87 121 156 196 242 297 352
#     4  11  21  36  58  84 116 155 197 242 298 356
#
# _framework density 21.183025000000001
#
# number of rings (size 3 to 8) (size 9 to 14) (size 15 to 20)
#    0.000    1.750    1.250    3.375    0.000    6.750 
#    0.000    2.500    0.000    0.000    0.000    0.000 
#    0.000    0.000    0.000    0.000    0.000    0.000 
#
# Total GULP energy -396827.189026 kJ/mol
# GULP energy per Si atom -12400.849657 kJ/mol
# Density = 2.113481 g / cm^3
# Si number density = 21.183025 Si / 1000 Ang^3
#
#
#
# Elastic Constant Matrix: (Units=GPa)
#
#
# Indices 1 2 3 4 5 6 
#
# 1 113.8164 11.8367 46.1496 0.0000 5.6581 0.0000
# 2 11.8367 26.1698 19.6104 0.0000 6.7195 0.0000
# 3 46.1496 19.6104 132.4974 0.0000 -0.3142 0.0000
# 4 0.0000 0.0000 0.0000 22.7664 0.0000 -4.1150
# 5 5.6581 6.7195 -0.3142 0.0000 38.3354 0.0000
# 6 0.0000 0.0000 0.0000 -4.1150 0.0000 23.9412
#
#
#
# Elastic Compliance Matrix: (Units=1/GPa)
#
#
# Indices 1 2 3 4 5 6 
#
# 1 0.010400 -0.001879 -0.003347 0.000000 -0.001233 0.000000
# 2 -0.001879 0.045643 -0.006119 0.000000 -0.007773 0.000000
# 3 -0.003347 -0.006119 0.009623 0.000000 0.001646 0.000000
# 4 0.000000 0.000000 0.000000 0.045333 0.000000 0.007792
# 5 -0.001233 -0.007773 0.001646 0.000000 0.027644 0.000000
# 6 0.000000 0.000000 0.000000 0.007792 0.000000 0.043108
#
#
# Mechanical properties :
#
#
# Convention : Reuss Voigt Hill
#
# Bulk Modulus (GPa) = 23.26953 47.51968 35.39460
# Shear Modulus (GPa) = 22.85537 30.00106 26.42821
#
# Velocity S-wave (km/s) = 3.28830 3.76743 3.53599
# Velocity P-wave (km/s) = 5.04242 6.43477 5.78067
#
# Compressibility (1/GPa) = 0.04297466
#
# Stress axis : x y z
#
# Youngs Moduli (GPa) = 96.15381 21.90900 103.92014
#
# Poissons Ratio (x) = 0.04117 0.34784
# Poissons Ratio (y) = 0.18069 0.63593
# Poissons Ratio (z) = 0.32184 0.13407
#
# Static dielectric constant tensor:
#      x y z
#    x 3.786460 0.000000 0.148410 
#    y 0.000000 3.366630 0.000000 
#    z 0.148410 0.000000 4.151070 
# 
# 
# High freq. dielectric constant tensor:
#      x y z
#    x 1.830260 0.000000 0.004220 
#    y 0.000000 1.795500 0.000000 
#    z 0.004220 0.000000 1.846180 
# 
# From -- ./inp_files/295826.got.cif
#   From: 2010.06.25/outbox.cif.g09.slc.cpg/sg12_148_cif.got.tgz:295826.got - 2010.06.28 00:19:55.
