data_PCOD8108632
_publ_section_title
;
Structure prediction by ZEFSAII (Michael W. Deem and Ramdas Pophale) SiO2 
 PCOD8108632
Probable space group: C 2/M
;
_chemical_formula_sum "Si O2"
_cell_formula_units_Z 56
_cell_length_a 30.836130
_cell_length_b 9.022480
_cell_length_c 11.689682
_cell_angle_alpha 90.000000
_cell_angle_beta 58.960055
_cell_angle_gamma 90.000000
_cell_volume 2786.583217
_symmetry_space_group_name_H-M "C 2/M"
_symmetry_group_IT_number 12
_symmetry_cell_setting 'monoclinic'
loop_
_space_group_symop_operation_xyz
x,y,z
-x,y,-z
-x,-y,-z
x,-y,z
1/2+x,1/2+y,z
1/2-x,1/2+y,-z
1/2-x,1/2-y,-z
1/2+x,1/2-y,z
loop_
_atom_site_type_symbol
_atom_site_label
_atom_site_fract_x
_atom_site_fract_y
_atom_site_fract_z
Si Si1 0.078020 0.327412 0.123029
Si Si2 0.105230 0.175652 0.616219
Si Si3 0.787257 0.330048 0.534952
Si Si4 0.330479 0.328054 0.896506
Si Si5 0.480703 0.827041 0.401801
Si Si6 0.737414 0.166822 0.175850
Si Si7 0.557830 0.326036 0.922288
O O1 0.087901 0.500000 0.097094
O O2 0.118223 0.261506 0.156421
O O3 0.022907 0.292958 0.249119
O O4 0.085741 0.254003 0.988797
O O5 0.159768 0.247206 0.529057
O O6 0.069221 0.236193 0.564549
O O7 0.083565 0.222456 0.769172
O O8 0.109319 0.000000 0.598473
O O9 0.796104 0.500000 0.485492
O O10 0.750000 0.250000 0.500000
O O11 0.758805 0.320909 0.694064
O O12 0.343846 0.500000 0.871292
O O13 0.305687 0.277228 0.811011
O O14 0.292126 0.289231 0.051736
O O15 0.500000 0.773993 0.500000
O O16 0.466579 0.000000 0.425059
O O17 0.723426 0.000000 0.155467
O O18 0.562389 0.500000 0.937325
O O19 0.500000 0.273027 0.000000
#
# Coordination Sequence:
#
# PCOD8108632 Si02
#       7
#     8   8   8   8   8   8   8
#     4  11  23  37  60  92 123 157 202 248 298 361
#     4  11  24  42  65  92 122 160 207 257 309 364
#     4  11  25  44  65  90 124 163 207 254 306 366
#     4  10  21  38  63  91 120 155 198 249 303 358
#     4  10  23  42  62  88 126 168 205 246 303 368
#     4   9  21  42  63  85 118 159 200 247 303 361
#     4  10  21  40  62  85 119 158 197 245 300 354
#
# _framework density 20.096295000000001
#
# number of rings (size 3 to 8) (size 9 to 14) (size 15 to 20)
#    0.000    1.714    1.429    1.714    4.000    4.000 
#    0.000    0.000    0.000    0.000    0.000    0.000 
#    0.000    0.000    0.000    0.000    0.000    0.000 
#
# Total GULP energy -347351.514037 kJ/mol
# GULP energy per Si atom -12405.411216 kJ/mol
# Density = 2.005055 g / cm^3
# Si number density = 20.096295 Si / 1000 Ang^3
#
#
#
# Elastic Constant Matrix: (Units=GPa)
#
#
# Indices 1 2 3 4 5 6 
#
# 1 129.1925 56.9950 31.5975 0.0000 3.5691 0.0000
# 2 56.9950 76.0042 37.9830 0.0000 1.7914 0.0000
# 3 31.5975 37.9830 65.2594 0.0000 14.1603 0.0000
# 4 0.0000 0.0000 0.0000 29.5079 0.0000 3.1102
# 5 3.5691 1.7914 14.1603 0.0000 32.2408 0.0000
# 6 0.0000 0.0000 0.0000 3.1102 0.0000 44.0967
#
#
#
# Elastic Compliance Matrix: (Units=1/GPa)
#
#
# Indices 1 2 3 4 5 6 
#
# 1 0.011604 -0.008376 -0.000625 0.000000 -0.000545 0.000000
# 2 -0.008376 0.025105 -0.011556 0.000000 0.004608 0.000000
# 3 -0.000625 -0.011556 0.024536 0.000000 -0.010065 0.000000
# 4 0.000000 0.000000 0.000000 0.034143 0.000000 -0.002408
# 5 -0.000545 0.004608 -0.010065 0.000000 0.035241 0.000000
# 6 0.000000 0.000000 0.000000 -0.002408 0.000000 0.022847
#
#
# Mechanical properties :
#
#
# Convention : Reuss Voigt Hill
#
# Bulk Modulus (GPa) = 49.67665 58.17856 53.92760
# Shear Modulus (GPa) = 24.83844 30.76111 27.79977
#
# Velocity S-wave (km/s) = 3.51945 3.91664 3.72335
# Velocity P-wave (km/s) = 6.42560 7.03322 6.73627
#
# Compressibility (1/GPa) = 0.02013018
#
# Stress axis : x y z
#
# Youngs Moduli (GPa) = 86.18016 39.83256 40.75662
#
# Poissons Ratio (x) = 0.33365 0.02546
# Poissons Ratio (y) = 0.72188 0.47099
# Poissons Ratio (z) = 0.05384 0.46031
#
# Static dielectric constant tensor:
#      x y z
#    x 3.840540 0.000000 -0.035630 
#    y 0.000000 3.677950 0.000000 
#    z -0.035630 0.000000 3.734100 
# 
# 
# High freq. dielectric constant tensor:
#      x y z
#    x 1.790200 0.000000 0.002360 
#    y 0.000000 1.788800 0.000000 
#    z 0.002360 0.000000 1.788560 
# 
# From -- ./inp_files/187253.got.cif
#   From: 2010.06.25/outbox.cif.g09.slc.cpg/sg12_94_cif.got.tgz:187253.got - 2010.06.28 00:19:55.
