data_PCOD8108334
_publ_section_title
;
Structure prediction by ZEFSAII (Michael W. Deem and Ramdas Pophale) SiO2 
 PCOD8108334
Probable space group: C 2/M
;
_chemical_formula_sum "Si O2"
_cell_formula_units_Z 64
_cell_length_a 20.455494
_cell_length_b 24.510450
_cell_length_c 17.041197
_cell_angle_alpha 90.000000
_cell_angle_beta 158.839672
_cell_angle_gamma 90.000000
_cell_volume 3084.204840
_symmetry_space_group_name_H-M "C 2/M"
_symmetry_group_IT_number 12
_symmetry_cell_setting 'monoclinic'
loop_
_space_group_symop_operation_xyz
x,y,z
-x,y,-z
-x,-y,-z
x,-y,z
1/2+x,1/2+y,z
1/2-x,1/2+y,-z
1/2-x,1/2-y,-z
1/2+x,1/2-y,z
loop_
_atom_site_type_symbol
_atom_site_label
_atom_site_fract_x
_atom_site_fract_y
_atom_site_fract_z
Si Si1 0.331452 0.903866 0.058483
Si Si2 0.689985 0.120670 0.681456
Si Si3 0.609316 0.436473 0.959780
Si Si4 0.903911 0.829251 0.474465
Si Si5 0.244419 0.286354 0.068417
Si Si6 0.322162 0.737455 0.842444
Si Si7 0.793079 0.561644 0.460727
Si Si8 0.499695 0.558174 0.407341
O O1 0.531468 0.930115 0.287338
O O2 0.226130 0.907365 0.023292
O O3 0.365661 0.841393 0.072088
O O4 0.207469 0.932351 0.853569
O O5 0.500000 0.097899 0.500000
O O6 0.685684 0.186626 0.684419
O O7 0.707102 0.104309 0.610346
O O8 0.848741 0.093200 0.910651
O O9 0.663920 0.500000 0.025734
O O10 0.394586 0.429427 0.701302
O O11 0.731543 0.790913 0.269065
O O12 0.869599 0.890548 0.471343
O O13 0.000000 0.840746 0.500000
O O14 0.043414 0.797185 0.683918
O O15 0.153095 0.255245 0.039637
O O16 0.250000 0.250000 0.000000
O O17 0.500000 0.714771 0.000000
O O18 0.796942 0.500000 0.431524
O O19 0.500000 0.551150 0.500000
O O20 0.567449 0.500000 0.446264
#
# Coordination Sequence:
#
# PCOD8108334 Si02
#       8
#     8   8   8   8   8   8   8   8
#     4  11  22  39  64  90 129 170 209 262 332 386
#     4  12  23  38  66  91 127 178 224 258 313 391
#     4  11  23  40  62  95 135 173 216 264 319 384
#     4   8  17  34  56  79 111 154 196 248 308 373
#     4  10  21  38  61  88 118 160 215 263 317 386
#     4  11  23  41  62  89 127 166 214 273 329 382
#     4  11  24  40  62  97 137 171 214 267 317 389
#     4   9  17  33  61  88 111 152 209 257 315 388
#
# _framework density 20.750890999999999
#
# number of rings (size 3 to 8) (size 9 to 14) (size 15 to 20)
#    0.000    1.625    1.250    5.250    1.750    1.500 
#    4.500    0.625    0.000    0.375    0.000    0.000 
#    0.000    0.000    0.000    0.000    0.000    0.000 
#
# Total GULP energy -396575.087947 kJ/mol
# GULP energy per Si atom -12392.971498 kJ/mol
# Density = 2.070366 g / cm^3
# Si number density = 20.750891 Si / 1000 Ang^3
#
#
#
# Elastic Constant Matrix: (Units=GPa)
#
#
# Indices 1 2 3 4 5 6 
#
# 1 59.9309 36.1007 29.0627 0.0002 -9.5756 0.0001
# 2 36.1007 137.7885 29.8362 -0.0001 -14.7443 -0.0001
# 3 29.0627 29.8362 105.3432 0.0006 -10.9403 0.0008
# 4 0.0002 -0.0001 0.0006 44.4398 0.0003 4.5711
# 5 -9.5756 -14.7443 -10.9403 0.0003 35.3791 0.0002
# 6 0.0001 -0.0001 0.0008 4.5711 0.0002 -0.9354
#
#
#
# Elastic Compliance Matrix: (Units=1/GPa)
#
#
# Indices 1 2 3 4 5 6 
#
# 1 0.022020 -0.004503 -0.004521 0.000000 0.002685 -0.000001
# 2 -0.004503 0.008897 -0.001053 0.000000 0.002163 -0.000001
# 3 -0.004521 -0.001053 0.011226 -0.000001 0.001809 0.000006
# 4 0.000000 0.000000 -0.000001 0.014975 -0.000001 0.073180
# 5 0.002685 0.002163 0.001809 -0.000001 0.030453 0.000005
# 6 -0.000001 -0.000001 0.000006 0.073180 0.000005 -0.711448
#
#
# Mechanical properties :
#
#
# Convention : Reuss Voigt Hill
#
# Bulk Modulus (GPa) = 45.47618 54.78462 50.13040
# Shear Modulus (GPa) = -8.38370 29.64756 10.63193
#
# Velocity S-wave (km/s) = -2.01220 3.78396 2.26599
# Velocity P-wave (km/s) = 4.06992 6.74904 5.57287
#
# Compressibility (1/GPa) = 0.02198954
#
# Stress axis : x y z
#
# Youngs Moduli (GPa) = 45.41409 112.40059 89.07854
#
# Poissons Ratio (x) = 0.50613 0.40269
# Poissons Ratio (y) = 0.20450 0.09379
# Poissons Ratio (z) = 0.20530 0.11834
#
# Static dielectric constant tensor:
#      x y z
#    x 3.480360 0.000000 -0.222520 
#    y 0.000000 5.426500 0.000000 
#    z -0.222520 0.000000 3.636830 
# 
# 
# High freq. dielectric constant tensor:
#      x y z
#    x 1.786360 0.000000 -0.023000 
#    y 0.000000 1.836140 0.000000 
#    z -0.023000 0.000000 1.805450 
# 
# From -- ./inp_files/286461.got.cif
#   From: 2010.06.25/outbox.cif.g09.slc.cpg/sg12_144_cif.got.tgz:286461.got - 2010.06.28 00:19:55.
