data_PCOD8108889
_publ_section_title
;
Structure prediction by ZEFSAII (Michael W. Deem and Ramdas Pophale) SiO2 
 PCOD8108889
Probable space group: C 2/M
;
_chemical_formula_sum "Si O2"
_cell_formula_units_Z 60
_cell_length_a 12.789213
_cell_length_b 16.078912
_cell_length_c 16.282795
_cell_angle_alpha 90.000000
_cell_angle_beta 60.271476
_cell_angle_gamma 90.000000
_cell_volume 2907.646606
_symmetry_space_group_name_H-M "C 2/M"
_symmetry_group_IT_number 12
_symmetry_cell_setting 'monoclinic'
loop_
_space_group_symop_operation_xyz
x,y,z
-x,y,-z
-x,-y,-z
x,-y,z
1/2+x,1/2+y,z
1/2-x,1/2+y,-z
1/2-x,1/2-y,-z
1/2+x,1/2-y,z
loop_
_atom_site_type_symbol
_atom_site_label
_atom_site_fract_x
_atom_site_fract_y
_atom_site_fract_z
Si Si1 0.682175 0.403673 0.942959
Si Si2 0.165810 0.594683 0.706930
Si Si3 0.013393 0.154066 0.869328
Si Si4 0.129687 0.204878 0.313087
Si Si5 0.000000 0.702607 0.500000
Si Si6 0.313842 0.905463 0.487993
Si Si7 0.420260 0.404267 0.331347
Si Si8 0.078399 0.314852 0.178504
O O1 0.689729 0.500000 0.913052
O O2 0.613514 0.349003 0.901206
O O3 0.814460 0.366416 0.905902
O O4 0.606413 0.396400 0.056944
O O5 0.175713 0.500000 0.736579
O O6 0.241559 0.658341 0.733960
O O7 0.219438 0.599902 0.594582
O O8 0.026522 0.620657 0.758990
O O9 0.074468 0.111245 0.767420
O O10 0.973900 0.248175 0.865425
O O11 0.099812 0.244501 0.412770
O O12 0.130835 0.272674 0.240325
O O13 0.029719 0.136716 0.335253
O O14 0.932998 0.647183 0.458499
O O15 0.204090 0.867525 0.584222
O O16 0.340049 0.000000 0.504566
O O17 0.426918 0.500000 0.350712
#
# Coordination Sequence:
#
# PCOD8108889 Si02
#       8
#     8   8   8   8   4   8   8   8
#     4  11  22  40  64  93 119 158 199 247 304 360
#     4  11  23  42  60  87 126 163 200 245 294 355
#     4  10  22  39  63  91 122 152 200 253 300 350
#     4  11  24  36  61  87 117 160 203 249 292 349
#     4  12  23  38  57  88 124 158 206 244 299 346
#     4  10  23  38  59  85 123 162 199 245 300 351
#     4  10  21  39  59  86 116 157 201 247 300 355
#     4  11  23  40  61  92 122 160 198 247 302 356
#
# _framework density 20.635245999999999
#
# number of rings (size 3 to 8) (size 9 to 14) (size 15 to 20)
#    0.000    1.333    1.333    4.600    5.600    1.067 
#    0.000    2.667    0.000    0.000    0.000   14.000 
#    0.000    0.000    0.000    0.000    0.000    0.000 
#
# Total GULP energy -372106.669446 kJ/mol
# GULP energy per Si atom -12403.555648 kJ/mol
# Density = 2.058828 g / cm^3
# Si number density = 20.635246 Si / 1000 Ang^3
#
#
#
# Elastic Constant Matrix: (Units=GPa)
#
#
# Indices 1 2 3 4 5 6 
#
# 1 78.6193 34.6815 29.7435 0.0000 -16.6775 0.0000
# 2 34.6815 80.6825 28.8074 0.0000 -8.9152 0.0000
# 3 29.7435 28.8074 94.4930 0.0000 -19.4246 0.0000
# 4 0.0000 0.0000 0.0000 27.7296 0.0000 -4.7090
# 5 -16.6775 -8.9152 -19.4246 0.0000 35.7532 0.0000
# 6 0.0000 0.0000 0.0000 -4.7090 0.0000 38.1588
#
#
#
# Elastic Compliance Matrix: (Units=1/GPa)
#
#
# Indices 1 2 3 4 5 6 
#
# 1 0.017458 -0.006001 -0.002588 0.000000 0.005241 0.000000
# 2 -0.006001 0.016026 -0.003097 0.000000 -0.000485 0.000000
# 3 -0.002588 -0.003097 0.013435 0.000000 0.005320 0.000000
# 4 0.000000 0.000000 0.000000 0.036834 0.000000 0.004546
# 5 0.005241 -0.000485 0.005320 0.000000 0.033183 0.000000
# 6 0.000000 0.000000 0.000000 0.004546 0.000000 0.026767
#
#
# Mechanical properties :
#
#
# Convention : Reuss Voigt Hill
#
# Bulk Modulus (GPa) = 42.46854 48.91773 45.69313
# Shear Modulus (GPa) = 28.58383 31.03249 29.80816
#
# Velocity S-wave (km/s) = 3.72586 3.88217 3.80482
# Velocity P-wave (km/s) = 6.25577 6.62211 6.44154
#
# Compressibility (1/GPa) = 0.02354684
#
# Stress axis : x y z
#
# Youngs Moduli (GPa) = 57.28138 62.39964 74.43184
#
# Poissons Ratio (x) = 0.37446 0.19266
# Poissons Ratio (y) = 0.34374 0.23048
# Poissons Ratio (z) = 0.14826 0.19322
#
# Static dielectric constant tensor:
#      x y z
#    x 3.554710 0.000000 -0.146440 
#    y 0.000000 3.776830 0.000000 
#    z -0.146440 0.000000 3.858920 
# 
# 
# High freq. dielectric constant tensor:
#      x y z
#    x 1.802440 0.000000 -0.012060 
#    y 0.000000 1.814140 0.000000 
#    z -0.012060 0.000000 1.808260 
# 
# From -- ./inp_files/264253.got.cif
#   From: 2010.06.25/outbox.cif.g09.slc.cpg/sg12_133_cif.got.tgz:264253.got - 2010.06.28 00:19:55.
