data_PCOD8108091
_publ_section_title
;
Structure prediction by ZEFSAII (Michael W. Deem and Ramdas Pophale) SiO2 
 PCOD8108091
Probable space group: C 2/M
;
_chemical_formula_sum "Si O2"
_cell_formula_units_Z 48
_cell_length_a 8.844419
_cell_length_b 15.720621
_cell_length_c 16.635970
_cell_angle_alpha 90.000000
_cell_angle_beta 90.788375
_cell_angle_gamma 90.000000
_cell_volume 2312.842298
_symmetry_space_group_name_H-M "C 2/M"
_symmetry_group_IT_number 12
_symmetry_cell_setting 'monoclinic'
loop_
_space_group_symop_operation_xyz
x,y,z
-x,y,-z
-x,-y,-z
x,-y,z
1/2+x,1/2+y,z
1/2-x,1/2+y,-z
1/2-x,1/2-y,-z
1/2+x,1/2-y,z
loop_
_atom_site_type_symbol
_atom_site_label
_atom_site_fract_x
_atom_site_fract_y
_atom_site_fract_z
Si Si1 0.844267 0.500000 0.895770
Si Si2 0.665630 0.092788 0.494310
Si Si3 0.811300 0.837715 0.183908
Si Si4 0.355762 0.684213 0.362659
Si Si5 0.696348 0.355191 0.351794
Si Si6 0.189273 0.500000 0.915436
Si Si7 0.161115 0.153431 0.172133
O O1 0.774792 0.414066 0.859697
O O2 0.021877 0.500000 0.876905
O O3 0.813615 0.500000 0.989410
O O4 0.500000 0.135934 0.500000
O O5 0.770041 0.147819 0.438207
O O6 0.744845 0.078136 0.581958
O O7 0.646700 0.000000 0.454569
O O8 0.803389 0.859255 0.278847
O O9 0.736798 0.746296 0.163348
O O10 0.983538 0.834331 0.154823
O O11 0.533120 0.676887 0.378009
O O12 0.321920 0.782760 0.356444
O O13 0.690039 0.388760 0.260331
O O14 0.274530 0.586199 0.890607
#
# Coordination Sequence:
#
# PCOD8108091 Si02
#       7
#     4   8   8   8   8   4   8
#     4  11  25  43  65  94 127 164 203 249 308 371
#     4  11  24  37  52  81 117 157 200 243 294 347
#     4  10  22  41  66  95 125 163 207 254 309 367
#     4  10  21  38  60  84 114 153 197 245 296 351
#     4  10  21  38  60  84 114 153 197 245 296 351
#     4  11  25  43  65  94 127 164 203 249 308 371
#     4  10  22  41  66  95 125 163 207 254 309 367
#
# _framework density 20.753684
#
# number of rings (size 3 to 8) (size 9 to 14) (size 15 to 20)
#    0.000    1.667    0.000    3.500    2.333    7.333 
#    0.000    0.000    0.000    0.000    0.000    0.000 
#    0.000    0.000    0.000    0.000    0.000    0.000 
#
# Total GULP energy -297530.500943 kJ/mol
# GULP energy per Si atom -12397.104206 kJ/mol
# Density = 2.070645 g / cm^3
# Si number density = 20.753684 Si / 1000 Ang^3
#
#
#
# Elastic Constant Matrix: (Units=GPa)
#
#
# Indices 1 2 3 4 5 6 
#
# 1 135.0366 40.4678 39.7688 0.0000 0.8100 0.0000
# 2 40.4678 95.6195 34.7547 0.0000 2.3780 0.0000
# 3 39.7688 34.7547 77.8323 0.0000 -0.5428 0.0000
# 4 0.0000 0.0000 0.0000 32.6892 0.0000 0.9253
# 5 0.8100 2.3780 -0.5428 0.0000 33.4128 0.0000
# 6 0.0000 0.0000 0.0000 0.9253 0.0000 29.5515
#
#
#
# Elastic Compliance Matrix: (Units=1/GPa)
#
#
# Indices 1 2 3 4 5 6 
#
# 1 0.009236 -0.002615 -0.003552 0.000000 -0.000095 0.000000
# 2 -0.002615 0.013257 -0.004590 0.000000 -0.000955 0.000000
# 3 -0.003552 -0.004590 0.016717 0.000000 0.000684 0.000000
# 4 0.000000 0.000000 0.000000 0.030618 0.000000 -0.000959
# 5 -0.000095 -0.000955 0.000684 0.000000 0.030010 0.000000
# 6 0.000000 0.000000 0.000000 -0.000959 0.000000 0.033869
#
#
# Mechanical properties :
#
#
# Convention : Reuss Voigt Hill
#
# Bulk Modulus (GPa) = 56.51116 59.83013 58.17064
# Shear Modulus (GPa) = 31.03260 32.03051 31.53156
#
# Velocity S-wave (km/s) = 3.87108 3.93283 3.90208
# Velocity P-wave (km/s) = 6.87524 7.03663 6.95640
#
# Compressibility (1/GPa) = 0.01769562
#
# Stress axis : x y z
#
# Youngs Moduli (GPa) = 108.27440 75.43144 59.81804
#
# Poissons Ratio (x) = 0.19728 0.21247
# Poissons Ratio (y) = 0.28318 0.27457
# Poissons Ratio (z) = 0.38458 0.34623
#
# Static dielectric constant tensor:
#      x y z
#    x 3.974190 0.000000 0.041660 
#    y 0.000000 3.552220 0.000000 
#    z 0.041660 0.000000 3.875950 
# 
# 
# High freq. dielectric constant tensor:
#      x y z
#    x 1.831930 0.000000 0.001100 
#    y 0.000000 1.809020 0.000000 
#    z 0.001100 0.000000 1.812350 
# 
# From -- ./inp_files/255812.got.cif
#   From: 2010.06.25/outbox.cif.g09.slc.cpg/sg12_128_cif.got.tgz:255812.got - 2010.06.28 00:19:55.
