data_PCOD8108811
_publ_section_title
;
Structure prediction by ZEFSAII (Michael W. Deem and Ramdas Pophale) SiO2 
 PCOD8108811
Probable space group: C 2/M
;
_chemical_formula_sum "Si O2"
_cell_formula_units_Z 28
_cell_length_a 17.681688
_cell_length_b 7.542482
_cell_length_c 18.409295
_cell_angle_alpha 90.000000
_cell_angle_beta 142.687348
_cell_angle_gamma 90.000000
_cell_volume 1488.213816
_symmetry_space_group_name_H-M "C 2/M"
_symmetry_group_IT_number 12
_symmetry_cell_setting 'monoclinic'
loop_
_space_group_symop_operation_xyz
x,y,z
-x,y,-z
-x,-y,-z
x,-y,z
1/2+x,1/2+y,z
1/2-x,1/2+y,-z
1/2-x,1/2-y,-z
1/2+x,1/2-y,z
loop_
_atom_site_type_symbol
_atom_site_label
_atom_site_fract_x
_atom_site_fract_y
_atom_site_fract_z
Si Si1 0.473500 0.196725 0.680626
Si Si2 0.124032 0.000000 0.296592
Si Si3 0.926507 0.000000 0.016401
Si Si4 0.747904 0.300360 0.915194
Si Si5 0.096288 0.500000 0.506416
O O1 0.384830 0.325808 0.659332
O O2 0.610032 0.279656 0.778589
O O3 0.477332 0.000000 0.720921
O O4 0.425484 0.174732 0.560696
O O5 0.258048 0.000000 0.357916
O O6 0.012551 0.000000 0.153554
O O7 0.842821 0.825866 0.946674
O O8 0.000000 0.000000 0.000000
O O9 0.793973 0.500000 0.938613
O O10 0.750000 0.250000 0.000000
O O11 0.000000 0.500000 0.500000
#
# Coordination Sequence:
#
# PCOD8108811 Si02
#       5
#     8   4   4   8   4
#     4  10  21  38  68  87 122 161 213 250 304 371
#     4  12  22  42  65  94 118 169 219 245 303 384
#     4  12  27  38  63  97 139 163 199 269 321 364
#     4  12  20  39  67  96 122 165 213 252 313 385
#     4  10  25  42  65  91 126 162 203 266 324 348
#
# _framework density 18.814499999999999
#
# number of rings (size 3 to 8) (size 9 to 14) (size 15 to 20)
#    0.857    0.000    7.143    0.857    4.000    0.571 
#    0.000    0.714    0.000    0.000    0.000    0.000 
#    0.000    0.000    0.000    0.000    0.000    0.000 
#
# Total GULP energy -173536.208022 kJ/mol
# GULP energy per Si atom -12395.443430 kJ/mol
# Density = 1.877168 g / cm^3
# Si number density = 18.814500 Si / 1000 Ang^3
#
#
#
# Elastic Constant Matrix: (Units=GPa)
#
#
# Indices 1 2 3 4 5 6 
#
# 1 128.2021 55.7472 23.2182 0.0000 21.6631 0.0000
# 2 55.7472 162.8198 19.4740 0.0000 13.0546 0.0000
# 3 23.2182 19.4740 81.1133 0.0000 20.5887 0.0000
# 4 0.0000 0.0000 0.0000 24.5650 0.0000 0.4530
# 5 21.6631 13.0546 20.5887 0.0000 34.1874 0.0000
# 6 0.0000 0.0000 0.0000 0.4530 0.0000 19.7638
#
#
#
# Elastic Compliance Matrix: (Units=1/GPa)
#
#
# Indices 1 2 3 4 5 6 
#
# 1 0.010046 -0.002949 -0.000989 0.000000 -0.004644 0.000000
# 2 -0.002949 0.007281 -0.000794 0.000000 -0.000434 0.000000
# 3 -0.000989 -0.000794 0.014834 0.000000 -0.008003 0.000000
# 4 0.000000 0.000000 0.000000 0.040726 0.000000 -0.000934
# 5 -0.004644 -0.000434 -0.008003 0.000000 0.037179 0.000000
# 6 0.000000 0.000000 0.000000 -0.000934 0.000000 0.050619
#
#
# Mechanical properties :
#
#
# Convention : Reuss Voigt Hill
#
# Bulk Modulus (GPa) = 44.05765 63.22380 53.64072
# Shear Modulus (GPa) = 28.13507 33.94964 31.04235
#
# Velocity S-wave (km/s) = 3.87123 4.25248 4.06632
# Velocity P-wave (km/s) = 6.59163 7.60185 7.11469
#
# Compressibility (1/GPa) = 0.02269753
#
# Stress axis : x y z
#
# Youngs Moduli (GPa) = 99.53769 137.33992 67.41462
#
# Poissons Ratio (x) = 0.40503 0.06666
# Poissons Ratio (y) = 0.29355 0.05352
# Poissons Ratio (z) = 0.09843 0.10903
#
# Static dielectric constant tensor:
#      x y z
#    x 3.305110 0.000000 0.295200 
#    y 0.000000 3.234470 0.000000 
#    z 0.295200 0.000000 3.963270 
# 
# 
# High freq. dielectric constant tensor:
#      x y z
#    x 1.707380 0.000000 0.014850 
#    y 0.000000 1.736540 0.000000 
#    z 0.014850 0.000000 1.740770 
# 
# From -- ./inp_files/267476.got.cif
#   From: 2010.06.25/outbox.cif.g09.slc.cpg/sg12_134_cif.got.tgz:267476.got - 2010.06.28 00:19:55.
