data_PCOD8108955
_publ_section_title
;
Structure prediction by ZEFSAII (Michael W. Deem and Ramdas Pophale) SiO2 
 PCOD8108955
Probable space group: C 2/M
;
_chemical_formula_sum "Si O2"
_cell_formula_units_Z 56
_cell_length_a 8.417794
_cell_length_b 28.988199
_cell_length_c 11.113648
_cell_angle_alpha 90.000000
_cell_angle_beta 72.811579
_cell_angle_gamma 90.000000
_cell_volume 2590.796278
_symmetry_space_group_name_H-M "C 2/M"
_symmetry_group_IT_number 12
_symmetry_cell_setting 'monoclinic'
loop_
_space_group_symop_operation_xyz
x,y,z
-x,y,-z
-x,-y,-z
x,-y,z
1/2+x,1/2+y,z
1/2-x,1/2+y,-z
1/2-x,1/2-y,-z
1/2+x,1/2-y,z
loop_
_atom_site_type_symbol
_atom_site_label
_atom_site_fract_x
_atom_site_fract_y
_atom_site_fract_z
Si Si1 0.444740 0.198278 0.883244
Si Si2 0.745129 0.252138 0.253281
Si Si3 0.598628 0.090924 0.126027
Si Si4 0.465168 0.588642 0.369629
Si Si5 0.868655 0.552220 0.628017
Si Si6 0.564053 0.694806 0.619331
Si Si7 0.249412 0.946461 0.131649
O O1 0.274926 0.219004 0.861209
O O2 0.601119 0.212851 0.767556
O O3 0.429683 0.143830 0.897516
O O4 0.500000 0.218919 0.000000
O O5 0.587836 0.285386 0.270038
O O6 0.766607 0.220145 0.369767
O O7 0.639312 0.085632 0.256114
O O8 0.433429 0.061269 0.140918
O O9 0.749278 0.072564 0.006649
O O10 0.500000 0.579386 0.500000
O O11 0.317050 0.553065 0.380051
O O12 0.406428 0.641070 0.364364
O O13 0.619480 0.579733 0.246353
O O14 0.917139 0.500000 0.653287
O O15 0.000000 0.571184 0.500000
O O16 0.500000 0.706187 0.500000
O O17 0.202757 0.000000 0.141839
#
# Coordination Sequence:
#
# PCOD8108955 Si02
#       7
#     8   8   8   8   8   8   8
#     4  11  21  39  59  88 123 160 208 258 308 370
#     4  10  22  37  61  88 121 162 208 253 314 369
#     4  11  22  40  64  91 126 165 209 253 315 371
#     4  11  24  41  63  92 126 166 210 259 315 373
#     4  11  24  42  64  92 125 162 210 262 314 376
#     4  10  21  39  60  89 125 161 207 255 310 372
#     4  11  22  39  64  90 123 163 207 257 312 374
#
# _framework density 21.614978000000001
#
# number of rings (size 3 to 8) (size 9 to 14) (size 15 to 20)
#    0.000    1.286    1.429    5.571    0.000    4.000 
#    0.000    5.000    0.000    0.000    0.000    0.000 
#    0.000    0.000    0.000    0.000    0.000    0.000 
#
# Total GULP energy -346906.863434 kJ/mol
# GULP energy per Si atom -12389.530837 kJ/mol
# Density = 2.156578 g / cm^3
# Si number density = 21.614978 Si / 1000 Ang^3
#
#
#
# Elastic Constant Matrix: (Units=GPa)
#
#
# Indices 1 2 3 4 5 6 
#
# 1 74.9798 16.6411 35.7910 0.0000 4.0608 0.0000
# 2 16.6411 73.0131 21.9202 0.0000 9.5518 0.0000
# 3 35.7910 21.9202 140.9284 0.0000 4.6174 0.0000
# 4 0.0000 0.0000 0.0000 12.5677 0.0000 7.8734
# 5 4.0608 9.5518 4.6174 0.0000 42.3015 0.0000
# 6 0.0000 0.0000 0.0000 7.8734 0.0000 26.1293
#
#
#
# Elastic Compliance Matrix: (Units=1/GPa)
#
#
# Indices 1 2 3 4 5 6 
#
# 1 0.015607 -0.002412 -0.003570 0.000000 -0.000564 0.000000
# 2 -0.002412 0.015132 -0.001643 0.000000 -0.003006 0.000000
# 3 -0.003570 -0.001643 0.008264 0.000000 -0.000188 0.000000
# 4 0.000000 0.000000 0.000000 0.098085 0.000000 -0.029555
# 5 -0.000564 -0.003006 -0.000188 0.000000 0.024393 0.000000
# 6 0.000000 0.000000 0.000000 -0.029555 0.000000 0.047177
#
#
# Mechanical properties :
#
#
# Convention : Reuss Voigt Hill
#
# Bulk Modulus (GPa) = 42.09706 48.62511 45.36108
# Shear Modulus (GPa) = 21.56802 30.50432 26.03617
#
# Velocity S-wave (km/s) = 3.16227 3.76075 3.47442
# Velocity P-wave (km/s) = 5.73161 6.43448 6.09319
#
# Compressibility (1/GPa) = 0.02375463
#
# Stress axis : x y z
#
# Youngs Moduli (GPa) = 64.07463 66.08399 121.00455
#
# Poissons Ratio (x) = 0.15936 0.43199
# Poissons Ratio (y) = 0.15452 0.19878
# Poissons Ratio (z) = 0.22875 0.10856
#
# Static dielectric constant tensor:
#      x y z
#    x 3.946430 0.000000 0.264180 
#    y 0.000000 3.810810 0.000000 
#    z 0.264180 0.000000 4.211700 
# 
# 
# High freq. dielectric constant tensor:
#      x y z
#    x 1.844090 0.000000 0.014920 
#    y 0.000000 1.856630 0.000000 
#    z 0.014920 0.000000 1.850650 
# 
# From -- ./inp_files/124263.got.cif
#   From: 2010.06.25/outbox.cif.g09.slc.cpg/sg12_63_cif.got.tgz:124263.got - 2010.06.28 00:19:55.
