data_PCOD8108312
_publ_section_title
;
Structure prediction by ZEFSAII (Michael W. Deem and Ramdas Pophale) SiO2 
 PCOD8108312
Probable space group: C 2/M
;
_chemical_formula_sum "Si O2"
_cell_formula_units_Z 64
_cell_length_a 17.971537
_cell_length_b 14.133858
_cell_length_c 21.980284
_cell_angle_alpha 90.000000
_cell_angle_beta 149.806602
_cell_angle_gamma 90.000000
_cell_volume 2807.879452
_symmetry_space_group_name_H-M "C 2/M"
_symmetry_group_IT_number 12
_symmetry_cell_setting 'monoclinic'
loop_
_space_group_symop_operation_xyz
x,y,z
-x,y,-z
-x,-y,-z
x,-y,z
1/2+x,1/2+y,z
1/2-x,1/2+y,-z
1/2-x,1/2-y,-z
1/2+x,1/2-y,z
loop_
_atom_site_type_symbol
_atom_site_label
_atom_site_fract_x
_atom_site_fract_y
_atom_site_fract_z
Si Si1 0.933976 0.888472 0.386774
Si Si2 0.037154 0.698025 0.215003
Si Si3 0.459966 0.896972 0.540404
Si Si4 0.692573 0.276972 0.525038
Si Si5 0.590493 0.887892 0.125581
Si Si6 0.726458 0.895436 0.904688
Si Si7 0.460723 0.605535 0.827558
Si Si8 0.233415 0.111790 0.198774
O O1 0.764308 0.855835 0.251602
O O2 0.000000 0.858008 0.500000
O O3 0.041473 0.837591 0.414205
O O4 0.945395 0.000000 0.386381
O O5 0.186024 0.659092 0.352742
O O6 0.012241 0.657957 0.129448
O O7 0.062813 0.811574 0.237571
O O8 0.895026 0.674411 0.154738
O O9 0.500000 0.914028 0.500000
O O10 0.328184 0.823010 0.454505
O O11 0.603290 0.849073 0.672286
O O12 0.418362 0.000000 0.539638
O O13 0.750000 0.250000 0.500000
O O14 0.579312 0.000000 0.124745
O O15 0.500000 0.856625 0.000000
O O16 0.797656 0.855951 0.892090
O O17 0.654713 0.000000 0.844541
O O18 0.863503 0.904003 0.046189
O O19 0.395434 0.500000 0.763955
O O20 0.389956 0.646593 0.840659
O O21 0.232769 0.000000 0.204284
#
# Coordination Sequence:
#
# PCOD8108312 Si02
#       8
#     8   8   8   8   8   8   8   8
#     4  10  21  43  74 101 131 176 231 284 338 404
#     4  12  24  41  64  97 131 179 220 276 340 402
#     4  10  21  38  61  87 121 165 212 264 323 386
#     4  12  26  41  63  96 137 175 220 278 332 404
#     4  10  23  45  73 105 135 173 227 286 348 410
#     4  10  21  39  62  89 125 162 209 268 328 397
#     4  10  22  40  61  90 127 170 216 264 321 389
#     4   9  18  35  61  88 115 157 210 263 319 384
#
# _framework density 22.793001
#
# number of rings (size 3 to 8) (size 9 to 14) (size 15 to 20)
#    0.000    1.625    1.250    3.000    1.750    5.000 
#    4.500    0.000    0.000    0.000    0.000    0.000 
#    0.000    0.000    0.000    0.000    0.000    0.000 
#
# Total GULP energy -396465.306207 kJ/mol
# GULP energy per Si atom -12389.540819 kJ/mol
# Density = 2.274112 g / cm^3
# Si number density = 22.793001 Si / 1000 Ang^3
#
#
#
# Elastic Constant Matrix: (Units=GPa)
#
#
# Indices 1 2 3 4 5 6 
#
# 1 88.4293 37.9206 14.9582 0.0023 16.7001 0.0007
# 2 37.9206 58.1702 12.6436 0.0053 11.9042 0.0005
# 3 14.9582 12.6436 112.3287 0.0013 2.9722 0.0010
# 4 0.0023 0.0053 0.0013 26.6698 0.0006 5.8249
# 5 16.7001 11.9042 2.9722 0.0006 37.3197 0.0003
# 6 0.0007 0.0005 0.0010 5.8249 0.0003 33.7098
#
#
#
# Elastic Compliance Matrix: (Units=1/GPa)
#
#
# Indices 1 2 3 4 5 6 
#
# 1 0.016388 -0.009611 -0.000990 0.000001 -0.004189 0.000000
# 2 -0.009611 0.024450 -0.001383 -0.000004 -0.003388 0.000001
# 3 -0.000990 -0.001383 0.009186 0.000000 0.000152 0.000000
# 4 0.000001 -0.000004 0.000000 0.038966 0.000000 -0.006733
# 5 -0.004189 -0.003388 0.000152 0.000000 0.029739 0.000000
# 6 0.000000 0.000001 0.000000 -0.006733 0.000000 0.030828
#
#
# Mechanical properties :
#
#
# Convention : Reuss Voigt Hill
#
# Bulk Modulus (GPa) = 38.37636 43.33033 40.85334
# Shear Modulus (GPa) = 27.44081 32.43357 29.93719
#
# Velocity S-wave (km/s) = 3.47351 3.77631 3.62807
# Velocity P-wave (km/s) = 5.74112 6.16974 5.95928
#
# Compressibility (1/GPa) = 0.02605771
#
# Stress axis : x y z
#
# Youngs Moduli (GPa) = 61.01853 40.89955 108.86329
#
# Poissons Ratio (x) = 0.39309 0.10774
# Poissons Ratio (y) = 0.58645 0.15051
# Poissons Ratio (z) = 0.06039 0.05655
#
# Static dielectric constant tensor:
#      x y z
#    x 3.910590 -0.000020 0.135090 
#    y -0.000020 4.446330 -0.000050 
#    z 0.135090 -0.000050 4.644480 
# 
# 
# High freq. dielectric constant tensor:
#      x y z
#    x 1.878450 0.000000 0.010260 
#    y 0.000000 1.900100 0.000000 
#    z 0.010260 0.000000 1.907810 
# 
# From -- ./inp_files/344111.got.cif
#   From: 2010.06.25/outbox.cif.g09.slc.cpg/sg12_173_cif.got.tgz:344111.got - 2010.06.28 00:19:55.
