data_PCOD8108534
_publ_section_title
;
Structure prediction by ZEFSAII (Michael W. Deem and Ramdas Pophale) SiO2 
 PCOD8108534
Probable space group: C 2/M
;
_chemical_formula_sum "Si O2"
_cell_formula_units_Z 56
_cell_length_a 9.231536
_cell_length_b 14.864995
_cell_length_c 24.148897
_cell_angle_alpha 90.000000
_cell_angle_beta 54.354425
_cell_angle_gamma 90.000000
_cell_volume 2692.978426
_symmetry_space_group_name_H-M "C 2/M"
_symmetry_group_IT_number 12
_symmetry_cell_setting 'monoclinic'
loop_
_space_group_symop_operation_xyz
x,y,z
-x,y,-z
-x,-y,-z
x,-y,z
1/2+x,1/2+y,z
1/2-x,1/2+y,-z
1/2-x,1/2-y,-z
1/2+x,1/2-y,z
loop_
_atom_site_type_symbol
_atom_site_label
_atom_site_fract_x
_atom_site_fract_y
_atom_site_fract_z
Si Si1 0.047478 0.157243 0.577526
Si Si2 0.179932 0.394840 0.994856
Si Si3 0.285370 0.155562 0.425094
Si Si4 0.972620 0.900380 0.298229
Si Si5 0.566072 0.752962 0.105873
Si Si6 0.169584 0.743300 0.201348
Si Si7 0.859910 0.401194 0.698387
O O1 0.183058 0.116250 0.501650
O O2 0.119653 0.251520 0.582485
O O3 0.038305 0.093657 0.632784
O O4 0.852237 0.169010 0.594611
O O5 0.232610 0.500000 0.993918
O O6 0.157365 0.340118 0.057388
O O7 0.334534 0.341953 0.927498
O O8 0.000000 0.390155 0.000000
O O9 0.444128 0.089859 0.372271
O O10 0.783602 0.867183 0.315049
O O11 0.129116 0.835021 0.243240
O O12 0.020604 0.000000 0.266218
O O13 0.364306 0.744110 0.129902
O O14 0.542361 0.768114 0.176797
O O15 0.136810 0.661114 0.249150
O O16 0.805234 0.500000 0.731249
#
# Coordination Sequence:
#
# PCOD8108534 Si02
#       7
#     8   8   8   8   8   8   8
#     4  10  21  38  62  90 122 165 215 269 327 387
#     4  10  22  43  71 102 131 164 209 253 303 369
#     4  10  21  38  62  90 123 164 214 270 330 382
#     4  11  25  42  63  92 126 170 219 266 322 383
#     4  11  24  42  69  98 130 170 206 256 308 365
#     4  12  24  43  64  93 133 171 213 252 314 374
#     4  11  25  42  62  92 128 168 216 270 323 379
#
# _framework density 20.794817999999999
#
# number of rings (size 3 to 8) (size 9 to 14) (size 15 to 20)
#    0.000    1.286    4.286    0.857    2.000    5.143 
#    0.000    3.571    0.000    0.000    0.000    0.000 
#    0.000    0.000    0.000    0.000    0.000    0.000 
#
# Total GULP energy -347165.743789 kJ/mol
# GULP energy per Si atom -12398.776564 kJ/mol
# Density = 2.074749 g / cm^3
# Si number density = 20.794818 Si / 1000 Ang^3
#
#
#
# Elastic Constant Matrix: (Units=GPa)
#
#
# Indices 1 2 3 4 5 6 
#
# 1 79.1156 31.9474 36.9523 -0.0001 -5.2284 0.0000
# 2 31.9474 133.3950 52.0194 -0.0002 0.2992 0.0002
# 3 36.9523 52.0194 107.9953 -0.0001 4.4985 0.0000
# 4 -0.0001 -0.0002 -0.0001 -10.0320 0.0001 0.7895
# 5 -5.2284 0.2992 4.4985 0.0001 45.1301 -0.0001
# 6 0.0000 0.0002 0.0000 0.7895 -0.0001 27.4080
#
#
#
# Elastic Compliance Matrix: (Units=1/GPa)
#
#
# Indices 1 2 3 4 5 6 
#
# 1 0.015704 -0.002012 -0.004500 0.000000 0.002281 0.000000
# 2 -0.002012 0.009495 -0.003889 0.000000 0.000092 0.000000
# 3 -0.004500 -0.003889 0.012746 0.000000 -0.001766 0.000000
# 4 0.000000 0.000000 0.000000 -0.099455 0.000000 0.002865
# 5 0.002281 0.000092 -0.001766 0.000000 0.022598 0.000000
# 6 0.000000 0.000000 0.000000 0.002865 0.000000 0.036403
#
#
# Mechanical properties :
#
#
# Convention : Reuss Voigt Hill
#
# Bulk Modulus (GPa) = 58.32634 62.48270 60.40452
# Shear Modulus (GPa) = 208.28037 25.80701 117.04369
#
# Velocity S-wave (km/s) = 10.01884 3.52665 7.51047
# Velocity P-wave (km/s) = 12.72579 6.83341 10.21374
#
# Compressibility (1/GPa) = 0.01714491
#
# Stress axis : x y z
#
# Youngs Moduli (GPa) = 63.67651 105.32268 78.45556
#
# Poissons Ratio (x) = 0.21186 0.35302
# Poissons Ratio (y) = 0.12809 0.30511
# Poissons Ratio (z) = 0.28652 0.40959
#
# Static dielectric constant tensor:
#      x y z
#    x 3.865620 0.000000 -0.043240 
#    y 0.000000 3.618020 0.000000 
#    z -0.043240 0.000000 3.835030 
# 
# 
# High freq. dielectric constant tensor:
#      x y z
#    x 1.823680 0.000000 0.000680 
#    y 0.000000 1.807020 0.000000 
#    z 0.000680 0.000000 1.816410 
# 
# From -- ./inp_files/300167.got.cif
#   From: 2010.06.25/outbox.cif.g09.slc.cpg/sg12_151_cif.got.tgz:300167.got - 2010.06.28 00:19:55.
