data_PCOD8108211
_publ_section_title
;
Structure prediction by ZEFSAII (Michael W. Deem and Ramdas Pophale) SiO2 
 PCOD8108211
Probable space group: C 2/M
;
_chemical_formula_sum "Si O2"
_cell_formula_units_Z 56
_cell_length_a 24.830153
_cell_length_b 8.108083
_cell_length_c 15.893794
_cell_angle_alpha 90.000000
_cell_angle_beta 119.650520
_cell_angle_gamma 90.000000
_cell_volume 2780.830091
_symmetry_space_group_name_H-M "C 2/M"
_symmetry_group_IT_number 12
_symmetry_cell_setting 'monoclinic'
loop_
_space_group_symop_operation_xyz
x,y,z
-x,y,-z
-x,-y,-z
x,-y,z
1/2+x,1/2+y,z
1/2-x,1/2+y,-z
1/2-x,1/2-y,-z
1/2+x,1/2-y,z
loop_
_atom_site_type_symbol
_atom_site_label
_atom_site_fract_x
_atom_site_fract_y
_atom_site_fract_z
Si Si1 0.615556 0.689553 0.807261
Si Si2 0.161904 0.810403 0.027129
Si Si3 0.844904 0.810315 0.574450
Si Si4 0.479469 0.000000 0.851445
Si Si5 0.475668 0.307092 0.732209
Si Si6 0.903006 0.500000 0.959609
Si Si7 0.279741 0.817229 0.218178
Si Si8 0.752503 0.689981 0.629487
O O1 0.629804 0.500000 0.804302
O O2 0.542348 0.727856 0.741383
O O3 0.650669 0.781565 0.759053
O O4 0.643773 0.743194 0.918933
O O5 0.134288 0.672201 0.067831
O O6 0.235365 0.798603 0.101958
O O7 0.138296 0.000000 0.027059
O O8 0.918475 0.769746 0.624646
O O9 0.817047 0.766542 0.645177
O O10 0.804996 0.726997 0.467793
O O11 0.836774 0.000000 0.553184
O O12 0.464820 0.826660 0.795948
O O13 0.438792 0.000000 0.901602
O O14 0.552138 0.000000 0.925761
O O15 0.473428 0.500000 0.762763
O O16 0.257325 0.706804 0.278484
O O17 0.277335 0.000000 0.252990
O O18 0.758529 0.500000 0.613502
#
# Coordination Sequence:
#
# PCOD8108211 Si02
#       8
#     8   8   8   4   8   4   8   8
#     4  10  21  40  60  83 114 154 201 243 291 346
#     4  10  23  40  58  86 119 158 200 243 296 351
#     4   9  20  39  62  86 118 154 189 240 300 354
#     4  11  24  38  58  94 116 163 201 236 297 355
#     4  10  22  40  62  87 118 158 199 243 292 356
#     4  11  24  38  60  86 127 156 197 247 293 350
#     4  11  24  37  58  86 118 155 194 248 298 344
#     4  10  21  38  60  89 119 150 192 241 297 356
#
# _framework density 20.137869999999999
#
# number of rings (size 3 to 8) (size 9 to 14) (size 15 to 20)
#    0.000    1.857    1.429    1.286    7.000    1.143 
#    0.000    2.143    0.000    4.286    0.000    0.000 
#    0.000    0.000    0.000    0.000    0.000    0.000 
#
# Total GULP energy -346891.316125 kJ/mol
# GULP energy per Si atom -12388.975576 kJ/mol
# Density = 2.009204 g / cm^3
# Si number density = 20.137870 Si / 1000 Ang^3
#
#
#
# Elastic Constant Matrix: (Units=GPa)
#
#
# Indices 1 2 3 4 5 6 
#
# 1 109.5110 16.6546 52.3260 0.0000 20.4220 0.0000
# 2 16.6546 48.3525 5.4925 0.0000 10.1947 0.0000
# 3 52.3260 5.4925 70.3702 0.0000 12.8279 0.0000
# 4 0.0000 0.0000 0.0000 22.3331 0.0000 -1.4358
# 5 20.4220 10.1947 12.8279 0.0000 27.1884 0.0000
# 6 0.0000 0.0000 0.0000 -1.4358 0.0000 29.0452
#
#
#
# Elastic Compliance Matrix: (Units=1/GPa)
#
#
# Indices 1 2 3 4 5 6 
#
# 1 0.015577 -0.002989 -0.010308 0.000000 -0.005716 0.000000
# 2 -0.002989 0.023034 0.001740 0.000000 -0.007212 0.000000
# 3 -0.010308 0.001740 0.022371 0.000000 -0.003465 0.000000
# 4 0.000000 0.000000 0.000000 0.044919 0.000000 0.002221
# 5 -0.005716 -0.007212 -0.003465 0.000000 0.045413 0.000000
# 6 0.000000 0.000000 0.000000 0.002221 0.000000 0.034539
#
#
# Mechanical properties :
#
#
# Convention : Reuss Voigt Hill
#
# Bulk Modulus (GPa) = 26.40755 41.90887 34.15821
# Shear Modulus (GPa) = 22.56409 25.96405 24.26407
#
# Velocity S-wave (km/s) = 3.35099 3.59460 3.47493
# Velocity P-wave (km/s) = 5.30227 6.17125 5.75319
#
# Compressibility (1/GPa) = 0.03786796
#
# Stress axis : x y z
#
# Youngs Moduli (GPa) = 64.19606 43.41380 44.70085
#
# Poissons Ratio (x) = 0.12978 0.46076
# Poissons Ratio (y) = 0.19190 -0.07777
# Poissons Ratio (z) = 0.66171 -0.07553
#
# Static dielectric constant tensor:
#      x y z
#    x 3.635470 0.000000 0.494150 
#    y 0.000000 3.785300 0.000000 
#    z 0.494150 0.000000 3.914870 
# 
# 
# High freq. dielectric constant tensor:
#      x y z
#    x 1.777340 0.000000 0.022350 
#    y 0.000000 1.796660 0.000000 
#    z 0.022350 0.000000 1.772180 
# 
# From -- ./inp_files/239054.got.cif
#   From: 2010.06.25/outbox.cif.g09.slc.cpg/sg12_120_cif.got.tgz:239054.got - 2010.06.28 00:19:55.
