data_PCOD8108694
_publ_section_title
;
Structure prediction by ZEFSAII (Michael W. Deem and Ramdas Pophale) SiO2 
 PCOD8108694
Probable space group: C 2/M
;
_chemical_formula_sum "Si O2"
_cell_formula_units_Z 56
_cell_length_a 20.097358
_cell_length_b 18.308369
_cell_length_c 7.633941
_cell_angle_alpha 90.000000
_cell_angle_beta 113.675350
_cell_angle_gamma 90.000000
_cell_volume 2572.496949
_symmetry_space_group_name_H-M "C 2/M"
_symmetry_group_IT_number 12
_symmetry_cell_setting 'monoclinic'
loop_
_space_group_symop_operation_xyz
x,y,z
-x,y,-z
-x,-y,-z
x,-y,z
1/2+x,1/2+y,z
1/2-x,1/2+y,-z
1/2-x,1/2-y,-z
1/2+x,1/2-y,z
loop_
_atom_site_type_symbol
_atom_site_label
_atom_site_fract_x
_atom_site_fract_y
_atom_site_fract_z
Si Si1 0.345895 0.416186 0.445731
Si Si2 0.660056 0.660467 0.904251
Si Si3 0.702359 0.917380 0.853214
Si Si4 0.580164 0.351897 0.157980
Si Si5 0.192428 0.417075 0.434926
Si Si6 0.426891 0.201322 0.666277
Si Si7 0.911385 0.693396 0.241238
O O1 0.343821 0.500000 0.390214
O O2 0.375876 0.371500 0.310497
O O3 0.402744 0.406365 0.664463
O O4 0.264066 0.389433 0.408108
O O5 0.642360 0.746380 0.899311
O O6 0.744359 0.638164 0.989779
O O7 0.629857 0.623832 0.048500
O O8 0.715360 0.913685 0.660877
O O9 0.622169 0.887449 0.813348
O O10 0.710237 0.000000 0.933296
O O11 0.597679 0.270702 0.247040
O O12 0.500000 0.360397 0.000000
O O13 0.171344 0.500000 0.360319
O O14 0.122643 0.366259 0.320322
O O15 0.417687 0.215359 0.450840
O O16 0.513171 0.189054 0.785735
#
# Coordination Sequence:
#
# PCOD8108694 Si02
#       7
#     8   8   8   8   8   8   8
#     4  11  25  45  68  96 131 168 214 267 323 388
#     4  12  23  41  68  96 131 171 214 267 323 378
#     4  10  21  38  63  99 133 171 220 267 318 382
#     4  12  25  43  70  94 129 168 214 270 323 385
#     4   9  20  40  66  95 132 173 214 263 323 384
#     4  10  21  40  64  96 132 172 215 266 320 383
#     4  10  21  38  65  95 134 172 216 267 320 379
#
# _framework density 21.768733999999998
#
# number of rings (size 3 to 8) (size 9 to 14) (size 15 to 20)
#    0.000    1.429    4.286    0.857    0.000    4.857 
#    0.000    3.571    0.000    0.429    0.000    0.000 
#    0.000    0.000    0.000    0.000    0.000    0.000 
#
# Total GULP energy -347107.482429 kJ/mol
# GULP energy per Si atom -12396.695801 kJ/mol
# Density = 2.171919 g / cm^3
# Si number density = 21.768734 Si / 1000 Ang^3
#
#
#
# Elastic Constant Matrix: (Units=GPa)
#
#
# Indices 1 2 3 4 5 6 
#
# 1 71.3230 49.6961 48.3785 0.0000 6.3492 0.0000
# 2 49.6961 97.3915 33.4328 0.0000 19.9641 0.0000
# 3 48.3785 33.4328 77.8131 0.0000 -1.4481 0.0000
# 4 0.0000 0.0000 0.0000 22.8823 0.0000 6.6260
# 5 6.3492 19.9641 -1.4481 0.0000 39.8626 0.0000
# 6 0.0000 0.0000 0.0000 6.6260 0.0000 28.1848
#
#
#
# Elastic Compliance Matrix: (Units=1/GPa)
#
#
# Indices 1 2 3 4 5 6 
#
# 1 0.032074 -0.011149 -0.015152 0.000000 -0.000075 0.000000
# 2 -0.011149 0.017690 -0.000801 0.000000 -0.007113 0.000000
# 3 -0.015152 -0.000801 0.022684 0.000000 0.003639 0.000000
# 4 0.000000 0.000000 0.000000 0.046894 0.000000 -0.011024
# 5 -0.000075 -0.007113 0.003639 0.000000 0.028793 0.000000
# 6 0.000000 0.000000 0.000000 -0.011024 0.000000 0.038072
#
#
# Mechanical properties :
#
#
# Convention : Reuss Voigt Hill
#
# Bulk Modulus (GPa) = 54.81779 56.61583 55.71681
# Shear Modulus (GPa) = 20.28460 25.85396 23.06928
#
# Velocity S-wave (km/s) = 3.05589 3.44999 3.25890
# Velocity P-wave (km/s) = 6.13904 6.47566 6.30960
#
# Compressibility (1/GPa) = 0.01824225
#
# Stress axis : x y z
#
# Youngs Moduli (GPa) = 31.17811 56.52855 44.08457
#
# Poissons Ratio (x) = 0.63026 0.66797
# Poissons Ratio (y) = 0.34762 0.03532
# Poissons Ratio (z) = 0.47241 0.04529
#
# Static dielectric constant tensor:
#      x y z
#    x 3.975510 0.000000 -0.059290 
#    y 0.000000 3.819720 0.000000 
#    z -0.059290 0.000000 3.989850 
# 
# 
# High freq. dielectric constant tensor:
#      x y z
#    x 1.850860 0.000000 -0.006590 
#    y 0.000000 1.844340 0.000000 
#    z -0.006590 0.000000 1.862470 
# 
# From -- ./inp_files/88070.got.cif
#   From: 2010.06.25/outbox.cif.g09.slc.cpg/sg12_45_cif.got.tgz:88070.got - 2010.06.28 00:19:55.
