data_PCOD8108567
_publ_section_title
;
Structure prediction by ZEFSAII (Michael W. Deem and Ramdas Pophale) SiO2 
 PCOD8108567
Probable space group: C 2/M
;
_chemical_formula_sum "Si O2"
_cell_formula_units_Z 56
_cell_length_a 18.883722
_cell_length_b 8.788300
_cell_length_c 24.909606
_cell_angle_alpha 90.000000
_cell_angle_beta 135.213079
_cell_angle_gamma 90.000000
_cell_volume 2912.213429
_symmetry_space_group_name_H-M "C 2/M"
_symmetry_group_IT_number 12
_symmetry_cell_setting 'monoclinic'
loop_
_space_group_symop_operation_xyz
x,y,z
-x,y,-z
-x,-y,-z
x,-y,z
1/2+x,1/2+y,z
1/2-x,1/2+y,-z
1/2-x,1/2-y,-z
1/2+x,1/2-y,z
loop_
_atom_site_type_symbol
_atom_site_label
_atom_site_fract_x
_atom_site_fract_y
_atom_site_fract_z
Si Si1 0.492717 0.324296 0.437764
Si Si2 0.908250 0.324452 0.911322
Si Si3 0.803113 0.336652 0.309047
Si Si4 0.991863 0.319437 0.736624
Si Si5 0.917297 0.823357 0.801108
Si Si6 0.211865 0.333065 0.823582
Si Si7 0.641697 0.682266 0.427527
O O1 0.500000 0.244734 0.500000
O O2 0.518135 0.500000 0.456472
O O3 0.378824 0.301346 0.357985
O O4 0.569815 0.254333 0.436408
O O5 0.894590 0.500000 0.889264
O O6 0.933097 0.237113 0.869683
O O7 0.807692 0.271391 0.889680
O O8 0.000000 0.293632 0.000000
O O9 0.846860 0.500000 0.353294
O O10 0.697661 0.300823 0.280910
O O11 0.778945 0.353568 0.234342
O O12 0.982560 0.500000 0.724302
O O13 0.982009 0.272174 0.793365
O O14 0.905205 0.241715 0.653581
O O15 0.103349 0.261078 0.779803
O O16 0.948927 0.000000 0.816524
O O17 0.222305 0.500000 0.856805
O O18 0.647360 0.500000 0.428172
O O19 0.750000 0.750000 0.500000
#
# Coordination Sequence:
#
# PCOD8108567 Si02
#       7
#     8   8   8   8   8   8   8
#     4  10  22  37  53  77 107 142 190 239 286 341
#     4  10  21  38  62  92 122 153 192 236 284 342
#     4   9  18  35  55  78 106 141 185 233 284 339
#     4  11  22  39  61  85 117 155 197 246 295 348
#     4  10  22  38  58  88 119 151 194 237 288 348
#     4   9  19  36  59  85 114 150 191 234 288 346
#     4  11  24  40  57  81 115 156 198 245 300 352
#
# _framework density 19.22936
#
# number of rings (size 3 to 8) (size 9 to 14) (size 15 to 20)
#    0.000    2.000    1.429    2.571    2.000    6.000 
#    0.000    0.714    0.000    0.000    0.000    0.000 
#    0.000    0.000    0.000    0.000    0.000    0.000 
#
# Total GULP energy -347019.763203 kJ/mol
# GULP energy per Si atom -12393.562972 kJ/mol
# Density = 1.918559 g / cm^3
# Si number density = 19.229360 Si / 1000 Ang^3
#
#
#
# Elastic Constant Matrix: (Units=GPa)
#
#
# Indices 1 2 3 4 5 6 
#
# 1 100.7471 35.2028 40.4648 0.0000 5.7546 0.0000
# 2 35.2028 74.5059 42.9401 0.0000 5.6208 0.0000
# 3 40.4648 42.9401 100.8727 0.0000 15.2126 0.0000
# 4 0.0000 0.0000 0.0000 31.3276 0.0000 0.7543
# 5 5.7546 5.6208 15.2126 0.0000 28.0704 0.0000
# 6 0.0000 0.0000 0.0000 0.7543 0.0000 23.6468
#
#
#
# Elastic Compliance Matrix: (Units=1/GPa)
#
#
# Indices 1 2 3 4 5 6 
#
# 1 0.012696 -0.004059 -0.003371 0.000000 0.000037 0.000000
# 2 -0.004059 0.019092 -0.006586 0.000000 0.000578 0.000000
# 3 -0.003371 -0.006586 0.014991 0.000000 -0.006115 0.000000
# 4 0.000000 0.000000 0.000000 0.031945 0.000000 -0.001019
# 5 0.000037 0.000578 -0.006115 0.000000 0.038815 0.000000
# 6 0.000000 0.000000 0.000000 -0.001019 0.000000 0.042322
#
#
# Mechanical properties :
#
#
# Convention : Reuss Voigt Hill
#
# Bulk Modulus (GPa) = 53.33974 57.03789 55.18882
# Shear Modulus (GPa) = 25.75452 27.11018 26.43235
#
# Velocity S-wave (km/s) = 3.66366 3.75885 3.71156
# Velocity P-wave (km/s) = 6.75984 6.96885 6.86514
#
# Compressibility (1/GPa) = 0.01874775
#
# Stress axis : x y z
#
# Youngs Moduli (GPa) = 78.76667 52.37915 66.70496
#
# Poissons Ratio (x) = 0.21259 0.22484
# Poissons Ratio (y) = 0.31969 0.43933
# Poissons Ratio (z) = 0.26550 0.34498
#
# Static dielectric constant tensor:
#      x y z
#    x 3.718850 0.000000 0.148540 
#    y 0.000000 3.592380 0.000000 
#    z 0.148540 0.000000 3.396470 
# 
# 
# High freq. dielectric constant tensor:
#      x y z
#    x 1.753890 0.000000 0.010180 
#    y 0.000000 1.749130 0.000000 
#    z 0.010180 0.000000 1.732890 
# 
# From -- ./inp_files/363135.got.cif
#   From: 2010.06.25/outbox.cif.g09.slc.cpg/sg12_182_cif.got.tgz:363135.got - 2010.06.28 00:19:55.
