data_PCOD8108488
_publ_section_title
;
Structure prediction by ZEFSAII (Michael W. Deem and Ramdas Pophale) SiO2 
 PCOD8108488
Probable space group: C 2/M
;
_chemical_formula_sum "Si O2"
_cell_formula_units_Z 48
_cell_length_a 22.841819
_cell_length_b 8.957359
_cell_length_c 12.088664
_cell_angle_alpha 90.000000
_cell_angle_beta 70.368827
_cell_angle_gamma 90.000000
_cell_volume 2329.604262
_symmetry_space_group_name_H-M "C 2/M"
_symmetry_group_IT_number 12
_symmetry_cell_setting 'monoclinic'
loop_
_space_group_symop_operation_xyz
x,y,z
-x,y,-z
-x,-y,-z
x,-y,z
1/2+x,1/2+y,z
1/2-x,1/2+y,-z
1/2-x,1/2-y,-z
1/2+x,1/2-y,z
loop_
_atom_site_type_symbol
_atom_site_label
_atom_site_fract_x
_atom_site_fract_y
_atom_site_fract_z
Si Si1 0.258312 0.669683 0.610100
Si Si2 0.815771 0.829210 0.964594
Si Si3 0.901534 0.832287 0.526716
Si Si4 0.445054 0.176120 0.282582
Si Si5 0.845219 0.827751 0.194823
Si Si6 0.569607 0.324743 0.247103
O O1 0.234161 0.500000 0.615074
O O2 0.250000 0.750000 0.500000
O O3 0.329218 0.675061 0.602539
O O4 0.219396 0.755090 0.727108
O O5 0.864585 0.766181 0.843006
O O6 0.800953 0.000000 0.948434
O O7 0.750000 0.750000 0.000000
O O8 0.849380 0.809106 0.061009
O O9 0.918506 0.717852 0.419956
O O10 0.936767 0.791280 0.617848
O O11 0.919681 0.000000 0.476198
O O12 0.403100 0.245409 0.213297
O O13 0.514405 0.237271 0.221716
O O14 0.444759 0.000000 0.270400
O O15 0.846079 0.000000 0.231631
O O16 0.562882 0.500000 0.226195
#
# Coordination Sequence:
#
# PCOD8108488 Si02
#       6
#     8   8   8   8   8   8
#     4  11  21  35  59  91 123 158 200 247 301 357
#     4  10  23  43  68  94 121 158 201 251 304 363
#     4  10  21  38  62  88 121 162 201 247 304 367
#     4  12  25  39  59  89 123 160 204 256 308 358
#     4  11  23  40  62  90 125 163 204 249 303 364
#     4  10  22  42  64  87 119 162 205 246 303 367
#
# _framework density 20.604357
#
# number of rings (size 3 to 8) (size 9 to 14) (size 15 to 20)
#    0.000    1.333    1.667    4.000    0.000    7.333 
#    0.000    3.333    0.000    0.000    0.000    0.000 
#    0.000    0.000    0.000    0.000    0.000    0.000 
#
# Total GULP energy -297702.999045 kJ/mol
# GULP energy per Si atom -12404.291627 kJ/mol
# Density = 2.055746 g / cm^3
# Si number density = 20.604357 Si / 1000 Ang^3
#
#
#
# Elastic Constant Matrix: (Units=GPa)
#
#
# Indices 1 2 3 4 5 6 
#
# 1 123.9906 56.7213 28.7089 0.0000 -7.8868 0.0000
# 2 56.7213 128.2970 40.1067 0.0000 -0.7264 0.0000
# 3 28.7089 40.1067 80.5731 0.0000 -9.0492 0.0000
# 4 0.0000 0.0000 0.0000 25.9951 0.0000 -6.0096
# 5 -7.8868 -0.7264 -9.0492 0.0000 30.6270 0.0000
# 6 0.0000 0.0000 0.0000 -6.0096 0.0000 34.4193
#
#
#
# Elastic Compliance Matrix: (Units=1/GPa)
#
#
# Indices 1 2 3 4 5 6 
#
# 1 0.010432 -0.004162 -0.001401 0.000000 0.002174 0.000000
# 2 -0.004162 0.010932 -0.004189 0.000000 -0.002050 0.000000
# 3 -0.001401 -0.004189 0.015457 0.000000 0.004107 0.000000
# 4 0.000000 0.000000 0.000000 0.040087 0.000000 0.006999
# 5 0.002174 -0.002050 0.004107 0.000000 0.034375 0.000000
# 6 0.000000 0.000000 0.000000 0.006999 0.000000 0.030275
#
#
# Mechanical properties :
#
#
# Convention : Reuss Voigt Hill
#
# Bulk Modulus (GPa) = 57.74776 64.88161 61.31468
# Shear Modulus (GPa) = 29.96978 32.02986 30.99982
#
# Velocity S-wave (km/s) = 3.81798 3.94702 3.88303
# Velocity P-wave (km/s) = 6.89375 7.23392 7.06588
#
# Compressibility (1/GPa) = 0.01731669
#
# Stress axis : x y z
#
# Youngs Moduli (GPa) = 95.86263 91.47254 64.69624
#
# Poissons Ratio (x) = 0.38067 0.09066
# Poissons Ratio (y) = 0.39894 0.27102
# Poissons Ratio (z) = 0.13433 0.38319
#
# Static dielectric constant tensor:
#      x y z
#    x 3.951720 0.000000 -0.047940 
#    y 0.000000 4.484230 0.000000 
#    z -0.047940 0.000000 3.663750 
# 
# 
# High freq. dielectric constant tensor:
#      x y z
#    x 1.821990 0.000000 -0.000940 
#    y 0.000000 1.800460 0.000000 
#    z -0.000940 0.000000 1.806390 
# 
# From -- ./inp_files/172905.got.cif
#   From: 2010.06.25/outbox.cif.g09.slc.cpg/sg12_87_cif.got.tgz:172905.got - 2010.06.28 00:19:55.
