data_PCOD8108431
_publ_section_title
;
Structure prediction by ZEFSAII (Michael W. Deem and Ramdas Pophale) SiO2 
 PCOD8108431
Probable space group: C 2/M
;
_chemical_formula_sum "Si O2"
_cell_formula_units_Z 48
_cell_length_a 18.540763
_cell_length_b 12.011199
_cell_length_c 10.316812
_cell_angle_alpha 90.000000
_cell_angle_beta 72.213128
_cell_angle_gamma 90.000000
_cell_volume 2187.698101
_symmetry_space_group_name_H-M "C 2/M"
_symmetry_group_IT_number 12
_symmetry_cell_setting 'monoclinic'
loop_
_space_group_symop_operation_xyz
x,y,z
-x,y,-z
-x,-y,-z
x,-y,z
1/2+x,1/2+y,z
1/2-x,1/2+y,-z
1/2-x,1/2-y,-z
1/2+x,1/2-y,z
loop_
_atom_site_type_symbol
_atom_site_label
_atom_site_fract_x
_atom_site_fract_y
_atom_site_fract_z
Si Si1 0.347304 0.731531 0.548774
Si Si2 0.446072 0.500000 0.729763
Si Si3 0.073927 0.758259 0.227296
Si Si4 0.891222 0.000000 0.484632
Si Si5 0.209922 0.275514 0.805769
Si Si6 0.583871 0.866549 0.708538
Si Si7 0.784550 0.377211 0.941923
O O1 0.409812 0.735587 0.628105
O O2 0.351151 0.615668 0.464284
O O3 0.262393 0.737606 0.650435
O O4 0.367424 0.835145 0.445400
O O5 0.436148 0.386093 0.818766
O O6 0.386992 0.500000 0.643544
O O7 0.527858 0.500000 0.622500
O O8 0.142454 0.701437 0.114200
O O9 0.999395 0.684687 0.247483
O O10 0.126048 0.311655 0.809505
O O11 0.215937 0.159978 0.884038
O O12 0.240969 0.367886 0.893088
O O13 0.580220 0.000000 0.723389
O O14 0.808386 0.500000 0.890464
#
# Coordination Sequence:
#
# PCOD8108431 Si02
#       7
#     8   4   8   4   8   8   8
#     4  10  21  38  61  91 125 167 206 247 309 373
#     4   9  16  34  58  90 121 156 208 243 298 366
#     4  10  21  39  64  96 124 167 208 255 308 366
#     4   9  16  30  60  85 114 160 204 248 288 363
#     4  10  24  43  60  93 124 164 209 254 316 372
#     4  12  24  38  61  96 132 163 203 258 317 370
#     4  10  22  45  69  89 118 164 217 261 307 370
#
# _framework density 21.940868999999999
#
# number of rings (size 3 to 8) (size 9 to 14) (size 15 to 20)
#    0.000    1.833    1.667    2.000    2.333    4.667 
#   13.500    1.667    0.000    1.000    0.000    0.000 
#    0.000    0.000    0.000    0.000    0.000    0.000 
#
# Total GULP energy -297352.032885 kJ/mol
# GULP energy per Si atom -12389.668037 kJ/mol
# Density = 2.189093 g / cm^3
# Si number density = 21.940869 Si / 1000 Ang^3
#
#
#
# Elastic Constant Matrix: (Units=GPa)
#
#
# Indices 1 2 3 4 5 6 
#
# 1 94.9574 48.2441 8.0661 0.0000 0.7646 0.0000
# 2 48.2441 170.6363 41.9839 0.0000 -15.7210 0.0000
# 3 8.0661 41.9839 51.2371 0.0000 -1.0052 0.0000
# 4 0.0000 0.0000 0.0000 19.3425 0.0000 -5.1892
# 5 0.7646 -15.7210 -1.0052 0.0000 20.7068 0.0000
# 6 0.0000 0.0000 0.0000 -5.1892 0.0000 28.4430
#
#
#
# Elastic Compliance Matrix: (Units=1/GPa)
#
#
# Indices 1 2 3 4 5 6 
#
# 1 0.012596 -0.004245 0.001425 0.000000 -0.003619 0.000000
# 2 -0.004245 0.009398 -0.006896 0.000000 0.006957 0.000000
# 3 0.001425 -0.006896 0.024864 0.000000 -0.004081 0.000000
# 4 0.000000 0.000000 0.000000 0.054360 0.000000 0.009918
# 5 -0.003619 0.006957 -0.004081 0.000000 0.053511 0.000000
# 6 0.000000 0.000000 0.000000 0.009918 0.000000 0.036967
#
#
# Mechanical properties :
#
#
# Convention : Reuss Voigt Hill
#
# Bulk Modulus (GPa) = 36.46415 57.04658 46.75537
# Shear Modulus (GPa) = 22.69919 28.26757 25.48338
#
# Velocity S-wave (km/s) = 3.21995 3.59326 3.41171
# Velocity P-wave (km/s) = 5.52082 6.57814 6.07254
#
# Compressibility (1/GPa) = 0.02742420
#
# Stress axis : x y z
#
# Youngs Moduli (GPa) = 79.39037 106.40031 40.21936
#
# Poissons Ratio (x) = 0.45169 -0.05730
# Poissons Ratio (y) = 0.33703 0.27737
# Poissons Ratio (z) = -0.11310 0.73377
#
# Static dielectric constant tensor:
#      x y z
#    x 3.893570 0.000000 0.064050 
#    y 0.000000 4.178760 0.000000 
#    z 0.064050 0.000000 3.812260 
# 
# 
# High freq. dielectric constant tensor:
#      x y z
#    x 1.852340 0.000000 -0.010480 
#    y 0.000000 1.869640 0.000000 
#    z -0.010480 0.000000 1.847960 
# 
# From -- ./inp_files/154235.got.cif
#   From: 2010.06.25/outbox.cif.g09.slc.cpg/sg12_78_cif.got.tgz:154235.got - 2010.06.28 00:19:55.
