data_PCOD8108784
_publ_section_title
;
Structure prediction by ZEFSAII (Michael W. Deem and Ramdas Pophale) SiO2 
 PCOD8108784
Probable space group: C 2/M
;
_chemical_formula_sum "Si O2"
_cell_formula_units_Z 64
_cell_length_a 22.586600
_cell_length_b 16.602952
_cell_length_c 25.230482
_cell_angle_alpha 90.000000
_cell_angle_beta 161.615110
_cell_angle_gamma 90.000000
_cell_volume 2984.157508
_symmetry_space_group_name_H-M "C 2/M"
_symmetry_group_IT_number 12
_symmetry_cell_setting 'monoclinic'
loop_
_space_group_symop_operation_xyz
x,y,z
-x,y,-z
-x,-y,-z
x,-y,z
1/2+x,1/2+y,z
1/2-x,1/2+y,-z
1/2-x,1/2-y,-z
1/2+x,1/2-y,z
loop_
_atom_site_type_symbol
_atom_site_label
_atom_site_fract_x
_atom_site_fract_y
_atom_site_fract_z
Si Si1 0.199057 0.091793 0.150909
Si Si2 0.030232 0.690789 0.681487
Si Si3 0.792448 0.406834 0.916382
Si Si4 0.693031 0.170571 0.248465
Si Si5 0.478408 0.337661 0.397641
Si Si6 0.301687 0.840852 0.343059
Si Si7 0.379719 0.696607 0.145871
Si Si8 0.798304 0.906418 0.630584
O O1 0.274062 0.145268 0.165455
O O2 0.311806 0.098756 0.301363
O O3 0.190529 0.000000 0.123541
O O4 0.000000 0.126740 0.000000
O O5 0.987620 0.746749 0.594241
O O6 0.029167 0.743118 0.733687
O O7 0.871629 0.622118 0.551731
O O8 0.827306 0.500000 0.951037
O O9 0.606315 0.390510 0.722569
O O10 0.748648 0.371076 0.936610
O O11 0.990887 0.369235 0.067170
O O12 0.812756 0.152532 0.298522
O O13 0.654720 0.266798 0.220581
O O14 0.816838 0.136535 0.404297
O O15 0.500000 0.794878 0.500000
O O16 0.269041 0.896833 0.366178
O O17 0.528736 0.651334 0.235737
O O18 0.250000 0.750000 0.000000
O O19 0.845199 0.000000 0.659102
#
# Coordination Sequence:
#
# PCOD8108784 Si02
#       8
#     8   8   8   8   8   8   8   8
#     4  11  24  37  59 103 146 175 209 268 344 408
#     4  11  22  42  68  93 130 175 226 271 326 402
#     4  11  26  44  65  95 132 172 224 285 344 391
#     4  11  19  38  67  98 133 178 220 270 323 408
#     4  10  21  38  65  98 132 174 220 268 327 406
#     4  12  21  39  67  99 137 172 219 262 331 409
#     4  11  27  47  71  92 121 176 231 281 330 407
#     4  12  24  42  68  98 136 173 219 278 336 397
#
# _framework density 21.446587999999998
#
# number of rings (size 3 to 8) (size 9 to 14) (size 15 to 20)
#    0.000    0.875    5.000    2.625    5.250    2.000 
#    0.000    3.125    0.000    0.000    0.000    0.000 
#    0.000    0.000    0.000    0.000    0.000    0.000 
#
# Total GULP energy -396477.118993 kJ/mol
# GULP energy per Si atom -12389.909969 kJ/mol
# Density = 2.139777 g / cm^3
# Si number density = 21.446588 Si / 1000 Ang^3
#
#
#
# Elastic Constant Matrix: (Units=GPa)
#
#
# Indices 1 2 3 4 5 6 
#
# 1 92.3613 36.4841 29.7424 0.0200 5.0168 0.0461
# 2 36.4841 124.7978 42.0982 0.0870 4.8599 0.0533
# 3 29.7424 42.0982 87.1184 -0.2530 5.2029 -0.0761
# 4 0.0200 0.0870 -0.2530 13.0160 -0.0163 -17.6817
# 5 5.0168 4.8599 5.2029 -0.0163 32.2739 0.0000
# 6 0.0461 0.0533 -0.0761 -17.6817 0.0000 -14.4526
#
#
#
# Elastic Compliance Matrix: (Units=1/GPa)
#
#
# Indices 1 2 3 4 5 6 
#
# 1 0.012938 -0.002714 -0.003039 0.000001 -0.001113 0.000046
# 2 -0.002714 0.010159 -0.003954 -0.000028 -0.000470 0.000084
# 3 -0.003039 -0.003954 0.014503 0.000066 -0.001270 -0.000181
# 4 0.000001 -0.000028 0.000066 0.028862 0.000008 -0.035311
# 5 -0.001113 -0.000470 -0.001270 0.000008 0.031433 -0.000008
# 6 0.000046 0.000084 -0.000181 -0.035311 -0.000008 -0.025990
#
#
# Mechanical properties :
#
#
# Convention : Reuss Voigt Hill
#
# Bulk Modulus (GPa) = 54.99071 57.88074 56.43572
# Shear Modulus (GPa) = 51.34480 19.23100 35.28790
#
# Velocity S-wave (km/s) = 4.89824 2.99773 4.06074
# Velocity P-wave (km/s) = 7.59518 6.24730 6.95397
#
# Compressibility (1/GPa) = 0.01818489
#
# Stress axis : x y z
#
# Youngs Moduli (GPa) = 77.29071 98.43904 68.95155
#
# Poissons Ratio (x) = 0.26715 0.20956
# Poissons Ratio (y) = 0.20976 0.27266
# Poissons Ratio (z) = 0.23490 0.38926
#
# Static dielectric constant tensor:
#      x y z
#    x 4.015890 0.000030 -0.215960 
#    y 0.000030 3.731980 -0.000300 
#    z -0.215960 -0.000300 4.530230 
# 
# 
# High freq. dielectric constant tensor:
#      x y z
#    x 1.838250 -0.000010 0.002260 
#    y -0.000010 1.834930 -0.000050 
#    z 0.002260 -0.000050 1.844350 
# 
# From -- ./inp_files/347888.got.cif
#   From: 2010.06.25/outbox.cif.g09.slc.cpg/sg12_174_cif.got.tgz:347888.got - 2010.06.28 00:19:55.
