data_PCOD8108321
_publ_section_title
;
Structure prediction by ZEFSAII (Michael W. Deem and Ramdas Pophale) SiO2 
 PCOD8108321
Probable space group: C 2/M
;
_chemical_formula_sum "Si O2"
_cell_formula_units_Z 64
_cell_length_a 13.003971
_cell_length_b 14.549240
_cell_length_c 26.726874
_cell_angle_alpha 90.000000
_cell_angle_beta 138.917605
_cell_angle_gamma 90.000000
_cell_volume 3322.957570
_symmetry_space_group_name_H-M "C 2/M"
_symmetry_group_IT_number 12
_symmetry_cell_setting 'monoclinic'
loop_
_space_group_symop_operation_xyz
x,y,z
-x,y,-z
-x,-y,-z
x,-y,z
1/2+x,1/2+y,z
1/2-x,1/2+y,-z
1/2-x,1/2-y,-z
1/2+x,1/2-y,z
loop_
_atom_site_type_symbol
_atom_site_label
_atom_site_fract_x
_atom_site_fract_y
_atom_site_fract_z
Si Si1 0.915996 0.255800 0.168850
Si Si2 0.981797 0.899511 0.437233
Si Si3 0.393722 0.894504 0.074746
Si Si4 0.694639 0.162645 0.450607
Si Si5 0.213431 0.274665 0.343728
Si Si6 0.083270 0.745639 0.083389
Si Si7 0.083502 0.604313 0.582916
Si Si8 0.060352 0.105910 0.903042
O O1 0.862402 0.341119 0.114728
O O2 0.769007 0.234412 0.149847
O O3 0.961814 0.163022 0.156032
O O4 0.059457 0.288450 0.254929
O O5 0.856247 0.828857 0.367667
O O6 0.000000 0.862498 0.500000
O O7 0.159573 0.904674 0.482153
O O8 0.905288 0.000000 0.405763
O O9 0.531903 0.840968 0.097754
O O10 0.442297 0.000000 0.102934
O O11 0.241130 0.889577 0.984424
O O12 0.750000 0.250000 0.500000
O O13 0.675599 0.183948 0.384657
O O14 0.533280 0.123369 0.413419
O O15 0.262626 0.167877 0.360804
O O16 0.042319 0.844686 0.092078
O O17 0.000000 0.737891 0.000000
O O18 0.142978 0.500000 0.608736
O O19 0.000000 0.623995 0.500000
O O20 0.005024 0.000000 0.876074
#
# Coordination Sequence:
#
# PCOD8108321 Si02
#       8
#     8   8   8   8   8   8   8   8
#     4  11  23  39  58  85 124 155 195 248 305 353
#     4   9  18  35  59  84 110 146 195 240 284 344
#     4  10  21  38  61  88 115 151 198 247 297 355
#     4  11  19  37  63  88 114 153 202 242 287 350
#     4  11  23  38  59  85 121 160 190 245 307 354
#     4  11  19  37  61  89 116 155 201 247 292 350
#     4  11  22  39  63  90 118 155 201 246 290 349
#     4  10  21  38  62  87 115 154 200 246 295 354
#
# _framework density 19.259951000000001
#
# number of rings (size 3 to 8) (size 9 to 14) (size 15 to 20)
#    0.000    1.500    5.000    1.500    0.000    5.000 
#    0.000    0.000    0.000    0.000    0.000    0.000 
#    0.000    0.000    0.000    0.000    0.000    0.000 
#
# Total GULP energy -396632.818717 kJ/mol
# GULP energy per Si atom -12394.775585 kJ/mol
# Density = 1.921611 g / cm^3
# Si number density = 19.259951 Si / 1000 Ang^3
#
#
#
# Elastic Constant Matrix: (Units=GPa)
#
#
# Indices 1 2 3 4 5 6 
#
# 1 81.0231 13.9685 12.7483 0.0000 4.1733 0.0000
# 2 13.9685 114.9310 16.6667 0.0000 -5.8811 0.0000
# 3 12.7483 16.6667 80.2872 0.0000 3.3259 0.0000
# 4 0.0000 0.0000 0.0000 12.0246 0.0000 1.7119
# 5 4.1733 -5.8811 3.3259 0.0000 22.4643 0.0000
# 6 0.0000 0.0000 0.0000 1.7119 0.0000 21.6175
#
#
#
# Elastic Compliance Matrix: (Units=1/GPa)
#
#
# Indices 1 2 3 4 5 6 
#
# 1 0.012987 -0.001470 -0.001651 0.000000 -0.002553 0.000000
# 2 -0.001470 0.009296 -0.001820 0.000000 0.002976 0.000000
# 3 -0.001651 -0.001820 0.013183 0.000000 -0.002121 0.000000
# 4 0.000000 0.000000 0.000000 0.084111 0.000000 -0.006661
# 5 -0.002553 0.002976 -0.002121 0.000000 0.046083 0.000000
# 6 0.000000 0.000000 0.000000 -0.006661 0.000000 0.046786
#
#
# Mechanical properties :
#
#
# Convention : Reuss Voigt Hill
#
# Bulk Modulus (GPa) = 39.08592 40.33424 39.71008
# Shear Modulus (GPa) = 21.65864 26.74514 24.20189
#
# Velocity S-wave (km/s) = 3.35706 3.73049 3.54869
# Velocity P-wave (km/s) = 5.94680 6.28831 6.11994
#
# Compressibility (1/GPa) = 0.02558466
#
# Stress axis : x y z
#
# Youngs Moduli (GPa) = 77.00119 107.57736 75.85474
#
# Poissons Ratio (x) = 0.15809 0.12526
# Poissons Ratio (y) = 0.11316 0.13803
# Poissons Ratio (z) = 0.12715 0.19575
#
# Static dielectric constant tensor:
#      x y z
#    x 3.748750 0.000000 -0.072950 
#    y 0.000000 3.671750 0.000000 
#    z -0.072950 0.000000 3.255840 
# 
# 
# High freq. dielectric constant tensor:
#      x y z
#    x 1.751750 0.000000 0.008110 
#    y 0.000000 1.759640 0.000000 
#    z 0.008110 0.000000 1.724630 
# 
# From -- ./inp_files/358493.got.cif
#   From: 2010.06.25/outbox.cif.g09.slc.cpg/sg12_180_cif.got.tgz:358493.got - 2010.06.28 00:19:55.
