data_PCOD8108872
_publ_section_title
;
Structure prediction by ZEFSAII (Michael W. Deem and Ramdas Pophale) SiO2 
 PCOD8108872
Probable space group: C 2/M
;
_chemical_formula_sum "Si O2"
_cell_formula_units_Z 64
_cell_length_a 19.327326
_cell_length_b 9.046138
_cell_length_c 23.920892
_cell_angle_alpha 90.000000
_cell_angle_beta 126.876072
_cell_angle_gamma 90.000000
_cell_volume 3345.547755
_symmetry_space_group_name_H-M "C 2/M"
_symmetry_group_IT_number 12
_symmetry_cell_setting 'monoclinic'
loop_
_space_group_symop_operation_xyz
x,y,z
-x,y,-z
-x,-y,-z
x,-y,z
1/2+x,1/2+y,z
1/2-x,1/2+y,-z
1/2-x,1/2-y,-z
1/2+x,1/2-y,z
loop_
_atom_site_type_symbol
_atom_site_label
_atom_site_fract_x
_atom_site_fract_y
_atom_site_fract_z
Si Si1 0.381898 0.675026 0.820512
Si Si2 0.224989 0.325735 0.544569
Si Si3 0.213890 0.326591 0.808875
Si Si4 0.116877 0.825475 0.306162
Si Si5 0.963416 0.174572 0.310363
Si Si6 0.551680 0.333615 0.468112
Si Si7 0.212382 0.825874 0.036174
Si Si8 0.465233 0.836098 0.044413
O O1 0.395966 0.500000 0.833691
O O2 0.294816 0.724803 0.810110
O O3 0.378996 0.728798 0.755258
O O4 0.463537 0.759674 0.883495
O O5 0.227432 0.500000 0.538390
O O6 0.250000 0.250000 0.500000
O O7 0.294264 0.269690 0.623414
O O8 0.130425 0.276124 0.516992
O O9 0.199356 0.500000 0.795119
O O10 0.128761 0.246200 0.746224
O O11 0.231412 0.283669 0.881965
O O12 0.033567 0.763370 0.299557
O O13 0.111685 0.000000 0.306712
O O14 0.994011 0.219694 0.387580
O O15 0.952070 0.000000 0.299448
O O16 0.500000 0.329254 0.500000
O O17 0.585247 0.500000 0.471744
O O18 0.210462 0.000000 0.026098
O O19 0.250000 0.750000 0.000000
O O20 0.116084 0.770317 0.997828
O O21 0.442077 0.000000 0.057214
O O22 0.500000 0.855736 0.000000
#
# Coordination Sequence:
#
# PCOD8108872 Si02
#       8
#     8   8   8   8   8   8   8   8
#     4  10  21  40  63  86 116 158 198 240 296 351
#     4  11  21  38  63  88 118 154 199 249 296 351
#     4  10  23  40  59  86 121 153 195 246 290 347
#     4   9  20  38  60  86 115 152 196 242 294 351
#     4  10  21  39  59  82 119 159 196 240 295 353
#     4  10  22  40  60  86 121 159 200 245 295 350
#     4  11  24  42  63  89 120 157 198 244 297 351
#     4  11  23  40  63  91 121 153 197 248 293 349
#
# _framework density 19.129902000000001
#
# number of rings (size 3 to 8) (size 9 to 14) (size 15 to 20)
#    0.000    1.750    2.500    1.125    3.500    2.750 
#    0.000    1.250    0.000    0.000    0.000    0.000 
#    0.000    0.000    0.000    0.000    0.000    0.000 
#
# Total GULP energy -396811.706689 kJ/mol
# GULP energy per Si atom -12400.365834 kJ/mol
# Density = 1.908636 g / cm^3
# Si number density = 19.129902 Si / 1000 Ang^3
#
#
#
# Elastic Constant Matrix: (Units=GPa)
#
#
# Indices 1 2 3 4 5 6 
#
# 1 94.8588 37.3308 55.7862 0.0000 0.0444 0.0000
# 2 37.3308 62.3209 53.7625 0.0000 5.5193 0.0000
# 3 55.7862 53.7625 154.5357 0.0000 7.0286 0.0000
# 4 0.0000 0.0000 0.0000 33.5797 0.0000 8.4844
# 5 0.0444 5.5193 7.0286 0.0000 42.3798 0.0000
# 6 0.0000 0.0000 0.0000 8.4844 0.0000 31.6247
#
#
#
# Elastic Compliance Matrix: (Units=1/GPa)
#
#
# Indices 1 2 3 4 5 6 
#
# 1 0.014921 -0.006226 -0.003281 0.000000 0.001339 0.000000
# 2 -0.006226 0.025643 -0.006572 0.000000 -0.002243 0.000000
# 3 -0.003281 -0.006572 0.009978 0.000000 -0.000796 0.000000
# 4 0.000000 0.000000 0.000000 0.031945 0.000000 -0.008570
# 5 0.001339 -0.002243 -0.000796 0.000000 0.024019 0.000000
# 6 0.000000 0.000000 0.000000 -0.008570 0.000000 0.033920
#
#
# Mechanical properties :
#
#
# Convention : Reuss Voigt Hill
#
# Bulk Modulus (GPa) = 54.39335 67.27493 60.83414
# Shear Modulus (GPa) = 27.97786 32.50592 30.24189
#
# Velocity S-wave (km/s) = 3.82844 4.12663 3.98033
# Velocity P-wave (km/s) = 6.93095 7.61244 7.27967
#
# Compressibility (1/GPa) = 0.01838460
#
# Stress axis : x y z
#
# Youngs Moduli (GPa) = 67.01842 38.99677 100.22027
#
# Poissons Ratio (x) = 0.24279 0.32887
# Poissons Ratio (y) = 0.41724 0.65862
# Poissons Ratio (z) = 0.21992 0.25627
#
# Static dielectric constant tensor:
#      x y z
#    x 3.898630 0.000000 -0.087020 
#    y 0.000000 3.318150 0.000000 
#    z -0.087020 0.000000 3.761110 
# 
# 
# High freq. dielectric constant tensor:
#      x y z
#    x 1.754690 0.000000 -0.001590 
#    y 0.000000 1.732970 0.000000 
#    z -0.001590 0.000000 1.759080 
# 
# From -- ./inp_files/346304.got.cif
#   From: 2010.06.25/outbox.cif.g09.slc.cpg/sg12_174_cif.got.tgz:346304.got - 2010.06.28 00:19:55.
