data_PCOD8108360
_publ_section_title
;
Structure prediction by ZEFSAII (Michael W. Deem and Ramdas Pophale) SiO2 
 PCOD8108360
Probable space group: C 2/M
;
_chemical_formula_sum "Si O2"
_cell_formula_units_Z 56
_cell_length_a 24.383641
_cell_length_b 24.742278
_cell_length_c 14.299166
_cell_angle_alpha 90.000000
_cell_angle_beta 19.246846
_cell_angle_gamma 90.000000
_cell_volume 2843.721787
_symmetry_space_group_name_H-M "C 2/M"
_symmetry_group_IT_number 12
_symmetry_cell_setting 'monoclinic'
loop_
_space_group_symop_operation_xyz
x,y,z
-x,y,-z
-x,-y,-z
x,-y,z
1/2+x,1/2+y,z
1/2-x,1/2+y,-z
1/2-x,1/2-y,-z
1/2+x,1/2-y,z
loop_
_atom_site_type_symbol
_atom_site_label
_atom_site_fract_x
_atom_site_fract_y
_atom_site_fract_z
Si Si1 0.690054 0.059557 0.208633
Si Si2 0.428422 0.854797 0.882374
Si Si3 0.126028 0.221891 0.376910
Si Si4 0.720063 0.164134 0.269537
Si Si5 0.929643 0.793207 0.314665
Si Si6 0.182178 0.939912 0.202787
Si Si7 0.892106 0.690813 0.255787
O O1 0.500000 0.074650 0.500000
O O2 0.768905 0.109393 0.136759
O O3 0.709024 0.000000 0.227288
O O4 0.776866 0.057272 0.970615
O O5 0.592311 0.852812 0.554958
O O6 0.501503 0.858598 0.870474
O O7 0.309814 0.802153 0.060343
O O8 0.318771 0.907411 0.040870
O O9 0.136180 0.286780 0.346690
O O10 0.066173 0.204976 0.578305
O O11 0.000000 0.199970 0.500000
O O12 0.900426 0.187603 0.008783
O O13 0.875802 0.732925 0.368747
O O14 0.782524 0.829956 0.506342
O O15 0.000000 0.912369 0.500000
O O16 0.176892 0.000000 0.255465
O O17 0.000000 0.718137 0.000000
#
# Coordination Sequence:
#
# PCOD8108360 Si02
#       7
#     8   8   8   8   8   8   8
#     4  10  21  38  61  88 122 165 207 249 304 378
#     4  12  24  39  60  92 123 164 205 258 313 364
#     4  12  25  39  57  91 132 163 204 251 320 385
#     4  12  23  37  57  91 126 163 199 257 316 365
#     4  11  24  40  60  87 124 172 213 253 300 372
#     4  10  23  43  65  90 123 167 215 258 309 375
#     4  11  22  41  64  85 123 166 224 257 295 366
#
# _framework density 19.692502999999999
#
# number of rings (size 3 to 8) (size 9 to 14) (size 15 to 20)
#    0.000    0.857    5.714    0.857    6.000    1.143 
#    0.000    0.000    0.000    1.286    0.000    2.000 
#    0.000    0.000    0.000    0.000    0.000    0.000 
#
# Total GULP energy -346902.942670 kJ/mol
# GULP energy per Si atom -12389.390810 kJ/mol
# Density = 1.964768 g / cm^3
# Si number density = 19.692503 Si / 1000 Ang^3
#
#
#
# Elastic Constant Matrix: (Units=GPa)
#
#
# Indices 1 2 3 4 5 6 
#
# 1 118.2916 31.8623 53.8984 0.0069 -19.3348 -0.0092
# 2 31.8623 96.3219 22.3164 -0.0015 -9.1317 -0.0020
# 3 53.8984 22.3164 147.7347 -0.0221 -16.6234 -0.0039
# 4 0.0069 -0.0015 -0.0221 25.0184 -0.0016 0.9316
# 5 -19.3348 -9.1317 -16.6234 -0.0016 30.5019 0.0059
# 6 -0.0092 -0.0020 -0.0039 0.9316 0.0059 21.7018
#
#
#
# Elastic Compliance Matrix: (Units=1/GPa)
#
#
# Indices 1 2 3 4 5 6 
#
# 1 0.011388 -0.002573 -0.003239 -0.000006 0.004683 0.000003
# 2 -0.002573 0.011520 -0.000636 0.000001 0.001471 -0.000001
# 3 -0.003239 -0.000636 0.008303 0.000008 0.002282 -0.000001
# 4 -0.000006 0.000001 0.000008 0.040035 0.000004 -0.001719
# 5 0.004683 0.001471 0.002282 0.000004 0.037437 -0.000008
# 6 0.000003 -0.000001 -0.000001 -0.001719 -0.000008 0.046153
#
#
# Mechanical properties :
#
#
# Convention : Reuss Voigt Hill
#
# Bulk Modulus (GPa) = 54.59804 64.27804 59.43804
# Shear Modulus (GPa) = 28.76263 32.39583 30.57923
#
# Velocity S-wave (km/s) = 3.82591 4.06036 3.94488
# Velocity P-wave (km/s) = 6.87766 7.39553 7.14129
#
# Compressibility (1/GPa) = 0.01831567
#
# Stress axis : x y z
#
# Youngs Moduli (GPa) = 87.81203 86.80785 120.43198
#
# Poissons Ratio (x) = 0.22332 0.39009
# Poissons Ratio (y) = 0.22590 0.07660
# Poissons Ratio (z) = 0.28443 0.05521
#
# Static dielectric constant tensor:
#      x y z
#    x 3.635970 -0.000010 -0.122460 
#    y -0.000010 3.710380 0.000120 
#    z -0.122460 0.000120 3.839970 
# 
# 
# High freq. dielectric constant tensor:
#      x y z
#    x 1.749300 0.000000 0.003220 
#    y 0.000000 1.739530 0.000010 
#    z 0.003220 0.000010 1.794570 
# 
# From -- ./inp_files/242136.got.cif
#   From: 2010.06.25/outbox.cif.g09.slc.cpg/sg12_122_cif.got.tgz:242136.got - 2010.06.28 00:19:55.
