data_PCOD8108896
_publ_section_title
;
Structure prediction by ZEFSAII (Michael W. Deem and Ramdas Pophale) SiO2 
 PCOD8108896
Probable space group: C 2/M
;
_chemical_formula_sum "Si O2"
_cell_formula_units_Z 56
_cell_length_a 12.959678
_cell_length_b 19.164191
_cell_length_c 11.087004
_cell_angle_alpha 90.000000
_cell_angle_beta 91.531093
_cell_angle_gamma 90.000000
_cell_volume 2752.604547
_symmetry_space_group_name_H-M "C 2/M"
_symmetry_group_IT_number 12
_symmetry_cell_setting 'monoclinic'
loop_
_space_group_symop_operation_xyz
x,y,z
-x,y,-z
-x,-y,-z
x,-y,z
1/2+x,1/2+y,z
1/2-x,1/2+y,-z
1/2-x,1/2-y,-z
1/2+x,1/2-y,z
loop_
_atom_site_type_symbol
_atom_site_label
_atom_site_fract_x
_atom_site_fract_y
_atom_site_fract_z
Si Si1 0.537960 0.815967 0.868713
Si Si2 0.936934 0.174919 0.279139
Si Si3 0.166150 0.920512 0.906131
Si Si4 0.843433 0.196209 0.651031
Si Si5 0.871349 0.578564 0.763836
Si Si6 0.237598 0.183758 0.087825
Si Si7 0.234847 0.662715 0.428247
O O1 0.548052 0.745772 0.793801
O O2 0.464235 0.870628 0.800307
O O3 0.650957 0.850442 0.882883
O O4 0.500000 0.795530 0.000000
O O5 0.916871 0.109725 0.190075
O O6 0.842094 0.182719 0.366594
O O7 0.043307 0.161512 0.354546
O O8 0.282056 0.913644 0.859679
O O9 0.135921 0.000000 0.934058
O O10 0.163338 0.874744 0.027797
O O11 0.812678 0.207808 0.788866
O O12 0.843037 0.272155 0.587912
O O13 0.763004 0.148517 0.570291
O O14 0.914176 0.500000 0.760307
O O15 0.822057 0.596215 0.631405
O O16 0.250000 0.250000 0.000000
#
# Coordination Sequence:
#
# PCOD8108896 Si02
#       7
#     8   8   8   8   8   8   8
#     4  12  21  33  62  95 120 154 201 246 300 359
#     4  11  21  37  61  90 120 153 200 250 296 352
#     4  10  22  39  60  87 123 160 197 243 301 360
#     4  11  22  36  61  89 115 157 203 253 293 348
#     4  10  21  39  61  88 123 160 200 248 297 353
#     4  12  21  38  59  89 125 155 196 248 304 357
#     4  10  21  39  59  89 116 154 206 248 298 347
#
# _framework density 20.344370000000001
#
# number of rings (size 3 to 8) (size 9 to 14) (size 15 to 20)
#    0.000    1.143    5.714    2.143    0.000    0.857 
#    0.000    3.571    0.000    4.286    0.000    0.000 
#    0.000    0.000    0.000    0.000    0.000    0.000 
#
# Total GULP energy -347154.741698 kJ/mol
# GULP energy per Si atom -12398.383632 kJ/mol
# Density = 2.029806 g / cm^3
# Si number density = 20.344370 Si / 1000 Ang^3
#
#
#
# Elastic Constant Matrix: (Units=GPa)
#
#
# Indices 1 2 3 4 5 6 
#
# 1 91.1345 30.1179 23.2114 0.0000 23.4130 0.0000
# 2 30.1179 120.8545 49.0550 0.0000 17.3151 0.0000
# 3 23.2114 49.0550 113.7400 0.0000 20.9247 0.0000
# 4 0.0000 0.0000 0.0000 23.7947 0.0000 5.5055
# 5 23.4130 17.3151 20.9247 0.0000 32.2495 0.0000
# 6 0.0000 0.0000 0.0000 5.5055 0.0000 25.9327
#
#
#
# Elastic Compliance Matrix: (Units=1/GPa)
#
#
# Indices 1 2 3 4 5 6 
#
# 1 0.014020 -0.002093 -0.000332 0.000000 -0.008839 0.000000
# 2 -0.002093 0.010592 -0.003832 0.000000 -0.001682 0.000000
# 3 -0.000332 -0.003832 0.011457 0.000000 -0.005135 0.000000
# 4 0.000000 0.000000 0.000000 0.044197 0.000000 -0.009383
# 5 -0.008839 -0.001682 -0.005135 0.000000 0.041660 0.000000
# 6 0.000000 0.000000 0.000000 -0.009383 0.000000 0.040553
#
#
# Mechanical properties :
#
#
# Convention : Reuss Voigt Hill
#
# Bulk Modulus (GPa) = 42.45306 58.94415 50.69860
# Shear Modulus (GPa) = 27.34549 31.28503 29.31526
#
# Velocity S-wave (km/s) = 3.67022 3.92570 3.80011
# Velocity P-wave (km/s) = 6.23484 7.04161 6.65047
#
# Compressibility (1/GPa) = 0.02355543
#
# Stress axis : x y z
#
# Youngs Moduli (GPa) = 71.32756 94.40916 87.28127
#
# Poissons Ratio (x) = 0.19755 0.02902
# Poissons Ratio (y) = 0.14925 0.33446
# Poissons Ratio (z) = 0.02371 0.36177
#
# Static dielectric constant tensor:
#      x y z
#    x 3.990230 0.000000 0.343710 
#    y 0.000000 3.466490 0.000000 
#    z 0.343710 0.000000 3.981960 
# 
# 
# High freq. dielectric constant tensor:
#      x y z
#    x 1.797630 0.000000 0.020970 
#    y 0.000000 1.763520 0.000000 
#    z 0.020970 0.000000 1.803000 
# 
# From -- ./inp_files/133313.got.cif
#   From: 2010.06.25/outbox.cif.g09.slc.cpg/sg12_67_cif.got.tgz:133313.got - 2010.06.28 00:19:55.
