data_PCOD8108864
_publ_section_title
;
Structure prediction by ZEFSAII (Michael W. Deem and Ramdas Pophale) SiO2 
 PCOD8108864
Probable space group: C 2/M
;
_chemical_formula_sum "Si O2"
_cell_formula_units_Z 56
_cell_length_a 9.781818
_cell_length_b 14.827954
_cell_length_c 23.366058
_cell_angle_alpha 90.000000
_cell_angle_beta 126.422096
_cell_angle_gamma 90.000000
_cell_volume 2727.101542
_symmetry_space_group_name_H-M "C 2/M"
_symmetry_group_IT_number 12
_symmetry_cell_setting 'monoclinic'
loop_
_space_group_symop_operation_xyz
x,y,z
-x,y,-z
-x,-y,-z
x,-y,z
1/2+x,1/2+y,z
1/2-x,1/2+y,-z
1/2-x,1/2-y,-z
1/2+x,1/2-y,z
loop_
_atom_site_type_symbol
_atom_site_label
_atom_site_fract_x
_atom_site_fract_y
_atom_site_fract_z
Si Si1 0.955411 0.822056 0.073696
Si Si2 0.682472 0.727020 0.296689
Si Si3 0.358373 0.392907 0.513726
Si Si4 0.088199 0.900519 0.817860
Si Si5 0.265362 0.599028 0.927804
Si Si6 0.068487 0.273437 0.390862
Si Si7 0.596109 0.841154 0.166367
O O1 0.875629 0.846163 0.115085
O O2 0.108820 0.889244 0.094524
O O3 0.042361 0.724917 0.101182
O O4 0.809908 0.826862 0.988249
O O5 0.564079 0.641330 0.256475
O O6 0.617167 0.777436 0.336659
O O7 0.673360 0.794034 0.240987
O O8 0.875575 0.694722 0.352362
O O9 0.500000 0.382431 0.500000
O O10 0.338499 0.500000 0.525434
O O11 0.180143 0.350278 0.449383
O O12 0.411701 0.329639 0.580626
O O13 0.259152 0.905166 0.822864
O O14 0.031854 0.000000 0.820439
O O15 0.293065 0.500000 0.961437
O O16 0.073080 0.605522 0.857449
#
# Coordination Sequence:
#
# PCOD8108864 Si02
#       7
#     8   8   8   8   8   8   8
#     4  10  21  39  59  81 114 157 200 251 311 369
#     4  11  23  41  62  89 125 169 202 237 311 360
#     4  10  22  41  69 101 128 163 207 249 298 357
#     4  11  23  39  59  88 121 154 205 262 303 358
#     4  11  22  38  58  84 116 153 200 255 311 360
#     4  11  22  43  67  93 132 167 199 253 299 359
#     4  11  23  39  59  85 117 158 205 245 303 369
#
# _framework density 20.534621999999999
#
# number of rings (size 3 to 8) (size 9 to 14) (size 15 to 20)
#    0.000    1.286    2.857    4.286    2.000    2.857 
#    0.000    3.571    0.000    0.000    0.000    0.000 
#    0.000    0.000    0.000    0.000    0.000    0.000 
#
# Total GULP energy -347125.014173 kJ/mol
# GULP energy per Si atom -12397.321935 kJ/mol
# Density = 2.048788 g / cm^3
# Si number density = 20.534622 Si / 1000 Ang^3
#
#
#
# Elastic Constant Matrix: (Units=GPa)
#
#
# Indices 1 2 3 4 5 6 
#
# 1 103.1797 5.4047 27.7333 0.0000 21.0904 0.0000
# 2 5.4047 81.9172 16.7129 0.0000 4.4545 0.0000
# 3 27.7333 16.7129 79.0767 0.0000 13.8006 0.0000
# 4 0.0000 0.0000 0.0000 16.6400 0.0000 2.2734
# 5 21.0904 4.4545 13.8006 0.0000 39.1791 0.0000
# 6 0.0000 0.0000 0.0000 2.2734 0.0000 19.4796
#
#
#
# Elastic Compliance Matrix: (Units=1/GPa)
#
#
# Indices 1 2 3 4 5 6 
#
# 1 0.011594 0.000168 -0.003206 0.000000 -0.005131 0.000000
# 2 0.000168 0.012770 -0.002652 0.000000 -0.000608 0.000000
# 3 -0.003206 -0.002652 0.014893 0.000000 -0.003218 0.000000
# 4 0.000000 0.000000 0.000000 0.061070 0.000000 -0.007127
# 5 -0.005131 -0.000608 -0.003218 0.000000 0.029488 0.000000
# 6 0.000000 0.000000 0.000000 -0.007127 0.000000 0.052168
#
#
# Mechanical properties :
#
#
# Convention : Reuss Voigt Hill
#
# Bulk Modulus (GPa) = 35.87197 40.43059 38.15128
# Shear Modulus (GPa) = 24.67255 29.34792 27.01024
#
# Velocity S-wave (km/s) = 3.47004 3.78457 3.63071
# Velocity P-wave (km/s) = 5.79326 6.23129 6.01626
#
# Compressibility (1/GPa) = 0.02787692
#
# Stress axis : x y z
#
# Youngs Moduli (GPa) = 86.25510 78.30568 67.14767
#
# Poissons Ratio (x) = -0.01317 0.21529
# Poissons Ratio (y) = -0.01451 0.17807
# Poissons Ratio (z) = 0.27655 0.20766
#
# Static dielectric constant tensor:
#      x y z
#    x 3.838410 0.000000 0.109290 
#    y 0.000000 3.596880 0.000000 
#    z 0.109290 0.000000 3.698050 
# 
# 
# High freq. dielectric constant tensor:
#      x y z
#    x 1.817660 0.000000 0.008780 
#    y 0.000000 1.792400 0.000000 
#    z 0.008780 0.000000 1.800250 
# 
# From -- ./inp_files/332844.got.cif
#   From: 2010.06.25/outbox.cif.g09.slc.cpg/sg12_167_cif.got.tgz:332844.got - 2010.06.28 00:19:55.
