data_PCOD8108818
_publ_section_title
;
Structure prediction by ZEFSAII (Michael W. Deem and Ramdas Pophale) SiO2 
 PCOD8108818
Probable space group: C 2/M
;
_chemical_formula_sum "Si O2"
_cell_formula_units_Z 60
_cell_length_a 16.333485
_cell_length_b 33.217840
_cell_length_c 5.224385
_cell_angle_alpha 90.000000
_cell_angle_beta 124.004469
_cell_angle_gamma 90.000000
_cell_volume 2349.831838
_symmetry_space_group_name_H-M "C 2/M"
_symmetry_group_IT_number 12
_symmetry_cell_setting 'monoclinic'
loop_
_space_group_symop_operation_xyz
x,y,z
-x,y,-z
-x,-y,-z
x,-y,z
1/2+x,1/2+y,z
1/2-x,1/2+y,-z
1/2-x,1/2-y,-z
1/2+x,1/2-y,z
loop_
_atom_site_type_symbol
_atom_site_label
_atom_site_fract_x
_atom_site_fract_y
_atom_site_fract_z
Si Si1 0.342212 0.904896 0.129865
Si Si2 0.888512 0.200498 0.703054
Si Si3 0.598411 0.456199 0.332338
Si Si4 0.661837 0.344817 0.907027
Si Si5 0.621870 0.791456 0.437158
Si Si6 0.310970 0.046599 0.564939
Si Si7 0.595892 0.825094 0.891532
Si Si8 0.500000 0.396267 0.500000
O O1 0.248912 0.875706 0.999787
O O2 0.335695 0.937071 0.890477
O O3 0.365399 0.928768 0.433432
O O4 0.427520 0.872405 0.202972
O O5 0.871964 0.175775 0.416893
O O6 0.854450 0.245576 0.578319
O O7 0.818504 0.184909 0.815688
O O8 0.000000 0.200505 0.000000
O O9 0.613536 0.500000 0.491833
O O10 0.693140 0.447858 0.317824
O O11 0.587224 0.422604 0.526812
O O12 0.500000 0.456414 0.000000
O O13 0.562692 0.370012 0.814150
O O14 0.666750 0.806669 0.787886
O O15 0.504294 0.799832 0.264811
O O16 0.658834 0.818764 0.262513
O O17 0.344129 0.000000 0.607233
#
# Coordination Sequence:
#
# PCOD8108818 Si02
#       8
#     8   8   8   8   8   8   8   4
#     4  12  24  44  60  96 133 155 211 264 309 372
#     4  12  22  40  60  85 119 162 211 256 289 373
#     4  10  22  36  55  80 109 155 213 266 300 336
#     4  12  26  35  59  87 124 169 207 249 322 346
#     4  10  21  41  69  93 115 155 217 245 314 377
#     4  11  24  42  65  88 126 175 208 249 312 381
#     4  10  21  38  69  94 121 157 199 273 304 364
#     4  12  21  34  54  76 114 158 208 252 292 352
#
# _framework density 25.533740000000002
#
# number of rings (size 3 to 8) (size 9 to 14) (size 15 to 20)
#    0.000    0.933    4.000    3.800    3.733    0.000 
#    0.000    4.000    0.000    0.000    0.000   37.333 
#    0.000    0.000    0.000    0.000    0.000    0.000 
#
# Total GULP energy -371761.356285 kJ/mol
# GULP energy per Si atom -12392.045210 kJ/mol
# Density = 2.547562 g / cm^3
# Si number density = 25.533740 Si / 1000 Ang^3
#
#
#
# Elastic Constant Matrix: (Units=GPa)
#
#
# Indices 1 2 3 4 5 6 
#
# 1 47.0879 23.7556 24.0594 0.0000 -31.5679 0.0000
# 2 23.7556 164.8119 49.2103 0.0000 -34.8620 0.0000
# 3 24.0594 49.2103 139.0462 0.0000 -56.1355 0.0000
# 4 0.0000 0.0000 0.0000 45.1887 0.0000 -11.3456
# 5 -31.5679 -34.8620 -56.1355 0.0000 44.6549 0.0000
# 6 0.0000 0.0000 0.0000 -11.3456 0.0000 47.9921
#
#
#
# Elastic Compliance Matrix: (Units=1/GPa)
#
#
# Indices 1 2 3 4 5 6 
#
# 1 0.047157 -0.000117 0.010769 0.000000 0.046784 0.000000
# 2 -0.000117 0.007290 -0.000600 0.000000 0.004855 0.000000
# 3 0.010769 -0.000600 0.017108 0.000000 0.028650 0.000000
# 4 0.000000 0.000000 0.000000 0.023526 0.000000 0.005562
# 5 0.046784 0.004855 0.028650 0.000000 0.095273 0.000000
# 6 0.000000 0.000000 0.000000 0.005562 0.000000 0.022152
#
#
# Mechanical properties :
#
#
# Convention : Reuss Voigt Hill
#
# Bulk Modulus (GPa) = 10.90990 60.55517 35.73253
# Shear Modulus (GPa) = 22.42612 44.49519 33.46066
#
# Velocity S-wave (km/s) = 2.96682 4.17898 3.62394
# Velocity P-wave (km/s) = 4.00225 6.85947 5.61562
#
# Compressibility (1/GPa) = 0.09165987
#
# Stress axis : x y z
#
# Youngs Moduli (GPa) = 21.20567 137.16621 58.45387
#
# Poissons Ratio (x) = 0.01600 -0.62949
# Poissons Ratio (y) = 0.00247 0.03507
# Poissons Ratio (z) = -0.22836 0.08229
#
# Static dielectric constant tensor:
#      x y z
#    x 4.561220 0.000000 0.637790 
#    y 0.000000 5.199460 0.000000 
#    z 0.637790 0.000000 1.876880 
# 
# 
# High freq. dielectric constant tensor:
#      x y z
#    x 2.022810 0.000000 -0.008550 
#    y 0.000000 2.032840 0.000000 
#    z -0.008550 0.000000 2.022450 
# 
# From -- ./inp_files/18363.got.cif
#   From: 2010.06.25/outbox.cif.g09.slc.cpg/sg12_10_cif.got.tgz:18363.got - 2010.06.28 00:19:55.
