data_PCOD8108986
_publ_section_title
;
Structure prediction by ZEFSAII (Michael W. Deem and Ramdas Pophale) SiO2 
 PCOD8108986
Probable space group: C 2/M
;
_chemical_formula_sum "Si O2"
_cell_formula_units_Z 56
_cell_length_a 18.898300
_cell_length_b 8.633123
_cell_length_c 19.907071
_cell_angle_alpha 90.000000
_cell_angle_beta 60.836577
_cell_angle_gamma 90.000000
_cell_volume 2836.144429
_symmetry_space_group_name_H-M "C 2/M"
_symmetry_group_IT_number 12
_symmetry_cell_setting 'monoclinic'
loop_
_space_group_symop_operation_xyz
x,y,z
-x,y,-z
-x,-y,-z
x,-y,z
1/2+x,1/2+y,z
1/2-x,1/2+y,-z
1/2-x,1/2-y,-z
1/2+x,1/2-y,z
loop_
_atom_site_type_symbol
_atom_site_label
_atom_site_fract_x
_atom_site_fract_y
_atom_site_fract_z
Si Si1 0.955126 0.324450 0.785547
Si Si2 0.279665 0.822709 0.811025
Si Si3 0.155520 0.182412 0.353225
Si Si4 0.816816 0.683366 0.518564
Si Si5 0.121020 0.319530 0.937842
Si Si6 0.490571 0.679322 0.906007
Si Si7 0.992488 0.318722 0.384559
O O1 0.976548 0.500000 0.796313
O O2 0.859805 0.306334 0.818213
O O3 0.983217 0.209229 0.830476
O O4 0.002793 0.276078 0.696208
O O5 0.294271 0.760296 0.729696
O O6 0.213087 0.722526 0.879990
O O7 0.251080 0.000000 0.818745
O O8 0.196140 0.241129 0.402902
O O9 0.060816 0.228356 0.394871
O O10 0.164820 0.000000 0.343146
O O11 0.808008 0.500000 0.527473
O O12 0.750000 0.750000 0.500000
O O13 0.905087 0.732223 0.450906
O O14 0.113588 0.500000 0.956300
O O15 0.065928 0.275896 0.899657
O O16 0.091567 0.229276 0.017948
O O17 0.507500 0.500000 0.911074
O O18 0.010198 0.500000 0.387154
#
# Coordination Sequence:
#
# PCOD8108986 Si02
#       7
#     8   8   8   8   8   8   8
#     4   9  19  37  59  83 111 144 186 235 284 332
#     4  10  21  39  61  85 114 147 186 232 280 333
#     4  11  22  37  59  86 115 148 187 230 280 339
#     4  11  23  39  58  83 116 151 191 237 285 334
#     4  11  22  38  59  82 112 149 190 234 282 335
#     4  11  22  37  57  82 114 151 191 231 278 337
#     4   9  20  39  61  82 110 150 190 231 280 334
#
# _framework density 19.745115999999999
#
# number of rings (size 3 to 8) (size 9 to 14) (size 15 to 20)
#    0.000    1.714    0.000    6.857    0.000    7.429 
#    0.000    4.286    0.000    0.000    0.000    0.000 
#    0.000    0.000    0.000    0.000    0.000    0.000 
#
# Total GULP energy -347351.145309 kJ/mol
# GULP energy per Si atom -12405.398047 kJ/mol
# Density = 1.970018 g / cm^3
# Si number density = 19.745116 Si / 1000 Ang^3
#
#
#
# Elastic Constant Matrix: (Units=GPa)
#
#
# Indices 1 2 3 4 5 6 
#
# 1 33.2474 14.2514 10.2236 -0.0001 13.1280 -0.0002
# 2 14.2514 81.5254 10.3358 0.0000 8.0072 -0.0001
# 3 10.2236 10.3358 48.4100 -0.0001 14.4139 -0.0004
# 4 -0.0001 0.0000 -0.0001 32.1492 0.0000 1.9455
# 5 13.1280 8.0072 14.4139 0.0000 38.2962 0.0001
# 6 -0.0002 -0.0001 -0.0004 1.9455 0.0001 34.3494
#
#
#
# Elastic Compliance Matrix: (Units=1/GPa)
#
#
# Indices 1 2 3 4 5 6 
#
# 1 0.037500 -0.005060 -0.003746 0.000000 -0.010387 0.000000
# 2 -0.005060 0.013405 -0.001662 0.000000 -0.000443 0.000000
# 3 -0.003746 -0.001662 0.024007 0.000000 -0.007404 0.000000
# 4 0.000000 0.000000 0.000000 0.031212 0.000000 -0.001768
# 5 -0.010387 -0.000443 -0.007404 0.000000 0.032552 0.000000
# 6 0.000000 0.000000 0.000000 -0.001768 0.000000 0.029213
#
#
# Mechanical properties :
#
#
# Convention : Reuss Voigt Hill
#
# Bulk Modulus (GPa) = 18.52682 25.86717 22.19700
# Shear Modulus (GPa) = 24.17589 29.51707 26.84648
#
# Velocity S-wave (km/s) = 3.50294 3.87059 3.69135
# Velocity P-wave (km/s) = 5.07584 5.75364 5.42533
#
# Compressibility (1/GPa) = 0.05397580
#
# Stress axis : x y z
#
# Youngs Moduli (GPa) = 26.66669 74.60009 41.65380
#
# Poissons Ratio (x) = 0.37749 0.15606
# Poissons Ratio (y) = 0.13494 0.06921
# Poissons Ratio (z) = 0.09991 0.12395
#
# Static dielectric constant tensor:
#      x y z
#    x 3.473220 0.000000 -0.029550 
#    y 0.000000 3.639720 0.000000 
#    z -0.029550 0.000000 3.653510 
# 
# 
# High freq. dielectric constant tensor:
#      x y z
#    x 1.762930 0.000000 0.001800 
#    y 0.000000 1.777130 0.000000 
#    z 0.001800 0.000000 1.778680 
# 
# From -- ./inp_files/280921.got.cif
#   From: 2010.06.25/outbox.cif.g09.slc.cpg/sg12_141_cif.got.tgz:280921.got - 2010.06.28 00:19:55.
