data_PCOD8108593
_publ_section_title
;
Structure prediction by ZEFSAII (Michael W. Deem and Ramdas Pophale) SiO2 
 PCOD8108593
Probable space group: C 2/M
;
_chemical_formula_sum "Si O2"
_cell_formula_units_Z 64
_cell_length_a 15.126600
_cell_length_b 8.624723
_cell_length_c 32.717752
_cell_angle_alpha 90.000000
_cell_angle_beta 45.722210
_cell_angle_gamma 90.000000
_cell_volume 3056.052169
_symmetry_space_group_name_H-M "C 2/M"
_symmetry_group_IT_number 12
_symmetry_cell_setting 'monoclinic'
loop_
_space_group_symop_operation_xyz
x,y,z
-x,y,-z
-x,-y,-z
x,-y,z
1/2+x,1/2+y,z
1/2-x,1/2+y,-z
1/2-x,1/2-y,-z
1/2+x,1/2-y,z
loop_
_atom_site_type_symbol
_atom_site_label
_atom_site_fract_x
_atom_site_fract_y
_atom_site_fract_z
Si Si1 0.617185 0.178843 0.586269
Si Si2 0.057384 0.821151 0.292131
Si Si3 0.585137 0.177884 0.877448
Si Si4 0.840916 0.317475 0.003309
Si Si5 0.405083 0.679990 0.494167
Si Si6 0.688530 0.677448 0.768985
Si Si7 0.247958 0.676896 0.115770
Si Si8 0.012048 0.324638 0.769490
O O1 0.541707 0.286382 0.641075
O O2 0.575659 0.223815 0.553673
O O3 0.760978 0.206001 0.551617
O O4 0.581439 0.000000 0.604069
O O5 0.193160 0.785842 0.265128
O O6 0.031568 0.715178 0.261586
O O7 0.049303 0.000000 0.282234
O O8 0.586062 0.281848 0.836511
O O9 0.711737 0.211579 0.860317
O O10 0.575600 0.000000 0.866969
O O11 0.476857 0.223669 0.943574
O O12 0.822672 0.500000 0.015639
O O13 0.815105 0.229826 0.053273
O O14 0.750000 0.250000 0.000000
O O15 0.500000 0.735407 0.500000
O O16 0.431352 0.500000 0.476439
O O17 0.729635 0.500000 0.758231
O O18 0.623386 0.712107 0.746746
O O19 0.287001 0.500000 0.112519
O O20 0.100213 0.691827 0.161667
O O21 0.061413 0.500000 0.753597
#
# Coordination Sequence:
#
# PCOD8108593 Si02
#       8
#     8   8   8   8   8   8   8   8
#     4  10  21  38  62  93 131 170 213 266 314 368
#     4  12  25  43  66  92 128 172 217 267 319 374
#     4  11  23  40  61  86 118 156 201 253 316 380
#     4  11  24  39  57  84 117 153 197 252 310 380
#     4   9  19  38  64  94 130 173 215 257 312 370
#     4  12  25  42  65  93 123 162 211 263 322 385
#     4  11  23  39  62  88 117 155 200 252 313 382
#     4  11  24  43  65  92 125 163 210 262 319 384
#
# _framework density 20.942049999999998
#
# number of rings (size 3 to 8) (size 9 to 14) (size 15 to 20)
#    0.000    1.125    1.250    5.250    0.000    9.750 
#    0.000    3.750    0.000    0.000    0.000    0.000 
#    0.000    0.000    0.000    0.000    0.000    0.000 
#
# Total GULP energy -396842.901854 kJ/mol
# GULP energy per Si atom -12401.340683 kJ/mol
# Density = 2.089439 g / cm^3
# Si number density = 20.942050 Si / 1000 Ang^3
#
#
#
# Elastic Constant Matrix: (Units=GPa)
#
#
# Indices 1 2 3 4 5 6 
#
# 1 124.4666 20.8938 25.1250 -0.0004 1.1498 0.0005
# 2 20.8938 76.9232 30.7491 -0.0002 -3.1527 0.0030
# 3 25.1250 30.7491 88.8455 -0.0006 -3.4526 -0.0005
# 4 -0.0004 -0.0002 -0.0006 33.8288 -0.0006 3.0953
# 5 1.1498 -3.1527 -3.4526 -0.0006 9.2069 -0.0007
# 6 0.0005 0.0030 -0.0005 3.0953 -0.0007 36.1954
#
#
#
# Elastic Compliance Matrix: (Units=1/GPa)
#
#
# Indices 1 2 3 4 5 6 
#
# 1 0.008739 -0.001679 -0.001984 0.000000 -0.002410 0.000000
# 2 -0.001679 0.015507 -0.004747 0.000000 0.003740 -0.000001
# 3 -0.001984 -0.004747 0.013604 0.000000 0.003724 0.000001
# 4 0.000000 0.000000 0.000000 0.029794 0.000002 -0.002548
# 5 -0.002410 0.003740 0.003724 0.000002 0.111592 0.000002
# 6 0.000000 -0.000001 0.000001 -0.002548 0.000002 0.027846
#
#
# Mechanical properties :
#
#
# Convention : Reuss Voigt Hill
#
# Bulk Modulus (GPa) = 47.55080 49.30790 48.42935
# Shear Modulus (GPa) = 21.65334 30.07736 25.86535
#
# Velocity S-wave (km/s) = 3.21902 3.79386 3.51820
# Velocity P-wave (km/s) = 6.04742 6.54119 6.29915
#
# Compressibility (1/GPa) = 0.02103014
#
# Stress axis : x y z
#
# Youngs Moduli (GPa) = 114.43068 64.48776 73.50794
#
# Poissons Ratio (x) = 0.10831 0.14582
# Poissons Ratio (y) = 0.19218 0.34891
# Poissons Ratio (z) = 0.22700 0.30610
#
# Static dielectric constant tensor:
#      x y z
#    x 3.855760 0.000000 -0.065140 
#    y 0.000000 3.807120 0.000000 
#    z -0.065140 0.000000 3.486940 
# 
# 
# High freq. dielectric constant tensor:
#      x y z
#    x 1.828200 0.000000 0.000930 
#    y 0.000000 1.826380 0.000000 
#    z 0.000930 0.000000 1.817390 
# 
# From -- ./inp_files/375470.got.cif
#   From: 2010.06.25/outbox.cif.g09.slc.cpg/sg12_188_cif.got.tgz:375470.got - 2010.06.28 00:19:55.
