data_PCOD8108458
_publ_section_title
;
Structure prediction by ZEFSAII (Michael W. Deem and Ramdas Pophale) SiO2 
 PCOD8108458
Probable space group: C 2/M
;
_chemical_formula_sum "Si O2"
_cell_formula_units_Z 48
_cell_length_a 13.833914
_cell_length_b 18.485045
_cell_length_c 17.848233
_cell_angle_alpha 90.000000
_cell_angle_beta 149.245608
_cell_angle_gamma 90.000000
_cell_volume 2333.923852
_symmetry_space_group_name_H-M "C 2/M"
_symmetry_group_IT_number 12
_symmetry_cell_setting 'monoclinic'
loop_
_space_group_symop_operation_xyz
x,y,z
-x,y,-z
-x,-y,-z
x,-y,z
1/2+x,1/2+y,z
1/2-x,1/2+y,-z
1/2-x,1/2-y,-z
1/2+x,1/2-y,z
loop_
_atom_site_type_symbol
_atom_site_label
_atom_site_fract_x
_atom_site_fract_y
_atom_site_fract_z
Si Si1 0.917318 0.915731 0.118266
Si Si2 0.849734 0.138440 0.590039
Si Si3 0.970052 0.715391 0.330175
Si Si4 0.052220 0.671715 0.853136
Si Si5 0.194383 0.918353 0.596471
Si Si6 0.423121 0.298961 0.868769
O O1 0.055275 0.906651 0.280726
O O2 0.020284 0.881110 0.114283
O O3 0.879694 0.000000 0.077550
O O4 0.719125 0.875067 0.001180
O O5 0.653780 0.175267 0.486740
O O6 0.807675 0.083423 0.494867
O O7 0.989475 0.200225 0.653183
O O8 0.908955 0.681435 0.209436
O O9 0.803716 0.706902 0.280254
O O10 0.859024 0.629954 0.740428
O O11 0.026644 0.749810 0.874859
O O12 0.000000 0.887224 0.500000
O O13 0.227402 0.000000 0.645583
O O14 0.500000 0.274624 0.000000
#
# Coordination Sequence:
#
# PCOD8108458 Si02
#       6
#     8   8   8   8   8   8
#     4  12  25  42  63  93 132 171 209 258 320 381
#     4  10  21  40  63  93 127 168 205 267 318 368
#     4  10  21  40  65  94 121 161 220 262 310 369
#     4  11  22  42  65  91 123 169 213 260 318 370
#     4  10  21  38  61  94 129 165 210 259 320 385
#     4  12  23  40  67  94 125 164 218 268 310 372
#
# _framework density 20.566223000000001
#
# number of rings (size 3 to 8) (size 9 to 14) (size 15 to 20)
#    0.000    1.167    3.333    3.500    0.000    1.000 
#    0.000    2.500    0.000    5.000    0.000    0.000 
#    0.000    0.000    0.000    0.000    0.000    0.000 
#
# Total GULP energy -297689.604705 kJ/mol
# GULP energy per Si atom -12403.733529 kJ/mol
# Density = 2.051941 g / cm^3
# Si number density = 20.566223 Si / 1000 Ang^3
#
#
#
# Elastic Constant Matrix: (Units=GPa)
#
#
# Indices 1 2 3 4 5 6 
#
# 1 93.8763 34.7936 27.0532 0.0010 23.8338 0.0037
# 2 34.7936 109.3081 30.2159 -0.0219 16.6045 -0.0047
# 3 27.0532 30.2159 93.6720 -0.0353 6.2299 -0.0094
# 4 0.0010 -0.0219 -0.0353 22.5476 -0.0152 -2.8773
# 5 23.8338 16.6045 6.2299 -0.0152 35.0406 -0.0014
# 6 0.0037 -0.0047 -0.0094 -2.8773 -0.0014 25.1519
#
#
#
# Elastic Compliance Matrix: (Units=1/GPa)
#
#
# Indices 1 2 3 4 5 6 
#
# 1 0.014487 -0.002602 -0.002804 -0.000014 -0.008122 -0.000006
# 2 -0.002602 0.011173 -0.002649 0.000005 -0.003053 0.000002
# 3 -0.002804 -0.002649 0.012275 0.000018 0.000981 0.000007
# 4 -0.000014 0.000005 0.000018 0.045008 0.000023 0.005149
# 5 -0.008122 -0.003053 0.000981 0.000023 0.035335 0.000006
# 6 -0.000006 0.000002 0.000007 0.005149 0.000006 0.040347
#
#
# Mechanical properties :
#
#
# Convention : Reuss Voigt Hill
#
# Bulk Modulus (GPa) = 45.82394 53.44242 49.63318
# Shear Modulus (GPa) = 27.47074 30.20094 28.83584
#
# Velocity S-wave (km/s) = 3.65872 3.83622 3.74852
# Velocity P-wave (km/s) = 6.33860 6.75752 6.55141
#
# Compressibility (1/GPa) = 0.02182265
#
# Stress axis : x y z
#
# Youngs Moduli (GPa) = 69.02719 89.50140 81.46707
#
# Poissons Ratio (x) = 0.23291 0.22846
# Poissons Ratio (y) = 0.17963 0.21584
# Poissons Ratio (z) = 0.19358 0.23713
#
# Static dielectric constant tensor:
#      x y z
#    x 3.635370 0.000000 0.175650 
#    y 0.000000 3.568430 -0.000010 
#    z 0.175650 -0.000010 3.849810 
# 
# 
# High freq. dielectric constant tensor:
#      x y z
#    x 1.796890 0.000000 0.012930 
#    y 0.000000 1.796750 0.000000 
#    z 0.012930 0.000000 1.817720 
# 
# From -- ./inp_files/271778.got.cif
#   From: 2010.06.25/outbox.cif.g09.slc.cpg/sg12_136_cif.got.tgz:271778.got - 2010.06.28 00:19:55.
