data_PCOD8108770
_publ_section_title
;
Structure prediction by ZEFSAII (Michael W. Deem and Ramdas Pophale) SiO2 
 PCOD8108770
Probable space group: C 2/M
;
_chemical_formula_sum "Si O2"
_cell_formula_units_Z 48
_cell_length_a 23.603667
_cell_length_b 17.113566
_cell_length_c 12.010607
_cell_angle_alpha 90.000000
_cell_angle_beta 27.467385
_cell_angle_gamma 90.000000
_cell_volume 2237.769339
_symmetry_space_group_name_H-M "C 2/M"
_symmetry_group_IT_number 12
_symmetry_cell_setting 'monoclinic'
loop_
_space_group_symop_operation_xyz
x,y,z
-x,y,-z
-x,-y,-z
x,-y,z
1/2+x,1/2+y,z
1/2-x,1/2+y,-z
1/2-x,1/2-y,-z
1/2+x,1/2-y,z
loop_
_atom_site_type_symbol
_atom_site_label
_atom_site_fract_x
_atom_site_fract_y
_atom_site_fract_z
Si Si1 0.902363 0.341746 0.388284
Si Si2 0.825888 0.908206 0.085008
Si Si3 0.450224 0.319269 0.202378
Si Si4 0.366071 0.591394 0.759413
Si Si5 0.206958 0.408482 0.630790
Si Si6 0.347188 0.092568 0.026379
O O1 0.912266 0.249145 0.352764
O O2 0.895820 0.386054 0.280513
O O3 0.024019 0.371587 0.239962
O O4 0.785389 0.360167 0.668006
O O5 0.823034 0.891698 0.958997
O O6 0.954942 0.878081 0.905884
O O7 0.812388 0.000000 0.136149
O O8 0.332047 0.368655 0.373414
O O9 0.500000 0.283174 0.000000
O O10 0.500000 0.629174 0.500000
O O11 0.375397 0.500000 0.718417
O O12 0.263656 0.627134 0.854940
O O13 0.227370 0.500000 0.596905
O O14 0.171814 0.378239 0.814337
O O15 0.354454 0.000000 0.003083
#
# Coordination Sequence:
#
# PCOD8108770 Si02
#       6
#     8   8   8   8   8   8
#     4  12  25  39  62  95 137 167 209 266 332 381
#     4  11  24  43  69  96 126 167 221 272 313 376
#     4  12  25  40  64  92 134 175 211 261 330 386
#     4   9  19  40  68  97 125 164 217 269 315 373
#     4  11  22  39  66  95 128 169 221 266 310 381
#     4  10  21  38  65  94 128 170 214 260 320 386
#
# _framework density 21.449932
#
# number of rings (size 3 to 8) (size 9 to 14) (size 15 to 20)
#    0.000    1.167    1.667    5.000    2.333    5.333 
#    0.000    3.333    3.667    0.000    0.000    0.000 
#    0.000    0.000    0.000    0.000    0.000    0.000 
#
# Total GULP energy -297694.670252 kJ/mol
# GULP energy per Si atom -12403.944594 kJ/mol
# Density = 2.140111 g / cm^3
# Si number density = 21.449932 Si / 1000 Ang^3
#
#
#
# Elastic Constant Matrix: (Units=GPa)
#
#
# Indices 1 2 3 4 5 6 
#
# 1 130.3760 25.0623 49.8878 0.0000 -19.3959 0.0000
# 2 25.0623 60.3465 34.8559 0.0000 -1.0401 0.0000
# 3 49.8878 34.8559 96.1691 0.0000 -16.0711 0.0000
# 4 0.0000 0.0000 0.0000 33.1920 0.0000 1.1025
# 5 -19.3959 -1.0401 -16.0711 0.0000 40.9851 0.0000
# 6 0.0000 0.0000 0.0000 1.1025 0.0000 8.6997
#
#
#
# Elastic Compliance Matrix: (Units=1/GPa)
#
#
# Indices 1 2 3 4 5 6 
#
# 1 0.010018 -0.001778 -0.004032 0.000000 0.003115 0.000000
# 2 -0.001778 0.021540 -0.007420 0.000000 -0.003204 0.000000
# 3 -0.004032 -0.007420 0.015869 0.000000 0.004126 0.000000
# 4 0.000000 0.000000 0.000000 0.030255 0.000000 -0.003834
# 5 0.003115 -0.003204 0.004126 0.000000 0.027410 0.000000
# 6 0.000000 0.000000 0.000000 -0.003834 0.000000 0.115432
#
#
# Mechanical properties :
#
#
# Convention : Reuss Voigt Hill
#
# Bulk Modulus (GPa) = 47.69479 56.27818 51.98649
# Shear Modulus (GPa) = 19.68712 28.38107 24.03410
#
# Velocity S-wave (km/s) = 3.03284 3.64143 3.35098
# Velocity P-wave (km/s) = 5.87774 6.63129 6.26585
#
# Compressibility (1/GPa) = 0.02096665
#
# Stress axis : x y z
#
# Youngs Moduli (GPa) = 99.81921 46.42508 63.01667
#
# Poissons Ratio (x) = 0.08255 0.25408
# Poissons Ratio (y) = 0.17749 0.46759
# Poissons Ratio (z) = 0.40246 0.34448
#
# Static dielectric constant tensor:
#      x y z
#    x 4.057310 0.000000 -0.120420 
#    y 0.000000 3.574430 0.000000 
#    z -0.120420 0.000000 3.957300 
# 
# 
# High freq. dielectric constant tensor:
#      x y z
#    x 1.846410 0.000000 -0.010740 
#    y 0.000000 1.823440 0.000000 
#    z -0.010740 0.000000 1.854320 
# 
# From -- ./inp_files/177308.got.cif
#   From: 2010.06.25/outbox.cif.g09.slc.cpg/sg12_89_cif.got.tgz:177308.got - 2010.06.28 00:19:55.
