data_PCOD8108101
_publ_section_title
;
Structure prediction by ZEFSAII (Michael W. Deem and Ramdas Pophale) SiO2 
 PCOD8108101
Probable space group: C 2/M
;
_chemical_formula_sum "Si O2"
_cell_formula_units_Z 56
_cell_length_a 17.909604
_cell_length_b 8.452945
_cell_length_c 18.570985
_cell_angle_alpha 90.000000
_cell_angle_beta 76.061520
_cell_angle_gamma 90.000000
_cell_volume 2728.657856
_symmetry_space_group_name_H-M "C 2/M"
_symmetry_group_IT_number 12
_symmetry_cell_setting 'monoclinic'
loop_
_space_group_symop_operation_xyz
x,y,z
-x,y,-z
-x,-y,-z
x,-y,z
1/2+x,1/2+y,z
1/2-x,1/2+y,-z
1/2-x,1/2-y,-z
1/2+x,1/2-y,z
loop_
_atom_site_type_symbol
_atom_site_label
_atom_site_fract_x
_atom_site_fract_y
_atom_site_fract_z
Si Si1 0.059146 0.811250 0.426418
Si Si2 0.226047 0.185009 0.429078
Si Si3 0.084606 0.682795 0.004706
Si Si4 0.512451 0.312184 0.280962
Si Si5 0.138591 0.815771 0.138813
Si Si6 0.301713 0.316873 0.134543
Si Si7 0.658036 0.313965 0.713189
O O1 0.143606 0.743345 0.424844
O O2 0.000000 0.747116 0.500000
O O3 0.033379 0.744486 0.354762
O O4 0.058985 0.000000 0.425063
O O5 0.250000 0.250000 0.500000
O O6 0.288919 0.224976 0.355396
O O7 0.217221 0.000000 0.438661
O O8 0.087218 0.500000 0.027631
O O9 0.142632 0.709238 0.925701
O O10 0.108151 0.792923 0.065446
O O11 0.000000 0.734545 0.000000
O O12 0.512614 0.500000 0.281349
O O13 0.574865 0.250777 0.209160
O O14 0.428647 0.250604 0.277023
O O15 0.214426 0.713154 0.132473
O O16 0.156988 0.000000 0.147477
O O17 0.322404 0.500000 0.117266
O O18 0.313530 0.267732 0.214321
O O19 0.663692 0.500000 0.697106
#
# Coordination Sequence:
#
# PCOD8108101 Si02
#       7
#     8   8   8   8   8   8   8
#     4   9  17  31  54  81 108 141 184 231 274 325
#     4  11  22  36  57  84 114 149 189 235 287 341
#     4  11  24  41  61  86 117 152 193 243 297 350
#     4   9  18  34  57  84 111 145 190 235 282 339
#     4  11  22  38  61  86 116 154 198 243 287 344
#     4  11  23  39  60  87 120 155 192 236 290 351
#     4  10  21  38  60  85 114 148 187 233 285 342
#
# _framework density 20.522908999999999
#
# number of rings (size 3 to 8) (size 9 to 14) (size 15 to 20)
#    0.000    1.714    0.000    4.714    0.000    6.857 
#    0.000    1.429    0.000    9.429    0.000    0.000 
#    0.000    0.000    0.000    0.000    0.000    0.000 
#
# Total GULP energy -347349.656666 kJ/mol
# GULP energy per Si atom -12405.344881 kJ/mol
# Density = 2.047620 g / cm^3
# Si number density = 20.522909 Si / 1000 Ang^3
#
#
#
# Elastic Constant Matrix: (Units=GPa)
#
#
# Indices 1 2 3 4 5 6 
#
# 1 170.2801 14.8609 68.0048 0.0000 -1.2691 0.0000
# 2 14.8609 29.5552 15.9062 0.0000 2.5113 0.0000
# 3 68.0048 15.9062 148.0147 0.0000 1.1414 0.0000
# 4 0.0000 0.0000 0.0000 22.5137 0.0000 -1.9670
# 5 -1.2691 2.5113 1.1414 0.0000 47.1702 0.0000
# 6 0.0000 0.0000 0.0000 -1.9670 0.0000 20.0201
#
#
#
# Elastic Compliance Matrix: (Units=1/GPa)
#
#
# Indices 1 2 3 4 5 6 
#
# 1 0.007307 -0.002014 -0.003144 0.000000 0.000380 0.000000
# 2 -0.002014 0.036624 -0.002995 0.000000 -0.001932 0.000000
# 3 -0.003144 -0.002995 0.008523 0.000000 -0.000131 0.000000
# 4 0.000000 0.000000 0.000000 0.044802 0.000000 0.004402
# 5 0.000380 -0.001932 -0.000131 0.000000 0.021316 0.000000
# 6 0.000000 0.000000 0.000000 0.004402 0.000000 0.050382
#
#
# Mechanical properties :
#
#
# Convention : Reuss Voigt Hill
#
# Bulk Modulus (GPa) = 27.66448 60.59934 44.13191
# Shear Modulus (GPa) = 25.34082 34.54600 29.94341
#
# Velocity S-wave (km/s) = 3.51772 4.10724 3.82386
# Velocity P-wave (km/s) = 5.47798 7.21695 6.40674
#
# Compressibility (1/GPa) = 0.03614743
#
# Stress axis : x y z
#
# Youngs Moduli (GPa) = 136.86002 27.30449 117.32605
#
# Poissons Ratio (x) = 0.05500 0.36881
# Poissons Ratio (y) = 0.27570 0.35143
# Poissons Ratio (z) = 0.43022 0.08179
#
# Static dielectric constant tensor:
#      x y z
#    x 4.035920 0.000000 0.067120 
#    y 0.000000 3.368250 0.000000 
#    z 0.067120 0.000000 3.837810 
# 
# 
# High freq. dielectric constant tensor:
#      x y z
#    x 1.822250 0.000000 0.000400 
#    y 0.000000 1.773720 0.000000 
#    z 0.000400 0.000000 1.819420 
# 
# From -- ./inp_files/275341.got.cif
#   From: 2010.06.25/outbox.cif.g09.slc.cpg/sg12_138_cif.got.tgz:275341.got - 2010.06.28 00:19:55.
