data_PCOD8108303
_publ_section_title
;
Structure prediction by ZEFSAII (Michael W. Deem and Ramdas Pophale) SiO2 
 PCOD8108303
Probable space group: C 2/M
;
_chemical_formula_sum "Si O2"
_cell_formula_units_Z 64
_cell_length_a 9.223600
_cell_length_b 14.819802
_cell_length_c 31.224662
_cell_angle_alpha 90.000000
_cell_angle_beta 136.110942
_cell_angle_gamma 90.000000
_cell_volume 2958.961998
_symmetry_space_group_name_H-M "C 2/M"
_symmetry_group_IT_number 12
_symmetry_cell_setting 'monoclinic'
loop_
_space_group_symop_operation_xyz
x,y,z
-x,y,-z
-x,-y,-z
x,-y,z
1/2+x,1/2+y,z
1/2-x,1/2+y,-z
1/2-x,1/2-y,-z
1/2+x,1/2-y,z
loop_
_atom_site_type_symbol
_atom_site_label
_atom_site_fract_x
_atom_site_fract_y
_atom_site_fract_z
Si Si1 0.639314 0.393055 0.489498
Si Si2 0.919596 0.599275 0.733980
Si Si3 0.351146 0.605792 0.009182
Si Si4 0.515336 0.667258 0.371225
Si Si5 0.347176 0.149326 0.300317
Si Si6 0.519739 0.745271 0.818703
Si Si7 0.109971 0.402162 0.601594
Si Si8 0.976153 0.271167 0.904419
O O1 0.500000 0.361145 0.500000
O O2 0.621361 0.500000 0.479164
O O3 0.557990 0.342707 0.430332
O O4 0.877031 0.361297 0.548195
O O5 0.999131 0.500000 0.764188
O O6 0.667419 0.598833 0.682721
O O7 0.028806 0.669227 0.789086
O O8 0.985795 0.618919 0.699181
O O9 0.333018 0.500000 0.019823
O O10 0.124705 0.646257 0.949454
O O11 0.500000 0.613918 0.000000
O O12 0.441109 0.670823 0.065516
O O13 0.421822 0.764314 0.342583
O O14 0.723934 0.658802 0.387722
O O15 0.121200 0.165511 0.230743
O O16 0.327788 0.079617 0.335275
O O17 0.752744 0.710178 0.878835
O O18 0.424293 0.776188 0.843256
O O19 0.114609 0.500000 0.579903
#
# Coordination Sequence:
#
# PCOD8108303 Si02
#       8
#     8   8   8   8   8   8   8   8
#     4  10  21  38  61  87 119 160 205 256 318 385
#     4  11  23  40  64  90 121 165 214 257 308 386
#     4  10  22  41  70 101 131 175 221 259 314 378
#     4  11  22  39  62  88 119 156 203 260 322 378
#     4  11  24  42  61  87 125 162 204 254 314 377
#     4  11  23  41  64  92 129 174 209 252 321 367
#     4  11  23  39  61  88 119 155 202 262 317 369
#     4  11  22  43  67  96 137 172 208 272 316 363
#
# _framework density 21.629207000000001
#
# number of rings (size 3 to 8) (size 9 to 14) (size 15 to 20)
#    0.000    1.250    2.500    4.125    1.750    3.500 
#    0.000    3.750    0.000    0.000    0.000    0.000 
#    0.000    0.000    0.000    0.000    0.000    0.000 
#
# Total GULP energy -396763.170043 kJ/mol
# GULP energy per Si atom -12398.849064 kJ/mol
# Density = 2.157998 g / cm^3
# Si number density = 21.629207 Si / 1000 Ang^3
#
#
#
# Elastic Constant Matrix: (Units=GPa)
#
#
# Indices 1 2 3 4 5 6 
#
# 1 116.3064 27.9935 39.0330 0.0000 9.2691 0.0000
# 2 27.9935 81.9588 20.3543 0.0000 8.6072 0.0000
# 3 39.0330 20.3543 99.7242 0.0000 15.6392 0.0000
# 4 0.0000 0.0000 0.0000 6.1657 0.0000 11.5242
# 5 9.2691 8.6072 15.6392 0.0000 51.4676 0.0000
# 6 0.0000 0.0000 0.0000 11.5242 0.0000 13.7003
#
#
#
# Elastic Compliance Matrix: (Units=1/GPa)
#
#
# Indices 1 2 3 4 5 6 
#
# 1 0.010437 -0.002660 -0.003483 0.000000 -0.000376 0.000000
# 2 -0.002660 0.013630 -0.001531 0.000000 -0.001335 0.000000
# 3 -0.003483 -0.001531 0.012144 0.000000 -0.002807 0.000000
# 4 0.000000 0.000000 0.000000 -0.283451 0.000000 0.238428
# 5 -0.000376 -0.001335 -0.002807 0.000000 0.020574 0.000000
# 6 0.000000 0.000000 0.000000 0.238428 0.000000 -0.127565
#
#
# Mechanical properties :
#
#
# Convention : Reuss Voigt Hill
#
# Bulk Modulus (GPa) = 47.93519 52.52789 50.23154
# Shear Modulus (GPa) = -15.06354 28.30731 6.62189
#
# Velocity S-wave (km/s) = -2.64189 3.62160 1.75163
# Velocity P-wave (km/s) = 3.59225 6.46732 5.23118
#
# Compressibility (1/GPa) = 0.02086150
#
# Stress axis : x y z
#
# Youngs Moduli (GPa) = 95.81052 73.36525 82.34693
#
# Poissons Ratio (x) = 0.19518 0.28683
# Poissons Ratio (y) = 0.25489 0.12611
# Poissons Ratio (z) = 0.33373 0.11235
#
# Static dielectric constant tensor:
#      x y z
#    x 3.933370 0.000000 0.076820 
#    y 0.000000 3.862510 0.000000 
#    z 0.076820 0.000000 3.930250 
# 
# 
# High freq. dielectric constant tensor:
#      x y z
#    x 1.859980 0.000000 0.002360 
#    y 0.000000 1.842310 0.000000 
#    z 0.002360 0.000000 1.853300 
# 
# From -- ./inp_files/372616.got.cif
#   From: 2010.06.25/outbox.cif.g09.slc.cpg/sg12_187_cif.got.tgz:372616.got - 2010.06.28 00:19:55.
