data_PCOD8108627
_publ_section_title
;
Structure prediction by ZEFSAII (Michael W. Deem and Ramdas Pophale) SiO2 
 PCOD8108627
Probable space group: C 2/M
;
_chemical_formula_sum "Si O2"
_cell_formula_units_Z 48
_cell_length_a 27.664332
_cell_length_b 13.921188
_cell_length_c 9.181637
_cell_angle_alpha 90.000000
_cell_angle_beta 138.526134
_cell_angle_gamma 90.000000
_cell_volume 2341.839739
_symmetry_space_group_name_H-M "C 2/M"
_symmetry_group_IT_number 12
_symmetry_cell_setting 'monoclinic'
loop_
_space_group_symop_operation_xyz
x,y,z
-x,y,-z
-x,-y,-z
x,-y,z
1/2+x,1/2+y,z
1/2-x,1/2+y,-z
1/2-x,1/2-y,-z
1/2+x,1/2-y,z
loop_
_atom_site_type_symbol
_atom_site_label
_atom_site_fract_x
_atom_site_fract_y
_atom_site_fract_z
Si Si1 0.311085 0.111438 0.977839
Si Si2 0.583745 0.607922 0.173706
Si Si3 0.856007 0.891936 0.368719
Si Si4 0.928375 0.292999 0.434297
Si Si5 0.570239 0.890616 0.258975
Si Si6 0.169595 0.722005 0.273644
O O1 0.228887 0.134002 0.842001
O O2 0.333721 0.170313 0.887498
O O3 0.320594 0.000000 0.960996
O O4 0.364010 0.140302 0.228225
O O5 0.590195 0.500000 0.125202
O O6 0.624891 0.617285 0.419017
O O7 0.621396 0.681294 0.147185
O O8 0.500000 0.638416 0.000000
O O9 0.903180 0.818153 0.379837
O O10 0.872815 0.000000 0.351068
O O11 0.946863 0.329030 0.636981
O O12 0.000000 0.303035 0.500000
O O13 0.639399 0.847008 0.331709
O O14 0.588189 0.000000 0.342170
O O15 0.500000 0.883638 0.000000
O O16 0.250000 0.750000 0.500000
#
# Coordination Sequence:
#
# PCOD8108627 Si02
#       6
#     8   8   8   8   8   8
#     4  11  24  42  65  92 132 170 205 258 321 381
#     4  10  21  38  63  90 123 163 208 258 312 371
#     4  10  22  43  65  89 125 169 209 257 320 374
#     4  12  25  41  65  95 126 168 213 263 318 378
#     4  11  24  42  64  91 126 167 214 263 312 374
#     4  12  22  38  65  97 124 160 211 260 314 375
#
# _framework density 20.496704999999999
#
# number of rings (size 3 to 8) (size 9 to 14) (size 15 to 20)
#    0.000    1.000    3.333    3.000    2.333    3.667 
#    0.000    0.833    0.000    0.000    0.000    0.000 
#    0.000    0.000    0.000    0.000    0.000    0.000 
#
# Total GULP energy -297739.759727 kJ/mol
# GULP energy per Si atom -12405.823322 kJ/mol
# Density = 2.045005 g / cm^3
# Si number density = 20.496705 Si / 1000 Ang^3
#
#
#
# Elastic Constant Matrix: (Units=GPa)
#
#
# Indices 1 2 3 4 5 6 
#
# 1 75.8864 49.2948 35.1722 0.0000 10.4083 0.0000
# 2 49.2948 136.5477 36.8923 0.0000 19.7373 0.0000
# 3 35.1722 36.8923 103.9242 0.0000 15.8345 0.0000
# 4 0.0000 0.0000 0.0000 45.5589 0.0000 2.8608
# 5 10.4083 19.7373 15.8345 0.0000 33.9121 0.0000
# 6 0.0000 0.0000 0.0000 2.8608 0.0000 38.8510
#
#
#
# Elastic Compliance Matrix: (Units=1/GPa)
#
#
# Indices 1 2 3 4 5 6 
#
# 1 0.018874 -0.005567 -0.004331 0.000000 -0.000531 0.000000
# 2 -0.005567 0.010180 -0.001171 0.000000 -0.003670 0.000000
# 3 -0.004331 -0.001171 0.012055 0.000000 -0.003618 0.000000
# 4 0.000000 0.000000 0.000000 0.022052 0.000000 -0.001624
# 5 -0.000531 -0.003670 -0.003618 0.000000 0.033476 0.000000
# 6 0.000000 0.000000 0.000000 -0.001624 0.000000 0.025859
#
#
# Mechanical properties :
#
#
# Convention : Reuss Voigt Hill
#
# Bulk Modulus (GPa) = 52.70813 62.11965 57.41389
# Shear Modulus (GPa) = 33.12241 36.66431 34.89336
#
# Velocity S-wave (km/s) = 4.02430 4.23400 4.13048
# Velocity P-wave (km/s) = 6.88219 7.36717 7.12881
#
# Compressibility (1/GPa) = 0.01897241
#
# Stress axis : x y z
#
# Youngs Moduli (GPa) = 52.98393 98.23378 82.95367
#
# Poissons Ratio (x) = 0.54685 0.35924
# Poissons Ratio (y) = 0.29495 0.09711
# Poissons Ratio (z) = 0.22945 0.11499
#
# Static dielectric constant tensor:
#      x y z
#    x 3.508410 0.000000 0.100550 
#    y 0.000000 4.144570 0.000000 
#    z 0.100550 0.000000 3.808320 
# 
# 
# High freq. dielectric constant tensor:
#      x y z
#    x 1.788290 0.000000 0.014780 
#    y 0.000000 1.823770 0.000000 
#    z 0.014780 0.000000 1.811540 
# 
# From -- ./inp_files/105052.got.cif
#   From: 2010.06.25/outbox.cif.g09.slc.cpg/sg12_53_cif.got.tgz:105052.got - 2010.06.28 00:19:55.
