data_PCOD8108922
_publ_section_title
;
Structure prediction by ZEFSAII (Michael W. Deem and Ramdas Pophale) SiO2 
 PCOD8108922
Probable space group: C 2/M
;
_chemical_formula_sum "Si O2"
_cell_formula_units_Z 64
_cell_length_a 15.108490
_cell_length_b 8.717949
_cell_length_c 23.989703
_cell_angle_alpha 90.000000
_cell_angle_beta 91.141775
_cell_angle_gamma 90.000000
_cell_volume 3159.177436
_symmetry_space_group_name_H-M "C 2/M"
_symmetry_group_IT_number 12
_symmetry_cell_setting 'monoclinic'
loop_
_space_group_symop_operation_xyz
x,y,z
-x,y,-z
-x,-y,-z
x,-y,z
1/2+x,1/2+y,z
1/2-x,1/2+y,-z
1/2-x,1/2-y,-z
1/2+x,1/2-y,z
loop_
_atom_site_type_symbol
_atom_site_label
_atom_site_fract_x
_atom_site_fract_y
_atom_site_fract_z
Si Si1 0.397125 0.325302 0.785716
Si Si2 0.591736 0.325797 0.777516
Si Si3 0.897449 0.318686 0.504236
Si Si4 0.848215 0.321297 0.113164
Si Si5 0.239485 0.681647 0.706491
Si Si6 0.604075 0.671570 0.001884
Si Si7 0.332335 0.177817 0.887427
Si Si8 0.743664 0.318760 0.418860
O O1 0.375955 0.500000 0.803264
O O2 0.490769 0.318016 0.754980
O O3 0.323325 0.259206 0.742871
O O4 0.404405 0.220617 0.841509
O O5 0.624649 0.500000 0.785942
O O6 0.590240 0.241928 0.837246
O O7 0.649819 0.243736 0.731935
O O8 0.901404 0.500000 0.510487
O O9 0.834861 0.269201 0.451285
O O10 0.846849 0.252251 0.557521
O O11 0.000000 0.256663 0.500000
O O12 0.866504 0.500000 0.104323
O O13 0.861402 0.231971 0.056072
O O14 0.748785 0.286656 0.131240
O O15 0.234826 0.500000 0.706707
O O16 0.247721 0.743710 0.643833
O O17 0.642381 0.500000 0.012366
O O18 0.500000 0.667213 0.000000
O O19 0.634798 0.785677 0.050325
O O20 0.306665 0.000000 0.884530
O O21 0.732198 0.500000 0.421249
#
# Coordination Sequence:
#
# PCOD8108922 Si02
#       8
#     8   8   8   8   8   8   8   8
#     4  10  22  40  60  83 116 155 193 241 302 356
#     4  11  23  39  60  87 116 151 197 245 295 356
#     4   9  18  34  56  84 120 159 197 244 299 345
#     4  12  24  40  61  84 114 150 190 239 297 356
#     4  10  21  39  60  83 117 159 198 243 296 352
#     4  11  24  41  60  84 115 149 188 238 296 357
#     4  12  24  39  61  87 114 147 193 242 293 357
#     4   9  19  35  56  84 117 156 203 244 289 349
#
# _framework density 20.25844
#
# number of rings (size 3 to 8) (size 9 to 14) (size 15 to 20)
#    0.000    1.500    1.250    4.125    0.000    6.750 
#    0.000    0.000    0.000    0.000    0.000    0.000 
#    0.000    0.000    0.000    0.000    0.000    0.000 
#
# Total GULP energy -396799.586236 kJ/mol
# GULP energy per Si atom -12399.987070 kJ/mol
# Density = 2.021233 g / cm^3
# Si number density = 20.258440 Si / 1000 Ang^3
#
#
#
# Elastic Constant Matrix: (Units=GPa)
#
#
# Indices 1 2 3 4 5 6 
#
# 1 117.3267 16.2363 52.0827 0.0000 -12.0097 0.0000
# 2 16.2363 46.4985 29.9645 0.0000 1.0599 0.0000
# 3 52.0827 29.9645 144.6122 0.0000 -15.4730 0.0000
# 4 0.0000 0.0000 0.0000 27.4852 0.0000 -5.6908
# 5 -12.0097 1.0599 -15.4730 0.0000 16.4275 0.0000
# 6 0.0000 0.0000 0.0000 -5.6908 0.0000 28.7225
#
#
#
# Elastic Compliance Matrix: (Units=1/GPa)
#
#
# Indices 1 2 3 4 5 6 
#
# 1 0.010593 -0.001981 -0.002850 0.000000 0.005188 0.000000
# 2 -0.001981 0.025974 -0.005563 0.000000 -0.008364 0.000000
# 3 -0.002850 -0.005563 0.009908 0.000000 0.007608 0.000000
# 4 0.000000 0.000000 0.000000 0.037940 0.000000 0.007517
# 5 0.005188 -0.008364 0.007608 0.000000 0.072372 0.000000
# 6 0.000000 0.000000 0.000000 0.007517 0.000000 0.036305
#
#
# Mechanical properties :
#
#
# Convention : Reuss Voigt Hill
#
# Bulk Modulus (GPa) = 38.92977 56.11159 47.52068
# Shear Modulus (GPa) = 22.47773 28.53731 25.50752
#
# Velocity S-wave (km/s) = 3.33460 3.75729 3.55224
# Velocity P-wave (km/s) = 5.83818 6.82502 6.35080
#
# Compressibility (1/GPa) = 0.02568728
#
# Stress axis : x y z
#
# Youngs Moduli (GPa) = 94.39824 38.50073 100.92680
#
# Poissons Ratio (x) = 0.07626 0.28761
# Poissons Ratio (y) = 0.18699 0.56149
# Poissons Ratio (z) = 0.26901 0.21419
#
# Static dielectric constant tensor:
#      x y z
#    x 3.845070 0.000000 0.064830 
#    y 0.000000 3.647570 0.000000 
#    z 0.064830 0.000000 3.653880 
# 
# 
# High freq. dielectric constant tensor:
#      x y z
#    x 1.801880 0.000000 -0.003600 
#    y 0.000000 1.787500 0.000000 
#    z -0.003600 0.000000 1.786640 
# 
# From -- ./inp_files/338726.got.cif
#   From: 2010.06.25/outbox.cif.g09.slc.cpg/sg12_170_cif.got.tgz:338726.got - 2010.06.28 00:19:55.
