data_PCOD8108531
_publ_section_title
;
Structure prediction by ZEFSAII (Michael W. Deem and Ramdas Pophale) SiO2 
 PCOD8108531
Probable space group: C 2/M
;
_chemical_formula_sum "Si O2"
_cell_formula_units_Z 64
_cell_length_a 25.384982
_cell_length_b 8.752653
_cell_length_c 14.075131
_cell_angle_alpha 90.000000
_cell_angle_beta 93.818947
_cell_angle_gamma 90.000000
_cell_volume 3120.352028
_symmetry_space_group_name_H-M "C 2/M"
_symmetry_group_IT_number 12
_symmetry_cell_setting 'monoclinic'
loop_
_space_group_symop_operation_xyz
x,y,z
-x,y,-z
-x,-y,-z
x,-y,z
1/2+x,1/2+y,z
1/2-x,1/2+y,-z
1/2-x,1/2-y,-z
1/2+x,1/2-y,z
loop_
_atom_site_type_symbol
_atom_site_label
_atom_site_fract_x
_atom_site_fract_y
_atom_site_fract_z
Si Si1 0.142019 0.179232 0.603271
Si Si2 0.949532 0.174642 0.935125
Si Si3 0.846351 0.821652 0.612969
Si Si4 0.228979 0.321742 0.901581
Si Si5 0.880899 0.826222 0.103622
Si Si6 0.440919 0.823625 0.273294
Si Si7 0.560194 0.824748 0.265202
Si Si8 0.748429 0.820722 0.287319
O O1 0.146565 0.228220 0.494801
O O2 0.092635 0.269408 0.640557
O O3 0.195154 0.229310 0.663724
O O4 0.131570 0.000000 0.613140
O O5 0.939869 0.284379 0.845839
O O6 0.958418 0.000000 0.902100
O O7 0.898478 0.186518 0.996662
O O8 0.000000 0.232819 0.000000
O O9 0.899503 0.783640 0.675518
O O10 0.796928 0.729310 0.646526
O O11 0.834117 0.000000 0.621120
O O12 0.238484 0.500000 0.907996
O O13 0.167661 0.284112 0.881335
O O14 0.261217 0.258052 0.815512
O O15 0.250000 0.250000 0.000000
O O16 0.928101 0.776243 0.178637
O O17 0.864445 0.000000 0.126213
O O18 0.502544 0.798718 0.303758
O O19 0.428842 0.000000 0.249880
O O20 0.578281 0.000000 0.277736
O O21 0.745305 0.000000 0.272300
#
# Coordination Sequence:
#
# PCOD8108531 Si02
#       8
#     8   8   8   8   8   8   8   8
#     4  10  23  43  69  96 124 163 212 264 322 386
#     4  10  21  38  62  90 121 163 208 251 304 369
#     4  11  25  44  66  94 127 168 214 263 322 384
#     4  12  26  43  64  94 131 171 212 257 315 375
#     4  11  22  39  63  91 126 165 211 263 315 376
#     4  11  23  39  64  95 128 168 214 265 320 378
#     4  11  25  42  61  92 132 171 213 264 319 377
#     4  11  23  43  69  97 129 166 210 264 321 382
#
# _framework density 20.510508000000002
#
# number of rings (size 3 to 8) (size 9 to 14) (size 15 to 20)
#    0.000    1.125    2.500    3.375    1.750    4.750 
#    0.000    2.500    0.000    0.000    0.000    0.000 
#    0.000    0.000    0.000    0.000    0.000    0.000 
#
# Total GULP energy -397027.748623 kJ/mol
# GULP energy per Si atom -12407.117144 kJ/mol
# Density = 2.046383 g / cm^3
# Si number density = 20.510508 Si / 1000 Ang^3
#
#
#
# Elastic Constant Matrix: (Units=GPa)
#
#
# Indices 1 2 3 4 5 6 
#
# 1 78.1372 34.2294 35.5542 0.0000 -17.6222 0.0000
# 2 34.2294 90.3614 44.9226 0.0000 -8.0248 0.0000
# 3 35.5542 44.9226 130.5185 0.0000 -10.7461 0.0000
# 4 0.0000 0.0000 0.0000 33.4983 0.0000 -4.4258
# 5 -17.6222 -8.0248 -10.7461 0.0000 32.6802 0.0000
# 6 0.0000 0.0000 0.0000 -4.4258 0.0000 32.1529
#
#
#
# Elastic Compliance Matrix: (Units=1/GPa)
#
#
# Indices 1 2 3 4 5 6 
#
# 1 0.017768 -0.004780 -0.002572 0.000000 0.007561 0.000000
# 2 -0.004780 0.014743 -0.003789 0.000000 -0.000203 0.000000
# 3 -0.002572 -0.003789 0.009739 0.000000 0.000885 0.000000
# 4 0.000000 0.000000 0.000000 0.030405 0.000000 0.004185
# 5 0.007561 -0.000203 0.000885 0.000000 0.034918 0.000000
# 6 0.000000 0.000000 0.000000 0.004185 0.000000 0.031677
#
#
# Mechanical properties :
#
#
# Convention : Reuss Voigt Hill
#
# Bulk Modulus (GPa) = 50.08150 58.71439 54.39795
# Shear Modulus (GPa) = 29.72835 31.95366 30.84101
#
# Velocity S-wave (km/s) = 3.81126 3.95133 3.88192
# Velocity P-wave (km/s) = 6.62103 7.03605 6.83169
#
# Compressibility (1/GPa) = 0.01996745
#
# Stress axis : x y z
#
# Youngs Moduli (GPa) = 56.28159 67.82861 102.67567
#
# Poissons Ratio (x) = 0.32424 0.26411
# Poissons Ratio (y) = 0.26904 0.38903
# Poissons Ratio (z) = 0.14477 0.25700
#
# Static dielectric constant tensor:
#      x y z
#    x 3.759420 0.000000 -0.064520 
#    y 0.000000 3.717730 0.000000 
#    z -0.064520 0.000000 3.786650 
# 
# 
# High freq. dielectric constant tensor:
#      x y z
#    x 1.808180 0.000000 -0.008350 
#    y 0.000000 1.807400 0.000000 
#    z -0.008350 0.000000 1.808670 
# 
# From -- ./inp_files/238706.got.cif
#   From: 2010.06.25/outbox.cif.g09.slc.cpg/sg12_120_cif.got.tgz:238706.got - 2010.06.28 00:19:55.
