data_PCOD8108932
_publ_section_title
;
Structure prediction by ZEFSAII (Michael W. Deem and Ramdas Pophale) SiO2 
 PCOD8108932
Probable space group: C 2/M
;
_chemical_formula_sum "Si O2"
_cell_formula_units_Z 56
_cell_length_a 27.146287
_cell_length_b 9.274174
_cell_length_c 12.444336
_cell_angle_alpha 90.000000
_cell_angle_beta 112.409848
_cell_angle_gamma 90.000000
_cell_volume 2896.377532
_symmetry_space_group_name_H-M "C 2/M"
_symmetry_group_IT_number 12
_symmetry_cell_setting 'monoclinic'
loop_
_space_group_symop_operation_xyz
x,y,z
-x,y,-z
-x,-y,-z
x,-y,z
1/2+x,1/2+y,z
1/2-x,1/2+y,-z
1/2-x,1/2-y,-z
1/2+x,1/2-y,z
loop_
_atom_site_type_symbol
_atom_site_label
_atom_site_fract_x
_atom_site_fract_y
_atom_site_fract_z
Si Si1 0.642451 0.830912 0.252551
Si Si2 0.250956 0.835001 0.311816
Si Si3 0.441953 0.665712 0.427177
Si Si4 0.605038 0.337419 0.838945
Si Si5 0.290538 0.834906 0.105753
Si Si6 0.439831 0.666907 0.966595
Si Si7 0.359235 0.833278 0.503685
O O1 0.700984 0.768738 0.281523
O O2 0.599809 0.758382 0.139474
O O3 0.625137 0.800257 0.360650
O O4 0.644549 0.000000 0.229588
O O5 0.276860 0.812050 0.217721
O O6 0.297008 0.791376 0.435049
O O7 0.232018 0.000000 0.312445
O O8 0.500000 0.732145 0.500000
O O9 0.439517 0.500000 0.461488
O O10 0.434160 0.683948 0.293693
O O11 0.396613 0.745364 0.455779
O O12 0.628855 0.500000 0.859654
O O13 0.651111 0.221825 0.869692
O O14 0.572158 0.307033 0.918833
O O15 0.288211 0.000000 0.069173
O O16 0.250000 0.750000 0.000000
O O17 0.433295 0.500000 0.928283
O O18 0.500000 0.720785 0.000000
O O19 0.366838 0.000000 0.480136
#
# Coordination Sequence:
#
# PCOD8108932 Si02
#       7
#     8   8   8   8   8   8   8
#     4  11  24  39  60  90 122 155 198 249 295 347
#     4  10  21  39  60  84 118 157 198 239 291 358
#     4  10  22  38  62  93 121 152 198 250 294 347
#     4  10  21  39  60  88 120 151 196 246 292 347
#     4  11  22  36  58  86 118 157 196 238 292 351
#     4  10  23  42  64  86 116 160 202 242 293 353
#     4  10  22  41  61  88 123 158 197 241 295 356
#
# _framework density 19.334495
#
# number of rings (size 3 to 8) (size 9 to 14) (size 15 to 20)
#    0.000    1.714    1.429    2.143    2.000    7.429 
#    0.000    0.000    0.000    0.000    0.000    0.000 
#    0.000    0.000    0.000    0.000    0.000    0.000 
#
# Total GULP energy -347300.188536 kJ/mol
# GULP energy per Si atom -12403.578162 kJ/mol
# Density = 1.929049 g / cm^3
# Si number density = 19.334495 Si / 1000 Ang^3
#
#
#
# Elastic Constant Matrix: (Units=GPa)
#
#
# Indices 1 2 3 4 5 6 
#
# 1 106.5964 67.6985 78.3686 0.0000 13.1725 0.0000
# 2 67.6985 97.1534 64.0733 0.0000 0.9554 0.0000
# 3 78.3686 64.0733 126.4761 0.0000 4.2633 0.0000
# 4 0.0000 0.0000 0.0000 25.5746 0.0000 3.0856
# 5 13.1725 0.9554 4.2633 0.0000 30.0516 0.0000
# 6 0.0000 0.0000 0.0000 3.0856 0.0000 29.9652
#
#
#
# Elastic Compliance Matrix: (Units=1/GPa)
#
#
# Indices 1 2 3 4 5 6 
#
# 1 0.023904 -0.010509 -0.009190 0.000000 -0.008840 0.000000
# 2 -0.010509 0.020089 -0.003818 0.000000 0.004509 0.000000
# 3 -0.009190 -0.003818 0.015469 0.000000 0.001955 0.000000
# 4 0.000000 0.000000 0.000000 0.039593 0.000000 -0.004077
# 5 -0.008840 0.004509 0.001955 0.000000 0.036730 0.000000
# 6 0.000000 0.000000 0.000000 -0.004077 0.000000 0.033792
#
#
# Mechanical properties :
#
#
# Convention : Reuss Voigt Hill
#
# Bulk Modulus (GPa) = 80.45395 83.38962 81.92179
# Shear Modulus (GPa) = 22.64964 25.12398 23.88681
#
# Velocity S-wave (km/s) = 3.42638 3.60868 3.51871
# Velocity P-wave (km/s) = 7.57333 7.78377 7.67927
#
# Compressibility (1/GPa) = 0.01242947
#
# Stress axis : x y z
#
# Youngs Moduli (GPa) = 41.83373 49.77741 64.64568
#
# Poissons Ratio (x) = 0.52313 0.59408
# Poissons Ratio (y) = 0.43964 0.24679
# Poissons Ratio (z) = 0.38444 0.19003
#
# Static dielectric constant tensor:
#      x y z
#    x 3.621820 0.000000 0.232260 
#    y 0.000000 3.567690 0.000000 
#    z 0.232260 0.000000 4.092440 
# 
# 
# High freq. dielectric constant tensor:
#      x y z
#    x 1.754980 0.000000 0.000520 
#    y 0.000000 1.751680 0.000000 
#    z 0.000520 0.000000 1.770990 
# 
# From -- ./inp_files/181065.got.cif
#   From: 2010.06.25/outbox.cif.g09.slc.cpg/sg12_91_cif.got.tgz:181065.got - 2010.06.28 00:19:55.
