data_PCOD8108136
_publ_section_title
;
Structure prediction by ZEFSAII (Michael W. Deem and Ramdas Pophale) SiO2 
 PCOD8108136
Probable space group: C 2/M
;
_chemical_formula_sum "Si O2"
_cell_formula_units_Z 56
_cell_length_a 30.756745
_cell_length_b 9.308263
_cell_length_c 23.414311
_cell_angle_alpha 90.000000
_cell_angle_beta 25.853341
_cell_angle_gamma 90.000000
_cell_volume 2923.113640
_symmetry_space_group_name_H-M "C 2/M"
_symmetry_group_IT_number 12
_symmetry_cell_setting 'monoclinic'
loop_
_space_group_symop_operation_xyz
x,y,z
-x,y,-z
-x,-y,-z
x,-y,z
1/2+x,1/2+y,z
1/2-x,1/2+y,-z
1/2-x,1/2-y,-z
1/2+x,1/2-y,z
loop_
_atom_site_type_symbol
_atom_site_label
_atom_site_fract_x
_atom_site_fract_y
_atom_site_fract_z
Si Si1 0.290014 0.833131 0.898158
Si Si2 0.014266 0.664212 0.618606
Si Si3 0.510845 0.335594 0.054245
Si Si4 0.846846 0.331872 0.315841
Si Si5 0.656108 0.162684 0.550831
Si Si6 0.775028 0.833753 0.148902
Si Si7 0.099687 0.167078 0.417212
O O1 0.401278 0.778427 0.751771
O O2 0.221537 0.804038 0.923443
O O3 0.292422 0.000000 0.911869
O O4 0.250000 0.750000 0.000000
O O5 0.018635 0.500000 0.591492
O O6 0.054977 0.678562 0.634710
O O7 0.085559 0.759929 0.495151
O O8 0.487782 0.500000 0.098192
O O9 0.433137 0.231897 0.175564
O O10 0.500000 0.311516 0.000000
O O11 0.620221 0.291686 0.946746
O O12 0.841143 0.500000 0.311177
O O13 0.741114 0.263465 0.423498
O O14 0.870767 0.292128 0.353092
O O15 0.697162 0.000000 0.500502
O O16 0.691945 0.736138 0.275729
O O17 0.748207 0.000000 0.192158
O O18 0.000000 0.196021 0.500000
O O19 0.121900 0.000000 0.399655
#
# Coordination Sequence:
#
# PCOD8108136 Si02
#       7
#     8   8   8   8   8   8   8
#     4  10  22  38  59  87 118 153 195 235 284 347
#     4  10  21  38  61  85 114 154 194 232 282 347
#     4  10  23  41  60  83 114 154 198 239 285 344
#     4  10  21  38  60  86 116 149 190 241 291 340
#     4   9  20  38  60  85 114 152 191 233 288 345
#     4  10  22  41  62  84 113 157 199 235 286 348
#     4  11  23  38  58  87 119 149 186 237 291 337
#
# _framework density 19.157654000000001
#
# number of rings (size 3 to 8) (size 9 to 14) (size 15 to 20)
#    0.000    2.000    1.429    0.857    4.000    3.714 
#    0.000    0.000    0.000    0.000    0.000    0.000 
#    0.000    0.000    0.000    0.000    0.000    0.000 
#
# Total GULP energy -347298.745652 kJ/mol
# GULP energy per Si atom -12403.526630 kJ/mol
# Density = 1.911405 g / cm^3
# Si number density = 19.157654 Si / 1000 Ang^3
#
#
#
# Elastic Constant Matrix: (Units=GPa)
#
#
# Indices 1 2 3 4 5 6 
#
# 1 113.5379 36.9681 44.5879 0.0049 -7.1199 -0.0020
# 2 36.9681 85.6900 62.6407 0.0011 0.6866 -0.0010
# 3 44.5879 62.6407 111.6854 0.0040 2.6830 -0.0026
# 4 0.0049 0.0011 0.0040 34.5007 -0.0009 10.4090
# 5 -7.1199 0.6866 2.6830 -0.0009 27.4382 -0.0002
# 6 -0.0020 -0.0010 -0.0026 10.4090 -0.0002 21.8330
#
#
#
# Elastic Compliance Matrix: (Units=1/GPa)
#
#
# Indices 1 2 3 4 5 6 
#
# 1 0.011041 -0.002560 -0.003050 -0.000001 0.003227 0.000001
# 2 -0.002560 0.020383 -0.010406 0.000001 -0.000157 -0.000001
# 3 -0.003050 -0.010406 0.016058 -0.000002 -0.002101 0.000002
# 4 -0.000001 0.000001 -0.000002 0.033854 0.000001 -0.016140
# 5 0.003227 -0.000157 -0.002101 0.000001 0.037492 0.000000
# 6 0.000001 -0.000001 0.000002 -0.016140 0.000000 0.053497
#
#
# Mechanical properties :
#
#
# Convention : Reuss Voigt Hill
#
# Bulk Modulus (GPa) = 64.72285 66.58964 65.65624
# Shear Modulus (GPa) = 23.86542 27.86882 25.86712
#
# Velocity S-wave (km/s) = 3.53333 3.81820 3.67853
# Velocity P-wave (km/s) = 7.10659 7.36698 7.23796
#
# Compressibility (1/GPa) = 0.01545049
#
# Stress axis : x y z
#
# Youngs Moduli (GPa) = 90.57004 49.06117 62.27306
#
# Poissons Ratio (x) = 0.12559 0.18992
# Poissons Ratio (y) = 0.23184 0.64803
# Poissons Ratio (z) = 0.27622 0.51055
#
# Static dielectric constant tensor:
#      x y z
#    x 3.716940 0.000000 -0.060960 
#    y 0.000000 3.511590 0.000010 
#    z -0.060960 0.000010 3.378310 
# 
# 
# High freq. dielectric constant tensor:
#      x y z
#    x 1.757310 0.000000 -0.000070 
#    y 0.000000 1.743290 0.000000 
#    z -0.000070 0.000000 1.741230 
# 
# From -- ./inp_files/329542.got.cif
#   From: 2010.06.25/outbox.cif.g09.slc.cpg/sg12_165_cif.got.tgz:329542.got - 2010.06.28 00:19:55.
