data_PCOD8108100
_publ_section_title
;
Structure prediction by ZEFSAII (Michael W. Deem and Ramdas Pophale) SiO2 
 PCOD8108100
Probable space group: C 2/M
;
_chemical_formula_sum "Si O2"
_cell_formula_units_Z 40
_cell_length_a 29.476235
_cell_length_b 9.112120
_cell_length_c 7.090379
_cell_angle_alpha 90.000000
_cell_angle_beta 92.867201
_cell_angle_gamma 90.000000
_cell_volume 1902.027891
_symmetry_space_group_name_H-M "C 2/M"
_symmetry_group_IT_number 12
_symmetry_cell_setting 'monoclinic'
loop_
_space_group_symop_operation_xyz
x,y,z
-x,y,-z
-x,-y,-z
x,-y,z
1/2+x,1/2+y,z
1/2-x,1/2+y,-z
1/2-x,1/2-y,-z
1/2+x,1/2-y,z
loop_
_atom_site_type_symbol
_atom_site_label
_atom_site_fract_x
_atom_site_fract_y
_atom_site_fract_z
Si Si1 0.948439 0.328717 0.946415
Si Si2 0.801062 0.167253 0.648481
Si Si3 0.206920 0.331487 0.735227
Si Si4 0.600188 0.665042 0.362782
Si Si5 0.378351 0.329632 0.199321
O O1 0.939571 0.500000 0.963084
O O2 0.936658 0.275766 0.731988
O O3 0.916741 0.244953 0.084717
O O4 0.000000 0.286593 0.000000
O O5 0.796414 0.287585 0.484525
O O6 0.760914 0.193111 0.796240
O O7 0.852026 0.182624 0.744065
O O8 0.796406 0.000000 0.564610
O O9 0.192625 0.500000 0.758317
O O10 0.172039 0.235595 0.852626
O O11 0.581381 0.500000 0.337667
O O12 0.608783 0.703169 0.581753
O O13 0.377061 0.500000 0.150329
#
# Coordination Sequence:
#
# PCOD8108100 Si02
#       5
#     8   8   8   8   8
#     4  11  25  42  59  82 111 142 182 235 289 338
#     4   8  15  28  48  78 114 150 186 222 264 320
#     4   9  15  26  49  80 114 149 184 223 268 319
#     4   9  19  37  60  85 113 147 187 228 272 326
#     4  10  21  38  60  85 114 148 187 229 274 330
#
# _framework density 21.030184999999999
#
# number of rings (size 3 to 8) (size 9 to 14) (size 15 to 20)
#    0.000    2.600    0.000    3.000    0.000    7.200 
#    0.000    5.000    0.000    0.000    0.000    0.000 
#    0.000    0.000    0.000    0.000    0.000    0.000 
#
# Total GULP energy -247858.330784 kJ/mol
# GULP energy per Si atom -12392.916539 kJ/mol
# Density = 2.098232 g / cm^3
# Si number density = 21.030185 Si / 1000 Ang^3
#
#
#
# Elastic Constant Matrix: (Units=GPa)
#
#
# Indices 1 2 3 4 5 6 
#
# 1 98.9022 49.6960 11.7191 0.0000 -2.5991 0.0000
# 2 49.6960 77.2800 9.9937 0.0000 1.5451 0.0000
# 3 11.7191 9.9937 14.9256 0.0000 0.2572 0.0000
# 4 0.0000 0.0000 0.0000 23.7778 0.0000 -2.3434
# 5 -2.5991 1.5451 0.2572 0.0000 32.9909 0.0000
# 6 0.0000 0.0000 0.0000 -2.3434 0.0000 36.1792
#
#
#
# Elastic Compliance Matrix: (Units=1/GPa)
#
#
# Indices 1 2 3 4 5 6 
#
# 1 0.015505 -0.009226 -0.006026 0.000000 0.001701 0.000000
# 2 -0.009226 0.019667 -0.005897 0.000000 -0.001602 0.000000
# 3 -0.006026 -0.005897 0.075693 0.000000 -0.000789 0.000000
# 4 0.000000 0.000000 0.000000 0.042326 0.000000 0.002742
# 5 0.001701 -0.001602 -0.000789 0.000000 0.030527 0.000000
# 6 0.000000 0.000000 0.000000 0.002742 0.000000 0.027818
#
#
# Mechanical properties :
#
#
# Convention : Reuss Voigt Hill
#
# Bulk Modulus (GPa) = 14.58426 37.10280 25.84353
# Shear Modulus (GPa) = 18.07070 26.56952 22.32011
#
# Velocity S-wave (km/s) = 2.93452 3.55829 3.26135
# Velocity P-wave (km/s) = 4.29323 5.87902 5.14756
#
# Compressibility (1/GPa) = 0.06856708
#
# Stress axis : x y z
#
# Youngs Moduli (GPa) = 64.49342 50.84577 13.21123
#
# Poissons Ratio (x) = 0.46909 0.07962
# Poissons Ratio (y) = 0.59500 0.07791
# Poissons Ratio (z) = 0.38867 0.29985
#
# Static dielectric constant tensor:
#      x y z
#    x 4.154610 0.000000 0.056730 
#    y 0.000000 3.807640 0.000000 
#    z 0.056730 0.000000 3.430990 
# 
# 
# High freq. dielectric constant tensor:
#      x y z
#    x 1.835480 0.000000 -0.001240 
#    y 0.000000 1.827230 0.000000 
#    z -0.001240 0.000000 1.792230 
# 
# From -- ./inp_files/101206.got.cif
#   From: 2010.06.25/outbox.cif.g09.slc.cpg/sg12_51_cif.got.tgz:101206.got - 2010.06.28 00:19:55.
