data_PCOD8108385
_publ_section_title
;
Structure prediction by ZEFSAII (Michael W. Deem and Ramdas Pophale) SiO2 
 PCOD8108385
Probable space group: C 2/M
;
_chemical_formula_sum "Si O2"
_cell_formula_units_Z 48
_cell_length_a 14.850813
_cell_length_b 8.515755
_cell_length_c 29.234405
_cell_angle_alpha 90.000000
_cell_angle_beta 39.769945
_cell_angle_gamma 90.000000
_cell_volume 2365.094398
_symmetry_space_group_name_H-M "C 2/M"
_symmetry_group_IT_number 12
_symmetry_cell_setting 'monoclinic'
loop_
_space_group_symop_operation_xyz
x,y,z
-x,y,-z
-x,-y,-z
x,-y,z
1/2+x,1/2+y,z
1/2-x,1/2+y,-z
1/2-x,1/2-y,-z
1/2+x,1/2-y,z
loop_
_atom_site_type_symbol
_atom_site_label
_atom_site_fract_x
_atom_site_fract_y
_atom_site_fract_z
Si Si1 0.918764 0.680810 0.889667
Si Si2 0.083032 0.181484 0.347631
Si Si3 0.593838 0.682797 0.006999
Si Si4 0.371592 0.679618 0.262514
Si Si5 0.597681 0.182685 0.653244
Si Si6 0.605719 0.684846 0.495733
O O1 0.959126 0.500000 0.866816
O O2 0.759739 0.713404 0.934427
O O3 0.018927 0.788612 0.820481
O O4 0.947691 0.722087 0.931383
O O5 0.215264 0.289287 0.306086
O O6 0.032454 0.219257 0.316283
O O7 0.952599 0.228400 0.431578
O O8 0.125788 0.000000 0.336791
O O9 0.564186 0.500000 0.027662
O O10 0.500000 0.740393 0.000000
O O11 0.384544 0.500000 0.273090
O O12 0.403319 0.793589 0.292287
O O13 0.739408 0.252955 0.574532
O O14 0.577466 0.000000 0.650088
O O15 0.500000 0.759789 0.500000
O O16 0.614003 0.500000 0.484569
#
# Coordination Sequence:
#
# PCOD8108385 Si02
#       6
#     8   8   8   8   8   8
#     4  10  21  38  61  89 121 156 193 239 293 344
#     4  11  22  39  61  86 117 153 199 250 305 362
#     4   9  19  38  64  92 121 153 191 234 283 345
#     4  12  25  41  59  84 120 161 204 248 297 351
#     4  11  22  39  61  86 118 155 198 247 305 362
#     4   9  17  34  60  85 112 151 195 248 303 357
#
# _framework density 20.295172999999998
#
# number of rings (size 3 to 8) (size 9 to 14) (size 15 to 20)
#    0.000    1.667    1.667    3.500    0.000    2.333 
#    0.000    8.333    0.000    0.000    0.000    0.000 
#    0.000    0.000    0.000    0.000    0.000    0.000 
#
# Total GULP energy -297638.337582 kJ/mol
# GULP energy per Si atom -12401.597399 kJ/mol
# Density = 2.024898 g / cm^3
# Si number density = 20.295173 Si / 1000 Ang^3
#
#
#
# Elastic Constant Matrix: (Units=GPa)
#
#
# Indices 1 2 3 4 5 6 
#
# 1 313.2266 -12.1491 226.9810 -0.0028 -329.3816 -0.0014
# 2 -12.1491 67.6894 -8.1029 0.0009 53.9089 0.0016
# 3 226.9810 -8.1029 315.9424 -0.0029 -380.4935 -0.0001
# 4 -0.0028 0.0009 -0.0029 25.6910 0.0055 4.7833
# 5 -329.3816 53.9089 -380.4935 0.0055 679.9172 0.0012
# 6 -0.0014 0.0016 -0.0001 4.7833 0.0012 28.9547
#
#
#
# Elastic Compliance Matrix: (Units=1/GPa)
#
#
# Indices 1 2 3 4 5 6 
#
# 1 0.007375 -0.000607 -0.002924 0.000000 0.001985 0.000000
# 2 -0.000607 0.017089 -0.003409 0.000000 -0.003557 -0.000001
# 3 -0.002924 -0.003409 0.011648 0.000000 0.005373 0.000000
# 4 0.000000 0.000000 0.000000 0.040159 0.000000 -0.006634
# 5 0.001985 -0.003557 0.005373 0.000000 0.005721 0.000000
# 6 0.000000 -0.000001 0.000000 -0.006634 0.000000 0.035633
#
#
# Mechanical properties :
#
#
# Convention : Reuss Voigt Hill
#
# Bulk Modulus (GPa) = 44.97890 123.36850 84.17370
# Shear Modulus (GPa) = 35.99316 179.58787 107.79051
#
# Velocity S-wave (km/s) = 4.21584 9.41701 7.29566
# Velocity P-wave (km/s) = 6.77556 13.38504 10.60819
#
# Compressibility (1/GPa) = 0.02223265
#
# Stress axis : x y z
#
# Youngs Moduli (GPa) = 135.60106 58.51706 85.84842
#
# Poissons Ratio (x) = 0.03552 0.25098
# Poissons Ratio (y) = 0.08230 0.29268
# Poissons Ratio (z) = 0.39643 0.19950
#
# Static dielectric constant tensor:
#      x y z
#    x 3.742190 0.000000 -0.057820 
#    y 0.000000 3.433200 0.000000 
#    z -0.057820 0.000000 3.627700 
# 
# 
# High freq. dielectric constant tensor:
#      x y z
#    x 1.802860 0.000000 0.000610 
#    y 0.000000 1.780600 0.000000 
#    z 0.000610 0.000000 1.787220 
# 
# From -- ./inp_files/308306.got.cif
#   From: 2010.06.25/outbox.cif.g09.slc.cpg/sg12_155_cif.got.tgz:308306.got - 2010.06.28 00:19:55.
