data_PCOD8108523
_publ_section_title
;
Structure prediction by ZEFSAII (Michael W. Deem and Ramdas Pophale) SiO2 
 PCOD8108523
Probable space group: C 2/M
;
_chemical_formula_sum "Si O2"
_cell_formula_units_Z 56
_cell_length_a 21.695775
_cell_length_b 26.473414
_cell_length_c 5.139580
_cell_angle_alpha 90.000000
_cell_angle_beta 116.601233
_cell_angle_gamma 90.000000
_cell_volume 2639.492963
_symmetry_space_group_name_H-M "C 2/M"
_symmetry_group_IT_number 12
_symmetry_cell_setting 'monoclinic'
loop_
_space_group_symop_operation_xyz
x,y,z
-x,y,-z
-x,-y,-z
x,-y,z
1/2+x,1/2+y,z
1/2-x,1/2+y,-z
1/2-x,1/2-y,-z
1/2+x,1/2-y,z
loop_
_atom_site_type_symbol
_atom_site_label
_atom_site_fract_x
_atom_site_fract_y
_atom_site_fract_z
Si Si1 0.366556 0.306056 0.043745
Si Si2 0.954293 0.290083 0.158177
Si Si3 0.706333 0.344747 0.587615
Si Si4 0.855881 0.380178 0.929664
Si Si5 0.044609 0.099460 0.830800
Si Si6 0.177379 0.943766 0.280978
Si Si7 0.172303 0.441893 0.618045
O O1 0.392152 0.248962 0.083230
O O2 0.329501 0.315662 0.246451
O O3 0.433175 0.342068 0.143127
O O4 0.311381 0.315587 0.711960
O O5 0.000000 0.292314 0.500000
O O6 0.922388 0.344797 0.042044
O O7 0.000000 0.272887 0.000000
O O8 0.788180 0.345176 0.778544
O O9 0.677167 0.402481 0.513336
O O10 0.860765 0.420602 0.708019
O O11 0.857365 0.410421 0.200386
O O12 0.000000 0.082923 0.500000
O O13 0.112119 0.064087 0.969763
O O14 0.000000 0.089916 0.000000
O O15 0.244965 0.935484 0.231481
O O16 0.177397 0.000000 0.403918
O O17 0.150611 0.500000 0.607380
#
# Coordination Sequence:
#
# PCOD8108523 Si02
#       7
#     8   8   8   8   8   8   8
#     4  11  22  40  61  84 118 160 207 248 299 360
#     4  12  26  43  65  92 125 165 203 246 302 370
#     4  10  21  38  62  90 119 154 198 257 309 348
#     4  11  22  40  65  96 128 155 200 255 304 357
#     4  11  21  34  51  74 112 158 202 244 287 347
#     4   9  20  37  57  84 117 154 201 253 302 352
#     4  10  21  40  67  93 121 159 200 249 311 372
#
# _framework density 21.216196
#
# number of rings (size 3 to 8) (size 9 to 14) (size 15 to 20)
#    0.000    1.429    0.000    7.286    0.000    3.429 
#    0.000    8.571    0.000    8.571    0.000    0.000 
#    0.000    0.000    0.000    0.000    0.000    0.000 
#
# Total GULP energy -347334.961065 kJ/mol
# GULP energy per Si atom -12404.820038 kJ/mol
# Density = 2.116791 g / cm^3
# Si number density = 21.216196 Si / 1000 Ang^3
#
#
#
# Elastic Constant Matrix: (Units=GPa)
#
#
# Indices 1 2 3 4 5 6 
#
# 1 54.0612 29.4220 36.9042 0.0000 -16.4403 0.0000
# 2 29.4220 85.4138 15.3391 0.0000 5.8463 0.0000
# 3 36.9042 15.3391 82.6244 0.0000 -22.8774 0.0000
# 4 0.0000 0.0000 0.0000 30.9841 0.0000 -0.0097
# 5 -16.4403 5.8463 -22.8774 0.0000 28.8035 0.0000
# 6 0.0000 0.0000 0.0000 -0.0097 0.0000 34.2773
#
#
#
# Elastic Compliance Matrix: (Units=1/GPa)
#
#
# Indices 1 2 3 4 5 6 
#
# 1 0.036220 -0.011774 -0.009750 0.000000 0.015319 0.000000
# 2 -0.011774 0.016643 -0.000804 0.000000 -0.010736 0.000000
# 3 -0.009750 -0.000804 0.019371 0.000000 0.009984 0.000000
# 4 0.000000 0.000000 0.000000 0.032275 0.000000 0.000009
# 5 0.015319 -0.010736 0.009984 0.000000 0.053570 0.000000
# 6 0.000000 0.000000 0.000000 0.000009 0.000000 0.029174
#
#
# Mechanical properties :
#
#
# Convention : Reuss Voigt Hill
#
# Bulk Modulus (GPa) = 36.26037 42.82556 39.54297
# Shear Modulus (GPa) = 20.73821 28.17526 24.45674
#
# Velocity S-wave (km/s) = 3.12984 3.64814 3.39888
# Velocity P-wave (km/s) = 5.49447 6.16233 5.83796
#
# Compressibility (1/GPa) = 0.02757832
#
# Stress axis : x y z
#
# Youngs Moduli (GPa) = 27.60928 60.08680 51.62239
#
# Poissons Ratio (x) = 0.70746 0.50333
# Poissons Ratio (y) = 0.32507 0.04148
# Poissons Ratio (z) = 0.26920 0.04828
#
# Static dielectric constant tensor:
#      x y z
#    x 3.673070 0.000000 0.011560 
#    y 0.000000 3.877240 0.000000 
#    z 0.011560 0.000000 3.832060 
# 
# 
# High freq. dielectric constant tensor:
#      x y z
#    x 1.821060 0.000000 -0.005090 
#    y 0.000000 1.829960 0.000000 
#    z -0.005090 0.000000 1.840250 
# 
# From -- ./inp_files/22378.got.cif
#   From: 2010.06.25/outbox.cif.g09.slc.cpg/sg12_12_cif.got.tgz:22378.got - 2010.06.28 00:19:55.
