data_PCOD8108654
_publ_section_title
;
Structure prediction by ZEFSAII (Michael W. Deem and Ramdas Pophale) SiO2 
 PCOD8108654
Probable space group: C 2/M
;
_chemical_formula_sum "Si O2"
_cell_formula_units_Z 56
_cell_length_a 20.753929
_cell_length_b 14.596465
_cell_length_c 17.894568
_cell_angle_alpha 90.000000
_cell_angle_beta 29.913166
_cell_angle_gamma 90.000000
_cell_volume 2703.318534
_symmetry_space_group_name_H-M "C 2/M"
_symmetry_group_IT_number 12
_symmetry_cell_setting 'monoclinic'
loop_
_space_group_symop_operation_xyz
x,y,z
-x,y,-z
-x,-y,-z
x,-y,z
1/2+x,1/2+y,z
1/2-x,1/2+y,-z
1/2-x,1/2-y,-z
1/2+x,1/2-y,z
loop_
_atom_site_type_symbol
_atom_site_label
_atom_site_fract_x
_atom_site_fract_y
_atom_site_fract_z
Si Si1 0.131863 0.747502 0.900122
Si Si2 0.443073 0.398454 0.798385
Si Si3 0.315103 0.892244 0.273038
Si Si4 0.603106 0.834641 0.342504
Si Si5 0.504343 0.224125 0.179312
Si Si6 0.979333 0.141499 0.438166
Si Si7 0.840549 0.601847 0.871262
O O1 0.146843 0.647315 0.846723
O O2 0.261587 0.806011 0.752704
O O3 0.116666 0.734118 0.003911
O O4 0.000000 0.795245 0.000000
O O5 0.475852 0.500000 0.796619
O O6 0.537084 0.323719 0.744264
O O7 0.441984 0.403453 0.709061
O O8 0.302231 0.364742 0.965241
O O9 0.384684 0.831185 0.265984
O O10 0.166692 0.874856 0.439020
O O11 0.351293 0.000000 0.241154
O O12 0.500000 0.887119 0.500000
O O13 0.522814 0.746134 0.396804
O O14 0.638971 0.899524 0.238236
O O15 0.555849 0.168197 0.197358
O O16 0.000000 0.095761 0.500000
O O17 0.861907 0.500000 0.881126
#
# Coordination Sequence:
#
# PCOD8108654 Si02
#       7
#     8   8   8   8   8   8   8
#     4  10  21  38  63  92 126 168 204 258 318 379
#     4  11  23  39  65  94 123 166 214 261 316 378
#     4  11  24  39  60  96 130 165 209 260 321 385
#     4  11  20  40  66  90 124 168 212 255 317 372
#     4  11  22  40  63  85 132 165 207 259 322 372
#     4  11  22  40  62  92 128 164 208 259 318 376
#     4  11  23  39  64  94 123 166 214 259 311 376
#
# _framework density 20.715281000000001
#
# number of rings (size 3 to 8) (size 9 to 14) (size 15 to 20)
#    0.000    1.143    5.714    2.143    0.000    5.143 
#    0.000    0.000    0.000    7.714    0.000    0.000 
#    0.000    0.000    0.000    0.000    0.000    0.000 
#
# Total GULP energy -346986.317725 kJ/mol
# GULP energy per Si atom -12392.368490 kJ/mol
# Density = 2.066813 g / cm^3
# Si number density = 20.715281 Si / 1000 Ang^3
#
#
#
# Elastic Constant Matrix: (Units=GPa)
#
#
# Indices 1 2 3 4 5 6 
#
# 1 110.3534 55.7877 58.3119 0.0000 7.9891 0.0000
# 2 55.7877 101.7848 16.5676 0.0000 -3.5137 0.0000
# 3 58.3119 16.5676 134.9847 0.0000 8.1249 0.0001
# 4 0.0000 0.0000 0.0000 2.6716 0.0000 -0.2763
# 5 7.9891 -3.5137 8.1249 0.0000 36.9669 0.0000
# 6 0.0000 0.0000 0.0001 -0.2763 0.0000 15.0850
#
#
#
# Elastic Compliance Matrix: (Units=1/GPa)
#
#
# Indices 1 2 3 4 5 6 
#
# 1 0.016604 -0.008233 -0.005978 0.000000 -0.003057 0.000000
# 2 -0.008233 0.014164 0.001652 0.000000 0.002763 0.000000
# 3 -0.005978 0.001652 0.009831 0.000000 -0.000712 0.000000
# 4 0.000000 0.000000 0.000000 0.375015 0.000000 0.006870
# 5 -0.003057 0.002763 -0.000712 0.000000 0.028131 0.000000
# 6 0.000000 0.000000 0.000000 0.006870 0.000000 0.066417
#
#
# Mechanical properties :
#
#
# Convention : Reuss Voigt Hill
#
# Bulk Modulus (GPa) = 64.60049 67.60638 66.10343
# Shear Modulus (GPa) = 9.25171 25.37507 17.31339
#
# Velocity S-wave (km/s) = 2.11561 3.50372 2.89412
# Velocity P-wave (km/s) = 6.10085 7.00535 6.56869
#
# Compressibility (1/GPa) = 0.01547976
#
# Stress axis : x y z
#
# Youngs Moduli (GPa) = 60.22527 70.60312 101.71988
#
# Poissons Ratio (x) = 0.58129 0.60812
# Poissons Ratio (y) = 0.49585 -0.16804
# Poissons Ratio (z) = 0.36005 -0.11663
#
# Static dielectric constant tensor:
#      x y z
#    x 3.864690 0.000000 0.205290 
#    y 0.000000 3.597380 0.000000 
#    z 0.205290 0.000000 4.065030 
# 
# 
# High freq. dielectric constant tensor:
#      x y z
#    x 1.801330 0.000000 0.010870 
#    y 0.000000 1.794410 0.000000 
#    z 0.010870 0.000000 1.820350 
# 
# From -- ./inp_files/284505.got.cif
#   From: 2010.06.25/outbox.cif.g09.slc.cpg/sg12_143_cif.got.tgz:284505.got - 2010.06.28 00:19:55.
