data_PCOD8108861
_publ_section_title
;
Structure prediction by ZEFSAII (Michael W. Deem and Ramdas Pophale) SiO2 
 PCOD8108861
Probable space group: C 2/M
;
_chemical_formula_sum "Si O2"
_cell_formula_units_Z 64
_cell_length_a 15.198492
_cell_length_b 8.914948
_cell_length_c 23.981819
_cell_angle_alpha 90.000000
_cell_angle_beta 89.999098
_cell_angle_gamma 90.000000
_cell_volume 3249.386968
_symmetry_space_group_name_H-M "C 2/M"
_symmetry_group_IT_number 12
_symmetry_cell_setting 'monoclinic'
loop_
_space_group_symop_operation_xyz
x,y,z
-x,y,-z
-x,-y,-z
x,-y,z
1/2+x,1/2+y,z
1/2-x,1/2+y,-z
1/2-x,1/2-y,-z
1/2+x,1/2-y,z
loop_
_atom_site_type_symbol
_atom_site_label
_atom_site_fract_x
_atom_site_fract_y
_atom_site_fract_z
Si Si1 0.903687 0.329766 0.724903
Si Si2 0.834630 0.822841 0.383092
Si Si3 0.902766 0.670926 0.283507
Si Si4 0.255123 0.676423 0.920181
Si Si5 0.102827 0.677061 0.004461
Si Si6 0.245492 0.177258 0.206425
Si Si7 0.343252 0.322678 0.620373
Si Si8 0.402418 0.678222 0.501013
O O1 0.870094 0.500000 0.718995
O O2 0.843118 0.243714 0.768196
O O3 0.908842 0.253880 0.663767
O O4 0.003365 0.322176 0.747663
O O5 0.909107 0.775614 0.338921
O O6 0.752060 0.730500 0.359967
O O7 0.854110 0.763857 0.445564
O O8 0.818959 0.000000 0.382562
O O9 0.881502 0.500000 0.301470
O O10 0.830229 0.734287 0.240653
O O11 0.270192 0.500000 0.924904
O O12 0.344297 0.752448 0.943559
O O13 0.244176 0.731982 0.856918
O O14 0.163294 0.721496 0.950894
O O15 0.100028 0.500000 0.013318
O O16 0.000000 0.735244 0.000000
O O17 0.237979 0.000000 0.209687
O O18 0.354902 0.500000 0.623688
O O19 0.357109 0.262045 0.557344
O O20 0.500000 0.744731 0.500000
O O21 0.405025 0.500000 0.500671
#
# Coordination Sequence:
#
# PCOD8108861 Si02
#       8
#     8   8   8   8   8   8   8   8
#     4  11  23  38  58  85 112 144 193 244 286 339
#     4  11  21  35  57  82 108 140 186 234 279 343
#     4  10  22  39  58  81 112 149 187 233 293 347
#     4   9  19  35  56  84 117 154 195 234 278 330
#     4   9  18  34  58  87 119 155 193 231 281 334
#     4  10  21  39  59  80 114 157 192 230 286 344
#     4  11  21  36  57  78 108 147 183 227 292 350
#     4   9  19  34  52  77 106 139 180 227 282 346
#
# _framework density 19.696023
#
# number of rings (size 3 to 8) (size 9 to 14) (size 15 to 20)
#    0.000    2.000    1.250    2.250    0.000    3.750 
#    0.000    4.375    0.000    4.500    0.000    0.000 
#    0.000    0.000    0.000    0.000    0.000    0.000 
#
# Total GULP energy -396676.732828 kJ/mol
# GULP energy per Si atom -12396.147901 kJ/mol
# Density = 1.965119 g / cm^3
# Si number density = 19.696023 Si / 1000 Ang^3
#
#
#
# Elastic Constant Matrix: (Units=GPa)
#
#
# Indices 1 2 3 4 5 6 
#
# 1 124.0421 16.8057 49.7454 0.0000 -2.3803 0.0000
# 2 16.8057 22.2649 32.4194 0.0000 2.9867 0.0000
# 3 49.7454 32.4194 148.6529 0.0000 -2.8628 0.0000
# 4 0.0000 0.0000 0.0000 26.2932 0.0000 0.3675
# 5 -2.3803 2.9867 -2.8628 0.0000 18.7920 0.0000
# 6 0.0000 0.0000 0.0000 0.3675 0.0000 26.2655
#
#
#
# Elastic Compliance Matrix: (Units=1/GPa)
#
#
# Indices 1 2 3 4 5 6 
#
# 1 0.009559 -0.004108 -0.002274 0.000000 0.001517 0.000000
# 2 -0.004108 0.070737 -0.014321 0.000000 -0.013945 0.000000
# 3 -0.002274 -0.014321 0.010681 0.000000 0.003615 0.000000
# 4 0.000000 0.000000 0.000000 0.038040 0.000000 -0.000532
# 5 0.001517 -0.013945 0.003615 0.000000 0.056173 0.000000
# 6 0.000000 0.000000 0.000000 -0.000532 0.000000 0.038080
#
#
# Mechanical properties :
#
#
# Convention : Reuss Voigt Hill
#
# Bulk Modulus (GPa) = 20.17271 54.76680 37.46975
# Shear Modulus (GPa) = 17.78092 27.33611 22.55851
#
# Velocity S-wave (km/s) = 3.00787 3.72949 3.38795
# Velocity P-wave (km/s) = 4.72517 6.81263 5.86256
#
# Compressibility (1/GPa) = 0.04957193
#
# Stress axis : x y z
#
# Youngs Moduli (GPa) = 104.60945 14.13683 93.62610
#
# Poissons Ratio (x) = 0.05808 0.21289
# Poissons Ratio (y) = 0.42976 1.34079
# Poissons Ratio (z) = 0.23786 0.20245
#
# Static dielectric constant tensor:
#      x y z
#    x 3.696910 0.000000 0.004480 
#    y 0.000000 3.367800 0.000000 
#    z 0.004480 0.000000 3.710970 
# 
# 
# High freq. dielectric constant tensor:
#      x y z
#    x 1.777270 0.000000 -0.001180 
#    y 0.000000 1.749910 0.000000 
#    z -0.001180 0.000000 1.766140 
# 
# From -- ./inp_files/338701.got.cif
#   From: 2010.06.25/outbox.cif.g09.slc.cpg/sg12_170_cif.got.tgz:338701.got - 2010.06.28 00:19:55.
