data_PCOD8108322
_publ_section_title
;
Structure prediction by ZEFSAII (Michael W. Deem and Ramdas Pophale) SiO2 
 PCOD8108322
Probable space group: C 2/M
;
_chemical_formula_sum "Si O2"
_cell_formula_units_Z 56
_cell_length_a 14.942568
_cell_length_b 9.034748
_cell_length_c 25.252880
_cell_angle_alpha 90.000000
_cell_angle_beta 124.099442
_cell_angle_gamma 90.000000
_cell_volume 2823.040085
_symmetry_space_group_name_H-M "C 2/M"
_symmetry_group_IT_number 12
_symmetry_cell_setting 'monoclinic'
loop_
_space_group_symop_operation_xyz
x,y,z
-x,y,-z
-x,-y,-z
x,-y,z
1/2+x,1/2+y,z
1/2-x,1/2+y,-z
1/2-x,1/2-y,-z
1/2+x,1/2-y,z
loop_
_atom_site_type_symbol
_atom_site_label
_atom_site_fract_x
_atom_site_fract_y
_atom_site_fract_z
Si Si1 0.878654 0.173079 0.362444
Si Si2 0.292506 0.828658 0.435524
Si Si3 0.268946 0.828916 0.783785
Si Si4 0.094371 0.671207 0.415794
Si Si5 0.488886 0.824773 0.119956
Si Si6 0.342816 0.328323 0.998412
Si Si7 0.807793 0.330092 0.142243
O O1 0.859681 0.264475 0.409270
O O2 0.779213 0.202117 0.289988
O O3 0.986510 0.234842 0.370883
O O4 0.892524 0.000000 0.380113
O O5 0.182808 0.735769 0.404875
O O6 0.367118 0.808717 0.511390
O O7 0.264224 0.000000 0.416431
O O8 0.391686 0.769120 0.825088
O O9 0.194075 0.753448 0.802918
O O10 0.267922 0.000000 0.797503
O O11 0.074264 0.500000 0.394993
O O12 0.406777 0.770897 0.138825
O O13 0.481768 0.000000 0.110044
O O14 0.455503 0.749061 0.052614
O O15 0.348709 0.500000 0.015494
O O16 0.308908 0.308428 0.925636
O O17 0.250000 0.250000 0.000000
O O18 0.829526 0.500000 0.162342
#
# Coordination Sequence:
#
# PCOD8108322 Si02
#       7
#     8   8   8   8   8   8   8
#     4  11  23  38  56  82 117 154 191 231 274 326
#     4  10  21  38  61  89 116 144 184 231 280 334
#     4  10  23  39  54  77 109 146 188 225 264 320
#     4  10  21  38  61  88 116 147 184 229 280 331
#     4   9  19  37  56  76 106 142 178 221 273 325
#     4   9  17  31  53  81 107 134 173 221 274 327
#     4   9  19  35  55  78 106 139 177 224 275 325
#
# _framework density 19.836770000000001
#
# number of rings (size 3 to 8) (size 9 to 14) (size 15 to 20)
#    0.000    2.286    0.000    3.000    0.000    9.714 
#    0.000    4.286    0.000    0.000    0.000    0.000 
#    0.000    0.000    0.000    0.000    0.000    0.000 
#
# Total GULP energy -347197.194549 kJ/mol
# GULP energy per Si atom -12399.899805 kJ/mol
# Density = 1.979162 g / cm^3
# Si number density = 19.836770 Si / 1000 Ang^3
#
#
#
# Elastic Constant Matrix: (Units=GPa)
#
#
# Indices 1 2 3 4 5 6 
#
# 1 71.5563 18.5574 20.7684 0.0000 9.4766 0.0000
# 2 18.5574 75.0940 32.7400 0.0000 2.2494 0.0000
# 3 20.7684 32.7400 44.0051 0.0000 12.5295 0.0000
# 4 0.0000 0.0000 0.0000 32.1326 0.0000 -2.2156
# 5 9.4766 2.2494 12.5295 0.0000 30.5606 0.0000
# 6 0.0000 0.0000 0.0000 -2.2156 0.0000 33.6870
#
#
#
# Elastic Compliance Matrix: (Units=1/GPa)
#
#
# Indices 1 2 3 4 5 6 
#
# 1 0.016407 -0.001356 -0.006017 0.000000 -0.002521 0.000000
# 2 -0.001356 0.020569 -0.016249 0.000000 0.005568 0.000000
# 3 -0.006017 -0.016249 0.041643 0.000000 -0.014012 0.000000
# 4 0.000000 0.000000 0.000000 0.031263 0.000000 0.002056
# 5 -0.002521 0.005568 -0.014012 0.000000 0.038838 0.000000
# 6 0.000000 0.000000 0.000000 0.002056 0.000000 0.029820
#
#
# Mechanical properties :
#
#
# Convention : Reuss Voigt Hill
#
# Bulk Modulus (GPa) = 31.87171 37.19855 34.53513
# Shear Modulus (GPa) = 21.16462 27.18201 24.17331
#
# Velocity S-wave (km/s) = 3.26995 3.70575 3.49465
# Velocity P-wave (km/s) = 5.50986 6.09124 5.80783
#
# Compressibility (1/GPa) = 0.03137579
#
# Stress axis : x y z
#
# Youngs Moduli (GPa) = 60.95042 48.61596 24.01343
#
# Poissons Ratio (x) = 0.06591 0.14448
# Poissons Ratio (y) = 0.08263 0.39020
# Poissons Ratio (z) = 0.36673 0.78998
#
# Static dielectric constant tensor:
#      x y z
#    x 3.538350 0.000000 0.179560 
#    y 0.000000 3.661330 0.000000 
#    z 0.179560 0.000000 3.665190 
# 
# 
# High freq. dielectric constant tensor:
#      x y z
#    x 1.770030 0.000000 0.007570 
#    y 0.000000 1.776440 0.000000 
#    z 0.007570 0.000000 1.767730 
# 
# From -- ./inp_files/339095.got.cif
#   From: 2010.06.25/outbox.cif.g09.slc.cpg/sg12_170_cif.got.tgz:339095.got - 2010.06.28 00:19:55.
