data_PCOD8108645
_publ_section_title
;
Structure prediction by ZEFSAII (Michael W. Deem and Ramdas Pophale) SiO2 
 PCOD8108645
Probable space group: C 2/M
;
_chemical_formula_sum "Si O2"
_cell_formula_units_Z 64
_cell_length_a 23.685587
_cell_length_b 8.823703
_cell_length_c 28.884523
_cell_angle_alpha 90.000000
_cell_angle_beta 149.060662
_cell_angle_gamma 90.000000
_cell_volume 3103.654711
_symmetry_space_group_name_H-M "C 2/M"
_symmetry_group_IT_number 12
_symmetry_cell_setting 'monoclinic'
loop_
_space_group_symop_operation_xyz
x,y,z
-x,y,-z
-x,-y,-z
x,-y,z
1/2+x,1/2+y,z
1/2-x,1/2+y,-z
1/2-x,1/2-y,-z
1/2+x,1/2-y,z
loop_
_atom_site_type_symbol
_atom_site_label
_atom_site_fract_x
_atom_site_fract_y
_atom_site_fract_z
Si Si1 0.299451 0.321443 0.080768
Si Si2 0.707741 0.825800 0.166544
Si Si3 0.608710 0.675838 0.179957
Si Si4 0.312451 0.174298 0.675678
Si Si5 0.992170 0.674293 0.729797
Si Si6 0.371360 0.676062 0.974484
Si Si7 0.961370 0.175551 0.331952
Si Si8 0.938184 0.820030 0.502051
O O1 0.306104 0.500000 0.078742
O O2 0.420961 0.261955 0.176995
O O3 0.221669 0.280434 0.068636
O O4 0.250000 0.250000 0.000000
O O5 0.694850 0.771629 0.210231
O O6 0.627368 0.722229 0.078644
O O7 0.831828 0.800177 0.238033
O O8 0.672699 0.000000 0.137646
O O9 0.634303 0.500000 0.191459
O O10 0.621097 0.723619 0.241541
O O11 0.486087 0.716619 0.078353
O O12 0.371755 0.192959 0.667861
O O13 0.187854 0.233856 0.585472
O O14 0.315287 0.000000 0.694154
O O15 0.028898 0.500000 0.753643
O O16 0.982964 0.737673 0.671477
O O17 0.342019 0.500000 0.959851
O O18 0.004935 0.242761 0.411268
O O19 0.993303 0.000000 0.349851
O O20 0.000000 0.753702 0.500000
O O21 0.947501 0.000000 0.508010
#
# Coordination Sequence:
#
# PCOD8108645 Si02
#       8
#     8   8   8   8   8   8   8   8
#     4  12  24  39  60  86 118 161 210 255 305 364
#     4  11  22  37  60  89 120 160 206 251 300 365
#     4  11  24  39  58  86 121 161 200 250 313 367
#     4  10  22  40  62  89 119 157 206 252 301 366
#     4  11  23  39  60  88 124 162 202 254 309 362
#     4  11  23  39  58  85 120 158 202 252 308 365
#     4  10  21  38  63  92 121 160 207 253 306 368
#     4   9  18  37  65  93 121 156 201 254 307 366
#
# _framework density 20.620851999999999
#
# number of rings (size 3 to 8) (size 9 to 14) (size 15 to 20)
#    0.000    1.375    1.250    4.500    0.000    9.500 
#    0.000    0.625    0.000    1.500    0.000    0.000 
#    0.000    0.000    0.000    0.000    0.000    0.000 
#
# Total GULP energy -396965.995182 kJ/mol
# GULP energy per Si atom -12405.187349 kJ/mol
# Density = 2.057392 g / cm^3
# Si number density = 20.620852 Si / 1000 Ang^3
#
#
#
# Elastic Constant Matrix: (Units=GPa)
#
#
# Indices 1 2 3 4 5 6 
#
# 1 132.1141 45.2062 57.7400 0.0001 -5.4765 0.0000
# 2 45.2062 90.7405 52.6134 0.0002 3.2193 -0.0010
# 3 57.7400 52.6134 119.2501 0.0004 -16.3168 0.0000
# 4 0.0001 0.0002 0.0004 19.8561 0.0001 -5.2665
# 5 -5.4765 3.2193 -16.3168 0.0001 39.1657 0.0000
# 6 0.0000 -0.0010 0.0000 -5.2665 0.0000 35.2601
#
#
#
# Elastic Compliance Matrix: (Units=1/GPa)
#
#
# Indices 1 2 3 4 5 6 
#
# 1 0.010165 -0.002998 -0.003575 0.000000 0.000178 0.000000
# 2 -0.002998 0.016367 -0.006374 0.000000 -0.004420 0.000000
# 3 -0.003575 -0.006374 0.013714 0.000000 0.005738 0.000000
# 4 0.000000 0.000000 0.000000 0.052440 0.000000 0.007832
# 5 0.000178 -0.004420 0.005738 0.000000 0.028311 0.000000
# 6 0.000000 0.000000 0.000000 0.007832 0.000000 0.029531
#
#
# Mechanical properties :
#
#
# Convention : Reuss Voigt Hill
#
# Bulk Modulus (GPa) = 69.67676 72.58044 71.12860
# Shear Modulus (GPa) = 27.59321 31.29270 29.44296
#
# Velocity S-wave (km/s) = 3.66200 3.89977 3.78276
# Velocity P-wave (km/s) = 7.19327 7.45330 7.32444
#
# Compressibility (1/GPa) = 0.01435199
#
# Stress axis : x y z
#
# Youngs Moduli (GPa) = 98.38058 61.09986 72.91808
#
# Poissons Ratio (x) = 0.18315 0.26066
# Poissons Ratio (y) = 0.29490 0.46481
# Poissons Ratio (z) = 0.35168 0.38947
#
# Static dielectric constant tensor:
#      x y z
#    x 3.894200 0.000000 -0.072810 
#    y 0.000000 3.579350 0.000000 
#    z -0.072810 0.000000 3.736760 
# 
# 
# High freq. dielectric constant tensor:
#      x y z
#    x 1.821130 0.000000 -0.003470 
#    y 0.000000 1.794620 0.000000 
#    z -0.003470 0.000000 1.806200 
# 
# From -- ./inp_files/382568.got.cif
#   From: 2010.06.25/outbox.cif.g09.slc.cpg/sg12_192_cif.got.tgz:382568.got - 2010.06.28 00:19:55.
