data_PCOD8108637
_publ_section_title
;
Structure prediction by ZEFSAII (Michael W. Deem and Ramdas Pophale) SiO2 
 PCOD8108637
Probable space group: C 2/M
;
_chemical_formula_sum "Si O2"
_cell_formula_units_Z 64
_cell_length_a 19.479690
_cell_length_b 8.536285
_cell_length_c 31.215914
_cell_angle_alpha 90.000000
_cell_angle_beta 36.532495
_cell_angle_gamma 90.000000
_cell_volume 3089.920240
_symmetry_space_group_name_H-M "C 2/M"
_symmetry_group_IT_number 12
_symmetry_cell_setting 'monoclinic'
loop_
_space_group_symop_operation_xyz
x,y,z
-x,y,-z
-x,-y,-z
x,-y,z
1/2+x,1/2+y,z
1/2-x,1/2+y,-z
1/2-x,1/2-y,-z
1/2+x,1/2-y,z
loop_
_atom_site_type_symbol
_atom_site_label
_atom_site_fract_x
_atom_site_fract_y
_atom_site_fract_z
Si Si1 0.767717 0.318087 0.373699
Si Si2 0.728595 0.680295 0.718453
Si Si3 0.344477 0.684244 0.484192
Si Si4 0.577027 0.682206 0.324037
Si Si5 0.327583 0.683047 0.888432
Si Si6 0.570133 0.814981 0.005199
Si Si7 0.968408 0.679695 0.742562
Si Si8 0.997497 0.317052 0.866856
O O1 0.750158 0.500000 0.370592
O O2 0.740189 0.214480 0.346279
O O3 0.680349 0.261316 0.454698
O O4 0.896035 0.286100 0.326305
O O5 0.753933 0.500000 0.715881
O O6 0.804550 0.789927 0.710641
O O7 0.595387 0.718864 0.793774
O O8 0.333507 0.500000 0.487531
O O9 0.250000 0.750000 0.500000
O O10 0.471251 0.741170 0.406702
O O11 0.564399 0.500000 0.318779
O O12 0.582419 0.781925 0.278239
O O13 0.322117 0.500000 0.902283
O O14 0.409276 0.709474 0.806890
O O15 0.376020 0.774187 0.905636
O O16 0.200545 0.750592 0.941216
O O17 0.505391 0.770498 0.081683
O O18 0.576329 0.000000 0.996477
O O19 0.500000 0.741637 0.000000
O O20 0.941996 0.500000 0.767613
O O21 0.022644 0.500000 0.847993
#
# Coordination Sequence:
#
# PCOD8108637 Si02
#       8
#     8   8   8   8   8   8   8   8
#     4  10  21  40  64  90 124 163 204 253 309 368
#     4  12  26  42  62  91 127 163 208 259 310 367
#     4  10  21  38  63  91 121 160 205 256 308 369
#     4  11  24  41  63  91 125 165 207 254 315 373
#     4  11  22  38  64  93 124 163 209 254 301 363
#     4   9  21  40  62  92 124 160 204 252 305 364
#     4  11  22  38  63  93 127 163 206 256 309 364
#     4  11  22  40  66  90 122 164 205 253 309 366
#
# _framework density 20.712510000000002
#
# number of rings (size 3 to 8) (size 9 to 14) (size 15 to 20)
#    0.000    1.375    2.500    3.000    1.750    2.000 
#    0.000    4.375    0.000    3.000    0.000    0.000 
#    0.000    0.000    0.000    0.000    0.000    0.000 
#
# Total GULP energy -396949.057862 kJ/mol
# GULP energy per Si atom -12404.658058 kJ/mol
# Density = 2.066537 g / cm^3
# Si number density = 20.712510 Si / 1000 Ang^3
#
#
#
# Elastic Constant Matrix: (Units=GPa)
#
#
# Indices 1 2 3 4 5 6 
#
# 1 133.1583 13.8002 32.0356 0.0551 11.3750 0.1483
# 2 13.8002 46.4098 18.2329 0.2081 5.4482 0.0054
# 3 32.0356 18.2329 78.0241 0.0050 12.0517 -0.0031
# 4 0.0551 0.2081 0.0050 20.1364 0.0029 -1.1756
# 5 11.3750 5.4482 12.0517 0.0029 38.4372 0.0073
# 6 0.1483 0.0054 -0.0031 -1.1756 0.0073 31.6353
#
#
#
# Elastic Compliance Matrix: (Units=1/GPa)
#
#
# Indices 1 2 3 4 5 6 
#
# 1 0.008470 -0.001181 -0.002985 -0.000012 -0.001403 -0.000040
# 2 -0.001181 0.023998 -0.004888 -0.000244 -0.001519 -0.000008
# 3 -0.002985 -0.004888 0.015701 0.000056 -0.003347 0.000019
# 4 -0.000012 -0.000244 0.000056 0.049772 0.000016 0.001850
# 5 -0.001403 -0.001519 -0.003347 0.000016 0.027697 0.000001
# 6 -0.000040 -0.000008 0.000019 0.001850 0.000001 0.031679
#
#
# Mechanical properties :
#
#
# Convention : Reuss Voigt Hill
#
# Bulk Modulus (GPa) = 33.26567 42.85886 38.06226
# Shear Modulus (GPa) = 26.96189 30.94334 28.95262
#
# Velocity S-wave (km/s) = 3.61185 3.86935 3.74282
# Velocity P-wave (km/s) = 5.78701 6.37963 6.09053
#
# Compressibility (1/GPa) = 0.03006102
#
# Stress axis : x y z
#
# Youngs Moduli (GPa) = 118.05885 41.66960 63.68851
#
# Poissons Ratio (x) = 0.04922 0.19011
# Poissons Ratio (y) = 0.13945 0.31133
# Poissons Ratio (z) = 0.35241 0.20369
#
# Static dielectric constant tensor:
#      x y z
#    x 3.829040 0.000050 0.034810 
#    y 0.000050 3.592900 -0.000090 
#    z 0.034810 -0.000090 3.906610 
# 
# 
# High freq. dielectric constant tensor:
#      x y z
#    x 1.817860 0.000000 0.006170 
#    y 0.000000 1.795000 0.000000 
#    z 0.006170 0.000000 1.818820 
# 
# From -- ./inp_files/378062.got.cif
#   From: 2010.06.25/outbox.cif.g09.slc.cpg/sg12_190_cif.got.tgz:378062.got - 2010.06.28 00:19:55.
