data_PCOD8108179
_publ_section_title
;
Structure prediction by ZEFSAII (Michael W. Deem and Ramdas Pophale) SiO2 
 PCOD8108179
Probable space group: C 2/M
;
_chemical_formula_sum "Si O2"
_cell_formula_units_Z 56
_cell_length_a 28.903723
_cell_length_b 9.006788
_cell_length_c 12.575392
_cell_angle_alpha 90.000000
_cell_angle_beta 119.782695
_cell_angle_gamma 90.000000
_cell_volume 2841.336763
_symmetry_space_group_name_H-M "C 2/M"
_symmetry_group_IT_number 12
_symmetry_cell_setting 'monoclinic'
loop_
_space_group_symop_operation_xyz
x,y,z
-x,y,-z
-x,-y,-z
x,-y,z
1/2+x,1/2+y,z
1/2-x,1/2+y,-z
1/2-x,1/2-y,-z
1/2+x,1/2-y,z
loop_
_atom_site_type_symbol
_atom_site_label
_atom_site_fract_x
_atom_site_fract_y
_atom_site_fract_z
Si Si1 0.940667 0.324540 0.463322
Si Si2 0.857383 0.673098 0.197691
Si Si3 0.789530 0.830420 0.466762
Si Si4 0.740820 0.173730 0.776177
Si Si5 0.851431 0.323868 0.953943
Si Si6 0.441176 0.829211 0.889774
Si Si7 0.589710 0.668327 0.355847
O O1 0.933647 0.500000 0.463538
O O2 0.900112 0.256206 0.328667
O O3 0.928878 0.259858 0.564485
O O4 0.000000 0.277771 0.500000
O O5 0.869690 0.500000 0.208376
O O6 0.796520 0.703779 0.164241
O O7 0.864769 0.738086 0.087386
O O8 0.750000 0.750000 0.500000
O O9 0.791107 0.743310 0.358216
O O10 0.847029 0.822743 0.586154
O O11 0.771243 0.000000 0.427039
O O12 0.797459 0.250499 0.851882
O O13 0.749402 0.000000 0.765587
O O14 0.843093 0.500000 0.946522
O O15 0.899231 0.275714 0.931138
O O16 0.436673 0.732958 0.779459
O O17 0.430393 0.000000 0.848083
O O18 0.500000 0.804764 0.000000
O O19 0.570410 0.500000 0.348294
#
# Coordination Sequence:
#
# PCOD8108179 Si02
#       7
#     8   8   8   8   8   8   8
#     4  10  21  38  66  94 119 155 201 250 297 353
#     4   9  19  36  59  90 121 153 195 245 296 350
#     4  11  23  38  59  87 120 159 200 245 297 355
#     4  11  21  36  58  87 122 157 197 243 298 360
#     4  10  21  38  60  87 121 157 200 250 298 352
#     4  10  23  41  64  89 115 154 205 252 292 347
#     4  11  24  41  61  88 125 159 194 245 304 362
#
# _framework density 19.709033000000002
#
# number of rings (size 3 to 8) (size 9 to 14) (size 15 to 20)
#    0.000    1.714    1.429    2.571    2.000    5.143 
#    0.000    1.429    0.000    0.000    0.000    0.000 
#    0.000    0.000    0.000    0.000    0.000    0.000 
#
# Total GULP energy -347275.573932 kJ/mol
# GULP energy per Si atom -12402.699069 kJ/mol
# Density = 1.966417 g / cm^3
# Si number density = 19.709033 Si / 1000 Ang^3
#
#
#
# Elastic Constant Matrix: (Units=GPa)
#
#
# Indices 1 2 3 4 5 6 
#
# 1 99.2168 31.1400 34.9858 0.0000 7.1885 0.0000
# 2 31.1400 33.3254 14.6089 0.0000 5.5489 0.0000
# 3 34.9858 14.6089 94.6068 0.0000 -1.8992 0.0000
# 4 0.0000 0.0000 0.0000 20.9790 0.0000 5.9480
# 5 7.1885 5.5489 -1.8992 0.0000 32.2538 0.0000
# 6 0.0000 0.0000 0.0000 5.9480 0.0000 21.4475
#
#
#
# Elastic Compliance Matrix: (Units=1/GPa)
#
#
# Indices 1 2 3 4 5 6 
#
# 1 0.015466 -0.012526 -0.003815 0.000000 -0.001517 0.000000
# 2 -0.012526 0.043468 -0.002176 0.000000 -0.004814 0.000000
# 3 -0.003815 -0.002176 0.012356 0.000000 0.001952 0.000000
# 4 0.000000 0.000000 0.000000 0.051735 0.000000 -0.014347
# 5 -0.001517 -0.004814 0.001952 0.000000 0.032285 0.000000
# 6 0.000000 0.000000 0.000000 -0.014347 0.000000 0.050604
#
#
# Mechanical properties :
#
#
# Convention : Reuss Voigt Hill
#
# Bulk Modulus (GPa) = 29.19440 43.17982 36.18711
# Shear Modulus (GPa) = 19.65653 24.69704 22.17678
#
# Velocity S-wave (km/s) = 3.16149 3.54373 3.35805
# Velocity P-wave (km/s) = 5.30769 6.22095 5.78238
#
# Compressibility (1/GPa) = 0.03425314
#
# Stress axis : x y z
#
# Youngs Moduli (GPa) = 64.65916 23.00554 80.93046
#
# Poissons Ratio (x) = 0.28818 0.30878
# Poissons Ratio (y) = 0.80995 0.17615
# Poissons Ratio (z) = 0.24670 0.05007
#
# Static dielectric constant tensor:
#      x y z
#    x 3.675110 0.000000 0.031440 
#    y 0.000000 3.505510 0.000000 
#    z 0.031440 0.000000 3.895900 
# 
# 
# High freq. dielectric constant tensor:
#      x y z
#    x 1.779770 0.000000 -0.002730 
#    y 0.000000 1.751940 0.000000 
#    z -0.002730 0.000000 1.780680 
# 
# From -- ./inp_files/180737.got.cif
#   From: 2010.06.25/outbox.cif.g09.slc.cpg/sg12_91_cif.got.tgz:180737.got - 2010.06.28 00:19:55.
