data_PCOD8108891
_publ_section_title
;
Structure prediction by ZEFSAII (Michael W. Deem and Ramdas Pophale) SiO2 
 PCOD8108891
Probable space group: C 2/M
;
_chemical_formula_sum "Si O2"
_cell_formula_units_Z 56
_cell_length_a 12.426294
_cell_length_b 14.018277
_cell_length_c 17.352168
_cell_angle_alpha 90.000000
_cell_angle_beta 115.042397
_cell_angle_gamma 90.000000
_cell_volume 2738.518745
_symmetry_space_group_name_H-M "C 2/M"
_symmetry_group_IT_number 12
_symmetry_cell_setting 'monoclinic'
loop_
_space_group_symop_operation_xyz
x,y,z
-x,y,-z
-x,-y,-z
x,-y,z
1/2+x,1/2+y,z
1/2-x,1/2+y,-z
1/2-x,1/2-y,-z
1/2+x,1/2-y,z
loop_
_atom_site_type_symbol
_atom_site_label
_atom_site_fract_x
_atom_site_fract_y
_atom_site_fract_z
Si Si1 0.419853 0.205723 0.256744
Si Si2 0.933391 0.108738 0.184397
Si Si3 0.679314 0.889111 0.055775
Si Si4 0.503604 0.112853 0.874963
Si Si5 0.068418 0.718090 0.444782
Si Si6 0.284938 0.389552 0.572617
Si Si7 0.802924 0.108115 0.758109
O O1 0.423444 0.321049 0.254379
O O2 0.491504 0.165671 0.205208
O O3 0.483966 0.171839 0.354112
O O4 0.282700 0.172313 0.215088
O O5 0.820579 0.131962 0.095228
O O6 0.058318 0.126429 0.178038
O O7 0.928481 0.000000 0.214175
O O8 0.616240 0.853832 0.116101
O O9 0.651835 0.000000 0.045769
O O10 0.616024 0.849147 0.959765
O O11 0.506920 0.000000 0.860237
O O12 0.162271 0.635697 0.493225
O O13 0.117921 0.818848 0.431648
O O14 0.000000 0.746331 0.500000
O O15 0.317677 0.500000 0.566242
O O16 0.278579 0.369263 0.661502
O O17 0.768699 0.000000 0.766924
#
# Coordination Sequence:
#
# PCOD8108891 Si02
#       7
#     8   8   8   8   8   8   8
#     4  12  23  35  64  91 122 158 206 251 297 360
#     4  10  22  39  61  85 120 164 202 242 302 364
#     4   8  17  38  63  86 123 162 197 246 307 358
#     4   9  19  37  62  94 124 155 198 256 305 353
#     4  11  23  40  60  87 121 155 203 253 295 352
#     4  10  22  41  62  83 117 160 199 246 307 358
#     4  10  21  39  59  86 122 158 197 249 308 358
#
# _framework density 20.449010999999999
#
# number of rings (size 3 to 8) (size 9 to 14) (size 15 to 20)
#    0.000    2.000    2.857    1.286    2.000    2.286 
#    0.000    0.714    0.000    3.429    0.000    0.000 
#    0.000    0.000    0.000    0.000    0.000    0.000 
#
# Total GULP energy -347037.352852 kJ/mol
# GULP energy per Si atom -12394.191173 kJ/mol
# Density = 2.040247 g / cm^3
# Si number density = 20.449011 Si / 1000 Ang^3
#
#
#
# Elastic Constant Matrix: (Units=GPa)
#
#
# Indices 1 2 3 4 5 6 
#
# 1 113.6857 40.0528 35.2824 0.0000 6.8381 0.0000
# 2 40.0528 77.2590 18.3170 0.0000 -5.7884 0.0000
# 3 35.2824 18.3170 66.8857 0.0000 5.5715 0.0000
# 4 0.0000 0.0000 0.0000 16.2448 0.0000 0.8210
# 5 6.8381 -5.7884 5.5715 0.0000 40.6577 0.0000
# 6 0.0000 0.0000 0.0000 0.8210 0.0000 42.2754
#
#
#
# Elastic Compliance Matrix: (Units=1/GPa)
#
#
# Indices 1 2 3 4 5 6 
#
# 1 0.012337 -0.005411 -0.004844 0.000000 -0.002181 0.000000
# 2 -0.005411 0.016475 -0.001951 0.000000 0.003523 0.000000
# 3 -0.004844 -0.001951 0.018204 0.000000 -0.001958 0.000000
# 4 0.000000 0.000000 0.000000 0.061619 0.000000 -0.001197
# 5 -0.002181 0.003523 -0.001958 0.000000 0.025732 0.000000
# 6 0.000000 0.000000 0.000000 -0.001197 0.000000 0.023678
#
#
# Mechanical properties :
#
#
# Convention : Reuss Voigt Hill
#
# Bulk Modulus (GPa) = 44.24102 49.45943 46.85022
# Shear Modulus (GPa) = 26.31701 30.78080 28.54891
#
# Velocity S-wave (km/s) = 3.59131 3.88396 3.74050
# Velocity P-wave (km/s) = 6.23526 6.65979 6.45102
#
# Compressibility (1/GPa) = 0.02260346
#
# Stress axis : x y z
#
# Youngs Moduli (GPa) = 81.05626 60.69792 54.93397
#
# Poissons Ratio (x) = 0.32842 0.26612
# Poissons Ratio (y) = 0.43857 0.10718
# Poissons Ratio (z) = 0.39267 0.11842
#
# Static dielectric constant tensor:
#      x y z
#    x 3.784820 0.000000 0.266240 
#    y 0.000000 3.626700 0.000000 
#    z 0.266240 0.000000 3.714980 
# 
# 
# High freq. dielectric constant tensor:
#      x y z
#    x 1.799300 0.000000 0.018120 
#    y 0.000000 1.795740 0.000000 
#    z 0.018120 0.000000 1.790810 
# 
# From -- ./inp_files/263424.got.cif
#   From: 2010.06.25/outbox.cif.g09.slc.cpg/sg12_132_cif.got.tgz:263424.got - 2010.06.28 00:19:55.
