data_PCOD8108656
_publ_section_title
;
Structure prediction by ZEFSAII (Michael W. Deem and Ramdas Pophale) SiO2 
 PCOD8108656
Probable space group: C 2/M
;
_chemical_formula_sum "Si O2"
_cell_formula_units_Z 56
_cell_length_a 30.939520
_cell_length_b 8.554423
_cell_length_c 11.800122
_cell_angle_alpha 90.000000
_cell_angle_beta 63.202738
_cell_angle_gamma 90.000000
_cell_volume 2787.733512
_symmetry_space_group_name_H-M "C 2/M"
_symmetry_group_IT_number 12
_symmetry_cell_setting 'monoclinic'
loop_
_space_group_symop_operation_xyz
x,y,z
-x,y,-z
-x,-y,-z
x,-y,z
1/2+x,1/2+y,z
1/2-x,1/2+y,-z
1/2-x,1/2-y,-z
1/2+x,1/2-y,z
loop_
_atom_site_type_symbol
_atom_site_label
_atom_site_fract_x
_atom_site_fract_y
_atom_site_fract_z
Si Si1 0.373127 0.180700 0.569458
Si Si2 0.546165 0.318402 0.374392
Si Si3 0.313058 0.817962 0.010896
Si Si4 0.476111 0.182011 0.833070
Si Si5 0.913004 0.317565 0.280748
Si Si6 0.894706 0.180757 0.068482
Si Si7 0.706388 0.681517 0.200545
O O1 0.406276 0.288511 0.608948
O O2 0.381623 0.223262 0.428495
O O3 0.317915 0.220093 0.668625
O O4 0.385725 0.000000 0.576205
O O5 0.500000 0.260686 0.500000
O O6 0.542182 0.500000 0.347227
O O7 0.549195 0.218940 0.256313
O O8 0.356439 0.782380 0.044215
O O9 0.262623 0.769497 0.130011
O O10 0.312777 0.000000 0.979481
O O11 0.319761 0.721349 0.887449
O O12 0.531784 0.236140 0.763422
O O13 0.471340 0.000000 0.865722
O O14 0.448864 0.275180 0.964733
O O15 0.910679 0.500000 0.253292
O O16 0.889609 0.219690 0.206833
O O17 0.883945 0.000000 0.060052
O O18 0.699715 0.500000 0.234540
#
# Coordination Sequence:
#
# PCOD8108656 Si02
#       7
#     8   8   8   8   8   8   8
#     4  11  22  38  60  86 118 156 195 234 286 348
#     4  11  22  35  55  84 119 152 188 238 287 333
#     4  10  21  40  64  88 117 152 190 235 287 345
#     4  11  22  39  61  83 114 155 199 240 285 344
#     4  10  23  41  59  81 113 156 200 238 280 342
#     4  12  25  39  59  86 116 150 194 244 292 340
#     4  10  21  38  63  93 120 147 186 237 292 344
#
# _framework density 20.088003
#
# number of rings (size 3 to 8) (size 9 to 14) (size 15 to 20)
#    0.000    1.286    1.429    4.714    0.000    6.286 
#    0.000    0.714    0.000    0.000    0.000    0.000 
#    0.000    0.000    0.000    0.000    0.000    0.000 
#
# Total GULP energy -347415.790651 kJ/mol
# GULP energy per Si atom -12407.706809 kJ/mol
# Density = 2.004228 g / cm^3
# Si number density = 20.088003 Si / 1000 Ang^3
#
#
#
# Elastic Constant Matrix: (Units=GPa)
#
#
# Indices 1 2 3 4 5 6 
#
# 1 59.3355 15.8352 39.1270 0.0000 -1.5444 0.0000
# 2 15.8352 52.2975 28.1610 0.0000 -2.3596 0.0000
# 3 39.1270 28.1610 138.2166 0.0000 -5.9514 0.0000
# 4 0.0000 0.0000 0.0000 35.3447 0.0000 0.0143
# 5 -1.5444 -2.3596 -5.9514 0.0000 30.0589 0.0000
# 6 0.0000 0.0000 0.0000 0.0143 0.0000 29.7035
#
#
#
# Elastic Compliance Matrix: (Units=1/GPa)
#
#
# Indices 1 2 3 4 5 6 
#
# 1 0.021309 -0.003605 -0.005308 0.000000 -0.000239 0.000000
# 2 -0.003605 0.022108 -0.003447 0.000000 0.000868 0.000000
# 3 -0.005308 -0.003447 0.009497 0.000000 0.001337 0.000000
# 4 0.000000 0.000000 0.000000 0.028293 0.000000 -0.000014
# 5 -0.000239 0.000868 0.001337 0.000000 0.033589 0.000000
# 6 0.000000 0.000000 0.000000 -0.000014 0.000000 0.033666
#
#
# Mechanical properties :
#
#
# Convention : Reuss Voigt Hill
#
# Bulk Modulus (GPa) = 35.46627 46.23288 40.84957
# Shear Modulus (GPa) = 27.38523 30.13649 28.76086
#
# Velocity S-wave (km/s) = 3.69624 3.87747 3.78794
# Velocity P-wave (km/s) = 5.99250 6.56594 6.28576
#
# Compressibility (1/GPa) = 0.02819580
#
# Stress axis : x y z
#
# Youngs Moduli (GPa) = 46.92749 45.23265 105.29092
#
# Poissons Ratio (x) = 0.16305 0.55891
# Poissons Ratio (y) = 0.16916 0.36289
# Poissons Ratio (z) = 0.24910 0.15590
#
# Static dielectric constant tensor:
#      x y z
#    x 3.477770 0.000000 -0.153060 
#    y 0.000000 3.557650 0.000000 
#    z -0.153060 0.000000 3.833010 
# 
# 
# High freq. dielectric constant tensor:
#      x y z
#    x 1.769040 0.000000 -0.007050 
#    y 0.000000 1.787950 0.000000 
#    z -0.007050 0.000000 1.793610 
# 
# From -- ./inp_files/187247.got.cif
#   From: 2010.06.25/outbox.cif.g09.slc.cpg/sg12_94_cif.got.tgz:187247.got - 2010.06.28 00:19:55.
