data_PCOD8108904
_publ_section_title
;
Structure prediction by ZEFSAII (Michael W. Deem and Ramdas Pophale) SiO2 
 PCOD8108904
Probable space group: C 2/M
;
_chemical_formula_sum "Si O2"
_cell_formula_units_Z 56
_cell_length_a 15.008181
_cell_length_b 8.884587
_cell_length_c 21.727773
_cell_angle_alpha 90.000000
_cell_angle_beta 99.117369
_cell_angle_gamma 90.000000
_cell_volume 2860.609693
_symmetry_space_group_name_H-M "C 2/M"
_symmetry_group_IT_number 12
_symmetry_cell_setting 'monoclinic'
loop_
_space_group_symop_operation_xyz
x,y,z
-x,y,-z
-x,-y,-z
x,-y,z
1/2+x,1/2+y,z
1/2-x,1/2+y,-z
1/2-x,1/2-y,-z
1/2+x,1/2-y,z
loop_
_atom_site_type_symbol
_atom_site_label
_atom_site_fract_x
_atom_site_fract_y
_atom_site_fract_z
Si Si1 0.265968 0.322927 0.590543
Si Si2 0.104399 0.822443 0.505466
Si Si3 0.234007 0.676878 0.063632
Si Si4 0.319674 0.322232 0.731487
Si Si5 0.484117 0.170515 0.813440
Si Si6 0.450936 0.322096 0.931905
Si Si7 0.818337 0.669838 0.180740
O O1 0.249720 0.500000 0.586827
O O2 0.169706 0.247691 0.564326
O O3 0.349080 0.277320 0.554573
O O4 0.293695 0.265575 0.660947
O O5 0.000000 0.762488 0.500000
O O6 0.103772 0.000000 0.515022
O O7 0.232984 0.500000 0.054222
O O8 0.143225 0.737957 0.083436
O O9 0.310731 0.723686 0.120184
O O10 0.250000 0.750000 0.000000
O O11 0.334053 0.500000 0.734284
O O12 0.412084 0.245313 0.761133
O O13 0.241369 0.269959 0.769429
O O14 0.503651 0.263991 0.878093
O O15 0.577929 0.172709 0.786385
O O16 0.455066 0.000000 0.826761
O O17 0.437077 0.500000 0.927764
O O18 0.500000 0.273289 0.000000
O O19 0.788741 0.500000 0.159368
#
# Coordination Sequence:
#
# PCOD8108904 Si02
#       7
#     8   8   8   8   8   8   8
#     4   9  19  35  56  84 115 155 202 239 288 348
#     4   9  18  34  56  84 120 156 194 244 295 340
#     4  12  24  38  59  85 113 146 189 239 293 353
#     4  10  21  39  60  81 116 159 195 240 295 356
#     4  11  23  38  58  85 113 147 192 241 291 352
#     4  11  23  39  59  83 112 147 188 237 296 355
#     4  10  22  40  59  81 114 151 189 238 297 351
#
# _framework density 19.576245
#
# number of rings (size 3 to 8) (size 9 to 14) (size 15 to 20)
#    0.000    1.714    1.429    3.000    0.000    6.571 
#    0.000    0.000    0.000    0.000    0.000    0.000 
#    0.000    0.000    0.000    0.000    0.000    0.000 
#
# Total GULP energy -347189.339943 kJ/mol
# GULP energy per Si atom -12399.619284 kJ/mol
# Density = 1.953169 g / cm^3
# Si number density = 19.576245 Si / 1000 Ang^3
#
#
#
# Elastic Constant Matrix: (Units=GPa)
#
#
# Indices 1 2 3 4 5 6 
#
# 1 139.4692 31.5557 59.1642 0.0000 9.4464 0.0000
# 2 31.5557 67.4677 40.0439 0.0000 7.6298 0.0000
# 3 59.1642 40.0439 149.2445 0.0000 17.1020 0.0000
# 4 0.0000 0.0000 0.0000 27.7900 0.0000 6.4769
# 5 9.4464 7.6298 17.1020 0.0000 27.6980 0.0000
# 6 0.0000 0.0000 0.0000 6.4769 0.0000 28.9308
#
#
#
# Elastic Compliance Matrix: (Units=1/GPa)
#
#
# Indices 1 2 3 4 5 6 
#
# 1 0.008965 -0.002444 -0.002825 0.000000 -0.000640 0.000000
# 2 -0.002444 0.018408 -0.003750 0.000000 -0.001922 0.000000
# 3 -0.002825 -0.003750 0.009252 0.000000 -0.003716 0.000000
# 4 0.000000 0.000000 0.000000 0.037965 0.000000 -0.008499
# 5 -0.000640 -0.001922 -0.003716 0.000000 0.039146 0.000000
# 6 0.000000 0.000000 0.000000 -0.008499 0.000000 0.036468
#
#
# Mechanical properties :
#
#
# Convention : Reuss Voigt Hill
#
# Bulk Modulus (GPa) = 53.79947 68.63430 61.21689
# Shear Modulus (GPa) = 28.66360 31.91160 30.28760
#
# Velocity S-wave (km/s) = 3.83064 4.04185 3.93766
# Velocity P-wave (km/s) = 6.86344 7.54442 7.21197
#
# Compressibility (1/GPa) = 0.01858754
#
# Stress axis : x y z
#
# Youngs Moduli (GPa) = 111.54956 54.32405 108.08209
#
# Poissons Ratio (x) = 0.13277 0.30530
# Poissons Ratio (y) = 0.27262 0.40531
# Poissons Ratio (z) = 0.31510 0.20372
#
# Static dielectric constant tensor:
#      x y z
#    x 3.754360 0.000000 -0.100810 
#    y 0.000000 3.509490 0.000000 
#    z -0.100810 0.000000 3.648930 
# 
# 
# High freq. dielectric constant tensor:
#      x y z
#    x 1.774240 0.000000 -0.001330 
#    y 0.000000 1.758970 0.000000 
#    z -0.001330 0.000000 1.757350 
# 
# From -- ./inp_files/308895.got.cif
#   From: 2010.06.25/outbox.cif.g09.slc.cpg/sg12_155_cif.got.tgz:308895.got - 2010.06.28 00:19:55.
