data_PCOD8108316
_publ_section_title
;
Structure prediction by ZEFSAII (Michael W. Deem and Ramdas Pophale) SiO2 
 PCOD8108316
Probable space group: C 2/M
;
_chemical_formula_sum "Si O2"
_cell_formula_units_Z 64
_cell_length_a 28.240573
_cell_length_b 8.862070
_cell_length_c 15.354306
_cell_angle_alpha 90.000000
_cell_angle_beta 56.781004
_cell_angle_gamma 90.000000
_cell_volume 3214.754147
_symmetry_space_group_name_H-M "C 2/M"
_symmetry_group_IT_number 12
_symmetry_cell_setting 'monoclinic'
loop_
_space_group_symop_operation_xyz
x,y,z
-x,y,-z
-x,-y,-z
x,-y,z
1/2+x,1/2+y,z
1/2-x,1/2+y,-z
1/2-x,1/2-y,-z
1/2+x,1/2-y,z
loop_
_atom_site_type_symbol
_atom_site_label
_atom_site_fract_x
_atom_site_fract_y
_atom_site_fract_z
Si Si1 0.749298 0.323383 0.172065
Si Si2 0.630023 0.673538 0.214096
Si Si3 0.019477 0.676056 0.383854
Si Si4 0.361501 0.673969 0.997187
Si Si5 0.261704 0.325662 0.617157
Si Si6 0.970640 0.323020 0.939405
Si Si7 0.660000 0.174770 0.592942
Si Si8 0.958995 0.821729 0.285074
O O1 0.762068 0.500000 0.148143
O O2 0.691859 0.274931 0.182295
O O3 0.798429 0.229558 0.077475
O O4 0.745255 0.276771 0.276632
O O5 0.619337 0.500000 0.250585
O O6 0.584573 0.775923 0.308910
O O7 0.623468 0.698761 0.118408
O O8 0.013388 0.500000 0.370399
O O9 0.000000 0.718213 0.500000
O O10 0.979198 0.764219 0.358269
O O11 0.366350 0.500000 0.019134
O O12 0.405421 0.770525 0.010523
O O13 0.279110 0.500000 0.590071
O O14 0.311954 0.226823 0.525777
O O15 0.202637 0.292449 0.629025
O O16 0.974038 0.500000 0.918226
O O17 0.000438 0.237625 0.830928
O O18 0.000000 0.278389 0.000000
O O19 0.604374 0.268855 0.669986
O O20 0.643795 0.000000 0.601925
O O21 0.962014 0.000000 0.281786
#
# Coordination Sequence:
#
# PCOD8108316 Si02
#       8
#     8   8   8   8   8   8   8   8
#     4  10  22  39  62  90 121 161 209 253 306 369
#     4  10  22  41  63  90 124 163 204 254 312 369
#     4  11  25  43  65  95 128 165 211 260 313 373
#     4  11  23  40  62  92 125 161 206 254 311 371
#     4   9  20  39  60  88 121 161 207 254 305 364
#     4  11  25  44  67  93 125 167 212 260 317 375
#     4  10  21  38  61  87 124 164 205 252 307 366
#     4  12  25  42  66  95 128 167 210 256 315 378
#
# _framework density 19.908208999999999
#
# number of rings (size 3 to 8) (size 9 to 14) (size 15 to 20)
#    0.000    1.500    1.250    3.000    3.500    4.000 
#    0.000    0.000    0.000    0.000    0.000    0.000 
#    0.000    0.000    0.000    0.000    0.000    0.000 
#
# Total GULP energy -397026.788079 kJ/mol
# GULP energy per Si atom -12407.087127 kJ/mol
# Density = 1.986290 g / cm^3
# Si number density = 19.908209 Si / 1000 Ang^3
#
#
#
# Elastic Constant Matrix: (Units=GPa)
#
#
# Indices 1 2 3 4 5 6 
#
# 1 112.8470 44.8573 33.8226 0.0000 -7.5651 0.0000
# 2 44.8573 84.4602 35.0094 0.0001 7.8282 0.0002
# 3 33.8226 35.0094 64.3006 0.0000 -2.6138 0.0000
# 4 0.0000 0.0001 0.0000 27.4578 0.0000 -9.2019
# 5 -7.5651 7.8282 -2.6138 0.0000 27.8091 0.0000
# 6 0.0000 0.0002 0.0000 -9.2019 0.0000 33.7214
#
#
#
# Elastic Compliance Matrix: (Units=1/GPa)
#
#
# Indices 1 2 3 4 5 6 
#
# 1 0.012403 -0.005675 -0.003244 0.000000 0.004666 0.000000
# 2 -0.005675 0.018645 -0.007471 0.000000 -0.007495 0.000000
# 3 -0.003244 -0.007471 0.021458 0.000000 0.003237 0.000000
# 4 0.000000 0.000000 0.000000 0.040085 0.000000 0.010938
# 5 0.004666 -0.007495 0.003237 0.000000 0.039643 0.000000
# 6 0.000000 0.000000 0.000000 0.010938 0.000000 0.032640
#
#
# Mechanical properties :
#
#
# Convention : Reuss Voigt Hill
#
# Bulk Modulus (GPa) = 50.69769 54.33182 52.51476
# Shear Modulus (GPa) = 24.48216 27.65888 26.07052
#
# Velocity S-wave (km/s) = 3.51059 3.73140 3.62268
# Velocity P-wave (km/s) = 6.47714 6.77605 6.62828
#
# Compressibility (1/GPa) = 0.01972476
#
# Stress axis : x y z
#
# Youngs Moduli (GPa) = 80.62857 53.63247 46.60237
#
# Poissons Ratio (x) = 0.30435 0.15120
# Poissons Ratio (y) = 0.45755 0.34819
# Poissons Ratio (z) = 0.26160 0.40071
#
# Static dielectric constant tensor:
#      x y z
#    x 3.821480 0.000000 -0.005620 
#    y 0.000000 3.660470 0.000000 
#    z -0.005620 0.000000 3.616690 
# 
# 
# High freq. dielectric constant tensor:
#      x y z
#    x 1.791240 0.000000 -0.003030 
#    y 0.000000 1.781310 0.000000 
#    z -0.003030 0.000000 1.781730 
# 
# From -- ./inp_files/249807.got.cif
#   From: 2010.06.25/outbox.cif.g09.slc.cpg/sg12_125_cif.got.tgz:249807.got - 2010.06.28 00:19:55.
