data_PCOD8108145
_publ_section_title
;
Structure prediction by ZEFSAII (Michael W. Deem and Ramdas Pophale) SiO2 
 PCOD8108145
Probable space group: C 2/M
;
_chemical_formula_sum "Si O2"
_cell_formula_units_Z 40
_cell_length_a 18.866979
_cell_length_b 8.356698
_cell_length_c 26.824209
_cell_angle_alpha 90.000000
_cell_angle_beta 151.623195
_cell_angle_gamma 90.000000
_cell_volume 2010.030416
_symmetry_space_group_name_H-M "C 2/M"
_symmetry_group_IT_number 12
_symmetry_cell_setting 'monoclinic'
loop_
_space_group_symop_operation_xyz
x,y,z
-x,y,-z
-x,-y,-z
x,-y,z
1/2+x,1/2+y,z
1/2-x,1/2+y,-z
1/2-x,1/2-y,-z
1/2+x,1/2-y,z
loop_
_atom_site_type_symbol
_atom_site_label
_atom_site_fract_x
_atom_site_fract_y
_atom_site_fract_z
Si Si1 0.937020 0.686889 0.315756
Si Si2 0.910509 0.813960 0.493290
Si Si3 0.824774 0.685249 0.095494
Si Si4 0.591589 0.316059 0.316501
Si Si5 0.330867 0.812940 0.907415
O O1 0.928651 0.500000 0.322735
O O2 0.773275 0.755485 0.202341
O O3 0.991474 0.781692 0.397525
O O4 0.049864 0.712362 0.339349
O O5 0.758047 0.715878 0.401599
O O6 0.000000 0.755660 0.500000
O O7 0.871035 0.000000 0.465103
O O8 0.861690 0.500000 0.112394
O O9 0.709684 0.712644 0.068963
O O10 0.980083 0.775859 0.202142
O O11 0.750000 0.750000 0.000000
O O12 0.574175 0.500000 0.320936
O O13 0.305137 0.000000 0.901782
O O14 0.500000 0.772472 0.000000
#
# Coordination Sequence:
#
# PCOD8108145 Si02
#       5
#     8   8   8   8   8
#     4  11  22  38  61  86 115 151 193 236 281 339
#     4  11  24  41  60  84 116 151 189 236 289 340
#     4  11  22  38  60  86 117 152 193 236 283 337
#     4  11  22  39  62  86 115 150 192 236 282 340
#     4  10  21  38  60  86 117 152 191 235 285 339
#
# _framework density 19.900196999999999
#
# number of rings (size 3 to 8) (size 9 to 14) (size 15 to 20)
#    0.000    1.200    0.000    9.600    0.000    4.800 
#    0.000    2.000    0.000    0.000    0.000    0.000 
#    0.000    0.000    0.000    0.000    0.000    0.000 
#
# Total GULP energy -248119.158637 kJ/mol
# GULP energy per Si atom -12405.957932 kJ/mol
# Density = 1.985490 g / cm^3
# Si number density = 19.900197 Si / 1000 Ang^3
#
#
#
# Elastic Constant Matrix: (Units=GPa)
#
#
# Indices 1 2 3 4 5 6 
#
# 1 85.1278 7.7457 74.6841 -0.0006 5.7092 -0.0001
# 2 7.7457 77.7457 16.4098 -0.0002 8.6757 0.0000
# 3 74.6841 16.4098 147.3004 0.0008 -0.9649 0.0000
# 4 -0.0006 -0.0002 0.0008 36.3842 0.0003 0.9752
# 5 5.7092 8.6757 -0.9649 0.0003 42.3305 0.0000
# 6 -0.0001 0.0000 0.0000 0.9752 0.0000 30.8672
#
#
#
# Elastic Compliance Matrix: (Units=1/GPa)
#
#
# Indices 1 2 3 4 5 6 
#
# 1 0.021595 0.000542 -0.011031 0.000001 -0.003275 0.000000
# 2 0.000542 0.013510 -0.001799 0.000000 -0.002883 0.000000
# 3 -0.011031 -0.001799 0.012596 0.000000 0.002144 0.000000
# 4 0.000001 0.000000 0.000000 0.027508 0.000000 -0.000869
# 5 -0.003275 -0.002883 0.002144 0.000000 0.024705 0.000000
# 6 0.000000 0.000000 0.000000 -0.000869 0.000000 0.032424
#
#
# Mechanical properties :
#
#
# Convention : Reuss Voigt Hill
#
# Bulk Modulus (GPa) = 43.24148 56.42812 49.83480
# Shear Modulus (GPa) = 30.37265 36.00533 33.18899
#
# Velocity S-wave (km/s) = 3.91096 4.25820 4.08827
# Velocity P-wave (km/s) = 6.49388 7.25213 6.88346
#
# Compressibility (1/GPa) = 0.02312594
#
# Stress axis : x y z
#
# Youngs Moduli (GPa) = 46.30712 74.02018 79.38920
#
# Poissons Ratio (x) = -0.04014 0.87574
# Poissons Ratio (y) = -0.02511 0.14281
# Poissons Ratio (z) = 0.51081 0.13315
#
# Static dielectric constant tensor:
#      x y z
#    x 3.521260 0.000000 -0.011460 
#    y 0.000000 3.732090 0.000000 
#    z -0.011460 0.000000 3.781680 
# 
# 
# High freq. dielectric constant tensor:
#      x y z
#    x 1.765480 0.000000 0.001090 
#    y 0.000000 1.793490 0.000000 
#    z 0.001090 0.000000 1.791770 
# 
# From -- ./inp_files/342758.got.cif
#   From: 2010.06.25/outbox.cif.g09.slc.cpg/sg12_172_cif.got.tgz:342758.got - 2010.06.28 00:19:55.
