data_PCOD8108248
_publ_section_title
;
Structure prediction by ZEFSAII (Michael W. Deem and Ramdas Pophale) SiO2 
 PCOD8108248
Probable space group: C 2/M
;
_chemical_formula_sum "Si O2"
_cell_formula_units_Z 48
_cell_length_a 13.451484
_cell_length_b 13.132790
_cell_length_c 19.692309
_cell_angle_alpha 90.000000
_cell_angle_beta 45.325881
_cell_angle_gamma 90.000000
_cell_volume 2473.802260
_symmetry_space_group_name_H-M "C 2/M"
_symmetry_group_IT_number 12
_symmetry_cell_setting 'monoclinic'
loop_
_space_group_symop_operation_xyz
x,y,z
-x,y,-z
-x,-y,-z
x,-y,z
1/2+x,1/2+y,z
1/2-x,1/2+y,-z
1/2-x,1/2-y,-z
1/2+x,1/2-y,z
loop_
_atom_site_type_symbol
_atom_site_label
_atom_site_fract_x
_atom_site_fract_y
_atom_site_fract_z
Si Si1 0.644013 0.883207 0.171604
Si Si2 0.652601 0.385064 0.337118
Si Si3 0.802130 0.694856 0.140164
Si Si4 0.909490 0.383019 0.955510
Si Si5 0.157580 0.306244 0.641596
Si Si6 0.647197 0.385193 0.563032
O O1 0.755615 0.812810 0.156802
O O2 0.660588 0.862734 0.083273
O O3 0.487117 0.857890 0.269172
O O4 0.677943 0.000000 0.173488
O O5 0.693083 0.500000 0.338481
O O6 0.693858 0.365013 0.239386
O O7 0.734719 0.309915 0.347549
O O8 0.486347 0.367624 0.422219
O O9 0.956205 0.689740 0.098979
O O10 0.797806 0.642041 0.068044
O O11 0.960294 0.500000 0.936850
O O12 0.215684 0.364569 0.547610
O O13 0.139101 0.187560 0.632389
O O14 0.649846 0.500000 0.589857
#
# Coordination Sequence:
#
# PCOD8108248 Si02
#       6
#     8   8   8   8   8   8
#     4  11  22  37  57  82 114 154 189 224 281 343
#     4  11  20  35  60  86 110 144 190 234 278 328
#     4  11  20  35  57  87 112 142 184 237 274 329
#     4  10  21  38  61  84 111 146 188 233 283 333
#     4  11  21  37  60  83 117 148 187 232 282 333
#     4  10  22  38  59  85 113 147 190 236 281 328
#
# _framework density 19.40333
#
# number of rings (size 3 to 8) (size 9 to 14) (size 15 to 20)
#    0.000    1.333    3.333    4.500    0.000    1.333 
#    0.000    2.500    0.000    5.000    0.000    0.000 
#    0.000    0.000    0.000    0.000    0.000    0.000 
#
# Total GULP energy -297669.767905 kJ/mol
# GULP energy per Si atom -12402.906996 kJ/mol
# Density = 1.935917 g / cm^3
# Si number density = 19.403330 Si / 1000 Ang^3
#
#
#
# Elastic Constant Matrix: (Units=GPa)
#
#
# Indices 1 2 3 4 5 6 
#
# 1 73.7834 66.9498 8.4855 0.0000 0.5009 0.0000
# 2 66.9498 128.0076 16.3280 0.0000 -3.9252 0.0000
# 3 8.4855 16.3280 49.2306 0.0000 6.2684 0.0000
# 4 0.0000 0.0000 0.0000 25.3547 0.0000 0.1230
# 5 0.5009 -3.9252 6.2684 0.0000 21.5175 0.0000
# 6 0.0000 0.0000 0.0000 0.1230 0.0000 33.1152
#
#
#
# Elastic Compliance Matrix: (Units=1/GPa)
#
#
# Indices 1 2 3 4 5 6 
#
# 1 0.026010 -0.013767 0.000498 0.000000 -0.003262 0.000000
# 2 -0.013767 0.015562 -0.003313 0.000000 0.004124 0.000000
# 3 0.000498 -0.003313 0.022229 0.000000 -0.007092 0.000000
# 4 0.000000 0.000000 0.000000 0.039441 0.000000 -0.000147
# 5 -0.003262 0.004124 -0.007092 0.000000 0.049368 0.000000
# 6 0.000000 0.000000 0.000000 -0.000147 0.000000 0.030198
#
#
# Mechanical properties :
#
#
# Convention : Reuss Voigt Hill
#
# Bulk Modulus (GPa) = 32.64182 48.28313 40.46247
# Shear Modulus (GPa) = 22.10584 26.61469 24.36027
#
# Velocity S-wave (km/s) = 3.37899 3.70761 3.54710
# Velocity P-wave (km/s) = 5.66416 6.57772 6.13796
#
# Compressibility (1/GPa) = 0.03063555
#
# Stress axis : x y z
#
# Youngs Moduli (GPa) = 38.44635 64.26050 44.98715
#
# Poissons Ratio (x) = 0.88470 -0.02242
# Poissons Ratio (y) = 0.52930 0.14906
# Poissons Ratio (z) = -0.01916 0.21292
#
# Static dielectric constant tensor:
#      x y z
#    x 3.302850 0.000000 0.061390 
#    y 0.000000 3.581240 0.000000 
#    z 0.061390 0.000000 3.784960 
# 
# 
# High freq. dielectric constant tensor:
#      x y z
#    x 1.732550 0.000000 0.003640 
#    y 0.000000 1.750330 0.000000 
#    z 0.003640 0.000000 1.772520 
# 
# From -- ./inp_files/212677.got.cif
#   From: 2010.06.25/outbox.cif.g09.slc.cpg/sg12_107_cif.got.tgz:212677.got - 2010.06.28 00:19:55.
