data_PCOD8108015
_publ_section_title
;
Structure prediction by ZEFSAII (Michael W. Deem and Ramdas Pophale) SiO2 
 PCOD8108015
Probable space group: C 2/M
;
_chemical_formula_sum "Si O2"
_cell_formula_units_Z 48
_cell_length_a 27.974398
_cell_length_b 12.893082
_cell_length_c 12.748417
_cell_angle_alpha 90.000000
_cell_angle_beta 148.406496
_cell_angle_gamma 90.000000
_cell_volume 2408.869728
_symmetry_space_group_name_H-M "C 2/M"
_symmetry_group_IT_number 12
_symmetry_cell_setting 'monoclinic'
loop_
_space_group_symop_operation_xyz
x,y,z
-x,y,-z
-x,-y,-z
x,-y,z
1/2+x,1/2+y,z
1/2-x,1/2+y,-z
1/2-x,1/2-y,-z
1/2+x,1/2-y,z
loop_
_atom_site_type_symbol
_atom_site_label
_atom_site_fract_x
_atom_site_fract_y
_atom_site_fract_z
Si Si1 0.983606 0.780930 0.247531
Si Si2 0.813950 0.121850 0.048169
Si Si3 0.238593 0.879009 0.631191
Si Si4 0.943132 0.380608 0.994721
Si Si5 0.169849 0.224714 0.706588
Si Si6 0.939398 0.882771 0.797262
O O1 0.892756 0.813019 0.137758
O O2 0.971366 0.680611 0.151515
O O3 0.064273 0.755577 0.480277
O O4 0.011578 0.875984 0.224030
O O5 0.826017 0.138627 0.194532
O O6 0.819183 0.000000 0.031212
O O7 0.715723 0.166917 0.828933
O O8 0.229176 0.817384 0.721440
O O9 0.163179 0.836527 0.406449
O O10 0.219844 0.000000 0.619205
O O11 0.337825 0.859614 0.768771
O O12 0.961122 0.500000 0.055735
O O13 0.000000 0.345298 0.000000
O O14 0.929333 0.000000 0.815258
O O15 0.000000 0.824003 0.000000
#
# Coordination Sequence:
#
# PCOD8108015 Si02
#       6
#     8   8   8   8   8   8
#     4  11  21  38  59  87 119 156 197 247 298 356
#     4  11  23  40  63  91 123 158 201 250 301 360
#     4   9  17  35  60  82 111 154 197 240 293 353
#     4  10  21  38  59  85 117 158 202 241 291 357
#     4  10  22  39  60  89 120 155 197 246 304 360
#     4   9  18  33  54  83 115 148 190 242 296 350
#
# _framework density 19.926358
#
# number of rings (size 3 to 8) (size 9 to 14) (size 15 to 20)
#    0.000    2.000    1.667    2.000    0.000    3.333 
#    3.000    2.500    0.000    3.000    0.000    0.000 
#    0.000    0.000    0.000    0.000    0.000    0.000 
#
# Total GULP energy -297505.511227 kJ/mol
# GULP energy per Si atom -12396.062968 kJ/mol
# Density = 1.988100 g / cm^3
# Si number density = 19.926358 Si / 1000 Ang^3
#
#
#
# Elastic Constant Matrix: (Units=GPa)
#
#
# Indices 1 2 3 4 5 6 
#
# 1 96.4436 33.0871 56.4255 0.0000 1.7184 0.0000
# 2 33.0871 94.6936 47.6020 0.0000 -1.9594 0.0000
# 3 56.4255 47.6020 162.8739 0.0000 -12.1421 0.0000
# 4 0.0000 0.0000 0.0000-4348.2320 0.0000-3772.5662
# 5 1.7184 -1.9594 -12.1421 0.0000 29.9369 0.0000
# 6 0.0000 0.0000 0.0000-3772.5662 0.0000-3229.2058
#
#
#
# Elastic Compliance Matrix: (Units=1/GPa)
#
#
# Indices 1 2 3 4 5 6 
#
# 1 0.013811 -0.002785 -0.004170 0.000000 -0.002666 0.000000
# 2 -0.002785 0.012954 -0.002832 0.000000 -0.000141 0.000000
# 3 -0.004170 -0.002832 0.008678 0.000000 0.003574 0.000000
# 4 0.000000 0.000000 0.000000 0.016914 0.000000 -0.019760
# 5 -0.002666 -0.000141 0.003574 0.000000 0.034997 0.000000
# 6 0.000000 0.000000 0.000000 -0.019760 0.000000 0.022775
#
#
# Mechanical properties :
#
#
# Convention : Reuss Voigt Hill
#
# Bulk Modulus (GPa) = 63.00757 69.80446 66.40602
# Shear Modulus (GPa) = 37.03920 -1495.04043 -729.00062
#
# Velocity S-wave (km/s) = 4.31606 -27.42101 -19.14789
# Velocity P-wave (km/s) = 7.51843 31.10372 21.34145
#
# Compressibility (1/GPa) = 0.01587111
#
# Stress axis : x y z
#
# Youngs Moduli (GPa) = 72.40540 77.19607 115.23120
#
# Poissons Ratio (x) = 0.21499 0.48046
# Poissons Ratio (y) = 0.20165 0.32630
# Poissons Ratio (z) = 0.30189 0.21859
#
# Static dielectric constant tensor:
#      x y z
#    x 3.579880 0.000000 0.022930 
#    y 0.000000 3.445920 0.000000 
#    z 0.022930 0.000000 3.955930 
# 
# 
# High freq. dielectric constant tensor:
#      x y z
#    x 1.772650 0.000000 0.003750 
#    y 0.000000 1.770470 0.000000 
#    z 0.003750 0.000000 1.793700 
# 
# From -- ./inp_files/183867.got.cif
#   From: 2010.06.25/outbox.cif.g09.slc.cpg/sg12_92_cif.got.tgz:183867.got - 2010.06.28 00:19:55.
