data_PCOD8108460
_publ_section_title
;
Structure prediction by ZEFSAII (Michael W. Deem and Ramdas Pophale) SiO2 
 PCOD8108460
Probable space group: C 2/M
;
_chemical_formula_sum "Si O2"
_cell_formula_units_Z 40
_cell_length_a 14.073449
_cell_length_b 12.576310
_cell_length_c 16.619311
_cell_angle_alpha 90.000000
_cell_angle_beta 37.601071
_cell_angle_gamma 90.000000
_cell_volume 1794.777049
_symmetry_space_group_name_H-M "C 2/M"
_symmetry_group_IT_number 12
_symmetry_cell_setting 'monoclinic'
loop_
_space_group_symop_operation_xyz
x,y,z
-x,y,-z
-x,-y,-z
x,-y,z
1/2+x,1/2+y,z
1/2-x,1/2+y,-z
1/2-x,1/2-y,-z
1/2+x,1/2-y,z
loop_
_atom_site_type_symbol
_atom_site_label
_atom_site_fract_x
_atom_site_fract_y
_atom_site_fract_z
Si Si1 0.183510 0.621059 0.361631
Si Si2 0.432482 0.878526 0.281103
Si Si3 0.160357 0.125565 0.573687
Si Si4 0.350716 0.754021 0.768223
Si Si5 0.592731 0.881844 0.018055
O O1 0.221089 0.500000 0.309164
O O2 0.286090 0.650219 0.370805
O O3 0.226696 0.707872 0.263645
O O4 0.000000 0.632191 0.500000
O O5 0.285905 0.823061 0.425530
O O6 0.585213 0.861104 0.233239
O O7 0.473952 0.833911 0.164686
O O8 0.389082 0.000000 0.303114
O O9 0.992171 0.170939 0.663459
O O10 0.153961 0.000000 0.565014
O O11 0.230278 0.700704 0.910414
O O12 0.654540 0.000000 0.003729
O O13 0.500000 0.898019 0.000000
#
# Coordination Sequence:
#
# PCOD8108460 Si02
#       5
#     8   8   8   8   8
#     4  10  21  38  61  94 132 164 197 255 323 374
#     4  10  21  40  62  87 123 165 202 250 312 371
#     4  10  22  40  64  95 130 162 204 260 316 368
#     4  12  22  36  68  95 121 158 218 257 302 371
#     4  10  24  43  60  84 126 168 206 255 315 369
#
# _framework density 22.286891000000001
#
# number of rings (size 3 to 8) (size 9 to 14) (size 15 to 20)
#    0.000    1.600    2.000    2.400    2.800    0.000 
#    0.000    0.000    0.000    7.200    0.000    0.000 
#    0.000    0.000    0.000    0.000    0.000    0.000 
#
# Total GULP energy -247847.593565 kJ/mol
# GULP energy per Si atom -12392.379678 kJ/mol
# Density = 2.223616 g / cm^3
# Si number density = 22.286891 Si / 1000 Ang^3
#
#
#
# Elastic Constant Matrix: (Units=GPa)
#
#
# Indices 1 2 3 4 5 6 
#
# 1 91.1176 54.9574 63.5707 -0.0001 22.0728 0.0001
# 2 54.9574 54.0732 47.0185 -0.0001 14.4714 0.0000
# 3 63.5707 47.0185 167.6586 -0.0001 35.0334 0.0001
# 4 -0.0001 -0.0001 -0.0001 31.0785 0.0001 5.3180
# 5 22.0728 14.4714 35.0334 0.0001 37.5437 -0.0001
# 6 0.0001 0.0000 0.0001 5.3180 -0.0001 44.9030
#
#
#
# Elastic Compliance Matrix: (Units=1/GPa)
#
#
# Indices 1 2 3 4 5 6 
#
# 1 0.030681 -0.027325 -0.002984 0.000000 -0.004722 0.000000
# 2 -0.027325 0.049228 -0.003524 0.000000 0.000378 0.000000
# 3 -0.002984 -0.003524 0.009234 0.000000 -0.005504 0.000000
# 4 0.000000 0.000000 0.000000 0.032842 0.000000 -0.003890
# 5 -0.004722 0.000378 -0.005504 0.000000 0.034402 0.000000
# 6 0.000000 0.000000 0.000000 -0.003890 0.000000 0.022731
#
#
# Mechanical properties :
#
#
# Convention : Reuss Voigt Hill
#
# Bulk Modulus (GPa) = 46.55798 71.54919 59.05359
# Shear Modulus (GPa) = 19.68946 32.52520 26.10733
#
# Velocity S-wave (km/s) = 2.97552 3.82434 3.42632
# Velocity P-wave (km/s) = 5.72194 7.18847 6.49672
#
# Compressibility (1/GPa) = 0.02147859
#
# Stress axis : x y z
#
# Youngs Moduli (GPa) = 32.59331 20.31364 108.29262
#
# Poissons Ratio (x) = 0.55507 0.32311
# Poissons Ratio (y) = 0.89061 0.38161
# Poissons Ratio (z) = 0.09725 0.07158
#
# Static dielectric constant tensor:
#      x y z
#    x 3.919010 0.000000 0.313590 
#    y 0.000000 4.376640 0.000000 
#    z 0.313590 0.000000 4.288090 
# 
# 
# High freq. dielectric constant tensor:
#      x y z
#    x 1.868460 0.000000 0.017380 
#    y 0.000000 1.900290 0.000000 
#    z 0.017380 0.000000 1.868890 
# 
# From -- ./inp_files/270507.got.cif
#   From: 2010.06.25/outbox.cif.g09.slc.cpg/sg12_136_cif.got.tgz:270507.got - 2010.06.28 00:19:55.
