data_PCOD8108923
_publ_section_title
;
Structure prediction by ZEFSAII (Michael W. Deem and Ramdas Pophale) SiO2 
 PCOD8108923
Probable space group: C 2/M
;
_chemical_formula_sum "Si O2"
_cell_formula_units_Z 48
_cell_length_a 19.639438
_cell_length_b 10.483730
_cell_length_c 24.345831
_cell_angle_alpha 90.000000
_cell_angle_beta 151.720931
_cell_angle_gamma 90.000000
_cell_volume 2374.837285
_symmetry_space_group_name_H-M "C 2/M"
_symmetry_group_IT_number 12
_symmetry_cell_setting 'monoclinic'
loop_
_space_group_symop_operation_xyz
x,y,z
-x,y,-z
-x,-y,-z
x,-y,z
1/2+x,1/2+y,z
1/2-x,1/2+y,-z
1/2-x,1/2-y,-z
1/2+x,1/2-y,z
loop_
_atom_site_type_symbol
_atom_site_label
_atom_site_fract_x
_atom_site_fract_y
_atom_site_fract_z
Si Si1 0.880919 0.857240 0.369521
Si Si2 0.196196 0.352335 0.917246
Si Si3 0.669920 0.640900 0.259036
Si Si4 0.575226 0.357646 0.001134
Si Si5 0.384382 0.774264 0.671514
Si Si6 0.908828 0.141697 0.574698
O O1 0.764389 0.751578 0.299957
O O2 0.000000 0.859373 0.500000
O O3 0.956795 0.815930 0.366906
O O4 0.811944 0.000000 0.315938
O O5 0.241183 0.500000 0.963800
O O6 0.023720 0.353589 0.789087
O O7 0.250000 0.250000 0.000000
O O8 0.270352 0.307631 0.911705
O O9 0.741101 0.500000 0.302712
O O10 0.520993 0.646651 0.121412
O O11 0.640231 0.660665 0.302493
O O12 0.602515 0.500000 0.042382
O O13 0.500000 0.283330 0.000000
O O14 0.237768 0.856025 0.565838
O O15 0.408353 0.730178 0.626790
O O16 0.932058 0.000000 0.612773
#
# Coordination Sequence:
#
# PCOD8108923 Si02
#       6
#     8   8   8   8   8   8
#     4  10  21  39  60  83 117 159 199 243 301 361
#     4  11  23  40  65  93 122 160 205 251 306 368
#     4  11  22  38  62  89 119 157 202 253 304 360
#     4   9  20  39  60  85 120 156 195 246 306 359
#     4  11  22  38  61  91 122 162 208 253 301 365
#     4  10  22  40  59  85 125 167 204 253 307 359
#
# _framework density 20.211911000000001
#
# number of rings (size 3 to 8) (size 9 to 14) (size 15 to 20)
#    0.000    1.667    3.333    1.000    2.333    1.667 
#    0.000    0.833    0.000    1.000    0.000    0.000 
#    0.000    0.000    0.000    0.000    0.000    0.000 
#
# Total GULP energy -297327.542333 kJ/mol
# GULP energy per Si atom -12388.647597 kJ/mol
# Density = 2.016591 g / cm^3
# Si number density = 20.211911 Si / 1000 Ang^3
#
#
#
# Elastic Constant Matrix: (Units=GPa)
#
#
# Indices 1 2 3 4 5 6 
#
# 1 103.1679 48.9389 19.4742 0.0002 8.2567 0.0000
# 2 48.9389 100.3484 27.4712 -0.0035 14.3000 0.0000
# 3 19.4742 27.4712 63.3034 -0.0036 7.6349 -0.0002
# 4 0.0002 -0.0035 -0.0036 24.6774 -0.0009 4.4881
# 5 8.2567 14.3000 7.6349 -0.0009 35.0473 -0.0001
# 6 0.0000 0.0000 -0.0002 4.4881 -0.0001 25.8812
#
#
#
# Elastic Compliance Matrix: (Units=1/GPa)
#
#
# Indices 1 2 3 4 5 6 
#
# 1 0.012720 -0.005782 -0.001363 -0.000001 -0.000341 0.000000
# 2 -0.005782 0.014408 -0.004035 0.000001 -0.003638 0.000000
# 3 -0.001363 -0.004035 0.018208 0.000002 -0.001999 0.000000
# 4 -0.000001 0.000001 0.000002 0.041842 0.000000 -0.007256
# 5 -0.000341 -0.003638 -0.001999 0.000000 0.030533 0.000000
# 6 0.000000 0.000000 0.000000 -0.007256 0.000000 0.039896
#
#
# Mechanical properties :
#
#
# Convention : Reuss Voigt Hill
#
# Bulk Modulus (GPa) = 43.52213 50.95423 47.23818
# Shear Modulus (GPa) = 26.64861 28.51687 27.58274
#
# Velocity S-wave (km/s) = 3.63500 3.76026 3.69816
# Velocity P-wave (km/s) = 6.26077 6.64210 6.45425
#
# Compressibility (1/GPa) = 0.02297682
#
# Stress axis : x y z
#
# Youngs Moduli (GPa) = 78.61542 69.40568 54.91959
#
# Poissons Ratio (x) = 0.40129 0.07485
# Poissons Ratio (y) = 0.45454 0.22161
# Poissons Ratio (z) = 0.10715 0.28006
#
# Static dielectric constant tensor:
#      x y z
#    x 4.614580 0.000030 0.545940 
#    y 0.000030 3.655460 0.000020 
#    z 0.545940 0.000020 3.909280 
# 
# 
# High freq. dielectric constant tensor:
#      x y z
#    x 1.812120 0.000000 0.007990 
#    y 0.000000 1.768820 0.000000 
#    z 0.007990 0.000000 1.778460 
# 
# From -- ./inp_files/153520.got.cif
#   From: 2010.06.25/outbox.cif.g09.slc.cpg/sg12_77_cif.got.tgz:153520.got - 2010.06.28 00:19:55.
