data_PCOD8108837
_publ_section_title
;
Structure prediction by ZEFSAII (Michael W. Deem and Ramdas Pophale) SiO2 
 PCOD8108837
Probable space group: C 2/M
;
_chemical_formula_sum "Si O2"
_cell_formula_units_Z 56
_cell_length_a 15.094668
_cell_length_b 9.028589
_cell_length_c 23.975477
_cell_angle_alpha 90.000000
_cell_angle_beta 62.786013
_cell_angle_gamma 90.000000
_cell_volume 2905.770580
_symmetry_space_group_name_H-M "C 2/M"
_symmetry_group_IT_number 12
_symmetry_cell_setting 'monoclinic'
loop_
_space_group_symop_operation_xyz
x,y,z
-x,y,-z
-x,-y,-z
x,-y,z
1/2+x,1/2+y,z
1/2-x,1/2+y,-z
1/2-x,1/2-y,-z
1/2+x,1/2-y,z
loop_
_atom_site_type_symbol
_atom_site_label
_atom_site_fract_x
_atom_site_fract_y
_atom_site_fract_z
Si Si1 0.892410 0.674269 0.505704
Si Si2 0.677707 0.825536 0.815405
Si Si3 0.310257 0.174420 0.409377
Si Si4 0.019860 0.826085 0.930403
Si Si5 0.577849 0.824490 0.731777
Si Si6 0.645619 0.831049 0.193285
Si Si7 0.667186 0.169137 0.059821
O O1 0.884172 0.500000 0.518483
O O2 0.798725 0.750998 0.562889
O O3 0.877421 0.713938 0.444443
O O4 0.000000 0.729947 0.500000
O O5 0.624641 0.741654 0.881854
O O6 0.637714 0.766267 0.767995
O O7 0.792409 0.777460 0.784728
O O8 0.663755 0.000000 0.826791
O O9 0.372239 0.236493 0.339006
O O10 0.291831 0.000000 0.411425
O O11 0.937632 0.748473 0.916526
O O12 0.018481 0.000000 0.919957
O O13 0.000000 0.787113 0.000000
O O14 0.465572 0.767318 0.770354
O O15 0.579157 0.000000 0.731003
O O16 0.691325 0.823191 0.118079
O O17 0.650628 0.000000 0.213670
O O18 0.660462 0.000000 0.041231
O O19 0.750000 0.250000 0.000000
#
# Coordination Sequence:
#
# PCOD8108837 Si02
#       7
#     8   8   8   8   8   8   8
#     4   9  18  33  54  84 118 148 185 232 275 322
#     4  11  22  38  58  82 109 143 187 236 282 338
#     4   9  18  34  57  81 110 153 191 226 276 330
#     4  11  23  38  56  80 109 142 183 232 286 344
#     4   9  19  38  58  78 112 152 188 227 282 342
#     4  10  21  39  58  79 110 147 183 228 285 343
#     4  11  22  37  57  81 110 144 182 231 286 344
#
# _framework density 19.271996000000001
#
# number of rings (size 3 to 8) (size 9 to 14) (size 15 to 20)
#    0.000    2.000    1.429    2.143    0.000    7.143 
#    0.000    3.571    0.000    0.000    0.000    0.000 
#    0.000    0.000    0.000    0.000    0.000    0.000 
#
# Total GULP energy -347165.848992 kJ/mol
# GULP energy per Si atom -12398.780321 kJ/mol
# Density = 1.922813 g / cm^3
# Si number density = 19.271996 Si / 1000 Ang^3
#
#
#
# Elastic Constant Matrix: (Units=GPa)
#
#
# Indices 1 2 3 4 5 6 
#
# 1 156.9511 42.1370 60.7408 0.0000 -4.9074 0.0000
# 2 42.1370 57.2311 42.4845 0.0000 3.7993 0.0000
# 3 60.7408 42.4845 136.5596 0.0000 -6.9912 0.0000
# 4 0.0000 0.0000 0.0000 22.7709 0.0000 -5.9215
# 5 -4.9074 3.7993 -6.9912 0.0000 22.4596 0.0000
# 6 0.0000 0.0000 0.0000 -5.9215 0.0000 35.6194
#
#
#
# Elastic Compliance Matrix: (Units=1/GPa)
#
#
# Indices 1 2 3 4 5 6 
#
# 1 0.008583 -0.004803 -0.002221 0.000000 0.001996 0.000000
# 2 -0.004803 0.026273 -0.006421 0.000000 -0.007493 0.000000
# 3 -0.002221 -0.006421 0.010507 0.000000 0.003871 0.000000
# 4 0.000000 0.000000 0.000000 0.045900 0.000000 0.007631
# 5 0.001996 -0.007493 0.003871 0.000000 0.047433 0.000000
# 6 0.000000 0.000000 0.000000 0.007631 0.000000 0.029343
#
#
# Mechanical properties :
#
#
# Convention : Reuss Voigt Hill
#
# Bulk Modulus (GPa) = 54.13483 71.27405 62.70444
# Shear Modulus (GPa) = 24.86488 29.86193 27.36341
#
# Velocity S-wave (km/s) = 3.59584 3.94064 3.77218
# Velocity P-wave (km/s) = 6.73728 7.60055 7.18190
#
# Compressibility (1/GPa) = 0.01847240
#
# Stress axis : x y z
#
# Youngs Moduli (GPa) = 116.51083 38.06162 95.17827
#
# Poissons Ratio (x) = 0.18281 0.21141
# Poissons Ratio (y) = 0.55959 0.61114
# Poissons Ratio (z) = 0.25879 0.24439
#
# Static dielectric constant tensor:
#      x y z
#    x 3.643450 0.000000 0.035460 
#    y 0.000000 3.356170 0.000000 
#    z 0.035460 0.000000 3.596060 
# 
# 
# High freq. dielectric constant tensor:
#      x y z
#    x 1.761230 0.000000 -0.002890 
#    y 0.000000 1.735750 0.000000 
#    z -0.002890 0.000000 1.746530 
# 
# From -- ./inp_files/338189.got.cif
#   From: 2010.06.25/outbox.cif.g09.slc.cpg/sg12_170_cif.got.tgz:338189.got - 2010.06.28 00:19:55.
