data_PCOD8108910
_publ_section_title
;
Structure prediction by ZEFSAII (Michael W. Deem and Ramdas Pophale) SiO2 
 PCOD8108910
Probable space group: C 2/M
;
_chemical_formula_sum "Si O2"
_cell_formula_units_Z 64
_cell_length_a 29.792423
_cell_length_b 8.858684
_cell_length_c 25.419207
_cell_angle_alpha 90.000000
_cell_angle_beta 30.144516
_cell_angle_gamma 90.000000
_cell_volume 3368.983141
_symmetry_space_group_name_H-M "C 2/M"
_symmetry_group_IT_number 12
_symmetry_cell_setting 'monoclinic'
loop_
_space_group_symop_operation_xyz
x,y,z
-x,y,-z
-x,-y,-z
x,-y,z
1/2+x,1/2+y,z
1/2-x,1/2+y,-z
1/2-x,1/2-y,-z
1/2+x,1/2-y,z
loop_
_atom_site_type_symbol
_atom_site_label
_atom_site_fract_x
_atom_site_fract_y
_atom_site_fract_z
Si Si1 0.727573 0.322684 0.272806
Si Si2 0.991510 0.678764 0.674086
Si Si3 0.328044 0.822942 0.564201
Si Si4 0.091048 0.172677 0.932954
Si Si5 0.512828 0.822000 0.770547
Si Si6 0.320230 0.178714 0.785615
Si Si7 0.801398 0.177580 0.399162
Si Si8 0.873847 0.171594 0.983392
O O1 0.719587 0.500000 0.276315
O O2 0.682030 0.268456 0.372247
O O3 0.830853 0.275679 0.168854
O O4 0.675886 0.250703 0.275967
O O5 0.986307 0.500000 0.680910
O O6 0.903049 0.742649 0.735299
O O7 0.078751 0.732976 0.554763
O O8 0.997012 0.740326 0.727808
O O9 0.249246 0.782733 0.603464
O O10 0.329440 0.000000 0.575439
O O11 0.111286 0.000000 0.895848
O O12 0.081008 0.186319 0.005502
O O13 0.000000 0.232504 0.000000
O O14 0.598892 0.740894 0.707926
O O15 0.424556 0.783121 0.892900
O O16 0.529863 0.000000 0.753984
O O17 0.323841 0.000000 0.773752
O O18 0.229473 0.223267 0.908251
O O19 0.750000 0.250000 0.500000
O O20 0.803983 0.000000 0.406155
O O21 0.881334 0.000000 0.955053
#
# Coordination Sequence:
#
# PCOD8108910 Si02
#       8
#     8   8   8   8   8   8   8   8
#     4  11  23  37  55  85 120 146 183 238 294 338
#     4   9  19  38  62  85 108 148 200 239 273 336
#     4  10  21  39  60  82 113 154 197 231 275 343
#     4   9  19  37  59  80 108 150 195 233 277 342
#     4  11  22  37  57  86 120 153 191 235 285 338
#     4   9  19  40  65  82 108 151 197 237 280 340
#     4  11  22  38  60  84 116 154 191 236 283 337
#     4   9  19  35  55  84 114 147 190 235 283 338
#
# _framework density 18.996828000000001
#
# number of rings (size 3 to 8) (size 9 to 14) (size 15 to 20)
#    0.000    2.125    1.250    2.625    1.750    4.250 
#    0.000    4.375    0.000    0.000    0.000    0.000 
#    0.000    0.000    0.000    0.000    0.000    0.000 
#
# Total GULP energy -396895.174336 kJ/mol
# GULP energy per Si atom -12402.974198 kJ/mol
# Density = 1.895359 g / cm^3
# Si number density = 18.996828 Si / 1000 Ang^3
#
#
#
# Elastic Constant Matrix: (Units=GPa)
#
#
# Indices 1 2 3 4 5 6 
#
# 1 135.7349 39.9728 83.6030 -0.0059 -24.9531 -0.0006
# 2 39.9728 65.0507 43.6264 -0.0412 -0.0873 0.0238
# 3 83.6030 43.6264 130.7816 -0.0196 2.1552 0.0163
# 4 -0.0059 -0.0412 -0.0196 33.9131 0.0092 4.1424
# 5 -24.9531 -0.0873 2.1552 0.0092 31.7765 -0.0049
# 6 -0.0006 0.0238 0.0163 4.1424 -0.0049 22.0709
#
#
#
# Elastic Compliance Matrix: (Units=1/GPa)
#
#
# Indices 1 2 3 4 5 6 
#
# 1 0.017281 -0.003908 -0.009978 -0.000014 0.014236 0.000018
# 2 -0.003908 0.020695 -0.004360 0.000026 -0.002716 -0.000025
# 3 -0.009978 -0.004360 0.015626 0.000006 -0.008907 -0.000010
# 4 -0.000014 0.000026 0.000006 0.030179 -0.000021 -0.005664
# 5 0.014236 -0.002716 -0.008907 -0.000021 0.043246 0.000023
# 6 0.000018 -0.000025 -0.000010 -0.005664 0.000023 0.046372
#
#
# Mechanical properties :
#
#
# Convention : Reuss Voigt Hill
#
# Bulk Modulus (GPa) = 58.44842 73.99683 66.22263
# Shear Modulus (GPa) = 23.19167 28.50976 25.85072
#
# Velocity S-wave (km/s) = 3.49781 3.87817 3.69289
# Velocity P-wave (km/s) = 6.86638 7.68703 7.28826
#
# Compressibility (1/GPa) = 0.01710910
#
# Stress axis : x y z
#
# Youngs Moduli (GPa) = 57.86668 48.32139 63.99535
#
# Poissons Ratio (x) = 0.18885 0.63854
# Poissons Ratio (y) = 0.22615 0.27904
# Poissons Ratio (z) = 0.57739 0.21070
#
# Static dielectric constant tensor:
#      x y z
#    x 3.694290 -0.000050 -0.132960 
#    y -0.000050 3.277760 0.000090 
#    z -0.132960 0.000090 3.511360 
# 
# 
# High freq. dielectric constant tensor:
#      x y z
#    x 1.746120 0.000000 -0.002320 
#    y 0.000000 1.720910 0.000000 
#    z -0.002320 0.000000 1.744150 
# 
# From -- ./inp_files/353267.got.cif
#   From: 2010.06.25/outbox.cif.g09.slc.cpg/sg12_177_cif.got.tgz:353267.got - 2010.06.28 00:19:55.
