data_PCOD8108466
_publ_section_title
;
Structure prediction by ZEFSAII (Michael W. Deem and Ramdas Pophale) SiO2 
 PCOD8108466
Probable space group: C 2/M
;
_chemical_formula_sum "Si O2"
_cell_formula_units_Z 44
_cell_length_a 8.784081
_cell_length_b 15.726113
_cell_length_c 16.099844
_cell_angle_alpha 90.000000
_cell_angle_beta 79.001026
_cell_angle_gamma 90.000000
_cell_volume 2183.169623
_symmetry_space_group_name_H-M "C 2/M"
_symmetry_group_IT_number 12
_symmetry_cell_setting 'monoclinic'
loop_
_space_group_symop_operation_xyz
x,y,z
-x,y,-z
-x,-y,-z
x,-y,z
1/2+x,1/2+y,z
1/2-x,1/2+y,-z
1/2-x,1/2-y,-z
1/2+x,1/2-y,z
loop_
_atom_site_type_symbol
_atom_site_label
_atom_site_fract_x
_atom_site_fract_y
_atom_site_fract_z
Si Si1 0.877951 0.000000 0.938370
Si Si2 0.747774 0.823314 0.932098
Si Si3 0.377383 0.500000 0.440047
Si Si4 0.676826 0.169617 0.459281
Si Si5 0.277102 0.834101 0.733735
Si Si6 0.581503 0.500000 0.753048
Si Si7 0.014089 0.274825 0.829195
O O1 0.770955 0.917627 0.965156
O O2 0.944278 0.000000 0.836162
O O3 0.000000 0.000000 0.000000
O O4 0.580016 0.821821 0.904322
O O5 0.898003 0.803469 0.859593
O O6 0.750000 0.750000 0.000000
O O7 0.500000 0.500000 0.500000
O O8 0.274515 0.584095 0.463936
O O9 0.466547 0.500000 0.340535
O O10 0.500000 0.152733 0.500000
O O11 0.750000 0.250000 0.500000
O O12 0.669370 0.189099 0.363220
O O13 0.165609 0.757220 0.767590
O O14 0.425788 0.840568 0.778693
O O15 0.189695 0.920723 0.756851
#
# Coordination Sequence:
#
# PCOD8108466 Si02
#       7
#     4   8   4   8   8   4   8
#     4  12  24  41  66  92 127 167 211 257 321 377
#     4  11  23  41  62  93 123 163 207 261 314 378
#     4  10  23  43  65  93 133 172 215 273 322 388
#     4  11  22  39  63  94 131 166 218 260 329 386
#     4  10  21  39  62  89 123 165 207 261 313 380
#     4  10  22  42  62  93 124 165 215 259 317 384
#     4  10  21  38  62  85 126 159 207 253 318 365
#
# _framework density 20.154181999999999
#
# number of rings (size 3 to 8) (size 9 to 14) (size 15 to 20)
#    0.000    1.455    1.818    3.545    2.545    2.182 
#    3.273    1.818    0.000    0.000    0.000    0.000 
#    0.000    0.000    0.000    0.000    0.000    0.000 
#
# Total GULP energy -272659.425554 kJ/mol
# GULP energy per Si atom -12393.610252 kJ/mol
# Density = 2.010831 g / cm^3
# Si number density = 20.154182 Si / 1000 Ang^3
#
#
#
# Elastic Constant Matrix: (Units=GPa)
#
#
# Indices 1 2 3 4 5 6 
#
# 1 122.9696 42.1988 51.9126 0.0000 33.9102 0.0000
# 2 42.1988 138.1854 46.1830 0.0000 21.3858 0.0000
# 3 51.9126 46.1830 115.7070 0.0000 18.1383 0.0000
# 4 0.0000 0.0000 0.0000 24.7226 0.0000 0.3906
# 5 33.9102 21.3858 18.1383 0.0000 45.3931 0.0000
# 6 0.0000 0.0000 0.0000 0.3906 0.0000 23.8799
#
#
#
# Elastic Compliance Matrix: (Units=1/GPa)
#
#
# Indices 1 2 3 4 5 6 
#
# 1 0.012104 -0.001358 -0.003810 0.000000 -0.006880 0.000000
# 2 -0.001358 0.008844 -0.002589 0.000000 -0.002118 0.000000
# 3 -0.003810 -0.002589 0.011466 0.000000 -0.000516 0.000000
# 4 0.000000 0.000000 0.000000 0.040459 0.000000 -0.000662
# 5 -0.006880 -0.002118 -0.000516 0.000000 0.028373 0.000000
# 6 0.000000 0.000000 0.000000 -0.000662 0.000000 0.041887
#
#
# Mechanical properties :
#
#
# Convention : Reuss Voigt Hill
#
# Bulk Modulus (GPa) = 59.17024 73.05011 66.11018
# Shear Modulus (GPa) = 30.43578 34.57028 32.50303
#
# Velocity S-wave (km/s) = 3.89028 4.14610 4.02022
# Velocity P-wave (km/s) = 7.04284 7.69705 7.37720
#
# Compressibility (1/GPa) = 0.01690039
#
# Stress axis : x y z
#
# Youngs Moduli (GPa) = 82.61973 113.06638 87.21461
#
# Poissons Ratio (x) = 0.15357 0.33227
# Poissons Ratio (y) = 0.11222 0.22578
# Poissons Ratio (z) = 0.31477 0.29270
#
# Static dielectric constant tensor:
#      x y z
#    x 3.822920 0.000000 -0.022860 
#    y 0.000000 3.662650 0.000000 
#    z -0.022860 0.000000 3.929050 
# 
# 
# High freq. dielectric constant tensor:
#      x y z
#    x 1.793350 0.000000 0.004530 
#    y 0.000000 1.786980 0.000000 
#    z 0.004530 0.000000 1.798740 
# 
# From -- ./inp_files/255380.got.cif
#   From: 2010.06.25/outbox.cif.g09.slc.cpg/sg12_128_cif.got.tgz:255380.got - 2010.06.28 00:19:55.
