data_PCOD8108900
_publ_section_title
;
Structure prediction by ZEFSAII (Michael W. Deem and Ramdas Pophale) SiO2 
 PCOD8108900
Probable space group: C 2/M
;
_chemical_formula_sum "Si O2"
_cell_formula_units_Z 36
_cell_length_a 16.163038
_cell_length_b 15.565518
_cell_length_c 13.107093
_cell_angle_alpha 90.000000
_cell_angle_beta 149.156772
_cell_angle_gamma 90.000000
_cell_volume 1690.629566
_symmetry_space_group_name_H-M "C 2/M"
_symmetry_group_IT_number 12
_symmetry_cell_setting 'monoclinic'
loop_
_space_group_symop_operation_xyz
x,y,z
-x,y,-z
-x,-y,-z
x,-y,z
1/2+x,1/2+y,z
1/2-x,1/2+y,-z
1/2-x,1/2-y,-z
1/2+x,1/2-y,z
loop_
_atom_site_type_symbol
_atom_site_label
_atom_site_fract_x
_atom_site_fract_y
_atom_site_fract_z
Si Si1 0.792443 0.322740 0.665076
Si Si2 0.500000 0.315382 0.000000
Si Si3 0.006062 0.722567 0.300104
Si Si4 0.196165 0.148018 0.026910
Si Si5 0.728848 0.500000 0.678831
Si Si6 0.111958 0.000000 0.782704
O O1 0.600530 0.298210 0.461175
O O2 0.825944 0.412915 0.756767
O O3 0.859802 0.332253 0.620399
O O4 0.873548 0.244158 0.808360
O O5 0.393833 0.377285 0.962446
O O6 0.890611 0.662380 0.248916
O O7 0.883596 0.761130 0.086941
O O8 0.164353 0.081590 0.903349
O O9 0.701815 0.500000 0.770279
O O10 0.576608 0.500000 0.441613
#
# Coordination Sequence:
#
# PCOD8108900 Si02
#       6
#     8   4   8   8   4   4
#     4  10  21  39  59  94 122 161 202 244 305 358
#     4  10  24  38  66  88 114 170 212 240 296 358
#     4   9  20  38  63  84 125 162 199 246 295 362
#     4  10  21  40  60  88 119 162 203 250 295 364
#     4  11  24  36  61  95 126 158 188 258 307 367
#     4  11  24  38  60  93 125 158 195 251 321 344
#
# _framework density 21.293841
#
# number of rings (size 3 to 8) (size 9 to 14) (size 15 to 20)
#    0.000    2.000    2.222    0.000    9.333    2.667 
#    0.000    0.000    0.000    1.333    0.000    0.000 
#    0.000    0.000    0.000    0.000    0.000    0.000 
#
# Total GULP energy -223042.625571 kJ/mol
# GULP energy per Si atom -12391.256976 kJ/mol
# Density = 2.124538 g / cm^3
# Si number density = 21.293841 Si / 1000 Ang^3
#
#
#
# Elastic Constant Matrix: (Units=GPa)
#
#
# Indices 1 2 3 4 5 6 
#
# 1 140.9881 51.4308 49.3598 0.0000 16.3756 0.0000
# 2 51.4308 81.2670 18.8114 0.0000 1.5148 0.0000
# 3 49.3598 18.8114 81.6585 0.0000 16.3183 0.0000
# 4 0.0000 0.0000 0.0000 15.5596 0.0000 -8.5180
# 5 16.3756 1.5148 16.3183 0.0000 28.1522 0.0000
# 6 0.0000 0.0000 0.0000 -8.5180 0.0000 30.0575
#
#
#
# Elastic Compliance Matrix: (Units=1/GPa)
#
#
# Indices 1 2 3 4 5 6 
#
# 1 0.011374 -0.006025 -0.004784 0.000000 -0.003519 0.000000
# 2 -0.006025 0.016224 -0.000703 0.000000 0.003039 0.000000
# 3 -0.004784 -0.000703 0.016667 0.000000 -0.006840 0.000000
# 4 0.000000 0.000000 0.000000 0.076071 0.000000 0.021558
# 5 -0.003519 0.003039 -0.006840 0.000000 0.041369 0.000000
# 6 0.000000 0.000000 0.000000 0.021558 0.000000 0.039379
#
#
# Mechanical properties :
#
#
# Convention : Reuss Voigt Hill
#
# Bulk Modulus (GPa) = 47.07896 60.34640 53.71268
# Shear Modulus (GPa) = 21.62726 27.04128 24.33427
#
# Velocity S-wave (km/s) = 3.19040 3.56745 3.38418
# Velocity P-wave (km/s) = 5.97735 6.73575 6.36785
#
# Compressibility (1/GPa) = 0.02124091
#
# Stress axis : x y z
#
# Youngs Moduli (GPa) = 87.91612 61.63551 59.99948
#
# Poissons Ratio (x) = 0.37138 0.28705
# Poissons Ratio (y) = 0.52973 0.04216
# Poissons Ratio (z) = 0.42061 0.04331
#
# Static dielectric constant tensor:
#      x y z
#    x 4.278430 0.000000 0.268560 
#    y 0.000000 3.491440 0.000000 
#    z 0.268560 0.000000 3.849790 
# 
# 
# High freq. dielectric constant tensor:
#      x y z
#    x 1.841490 0.000000 0.014510 
#    y 0.000000 1.800880 0.000000 
#    z 0.014510 0.000000 1.831670 
# 
# From -- ./inp_files/225531.got.cif
#   From: 2010.06.25/outbox.cif.g09.slc.cpg/sg12_113_cif.got.tgz:225531.got - 2010.06.28 00:19:55.
