data_PCOD8108834
_publ_section_title
;
Structure prediction by ZEFSAII (Michael W. Deem and Ramdas Pophale) SiO2 
 PCOD8108834
Probable space group: C 2/M
;
_chemical_formula_sum "Si O2"
_cell_formula_units_Z 64
_cell_length_a 15.258413
_cell_length_b 8.920137
_cell_length_c 33.248254
_cell_angle_alpha 90.000000
_cell_angle_beta 47.095623
_cell_angle_gamma 90.000000
_cell_volume 3314.759045
_symmetry_space_group_name_H-M "C 2/M"
_symmetry_group_IT_number 12
_symmetry_cell_setting 'monoclinic'
loop_
_space_group_symop_operation_xyz
x,y,z
-x,y,-z
-x,-y,-z
x,-y,z
1/2+x,1/2+y,z
1/2-x,1/2+y,-z
1/2-x,1/2-y,-z
1/2+x,1/2-y,z
loop_
_atom_site_type_symbol
_atom_site_label
_atom_site_fract_x
_atom_site_fract_y
_atom_site_fract_z
Si Si1 0.944716 0.828725 0.603734
Si Si2 0.235518 0.672341 0.612450
Si Si3 0.513836 0.323026 0.317789
Si Si4 0.285174 0.321674 0.806378
Si Si5 0.340231 0.177427 0.502949
Si Si6 0.519498 0.823237 0.880333
Si Si7 0.328144 0.676859 0.881764
Si Si8 0.342518 0.173347 0.999370
O O1 0.807691 0.814308 0.631869
O O2 0.953558 0.776051 0.647029
O O3 0.025696 0.722869 0.550658
O O4 0.989958 0.000000 0.585164
O O5 0.223365 0.500000 0.602476
O O6 0.105502 0.741558 0.659627
O O7 0.310301 0.763050 0.556262
O O8 0.494512 0.500000 0.319911
O O9 0.620827 0.265359 0.256120
O O10 0.279546 0.500000 0.809944
O O11 0.154160 0.259654 0.835270
O O12 0.325042 0.258933 0.837492
O O13 0.250000 0.250000 0.500000
O O14 0.325968 0.000000 0.506806
O O15 0.437899 0.749105 0.871634
O O16 0.473791 0.785112 0.940679
O O17 0.516520 0.000000 0.873471
O O18 0.350264 0.500000 0.874728
O O19 0.196611 0.716210 0.942771
O O20 0.322005 0.000000 0.000026
O O21 0.250000 0.250000 0.000000
#
# Coordination Sequence:
#
# PCOD8108834 Si02
#       8
#     8   8   8   8   8   8   8   8
#     4  10  22  39  59  83 113 147 183 224 273 324
#     4  11  23  39  60  87 115 145 183 227 272 322
#     4  10  21  39  58  76 105 146 186 226 273 323
#     4   9  19  34  53  76 102 138 184 226 268 320
#     4  12  23  37  61  90 120 150 180 219 270 324
#     4   9  17  31  51  75 103 136 177 219 267 329
#     4   9  17  31  50  74 105 137 173 220 273 323
#     4   8  14  25  45  72 101 133 168 214 268 322
#
# _framework density 19.307587000000002
#
# number of rings (size 3 to 8) (size 9 to 14) (size 15 to 20)
#    0.000    2.250    1.250    1.875    0.000    4.000 
#    0.000    5.625    0.000    0.000    0.000    8.750 
#    0.000    0.000    0.000    0.000    0.000    0.000 
#
# Total GULP energy -396578.833901 kJ/mol
# GULP energy per Si atom -12393.088559 kJ/mol
# Density = 1.926364 g / cm^3
# Si number density = 19.307587 Si / 1000 Ang^3
#
#
#
# Elastic Constant Matrix: (Units=GPa)
#
#
# Indices 1 2 3 4 5 6 
#
# 1 114.2214 26.9628 57.8727 0.0006 -14.4842 -0.0001
# 2 26.9628 53.2498 34.9564 0.0004 -7.7033 -0.0002
# 3 57.8727 34.9564 149.7709 0.0008 -19.5225 0.0004
# 4 0.0006 0.0004 0.0008 20.7965 0.0002 -3.7113
# 5 -14.4842 -7.7033 -19.5225 0.0002 24.1694 -0.0002
# 6 -0.0001 -0.0002 0.0004 -3.7113 -0.0002 25.8922
#
#
#
# Elastic Compliance Matrix: (Units=1/GPa)
#
#
# Indices 1 2 3 4 5 6 
#
# 1 0.011606 -0.003236 -0.003305 0.000000 0.003254 0.000000
# 2 -0.003236 0.023307 -0.003883 0.000000 0.002353 0.000000
# 3 -0.003305 -0.003883 0.009434 0.000000 0.004402 0.000000
# 4 0.000000 0.000000 0.000000 0.049347 -0.000001 0.007073
# 5 0.003254 0.002353 0.004402 -0.000001 0.047630 0.000000
# 6 0.000000 0.000000 0.000000 0.007073 0.000000 0.039636
#
#
# Mechanical properties :
#
#
# Convention : Reuss Voigt Hill
#
# Bulk Modulus (GPa) = 42.55462 61.86955 52.21208
# Shear Modulus (GPa) = 23.85017 27.33495 25.59256
#
# Velocity S-wave (km/s) = 3.51846 3.76674 3.64472
# Velocity P-wave (km/s) = 6.21243 7.14364 6.69425
#
# Compressibility (1/GPa) = 0.02349921
#
# Stress axis : x y z
#
# Youngs Moduli (GPa) = 86.16104 42.90506 105.99909
#
# Poissons Ratio (x) = 0.13885 0.35035
# Poissons Ratio (y) = 0.27884 0.41156
# Poissons Ratio (z) = 0.28478 0.16659
#
# Static dielectric constant tensor:
#      x y z
#    x 3.516070 0.000000 -0.040810 
#    y 0.000000 3.355820 0.000000 
#    z -0.040810 0.000000 4.176750 
# 
# 
# High freq. dielectric constant tensor:
#      x y z
#    x 1.749740 0.000000 -0.001560 
#    y 0.000000 1.731790 0.000000 
#    z -0.001560 0.000000 1.757550 
# 
# From -- ./inp_files/375436.got.cif
#   From: 2010.06.25/outbox.cif.g09.slc.cpg/sg12_188_cif.got.tgz:375436.got - 2010.06.28 00:19:55.
