data_PCOD8108812
_publ_section_title
;
Structure prediction by ZEFSAII (Michael W. Deem and Ramdas Pophale) SiO2 
 PCOD8108812
Probable space group: C 2/M
;
_chemical_formula_sum "Si O2"
_cell_formula_units_Z 48
_cell_length_a 9.714677
_cell_length_b 27.165975
_cell_length_c 14.606556
_cell_angle_alpha 90.000000
_cell_angle_beta 143.109962
_cell_angle_gamma 90.000000
_cell_volume 2313.961956
_symmetry_space_group_name_H-M "C 2/M"
_symmetry_group_IT_number 12
_symmetry_cell_setting 'monoclinic'
loop_
_space_group_symop_operation_xyz
x,y,z
-x,y,-z
-x,-y,-z
x,-y,z
1/2+x,1/2+y,z
1/2-x,1/2+y,-z
1/2-x,1/2-y,-z
1/2+x,1/2-y,z
loop_
_atom_site_type_symbol
_atom_site_label
_atom_site_fract_x
_atom_site_fract_y
_atom_site_fract_z
Si Si1 0.263831 0.664620 0.321401
Si Si2 0.407708 0.898299 0.612458
Si Si3 0.042833 0.896608 0.733906
Si Si4 0.730166 0.000000 0.177708
Si Si5 0.507479 0.747785 0.105312
Si Si6 0.228816 0.500000 0.377459
Si Si7 0.402363 0.365091 0.849401
O O1 0.500000 0.670161 0.500000
O O2 0.094045 0.634385 0.296440
O O3 0.286525 0.636320 0.236867
O O4 0.163060 0.718636 0.252892
O O5 0.356875 0.954161 0.610677
O O6 0.657368 0.890892 0.701667
O O7 0.215011 0.883621 0.436018
O O8 0.107410 0.953426 0.754900
O O9 0.067487 0.882825 0.854346
O O10 0.619332 0.000000 0.219403
O O11 0.500000 0.000000 0.000000
O O12 0.618429 0.693737 0.166003
O O13 0.500000 0.769677 0.000000
O O14 0.250000 0.750000 0.000000
O O15 0.500000 0.500000 0.500000
O O16 0.500000 0.382169 0.000000
#
# Coordination Sequence:
#
# PCOD8108812 Si02
#       7
#     8   8   8   4   8   4   8
#     4  10  21  38  68  96 120 162 220 266 311 375
#     4  11  22  41  68  94 127 169 208 267 324 380
#     4  11  23  43  64  94 126 167 213 262 319 383
#     4  12  26  39  68 101 125 159 221 265 312 377
#     4  11  23  42  63  89 128 175 212 259 324 384
#     4  12  20  45  70  95 127 169 215 263 316 393
#     4  11  26  42  60  92 134 169 210 262 325 380
#
# _framework density 20.743642000000001
#
# number of rings (size 3 to 8) (size 9 to 14) (size 15 to 20)
#    0.000    1.000    3.333    4.000    2.333    4.000 
#    0.000    6.667    0.000    0.000    0.000    0.000 
#    0.000    0.000    0.000    0.000    0.000    0.000 
#
# Total GULP energy -297626.925865 kJ/mol
# GULP energy per Si atom -12401.121911 kJ/mol
# Density = 2.069643 g / cm^3
# Si number density = 20.743642 Si / 1000 Ang^3
#
#
#
# Elastic Constant Matrix: (Units=GPa)
#
#
# Indices 1 2 3 4 5 6 
#
# 1 118.1374 29.4266 27.5679 0.0000 -15.8205 0.0000
# 2 29.4266 115.1461 23.2653 0.0000 -1.0006 0.0000
# 3 27.5679 23.2653 61.0824 0.0000 -3.2558 0.0000
# 4 0.0000 0.0000 0.0000 28.5100 0.0000 -4.9924
# 5 -15.8205 -1.0006 -3.2558 0.0000 42.2035 0.0000
# 6 0.0000 0.0000 0.0000 -4.9924 0.0000 32.6972
#
#
#
# Elastic Compliance Matrix: (Units=1/GPa)
#
#
# Indices 1 2 3 4 5 6 
#
# 1 0.010267 -0.001836 -0.003747 0.000000 0.003516 0.000000
# 2 -0.001836 0.009737 -0.002916 0.000000 -0.000682 0.000000
# 3 -0.003747 -0.002916 0.019174 0.000000 0.000005 0.000000
# 4 0.000000 0.000000 0.000000 0.036039 0.000000 0.005503
# 5 0.003516 -0.000682 0.000005 0.000000 0.024997 0.000000
# 6 0.000000 0.000000 0.000000 0.005503 0.000000 0.031424
#
#
# Mechanical properties :
#
#
# Convention : Reuss Voigt Hill
#
# Bulk Modulus (GPa) = 45.08826 50.54282 47.81554
# Shear Modulus (GPa) = 32.04504 34.95589 33.50047
#
# Velocity S-wave (km/s) = 3.93467 4.10950 4.02304
# Velocity P-wave (km/s) = 6.51347 6.85096 6.68435
#
# Compressibility (1/GPa) = 0.02217872
#
# Stress axis : x y z
#
# Youngs Moduli (GPa) = 97.39578 102.69872 52.15519
#
# Poissons Ratio (x) = 0.18858 0.19543
# Poissons Ratio (y) = 0.17884 0.15210
# Poissons Ratio (z) = 0.36495 0.29951
#
# Static dielectric constant tensor:
#      x y z
#    x 4.037540 0.000000 -0.221390 
#    y 0.000000 2.876160 0.000000 
#    z -0.221390 0.000000 3.788160 
# 
# 
# High freq. dielectric constant tensor:
#      x y z
#    x 1.822070 0.000000 -0.009240 
#    y 0.000000 1.812540 0.000000 
#    z -0.009240 0.000000 1.813410 
# 
# From -- ./inp_files/200268.got.cif
#   From: 2010.06.25/outbox.cif.g09.slc.cpg/sg12_101_cif.got.tgz:200268.got - 2010.06.28 00:19:55.
