data_PCOD8108738
_publ_section_title
;
Structure prediction by ZEFSAII (Michael W. Deem and Ramdas Pophale) SiO2 
 PCOD8108738
Probable space group: C 2/M
;
_chemical_formula_sum "Si O2"
_cell_formula_units_Z 56
_cell_length_a 9.014183
_cell_length_b 23.718544
_cell_length_c 12.812651
_cell_angle_alpha 90.000000
_cell_angle_beta 70.509817
_cell_angle_gamma 90.000000
_cell_volume 2582.416500
_symmetry_space_group_name_H-M "C 2/M"
_symmetry_group_IT_number 12
_symmetry_cell_setting 'monoclinic'
loop_
_space_group_symop_operation_xyz
x,y,z
-x,y,-z
-x,-y,-z
x,-y,z
1/2+x,1/2+y,z
1/2-x,1/2+y,-z
1/2-x,1/2-y,-z
1/2+x,1/2-y,z
loop_
_atom_site_type_symbol
_atom_site_label
_atom_site_fract_x
_atom_site_fract_y
_atom_site_fract_z
Si Si1 0.647682 0.333966 0.391431
Si Si2 0.294593 0.385211 0.824272
Si Si3 0.516625 0.934025 0.176885
Si Si4 0.816795 0.279258 0.746282
Si Si5 0.469764 0.714387 0.885756
Si Si6 0.339179 0.437472 0.008157
Si Si7 0.029190 0.375655 0.608672
O O1 0.500000 0.326038 0.500000
O O2 0.613122 0.380193 0.307483
O O3 0.690361 0.277352 0.320539
O O4 0.792079 0.353839 0.427790
O O5 0.108555 0.390752 0.844325
O O6 0.340379 0.334751 0.894472
O O7 0.334037 0.440624 0.882796
O O8 0.683387 0.910289 0.095415
O O9 0.506404 0.927055 0.304058
O O10 0.489543 0.000000 0.153336
O O11 0.639338 0.302144 0.798708
O O12 0.913375 0.324259 0.658480
O O13 0.899212 0.268444 0.839795
O O14 0.500000 0.729141 0.000000
O O15 0.350750 0.500000 0.052456
O O16 0.500000 0.403477 0.000000
O O17 0.000000 0.399177 0.500000
#
# Coordination Sequence:
#
# PCOD8108738 Si02
#       7
#     8   8   8   8   8   8   8
#     4  10  23  42  61  90 128 170 216 264 314 376
#     4  10  22  38  63  93 122 172 211 256 317 383
#     4  10  23  45  67  93 130 169 215 269 331 393
#     4  11  23  42  62  92 134 175 218 255 318 384
#     4  11  24  41  62  96 137 176 208 261 316 383
#     4  10  21  38  64  96 126 160 209 266 323 387
#     4  11  25  39  65  97 122 169 220 273 320 381
#
# _framework density 21.685115
#
# number of rings (size 3 to 8) (size 9 to 14) (size 15 to 20)
#    0.000    1.571    1.429    2.143    8.000    2.571 
#    0.000    0.000    0.000   10.714    0.000    0.000 
#    0.000    0.000    0.000    0.000    0.000    0.000 
#
# Total GULP energy -346941.818407 kJ/mol
# GULP energy per Si atom -12390.779229 kJ/mol
# Density = 2.163576 g / cm^3
# Si number density = 21.685115 Si / 1000 Ang^3
#
#
#
# Elastic Constant Matrix: (Units=GPa)
#
#
# Indices 1 2 3 4 5 6 
#
# 1 139.4039 30.6973 77.3069 0.0000 -1.6985 0.0000
# 2 30.6973 39.3862 28.0759 0.0000 -4.9362 0.0000
# 3 77.3069 28.0759 135.2895 0.0000 5.1484 0.0000
# 4 0.0000 0.0000 0.0000 28.7163 0.0000 -0.1877
# 5 -1.6985 -4.9362 5.1484 0.0000 41.9032 0.0000
# 6 0.0000 0.0000 0.0000 -0.1877 0.0000 28.0621
#
#
#
# Elastic Compliance Matrix: (Units=1/GPa)
#
#
# Indices 1 2 3 4 5 6 
#
# 1 0.011270 -0.004821 -0.005461 0.000000 0.000560 0.000000
# 2 -0.004821 0.032648 -0.004179 0.000000 0.004164 0.000000
# 3 -0.005461 -0.004179 0.011460 0.000000 -0.002122 0.000000
# 4 0.000000 0.000000 0.000000 0.034825 0.000000 0.000233
# 5 0.000560 0.004164 -0.002122 0.000000 0.024638 0.000000
# 6 0.000000 0.000000 0.000000 0.000233 0.000000 0.035637
#
#
# Mechanical properties :
#
#
# Convention : Reuss Voigt Hill
#
# Bulk Modulus (GPa) = 37.79796 65.13775 51.46785
# Shear Modulus (GPa) = 26.56493 31.60295 29.08394
#
# Velocity S-wave (km/s) = 3.50384 3.82168 3.66620
# Velocity P-wave (km/s) = 5.81699 7.04108 6.45810
#
# Compressibility (1/GPa) = 0.02645646
#
# Stress axis : x y z
#
# Youngs Moduli (GPa) = 88.73013 30.62997 87.26077
#
# Poissons Ratio (x) = 0.14767 0.47651
# Poissons Ratio (y) = 0.42777 0.36465
# Poissons Ratio (z) = 0.48454 0.12800
#
# Static dielectric constant tensor:
#      x y z
#    x 4.277160 0.000000 0.122150 
#    y 0.000000 3.721780 0.000000 
#    z 0.122150 0.000000 4.010600 
# 
# 
# High freq. dielectric constant tensor:
#      x y z
#    x 1.872530 0.000000 0.007290 
#    y 0.000000 1.827250 0.000000 
#    z 0.007290 0.000000 1.852140 
# 
# From -- ./inp_files/125188.got.cif
#   From: 2010.06.25/outbox.cif.g09.slc.cpg/sg12_63_cif.got.tgz:125188.got - 2010.06.28 00:19:55.
