data_PCOD8108075
_publ_section_title
;
Structure prediction by ZEFSAII (Michael W. Deem and Ramdas Pophale) SiO2 
 PCOD8108075
Probable space group: C 2/M
;
_chemical_formula_sum "Si O2"
_cell_formula_units_Z 64
_cell_length_a 29.818666
_cell_length_b 9.130115
_cell_length_c 12.143460
_cell_angle_alpha 90.000000
_cell_angle_beta 91.992308
_cell_angle_gamma 90.000000
_cell_volume 3304.032388
_symmetry_space_group_name_H-M "C 2/M"
_symmetry_group_IT_number 12
_symmetry_cell_setting 'monoclinic'
loop_
_space_group_symop_operation_xyz
x,y,z
-x,y,-z
-x,-y,-z
x,-y,z
1/2+x,1/2+y,z
1/2-x,1/2+y,-z
1/2-x,1/2-y,-z
1/2+x,1/2-y,z
loop_
_atom_site_type_symbol
_atom_site_label
_atom_site_fract_x
_atom_site_fract_y
_atom_site_fract_z
Si Si1 0.266337 0.827942 0.834526
Si Si2 0.430842 0.165306 0.816078
Si Si3 0.280653 0.170847 0.590337
Si Si4 0.047255 0.827190 0.555202
Si Si5 0.184816 0.831362 0.976674
Si Si6 0.583273 0.669794 0.964998
Si Si7 0.616069 0.167262 0.410401
Si Si8 0.532318 0.831046 0.773479
O O1 0.269280 0.766572 0.710873
O O2 0.217886 0.784125 0.880461
O O3 0.274885 0.000000 0.835447
O O4 0.305584 0.759390 0.912095
O O5 0.393757 0.192086 0.719382
O O6 0.479066 0.190223 0.764500
O O7 0.427441 0.000000 0.863724
O O8 0.422845 0.283177 0.909686
O O9 0.250000 0.250000 0.500000
O O10 0.332083 0.202832 0.564627
O O11 0.269669 0.000000 0.585031
O O12 0.087449 0.778204 0.480456
O O13 0.054552 0.753301 0.673876
O O14 0.000000 0.776069 0.500000
O O15 0.049199 0.000000 0.571180
O O16 0.134397 0.801395 0.931808
O O17 0.192241 0.000000 0.008095
O O18 0.570245 0.500000 0.952980
O O19 0.550297 0.765093 0.888463
O O20 0.604162 0.000000 0.442073
O O21 0.546302 0.000000 0.767798
#
# Coordination Sequence:
#
# PCOD8108075 Si02
#       8
#     8   8   8   8   8   8   8   8
#     4   9  18  36  60  81 108 146 189 235 281 333
#     4  10  21  38  60  83 111 150 197 240 283 341
#     4  10  22  38  58  85 117 153 194 241 292 345
#     4  11  23  39  61  88 117 148 190 241 295 352
#     4   9  19  35  56  84 113 146 184 229 287 342
#     4  11  23  36  53  83 123 155 187 235 290 346
#     4  10  21  39  62  87 115 153 200 244 292 350
#     4  11  23  39  60  83 112 153 195 238 287 341
#
# _framework density 19.370269
#
# number of rings (size 3 to 8) (size 9 to 14) (size 15 to 20)
#    0.000    1.875    1.250    2.250    0.000    7.500 
#    0.000    1.250    0.000    0.000    0.000    0.000 
#    0.000    0.000    0.000    0.000    0.000    0.000 
#
# Total GULP energy -396966.276669 kJ/mol
# GULP energy per Si atom -12405.196146 kJ/mol
# Density = 1.932618 g / cm^3
# Si number density = 19.370269 Si / 1000 Ang^3
#
#
#
# Elastic Constant Matrix: (Units=GPa)
#
#
# Indices 1 2 3 4 5 6 
#
# 1 84.9264 42.5284 39.2825 0.0000 9.6206 0.0000
# 2 42.5284 75.4343 42.8696 0.0000 1.1488 0.0000
# 3 39.2825 42.8696 97.0635 0.0000 0.1970 0.0000
# 4 0.0000 0.0000 0.0000 36.4526 0.0000 -0.2663
# 5 9.6206 1.1488 0.1970 0.0000 31.1633 0.0000
# 6 0.0000 0.0000 0.0000 -0.2663 0.0000 29.2031
#
#
#
# Elastic Compliance Matrix: (Units=1/GPa)
#
#
# Indices 1 2 3 4 5 6 
#
# 1 0.018127 -0.007979 -0.003801 0.000000 -0.005278 0.000000
# 2 -0.007979 0.021222 -0.006148 0.000000 0.001720 0.000000
# 3 -0.003801 -0.006148 0.014554 0.000000 0.001308 0.000000
# 4 0.000000 0.000000 0.000000 0.027435 0.000000 0.000250
# 5 -0.005278 0.001720 0.001308 0.000000 0.033647 0.000000
# 6 0.000000 0.000000 0.000000 0.000250 0.000000 0.034245
#
#
# Mechanical properties :
#
#
# Convention : Reuss Voigt Hill
#
# Bulk Modulus (GPa) = 55.41067 56.30947 55.86007
# Shear Modulus (GPa) = 26.16430 28.21337 27.18884
#
# Velocity S-wave (km/s) = 3.67924 3.82059 3.75058
# Velocity P-wave (km/s) = 6.83500 6.97106 6.90337
#
# Compressibility (1/GPa) = 0.01804706
#
# Stress axis : x y z
#
# Youngs Moduli (GPa) = 55.16770 47.12020 68.71187
#
# Poissons Ratio (x) = 0.37596 0.26120
# Poissons Ratio (y) = 0.44017 0.42241
# Poissons Ratio (z) = 0.20971 0.28968
#
# Static dielectric constant tensor:
#      x y z
#    x 3.596260 0.000000 -0.051220 
#    y 0.000000 3.493250 0.000000 
#    z -0.051220 0.000000 3.496580 
# 
# 
# High freq. dielectric constant tensor:
#      x y z
#    x 1.759410 0.000000 -0.003160 
#    y 0.000000 1.752390 0.000000 
#    z -0.003160 0.000000 1.755150 
# 
# From -- ./inp_files/187494.got.cif
#   From: 2010.06.25/outbox.cif.g09.slc.cpg/sg12_94_cif.got.tgz:187494.got - 2010.06.28 00:19:55.
