data_PCOD8108536
_publ_section_title
;
Structure prediction by ZEFSAII (Michael W. Deem and Ramdas Pophale) SiO2 
 PCOD8108536
Probable space group: C 2/M
;
_chemical_formula_sum "Si O2"
_cell_formula_units_Z 64
_cell_length_a 19.905278
_cell_length_b 8.538546
_cell_length_c 18.881965
_cell_angle_alpha 90.000000
_cell_angle_beta 87.147719
_cell_angle_gamma 90.000000
_cell_volume 3205.243275
_symmetry_space_group_name_H-M "C 2/M"
_symmetry_group_IT_number 12
_symmetry_cell_setting 'monoclinic'
loop_
_space_group_symop_operation_xyz
x,y,z
-x,y,-z
-x,-y,-z
x,-y,z
1/2+x,1/2+y,z
1/2-x,1/2+y,-z
1/2-x,1/2-y,-z
1/2+x,1/2-y,z
loop_
_atom_site_type_symbol
_atom_site_label
_atom_site_fract_x
_atom_site_fract_y
_atom_site_fract_z
Si Si1 0.642468 0.681046 0.692887
Si Si2 0.083892 0.684889 0.560923
Si Si3 0.201733 0.316244 0.943185
Si Si4 0.058392 0.184399 0.944175
Si Si5 0.251505 0.683654 0.788290
Si Si6 0.487286 0.680927 0.207268
Si Si7 0.887305 0.681055 0.726688
Si Si8 0.561616 0.316769 0.415409
O O1 0.663980 0.500000 0.692923
O O2 0.637196 0.742809 0.613028
O O3 0.698382 0.781656 0.729564
O O4 0.570546 0.707318 0.732549
O O5 0.093197 0.500000 0.556387
O O6 0.100164 0.760859 0.483860
O O7 0.008169 0.724145 0.588795
O O8 0.207663 0.500000 0.944109
O O9 0.126285 0.266524 0.965547
O O10 0.222528 0.253170 0.864456
O O11 0.250000 0.250000 0.000000
O O12 0.039091 0.240739 0.866790
O O13 0.070376 0.000000 0.946075
O O14 0.000000 0.238397 0.000000
O O15 0.266747 0.500000 0.789790
O O16 0.319807 0.775816 0.771005
O O17 0.509648 0.500000 0.202600
O O18 0.550939 0.784339 0.224506
O O19 0.887024 0.500000 0.705906
O O20 0.892087 0.781863 0.654556
O O21 0.545224 0.500000 0.420617
#
# Coordination Sequence:
#
# PCOD8108536 Si02
#       8
#     8   8   8   8   8   8   8   8
#     4  11  21  38  64  92 122 162 207 254 309 366
#     4  11  21  35  59  91 125 162 206 254 307 364
#     4  11  25  43  65  90 123 164 207 253 306 369
#     4  10  22  41  65  93 125 161 202 253 309 365
#     4  11  25  44  64  88 123 165 208 255 309 370
#     4  10  21  38  62  90 125 162 204 255 308 364
#     4  12  25  40  62  92 126 163 207 257 309 367
#     4  11  21  37  59  88 125 163 205 255 310 363
#
# _framework density 19.967283999999999
#
# number of rings (size 3 to 8) (size 9 to 14) (size 15 to 20)
#    0.000    1.125    2.500    5.250    1.750    2.750 
#    0.000    0.625    0.000    0.000    0.000    0.000 
#    0.000    0.000    0.000    0.000    0.000    0.000 
#
# Total GULP energy -397016.038583 kJ/mol
# GULP energy per Si atom -12406.751206 kJ/mol
# Density = 1.992184 g / cm^3
# Si number density = 19.967284 Si / 1000 Ang^3
#
#
#
# Elastic Constant Matrix: (Units=GPa)
#
#
# Indices 1 2 3 4 5 6 
#
# 1 104.1681 25.0051 55.9409 0.0000 9.7284 0.0000
# 2 25.0051 64.5802 33.1505 0.0000 2.8250 0.0000
# 3 55.9409 33.1505 121.6728 0.0000 18.9431 0.0000
# 4 0.0000 0.0000 0.0000 29.9049 0.0000 4.9296
# 5 9.7284 2.8250 18.9431 0.0000 34.7904 0.0000
# 6 0.0000 0.0000 0.0000 4.9296 0.0000 34.6127
#
#
#
# Elastic Compliance Matrix: (Units=1/GPa)
#
#
# Indices 1 2 3 4 5 6 
#
# 1 0.013043 -0.002317 -0.005274 0.000000 -0.000587 0.000000
# 2 -0.002317 0.018470 -0.004189 0.000000 0.001429 0.000000
# 3 -0.005274 -0.004189 0.012568 0.000000 -0.005028 0.000000
# 4 0.000000 0.000000 0.000000 0.034243 0.000000 -0.004877
# 5 -0.000587 0.001429 -0.005028 0.000000 0.031530 0.000000
# 6 0.000000 0.000000 0.000000 -0.004877 0.000000 0.029586
#
#
# Mechanical properties :
#
#
# Convention : Reuss Voigt Hill
#
# Bulk Modulus (GPa) = 48.73387 57.62379 53.17883
# Shear Modulus (GPa) = 29.43936 31.61656 30.52796
#
# Velocity S-wave (km/s) = 3.84393 3.98354 3.91436
# Velocity P-wave (km/s) = 6.64537 7.07671 6.86443
#
# Compressibility (1/GPa) = 0.02051961
#
# Stress axis : x y z
#
# Youngs Moduli (GPa) = 76.66783 54.14237 79.56836
#
# Poissons Ratio (x) = 0.12546 0.41965
# Poissons Ratio (y) = 0.17766 0.33334
# Poissons Ratio (z) = 0.40435 0.22682
#
# Static dielectric constant tensor:
#      x y z
#    x 3.587570 0.000000 0.080840 
#    y 0.000000 3.612150 0.000000 
#    z 0.080840 0.000000 3.873670 
# 
# 
# High freq. dielectric constant tensor:
#      x y z
#    x 1.767500 0.000000 0.008310 
#    y 0.000000 1.785090 0.000000 
#    z 0.008310 0.000000 1.793920 
# 
# From -- ./inp_files/281412.got.cif
#   From: 2010.06.25/outbox.cif.g09.slc.cpg/sg12_141_cif.got.tgz:281412.got - 2010.06.28 00:19:55.
