data_PCOD8108783
_publ_section_title
;
Structure prediction by ZEFSAII (Michael W. Deem and Ramdas Pophale) SiO2 
 PCOD8108783
Probable space group: C 2/M
;
_chemical_formula_sum "Si O2"
_cell_formula_units_Z 56
_cell_length_a 10.649301
_cell_length_b 19.403598
_cell_length_c 13.287951
_cell_angle_alpha 90.000000
_cell_angle_beta 67.959232
_cell_angle_gamma 90.000000
_cell_volume 2545.084879
_symmetry_space_group_name_H-M "C 2/M"
_symmetry_group_IT_number 12
_symmetry_cell_setting 'monoclinic'
loop_
_space_group_symop_operation_xyz
x,y,z
-x,y,-z
-x,-y,-z
x,-y,z
1/2+x,1/2+y,z
1/2-x,1/2+y,-z
1/2-x,1/2-y,-z
1/2+x,1/2-y,z
loop_
_atom_site_type_symbol
_atom_site_label
_atom_site_fract_x
_atom_site_fract_y
_atom_site_fract_z
Si Si1 0.479350 0.921458 0.706553
Si Si2 0.604454 0.079577 0.878635
Si Si3 0.808524 0.922303 0.279249
Si Si4 0.534406 0.690699 0.881315
Si Si5 0.636122 0.290026 0.413778
Si Si6 0.670062 0.143720 0.500609
Si Si7 0.716084 0.704518 0.169755
O O1 0.538244 0.893077 0.793951
O O2 0.317569 0.913097 0.759364
O O3 0.528130 0.884804 0.587802
O O4 0.524283 0.000000 0.681471
O O5 0.734785 0.126233 0.863534
O O6 0.650359 0.000000 0.856914
O O7 0.500000 0.089741 0.000000
O O8 0.923315 0.868947 0.209642
O O9 0.757707 0.909971 0.408921
O O10 0.866453 0.000000 0.256224
O O11 0.394513 0.725544 0.881985
O O12 0.652794 0.746563 0.861789
O O13 0.500000 0.657852 0.000000
O O14 0.500000 0.321724 0.500000
O O15 0.651656 0.211119 0.440212
O O16 0.755172 0.338244 0.417718
O O17 0.628995 0.291589 0.296914
#
# Coordination Sequence:
#
# PCOD8108783 Si02
#       7
#     8   8   8   8   8   8   8
#     4  10  21  38  65  98 131 177 226 280 334 397
#     4  10  23  43  71 102 135 180 232 281 338 402
#     4  11  24  42  67  99 140 181 227 283 341 404
#     4  12  29  47  72 101 134 181 228 282 346 407
#     4  11  23  36  62  95 133 177 221 277 339 399
#     4  11  21  38  62  94 134 178 225 276 334 402
#     4  12  26  47  71 101 141 174 227 282 343 409
#
# _framework density 22.003195000000002
#
# number of rings (size 3 to 8) (size 9 to 14) (size 15 to 20)
#    0.000    1.000    2.857    3.429    6.000    2.000 
#    0.000    0.000    0.000    2.143    0.000    0.000 
#    0.000    0.000    0.000    0.000    0.000    0.000 
#
# Total GULP energy -347209.026241 kJ/mol
# GULP energy per Si atom -12400.322366 kJ/mol
# Density = 2.195311 g / cm^3
# Si number density = 22.003195 Si / 1000 Ang^3
#
#
#
# Elastic Constant Matrix: (Units=GPa)
#
#
# Indices 1 2 3 4 5 6 
#
# 1 107.4895 42.5684 28.5408 0.0000 2.1167 0.0000
# 2 42.5684 84.8175 23.3969 0.0000 -3.2371 0.0000
# 3 28.5408 23.3969 117.2340 0.0000 9.7826 0.0000
# 4 0.0000 0.0000 0.0000 22.9508 0.0000 -5.2354
# 5 2.1167 -3.2371 9.7826 0.0000 30.9225 0.0000
# 6 0.0000 0.0000 0.0000 -5.2354 0.0000 30.1958
#
#
#
# Elastic Compliance Matrix: (Units=1/GPa)
#
#
# Indices 1 2 3 4 5 6 
#
# 1 0.011987 -0.005570 -0.001735 0.000000 -0.000855 0.000000
# 2 -0.005570 0.015206 -0.001893 0.000000 0.002572 0.000000
# 3 -0.001735 -0.001893 0.009590 0.000000 -0.003113 0.000000
# 4 0.000000 0.000000 0.000000 0.045366 0.000000 0.007866
# 5 -0.000855 0.002572 -0.003113 0.000000 0.033652 0.000000
# 6 0.000000 0.000000 0.000000 0.007866 0.000000 0.034481
#
#
# Mechanical properties :
#
#
# Convention : Reuss Voigt Hill
#
# Bulk Modulus (GPa) = 54.39013 55.39481 54.89247
# Shear Modulus (GPa) = 28.60314 31.14949 29.87632
#
# Velocity S-wave (km/s) = 3.60940 3.76663 3.68885
# Velocity P-wave (km/s) = 6.49178 6.64433 6.56850
#
# Compressibility (1/GPa) = 0.01838569
#
# Stress axis : x y z
#
# Youngs Moduli (GPa) = 83.42655 65.76418 104.27474
#
# Poissons Ratio (x) = 0.36629 0.18094
# Poissons Ratio (y) = 0.46467 0.19743
# Poissons Ratio (z) = 0.14477 0.12451
#
# Static dielectric constant tensor:
#      x y z
#    x 4.058150 0.000000 0.046770 
#    y 0.000000 3.902260 0.000000 
#    z 0.046770 0.000000 4.009410 
# 
# 
# High freq. dielectric constant tensor:
#      x y z
#    x 1.864740 0.000000 0.005730 
#    y 0.000000 1.857010 0.000000 
#    z 0.005730 0.000000 1.877030 
# 
# From -- ./inp_files/206592.got.cif
#   From: 2010.06.25/outbox.cif.g09.slc.cpg/sg12_104_cif.got.tgz:206592.got - 2010.06.28 00:19:55.
