data_PCOD8108598
_publ_section_title
;
Structure prediction by ZEFSAII (Michael W. Deem and Ramdas Pophale) SiO2 
 PCOD8108598
Probable space group: C 2/M
;
_chemical_formula_sum "Si O2"
_cell_formula_units_Z 44
_cell_length_a 8.480452
_cell_length_b 31.141354
_cell_length_c 10.708886
_cell_angle_alpha 90.000000
_cell_angle_beta 45.233598
_cell_angle_gamma 90.000000
_cell_volume 2007.933068
_symmetry_space_group_name_H-M "C 2/M"
_symmetry_group_IT_number 12
_symmetry_cell_setting 'monoclinic'
loop_
_space_group_symop_operation_xyz
x,y,z
-x,y,-z
-x,-y,-z
x,-y,z
1/2+x,1/2+y,z
1/2-x,1/2+y,-z
1/2-x,1/2-y,-z
1/2+x,1/2-y,z
loop_
_atom_site_type_symbol
_atom_site_label
_atom_site_fract_x
_atom_site_fract_y
_atom_site_fract_z
Si Si1 0.664363 0.369267 0.618864
Si Si2 0.639412 0.877207 0.233124
Si Si3 0.136690 0.775299 0.671844
Si Si4 0.522663 0.951965 0.842276
Si Si5 0.500000 0.426649 0.500000
Si Si6 0.743583 0.785168 0.137355
O O1 0.685810 0.385828 0.750897
O O2 0.554036 0.322141 0.674684
O O3 0.508610 0.399491 0.623282
O O4 0.901842 0.366969 0.421982
O O5 0.630488 0.918712 0.149170
O O6 0.706877 0.834741 0.114647
O O7 0.250000 0.750000 0.500000
O O8 0.318614 0.781561 0.679990
O O9 0.913781 0.749664 0.844617
O O10 0.775187 0.953542 0.647341
O O11 0.426847 0.000000 0.876194
O O12 0.500000 0.939057 0.000000
O O13 0.000000 0.772919 0.000000
#
# Coordination Sequence:
#
# PCOD8108598 Si02
#       6
#     8   8   8   8   4   8
#     4   9  19  35  60  87 115 164 208 239 296 359
#     4   9  19  39  58  83 121 159 201 248 300 370
#     4  11  21  36  58  80 114 161 208 247 287 350
#     4  10  22  41  66  93 121 153 196 253 317 377
#     4  10  21  38  62  94 126 156 202 254 301 372
#     4  11  23  36  54  84 121 157 201 256 305 345
#
# _framework density 21.913081999999999
#
# number of rings (size 3 to 8) (size 9 to 14) (size 15 to 20)
#    0.000    2.000    1.818    1.364    2.545    2.909 
#    0.000   10.000    0.000    2.727    0.000    0.000 
#    0.000    0.000    0.000    0.000    0.000    0.000 
#
# Total GULP energy -272628.011955 kJ/mol
# GULP energy per Si atom -12392.182362 kJ/mol
# Density = 2.186321 g / cm^3
# Si number density = 21.913082 Si / 1000 Ang^3
#
#
#
# Elastic Constant Matrix: (Units=GPa)
#
#
# Indices 1 2 3 4 5 6 
#
# 1 95.7766 76.6734 14.7191 0.0000 16.7772 0.0000
# 2 76.6734 161.7609 31.2476 0.0000 19.6347 0.0000
# 3 14.7191 31.2476 58.3560 0.0000 7.2903 0.0000
# 4 0.0000 0.0000 0.0000 -38.8909 0.0000 5.4088
# 5 16.7772 19.6347 7.2903 0.0000 29.4713 0.0000
# 6 0.0000 0.0000 0.0000 5.4088 0.0000 35.8315
#
#
#
# Elastic Compliance Matrix: (Units=1/GPa)
#
#
# Indices 1 2 3 4 5 6 
#
# 1 0.017436 -0.007744 0.000355 0.000000 -0.004855 0.000000
# 2 -0.007744 0.010773 -0.003580 0.000000 -0.001883 0.000000
# 3 0.000355 -0.003580 0.019287 0.000000 -0.002588 0.000000
# 4 0.000000 0.000000 0.000000 -0.025184 0.000000 0.003802
# 5 -0.004855 -0.001883 -0.002588 0.000000 0.038590 0.000000
# 6 0.000000 0.000000 0.000000 0.003802 0.000000 0.027335
#
#
# Mechanical properties :
#
#
# Convention : Reuss Voigt Hill
#
# Bulk Modulus (GPa) = 39.12618 62.35263 50.73941
# Shear Modulus (GPa) = 42.12577 18.16596 30.14586
#
# Velocity S-wave (km/s) = 4.38928 2.88236 3.71307
# Velocity P-wave (km/s) = 6.60164 6.29235 6.44885
#
# Compressibility (1/GPa) = 0.02555833
#
# Stress axis : x y z
#
# Youngs Moduli (GPa) = 57.35220 92.82783 51.84882
#
# Poissons Ratio (x) = 0.71885 -0.01842
# Poissons Ratio (y) = 0.44413 0.18561
# Poissons Ratio (z) = -0.02037 0.33231
#
# Static dielectric constant tensor:
#      x y z
#    x 4.451090 0.000000 0.356480 
#    y 0.000000 3.927670 0.000000 
#    z 0.356480 0.000000 4.168150 
# 
# 
# High freq. dielectric constant tensor:
#      x y z
#    x 1.855380 0.000000 0.008920 
#    y 0.000000 1.849500 0.000000 
#    z 0.008920 0.000000 1.876210 
# 
# From -- ./inp_files/124060.got.cif
#   From: 2010.06.25/outbox.cif.g09.slc.cpg/sg12_63_cif.got.tgz:124060.got - 2010.06.28 00:19:55.
