data_PCOD8108653
_publ_section_title
;
Structure prediction by ZEFSAII (Michael W. Deem and Ramdas Pophale) SiO2 
 PCOD8108653
Probable space group: C 2/M
;
_chemical_formula_sum "Si O2"
_cell_formula_units_Z 52
_cell_length_a 17.742560
_cell_length_b 18.484269
_cell_length_c 7.985930
_cell_angle_alpha 90.000000
_cell_angle_beta 102.470182
_cell_angle_gamma 90.000000
_cell_volume 2557.264324
_symmetry_space_group_name_H-M "C 2/M"
_symmetry_group_IT_number 12
_symmetry_cell_setting 'monoclinic'
loop_
_space_group_symop_operation_xyz
x,y,z
-x,y,-z
-x,-y,-z
x,-y,z
1/2+x,1/2+y,z
1/2-x,1/2+y,-z
1/2-x,1/2-y,-z
1/2+x,1/2-y,z
loop_
_atom_site_type_symbol
_atom_site_label
_atom_site_fract_x
_atom_site_fract_y
_atom_site_fract_z
Si Si1 0.304759 0.500000 0.188664
Si Si2 0.324931 0.000000 0.581511
Si Si3 0.283297 0.500000 0.788636
Si Si4 0.568085 0.866253 0.418924
Si Si5 0.476137 0.732144 0.796512
Si Si6 0.120451 0.849391 0.786906
Si Si7 0.165898 0.153422 0.181052
Si Si8 0.303484 0.769222 0.373264
O O1 0.239521 0.500000 0.302760
O O2 0.364048 0.433583 0.240945
O O3 0.263786 0.500000 0.982307
O O4 0.290029 0.000000 0.374774
O O5 0.378758 0.929416 0.632809
O O6 0.336419 0.568793 0.772904
O O7 0.500000 0.900638 0.500000
O O8 0.527257 0.816420 0.258228
O O9 0.618567 0.811855 0.553635
O O10 0.533954 0.681629 0.713598
O O11 0.391490 0.696836 0.722586
O O12 0.500000 0.730358 0.000000
O O13 0.180883 0.807155 0.703130
O O14 0.136545 0.830416 0.984327
O O15 0.253993 0.179353 0.228557
O O16 0.250000 0.750000 0.500000
#
# Coordination Sequence:
#
# PCOD8108653 Si02
#       8
#     4   4   4   8   8   8   8   8
#     4  10  24  42  67  99 130 171 214 263 326 387
#     4  12  25  46  67  93 131 172 216 274 321 381
#     4  10  22  42  63 100 130 163 222 263 322 382
#     4  12  24  43  64  91 130 168 216 266 324 384
#     4  10  22  41  64  94 131 167 211 261 325 385
#     4  10  22  40  61  92 130 164 209 262 317 386
#     4  10  21  38  63  92 125 168 210 261 318 383
#     4  12  21  35  64  90 120 166 213 265 311 372
#
# _framework density 20.334229000000001
#
# number of rings (size 3 to 8) (size 9 to 14) (size 15 to 20)
#    0.000    1.231    4.615    1.615    0.000    0.615 
#    5.538    3.462    0.000    1.846    0.000    0.000 
#    0.000    0.000    0.000    0.000    0.000    0.000 
#
# Total GULP energy -322232.887852 kJ/mol
# GULP energy per Si atom -12393.572610 kJ/mol
# Density = 2.028795 g / cm^3
# Si number density = 20.334229 Si / 1000 Ang^3
#
#
#
# Elastic Constant Matrix: (Units=GPa)
#
#
# Indices 1 2 3 4 5 6 
#
# 1 111.0182 47.0968 43.4423 0.0000 -12.4383 0.0000
# 2 47.0968 136.2125 49.6666 0.0000 -14.4455 0.0000
# 3 43.4423 49.6666 38.0725 0.0000 -0.1597 0.0000
# 4 0.0000 0.0000 0.0000 29.4961 0.0000 4.0183
# 5 -12.4383 -14.4455 -0.1597 0.0000 28.1127 0.0000
# 6 0.0000 0.0000 0.0000 4.0183 0.0000 41.5876
#
#
#
# Elastic Compliance Matrix: (Units=1/GPa)
#
#
# Indices 1 2 3 4 5 6 
#
# 1 0.019147 0.004706 -0.027942 0.000000 0.010731 0.000000
# 2 0.004706 0.016730 -0.027151 0.000000 0.010525 0.000000
# 3 -0.027942 -0.027151 0.093460 0.000000 -0.025783 0.000000
# 4 0.000000 0.000000 0.000000 0.034355 0.000000 -0.003319
# 5 0.010731 0.010525 -0.025783 0.000000 0.045581 0.000000
# 6 0.000000 0.000000 0.000000 -0.003319 0.000000 0.024366
#
#
# Mechanical properties :
#
#
# Convention : Reuss Voigt Hill
#
# Bulk Modulus (GPa) = 35.00968 62.85718 48.93343
# Shear Modulus (GPa) = 14.53765 29.51245 22.02505
#
# Velocity S-wave (km/s) = 2.67673 3.81382 3.29470
# Velocity P-wave (km/s) = 5.17761 7.09737 6.21210
#
# Compressibility (1/GPa) = 0.02856353
#
# Stress axis : x y z
#
# Youngs Moduli (GPa) = 52.22654 59.77145 10.69980
#
# Poissons Ratio (x) = -0.28129 0.29897
# Poissons Ratio (y) = -0.24578 0.29051
# Poissons Ratio (z) = 1.45932 1.62285
#
# Static dielectric constant tensor:
#      x y z
#    x 3.876020 0.000000 0.160250 
#    y 0.000000 3.741120 0.000000 
#    z 0.160250 0.000000 3.687100 
# 
# 
# High freq. dielectric constant tensor:
#      x y z
#    x 1.798930 0.000000 0.001390 
#    y 0.000000 1.802660 0.000000 
#    z 0.001390 0.000000 1.789460 
# 
# From -- ./inp_files/75350.got.cif
#   From: 2010.06.25/outbox.cif.g09.slc.cpg/sg12_38_cif.got.tgz:75350.got - 2010.06.28 00:19:55.
