data_PCOD8108590
_publ_section_title
;
Structure prediction by ZEFSAII (Michael W. Deem and Ramdas Pophale) SiO2 
 PCOD8108590
Probable space group: C 2/M
;
_chemical_formula_sum "Si O2"
_cell_formula_units_Z 56
_cell_length_a 15.673580
_cell_length_b 22.781822
_cell_length_c 15.297019
_cell_angle_alpha 90.000000
_cell_angle_beta 27.606996
_cell_angle_gamma 90.000000
_cell_volume 2531.182554
_symmetry_space_group_name_H-M "C 2/M"
_symmetry_group_IT_number 12
_symmetry_cell_setting 'monoclinic'
loop_
_space_group_symop_operation_xyz
x,y,z
-x,y,-z
-x,-y,-z
x,-y,z
1/2+x,1/2+y,z
1/2-x,1/2+y,-z
1/2-x,1/2-y,-z
1/2+x,1/2-y,z
loop_
_atom_site_type_symbol
_atom_site_label
_atom_site_fract_x
_atom_site_fract_y
_atom_site_fract_z
Si Si1 0.338945 0.436265 0.943920
Si Si2 0.086543 0.169724 0.016456
Si Si3 0.356071 0.568989 0.731602
Si Si4 0.241682 0.615686 0.664893
Si Si5 0.571284 0.063618 0.655346
Si Si6 0.706073 0.752064 0.642265
Si Si7 0.993466 0.659944 0.411058
O O1 0.440417 0.500000 0.853293
O O2 0.461218 0.388704 0.883877
O O3 0.291715 0.417284 0.887814
O O4 0.144608 0.441868 0.167922
O O5 0.992510 0.223576 0.153654
O O6 0.307760 0.177932 0.809563
O O7 0.000000 0.162274 0.000000
O O8 0.376445 0.500000 0.693774
O O9 0.210042 0.597134 0.795225
O O10 0.549216 0.601408 0.547469
O O11 0.112860 0.577457 0.718521
O O12 0.198306 0.683501 0.689326
O O13 0.630085 0.117277 0.539100
O O14 0.662405 0.000000 0.549485
O O15 0.750000 0.750000 0.500000
O O16 0.873277 0.718165 0.536704
O O17 0.000000 0.628807 0.500000
#
# Coordination Sequence:
#
# PCOD8108590 Si02
#       7
#     8   8   8   8   8   8   8
#     4   9  21  41  63  92 127 163 211 270 328 388
#     4  11  24  44  67  96 133 173 220 271 326 390
#     4  10  21  38  62  93 127 167 213 263 326 393
#     4  11  22  38  59  92 125 166 215 266 320 390
#     4  10  21  41  64  91 124 163 214 271 329 388
#     4  12  25  45  65  96 133 173 223 265 330 390
#     4  11  24  44  67  96 134 170 216 277 326 387
#
# _framework density 22.124044999999999
#
# number of rings (size 3 to 8) (size 9 to 14) (size 15 to 20)
#    0.000    1.429    2.857    2.571    2.000    1.714 
#    5.143    2.143    0.000    0.000    0.000    0.000 
#    0.000    0.000    0.000    0.000    0.000    0.000 
#
# Total GULP energy -347026.648626 kJ/mol
# GULP energy per Si atom -12393.808880 kJ/mol
# Density = 2.207369 g / cm^3
# Si number density = 22.124045 Si / 1000 Ang^3
#
#
#
# Elastic Constant Matrix: (Units=GPa)
#
#
# Indices 1 2 3 4 5 6 
#
# 1 103.9856 53.9497 14.9000 -0.0278 20.4463 0.0087
# 2 53.9497 151.3653 33.5764 0.0187 -1.3531 0.0064
# 3 14.9000 33.5764 81.0892 -0.0294 0.9035 0.0369
# 4 -0.0278 0.0187 -0.0294 20.7306 0.0283 -1.9491
# 5 20.4463 -1.3531 0.9035 0.0283 37.5275 0.0020
# 6 0.0087 0.0064 0.0369 -1.9491 0.0020 38.9731
#
#
#
# Elastic Compliance Matrix: (Units=1/GPa)
#
#
# Indices 1 2 3 4 5 6 
#
# 1 0.013696 -0.004857 -0.000421 0.000033 -0.007627 0.000000
# 2 -0.004857 0.009001 -0.002869 -0.000023 0.003040 0.000001
# 3 -0.000421 -0.002869 0.013599 0.000021 -0.000202 -0.000011
# 4 0.000033 -0.000023 0.000021 0.048466 -0.000056 0.002424
# 5 -0.007627 0.003040 -0.000202 -0.000056 0.030917 -0.000003
# 6 0.000000 0.000001 -0.000011 0.002424 -0.000003 0.025780
#
#
# Mechanical properties :
#
#
# Convention : Reuss Voigt Hill
#
# Bulk Modulus (GPa) = 49.98702 60.14359 55.06531
# Shear Modulus (GPa) = 30.40994 35.04717 32.72855
#
# Velocity S-wave (km/s) = 3.71147 3.98442 3.85037
# Velocity P-wave (km/s) = 6.40389 6.95782 6.68659
#
# Compressibility (1/GPa) = 0.02000519
#
# Stress axis : x y z
#
# Youngs Moduli (GPa) = 73.01191 111.09904 73.53255
#
# Poissons Ratio (x) = 0.53956 0.03094
# Poissons Ratio (y) = 0.35458 0.21093
# Poissons Ratio (z) = 0.03072 0.31869
#
# Static dielectric constant tensor:
#      x y z
#    x 4.341050 -0.000320 0.163910 
#    y -0.000320 4.267870 0.000730 
#    z 0.163910 0.000730 3.870580 
# 
# 
# High freq. dielectric constant tensor:
#      x y z
#    x 1.879660 -0.000020 0.004630 
#    y -0.000020 1.873500 0.000050 
#    z 0.004630 0.000050 1.861640 
# 
# From -- ./inp_files/218640.got.cif
#   From: 2010.06.25/outbox.cif.g09.slc.cpg/sg12_110_cif.got.tgz:218640.got - 2010.06.28 00:19:55.
