data_PCOD8108706
_publ_section_title
;
Structure prediction by ZEFSAII (Michael W. Deem and Ramdas Pophale) SiO2 
 PCOD8108706
Probable space group: C 2/M
;
_chemical_formula_sum "Si O2"
_cell_formula_units_Z 48
_cell_length_a 17.068019
_cell_length_b 12.443376
_cell_length_c 13.225193
_cell_angle_alpha 90.000000
_cell_angle_beta 122.095425
_cell_angle_gamma 90.000000
_cell_volume 2379.529166
_symmetry_space_group_name_H-M "C 2/M"
_symmetry_group_IT_number 12
_symmetry_cell_setting 'monoclinic'
loop_
_space_group_symop_operation_xyz
x,y,z
-x,y,-z
-x,-y,-z
x,-y,z
1/2+x,1/2+y,z
1/2-x,1/2+y,-z
1/2-x,1/2-y,-z
1/2+x,1/2-y,z
loop_
_atom_site_type_symbol
_atom_site_label
_atom_site_fract_x
_atom_site_fract_y
_atom_site_fract_z
Si Si1 0.227611 0.294401 0.092321
Si Si2 0.094260 0.879511 0.682383
Si Si3 0.597629 0.812125 0.535691
Si Si4 0.708652 0.623267 0.252909
Si Si5 0.537622 0.121442 0.921985
Si Si6 0.938934 0.773217 0.698521
O O1 0.311579 0.362449 0.192642
O O2 0.198627 0.196348 0.146600
O O3 0.250000 0.250000 0.000000
O O4 0.146785 0.378066 0.013618
O O5 0.094033 0.805270 0.583941
O O6 0.007596 0.859958 0.696891
O O7 0.089960 0.000000 0.638493
O O8 0.500000 0.870441 0.500000
O O9 0.685415 0.878219 0.635370
O O10 0.607576 0.798168 0.421913
O O11 0.681571 0.500000 0.208660
O O12 0.640913 0.669004 0.292662
O O13 0.502456 0.194172 0.807077
O O14 0.503443 0.000000 0.878651
O O15 0.500000 0.170151 0.000000
#
# Coordination Sequence:
#
# PCOD8108706 Si02
#       6
#     8   8   8   8   8   8
#     4  11  22  42  59  88 124 156 199 251 291 355
#     4  10  21  38  64  91 120 161 201 243 296 349
#     4   9  22  41  61  88 123 155 199 249 291 353
#     4  11  24  40  62  89 120 158 197 247 305 354
#     4  11  23  41  64  87 119 159 200 246 298 355
#     4  11  21  41  62  90 125 155 197 250 296 353
#
# _framework density 20.172058
#
# number of rings (size 3 to 8) (size 9 to 14) (size 15 to 20)
#    0.000    1.500    3.333    1.500    0.000    6.000 
#    0.000    0.833    0.000    0.000    0.000    0.000 
#    0.000    0.000    0.000    0.000    0.000    0.000 
#
# Total GULP energy -297537.412690 kJ/mol
# GULP energy per Si atom -12397.392195 kJ/mol
# Density = 2.012615 g / cm^3
# Si number density = 20.172058 Si / 1000 Ang^3
#
#
#
# Elastic Constant Matrix: (Units=GPa)
#
#
# Indices 1 2 3 4 5 6 
#
# 1 109.3059 14.3276 30.3342 0.0000 -2.8736 0.0000
# 2 14.3276 71.5158 20.4614 0.0000 -3.9937 0.0000
# 3 30.3342 20.4614 107.9177 0.0000 -5.1964 0.0000
# 4 0.0000 0.0000 0.0000 13.6294 0.0000 -0.3902
# 5 -2.8736 -3.9937 -5.1964 0.0000 43.1150 0.0000
# 6 0.0000 0.0000 0.0000 -0.3902 0.0000 21.7295
#
#
#
# Elastic Compliance Matrix: (Units=1/GPa)
#
#
# Indices 1 2 3 4 5 6 
#
# 1 0.010033 -0.001261 -0.002569 0.000000 0.000242 0.000000
# 2 -0.001261 0.014990 -0.002439 0.000000 0.001010 0.000000
# 3 -0.002569 -0.002439 0.010493 0.000000 0.000867 0.000000
# 4 0.000000 0.000000 0.000000 0.073408 0.000000 0.001318
# 5 0.000242 0.001010 0.000867 0.000000 0.023408 0.000000
# 6 0.000000 0.000000 0.000000 0.001318 0.000000 0.046044
#
#
# Mechanical properties :
#
#
# Convention : Reuss Voigt Hill
#
# Bulk Modulus (GPa) = 43.52267 46.55396 45.03832
# Shear Modulus (GPa) = 25.17943 30.60253 27.89098
#
# Velocity S-wave (km/s) = 3.53687 3.89919 3.72244
# Velocity P-wave (km/s) = 6.18884 6.58788 6.39148
#
# Compressibility (1/GPa) = 0.02297653
#
# Stress axis : x y z
#
# Youngs Moduli (GPa) = 99.66700 66.71173 95.30411
#
# Poissons Ratio (x) = 0.08415 0.24488
# Poissons Ratio (y) = 0.12573 0.23243
# Poissons Ratio (z) = 0.25609 0.16270
#
# Static dielectric constant tensor:
#      x y z
#    x 3.647780 0.000000 -0.065190 
#    y 0.000000 3.491760 0.000000 
#    z -0.065190 0.000000 3.693860 
# 
# 
# High freq. dielectric constant tensor:
#      x y z
#    x 1.802310 0.000000 0.004280 
#    y 0.000000 1.772510 0.000000 
#    z 0.004280 0.000000 1.801680 
# 
# From -- ./inp_files/154300.got.cif
#   From: 2010.06.25/outbox.cif.g09.slc.cpg/sg12_78_cif.got.tgz:154300.got - 2010.06.28 00:19:55.
