data_PCOD8108048
_publ_section_title
;
Structure prediction by ZEFSAII (Michael W. Deem and Ramdas Pophale) SiO2 
 PCOD8108048
Probable space group: C 2/M
;
_chemical_formula_sum "Si O2"
_cell_formula_units_Z 56
_cell_length_a 27.606211
_cell_length_b 8.743167
_cell_length_c 18.698545
_cell_angle_alpha 90.000000
_cell_angle_beta 36.302978
_cell_angle_gamma 90.000000
_cell_volume 2672.055614
_symmetry_space_group_name_H-M "C 2/M"
_symmetry_group_IT_number 12
_symmetry_cell_setting 'monoclinic'
loop_
_space_group_symop_operation_xyz
x,y,z
-x,y,-z
-x,-y,-z
x,-y,z
1/2+x,1/2+y,z
1/2-x,1/2+y,-z
1/2-x,1/2-y,-z
1/2+x,1/2-y,z
loop_
_atom_site_type_symbol
_atom_site_label
_atom_site_fract_x
_atom_site_fract_y
_atom_site_fract_z
Si Si1 0.316436 0.679524 0.973722
Si Si2 0.751097 0.177138 0.807655
Si Si3 0.534756 0.320282 0.882255
Si Si4 0.981980 0.319453 0.802942
Si Si5 0.912331 0.675746 0.578343
Si Si6 0.295429 0.822249 0.297936
Si Si7 0.867295 0.324411 0.470799
O O1 0.316396 0.500000 0.962544
O O2 0.296940 0.720871 0.078684
O O3 0.250000 0.750000 0.000000
O O4 0.406709 0.744292 0.849262
O O5 0.846654 0.218854 0.696537
O O6 0.715879 0.218311 0.771817
O O7 0.739491 0.000000 0.840739
O O8 0.524731 0.500000 0.883318
O O9 0.481554 0.235269 0.885469
O O10 0.629213 0.274175 0.761874
O O11 0.500000 0.266057 0.000000
O O12 0.970733 0.500000 0.812428
O O13 0.067136 0.267425 0.665452
O O14 0.896351 0.500000 0.619326
O O15 0.909144 0.697917 0.497520
O O16 0.000000 0.733167 0.500000
O O17 0.214542 0.776437 0.438477
O O18 0.313227 0.000000 0.289114
O O19 0.842695 0.500000 0.487034
#
# Coordination Sequence:
#
# PCOD8108048 Si02
#       7
#     8   8   8   8   8   8   8
#     4  12  26  43  63  88 121 163 206 253 308 368
#     4  10  21  38  59  88 120 155 200 252 305 362
#     4  11  24  41  64  92 122 161 209 257 308 368
#     4  11  24  42  64  92 126 162 203 254 309 369
#     4   9  18  33  57  86 116 157 202 248 300 360
#     4  10  21  38  63  92 124 161 203 253 308 362
#     4   9  20  38  59  87 124 162 202 247 302 367
#
# _framework density 20.957647000000001
#
# number of rings (size 3 to 8) (size 9 to 14) (size 15 to 20)
#    0.000    1.714    0.000    3.857    2.000    7.143 
#    0.000    0.000    0.000    0.000    0.000    0.000 
#    0.000    0.000    0.000    0.000    0.000    0.000 
#
# Total GULP energy -347365.461239 kJ/mol
# GULP energy per Si atom -12405.909330 kJ/mol
# Density = 2.090995 g / cm^3
# Si number density = 20.957647 Si / 1000 Ang^3
#
#
#
# Elastic Constant Matrix: (Units=GPa)
#
#
# Indices 1 2 3 4 5 6 
#
# 1 79.7189 33.3727 37.2701 0.0004 -18.6767 -0.0031
# 2 33.3727 95.1757 41.2685 -0.0078 -4.0147 -0.0019
# 3 37.2701 41.2685 106.6866 -0.0030 -4.1958 -0.0036
# 4 0.0004 -0.0078 -0.0030 38.2700 -0.0016 -3.6777
# 5 -18.6767 -4.0147 -4.1958 -0.0016 35.8905 0.0035
# 6 -0.0031 -0.0019 -0.0036 -3.6777 0.0035 32.8986
#
#
#
# Elastic Compliance Matrix: (Units=1/GPa)
#
#
# Indices 1 2 3 4 5 6 
#
# 1 0.018383 -0.004140 -0.004483 -0.000001 0.008579 0.000000
# 2 -0.004140 0.013582 -0.003850 0.000003 -0.001085 0.000000
# 3 -0.004483 -0.003850 0.012377 0.000000 -0.001317 0.000001
# 4 -0.000001 0.000003 0.000000 0.026414 0.000001 0.002953
# 5 0.008579 -0.001085 -0.001317 0.000001 0.032051 -0.000003
# 6 0.000000 0.000000 0.000001 0.002953 -0.000003 0.030726
#
#
# Mechanical properties :
#
#
# Convention : Reuss Voigt Hill
#
# Bulk Modulus (GPa) = 51.55874 56.15597 53.85735
# Shear Modulus (GPa) = 30.31290 32.72317 31.51803
#
# Velocity S-wave (km/s) = 3.80727 3.95574 3.88221
# Velocity P-wave (km/s) = 6.63188 6.90775 6.77122
#
# Compressibility (1/GPa) = 0.01939535
#
# Stress axis : x y z
#
# Youngs Moduli (GPa) = 54.39785 73.62516 80.79534
#
# Poissons Ratio (x) = 0.30482 0.36221
# Poissons Ratio (y) = 0.22521 0.31108
# Poissons Ratio (z) = 0.24387 0.28348
#
# Static dielectric constant tensor:
#      x y z
#    x 3.782550 -0.000020 -0.053330 
#    y -0.000020 3.716480 0.000040 
#    z -0.053330 0.000040 3.934360 
# 
# 
# High freq. dielectric constant tensor:
#      x y z
#    x 1.821730 0.000000 -0.008180 
#    y 0.000000 1.820030 0.000000 
#    z -0.008180 0.000000 1.829820 
# 
# From -- ./inp_files/329478.got.cif
#   From: 2010.06.25/outbox.cif.g09.slc.cpg/sg12_165_cif.got.tgz:329478.got - 2010.06.28 00:19:55.
