data_PCOD8108503
_publ_section_title
;
Structure prediction by ZEFSAII (Michael W. Deem and Ramdas Pophale) SiO2 
 PCOD8108503
Probable space group: C 2/M
;
_chemical_formula_sum "Si O2"
_cell_formula_units_Z 40
_cell_length_a 17.235101
_cell_length_b 14.785411
_cell_length_c 14.418930
_cell_angle_alpha 90.000000
_cell_angle_beta 149.668621
_cell_angle_gamma 90.000000
_cell_volume 1855.547135
_symmetry_space_group_name_H-M "C 2/M"
_symmetry_group_IT_number 12
_symmetry_cell_setting 'monoclinic'
loop_
_space_group_symop_operation_xyz
x,y,z
-x,y,-z
-x,-y,-z
x,-y,z
1/2+x,1/2+y,z
1/2-x,1/2+y,-z
1/2-x,1/2-y,-z
1/2+x,1/2-y,z
loop_
_atom_site_type_symbol
_atom_site_label
_atom_site_fract_x
_atom_site_fract_y
_atom_site_fract_z
Si Si1 0.379905 0.722860 0.293433
Si Si2 0.580338 0.107165 0.984732
Si Si3 0.067422 0.255710 0.301395
Si Si4 0.678627 0.097337 0.692582
Si Si5 0.427752 0.401786 0.823600
O O1 0.500000 0.704135 0.500000
O O2 0.256686 0.641982 0.162694
O O3 0.480277 0.737183 0.306186
O O4 0.280141 0.815526 0.202943
O O5 0.582319 0.000000 0.970830
O O6 0.500000 0.131758 0.000000
O O7 0.482048 0.150955 0.799326
O O8 0.250000 0.250000 0.500000
O O9 0.007717 0.173960 0.176212
O O10 0.500000 0.092120 0.500000
O O11 0.745185 0.110119 0.656644
O O12 0.740581 0.000000 0.797765
O O13 0.460533 0.500000 0.812580
O O14 0.500000 0.391956 0.000000
#
# Coordination Sequence:
#
# PCOD8108503 Si02
#       5
#     8   8   8   8   8
#     4  11  23  41  66  95 129 172 218 268 327 389
#     4  11  25  45  66  91 130 177 223 272 326 390
#     4  12  24  40  66  96 130 169 214 268 326 395
#     4   9  17  32  56  85 117 151 191 245 308 368
#     4  10  21  38  62  89 118 153 197 257 318 370
#
# _framework density 21.556984
#
# number of rings (size 3 to 8) (size 9 to 14) (size 15 to 20)
#    0.000    1.400    0.000    7.200    0.000    2.800 
#    0.000    2.000    0.000    0.000    0.000    0.000 
#    0.000    0.000    0.000    0.000    0.000    0.000 
#
# Total GULP energy -247775.451791 kJ/mol
# GULP energy per Si atom -12388.772590 kJ/mol
# Density = 2.150792 g / cm^3
# Si number density = 21.556984 Si / 1000 Ang^3
#
#
#
# Elastic Constant Matrix: (Units=GPa)
#
#
# Indices 1 2 3 4 5 6 
#
# 1 139.6084 59.4374 47.3604 0.0000 -4.3477 -0.0001
# 2 59.4374 160.8232 46.5585 0.0000 -6.4369 0.0000
# 3 47.3604 46.5585 119.1548 0.0001 5.3120 0.0000
# 4 0.0000 0.0000 0.0001 24.8143 0.0000 6.7048
# 5 -4.3477 -6.4369 5.3120 0.0000 31.7564 0.0000
# 6 -0.0001 0.0000 0.0000 6.7048 0.0000 26.6890
#
#
#
# Elastic Compliance Matrix: (Units=1/GPa)
#
#
# Indices 1 2 3 4 5 6 
#
# 1 0.009215 -0.002573 -0.002710 0.000000 0.001193 0.000000
# 2 -0.002573 0.007845 -0.002113 0.000000 0.001591 0.000000
# 3 -0.002710 -0.002113 0.010409 0.000000 -0.002541 0.000000
# 4 0.000000 0.000000 0.000000 0.043234 0.000000 -0.010861
# 5 0.001193 0.001591 -0.002541 0.000000 0.032401 0.000000
# 6 0.000000 0.000000 0.000000 -0.010861 0.000000 0.040197
#
#
# Mechanical properties :
#
#
# Convention : Reuss Voigt Hill
#
# Bulk Modulus (GPa) = 78.89956 80.69988 79.79972
# Shear Modulus (GPa) = 30.80352 34.40061 32.60207
#
# Velocity S-wave (km/s) = 3.78423 3.99908 3.89313
# Velocity P-wave (km/s) = 7.46818 7.67075 7.57014
#
# Compressibility (1/GPa) = 0.01267434
#
# Stress axis : x y z
#
# Youngs Moduli (GPa) = 108.51748 127.47707 96.07285
#
# Poissons Ratio (x) = 0.32804 0.26040
# Poissons Ratio (y) = 0.27925 0.20303
# Poissons Ratio (z) = 0.29413 0.26940
#
# Static dielectric constant tensor:
#      x y z
#    x 7.715820 0.000000 0.027740 
#    y 0.000000 5.180290 0.000000 
#    z 0.027740 0.000000 4.113990 
# 
# 
# High freq. dielectric constant tensor:
#      x y z
#    x 1.851630 0.000000 0.028940 
#    y 0.000000 1.860460 0.000000 
#    z 0.028940 0.000000 1.849320 
# 
# From -- ./inp_files/225829.got.cif
#   From: 2010.06.25/outbox.cif.g09.slc.cpg/sg12_113_cif.got.tgz:225829.got - 2010.06.28 00:19:55.
