data_PCOD8108267
_publ_section_title
;
Structure prediction by ZEFSAII (Michael W. Deem and Ramdas Pophale) SiO2 
 PCOD8108267
Probable space group: C 2/M
;
_chemical_formula_sum "Si O2"
_cell_formula_units_Z 56
_cell_length_a 9.769839
_cell_length_b 17.552666
_cell_length_c 28.274375
_cell_angle_alpha 90.000000
_cell_angle_beta 143.602340
_cell_angle_gamma 90.000000
_cell_volume 2877.138809
_symmetry_space_group_name_H-M "C 2/M"
_symmetry_group_IT_number 12
_symmetry_cell_setting 'monoclinic'
loop_
_space_group_symop_operation_xyz
x,y,z
-x,y,-z
-x,-y,-z
x,-y,z
1/2+x,1/2+y,z
1/2-x,1/2+y,-z
1/2-x,1/2-y,-z
1/2+x,1/2-y,z
loop_
_atom_site_type_symbol
_atom_site_label
_atom_site_fract_x
_atom_site_fract_y
_atom_site_fract_z
Si Si1 0.422533 0.585464 0.643942
Si Si2 0.661674 0.793933 0.143785
Si Si3 0.963762 0.087541 0.762541
Si Si4 0.763014 0.827871 0.914051
Si Si5 0.566371 0.913118 0.245126
Si Si6 0.598368 0.816759 0.718021
Si Si7 0.248035 0.265151 0.553878
O O1 0.366251 0.500000 0.609846
O O2 0.353290 0.593229 0.679585
O O3 0.276803 0.645011 0.572752
O O4 0.694860 0.602250 0.715149
O O5 0.398496 0.806310 0.086437
O O6 0.671266 0.746008 0.098380
O O7 0.795342 0.753676 0.224062
O O8 0.783823 0.874368 0.166725
O O9 0.799729 0.130627 0.753596
O O10 0.991889 0.000000 0.786242
O O11 0.641012 0.890034 0.847140
O O12 0.000000 0.863412 0.000000
O O13 0.565448 0.864793 0.292961
O O14 0.533076 0.000000 0.250341
O O15 0.446846 0.783899 0.633613
O O16 0.250000 0.250000 0.500000
O O17 0.000000 0.235335 0.500000
#
# Coordination Sequence:
#
# PCOD8108267 Si02
#       7
#     8   8   8   8   8   8   8
#     4  10  21  39  61  84 117 158 204 251 297 354
#     4  11  21  38  62  87 118 159 208 249 290 356
#     4  11  21  37  64  90 115 153 207 258 293 343
#     4  11  22  36  59  91 125 159 196 251 308 362
#     4  10  21  38  61  86 114 157 207 252 297 357
#     4  11  22  39  62  85 118 157 205 252 292 359
#     4  12  24  37  59  89 121 155 197 247 308 365
#
# _framework density 19.463781000000001
#
# number of rings (size 3 to 8) (size 9 to 14) (size 15 to 20)
#    0.000    1.143    4.286    2.571    2.000    0.571 
#    0.000    1.429    0.000    4.286    0.000    0.000 
#    0.000    0.000    0.000    0.000    0.000    0.000 
#
# Total GULP energy -347300.007044 kJ/mol
# GULP energy per Si atom -12403.571680 kJ/mol
# Density = 1.941948 g / cm^3
# Si number density = 19.463781 Si / 1000 Ang^3
#
#
#
# Elastic Constant Matrix: (Units=GPa)
#
#
# Indices 1 2 3 4 5 6 
#
# 1 98.5805 23.5773 14.2784 0.0000 6.8393 0.0001
# 2 23.5773 92.4472 14.7482 0.0000 2.1799 0.0000
# 3 14.2784 14.7482 71.5248 0.0008 2.5876 0.0002
# 4 0.0000 0.0000 0.0008 22.3645 0.0000 7.6509
# 5 6.8393 2.1799 2.5876 0.0000 29.2573 0.0001
# 6 0.0001 0.0000 0.0002 7.6509 0.0001 21.0167
#
#
#
# Elastic Compliance Matrix: (Units=1/GPa)
#
#
# Indices 1 2 3 4 5 6 
#
# 1 0.011141 -0.002529 -0.001620 0.000000 -0.002273 0.000000
# 2 -0.002529 0.011771 -0.001918 0.000000 -0.000116 0.000000
# 3 -0.001620 -0.001918 0.014728 -0.000001 -0.000781 0.000000
# 4 0.000000 0.000000 -0.000001 0.051074 0.000000 -0.018593
# 5 -0.002273 -0.000116 -0.000781 0.000000 0.034789 0.000000
# 6 0.000000 0.000000 0.000000 -0.018593 0.000000 0.054350
#
#
# Mechanical properties :
#
#
# Convention : Reuss Voigt Hill
#
# Bulk Modulus (GPa) = 39.20784 40.86226 40.03505
# Shear Modulus (GPa) = 25.19018 28.52428 26.85723
#
# Velocity S-wave (km/s) = 3.60141 3.83235 3.71867
# Velocity P-wave (km/s) = 6.12220 6.37354 6.24913
#
# Compressibility (1/GPa) = 0.02550510
#
# Stress axis : x y z
#
# Youngs Moduli (GPa) = 89.75620 84.95622 67.89620
#
# Poissons Ratio (x) = 0.21488 0.11002
# Poissons Ratio (y) = 0.22702 0.13022
# Poissons Ratio (z) = 0.14544 0.16294
#
# Static dielectric constant tensor:
#      x y z
#    x 3.738490 0.000000 0.074990 
#    y 0.000000 3.634020 0.000000 
#    z 0.074990 0.000000 3.351240 
# 
# 
# High freq. dielectric constant tensor:
#      x y z
#    x 1.776900 0.000000 0.003300 
#    y 0.000000 1.760740 0.000000 
#    z 0.003300 0.000000 1.738340 
# 
# From -- ./inp_files/257198.got.cif
#   From: 2010.06.25/outbox.cif.g09.slc.cpg/sg12_129_cif.got.tgz:257198.got - 2010.06.28 00:19:55.
