data_PCOD8108740
_publ_section_title
;
Structure prediction by ZEFSAII (Michael W. Deem and Ramdas Pophale) SiO2 
 PCOD8108740
Probable space group: C 2/M
;
_chemical_formula_sum "Si O2"
_cell_formula_units_Z 36
_cell_length_a 12.385344
_cell_length_b 21.792181
_cell_length_c 8.515907
_cell_angle_alpha 90.000000
_cell_angle_beta 49.972433
_cell_angle_gamma 90.000000
_cell_volume 1760.022534
_symmetry_space_group_name_H-M "C 2/M"
_symmetry_group_IT_number 12
_symmetry_cell_setting 'monoclinic'
loop_
_space_group_symop_operation_xyz
x,y,z
-x,y,-z
-x,-y,-z
x,-y,z
1/2+x,1/2+y,z
1/2-x,1/2+y,-z
1/2-x,1/2-y,-z
1/2+x,1/2-y,z
loop_
_atom_site_type_symbol
_atom_site_label
_atom_site_fract_x
_atom_site_fract_y
_atom_site_fract_z
Si Si1 0.302617 0.365197 0.066928
Si Si2 0.975385 0.650107 0.852357
Si Si3 0.183229 0.430566 0.470198
Si Si4 0.000000 0.233730 0.000000
Si Si5 0.524574 0.430074 0.649263
O O1 0.234824 0.414028 0.248287
O O2 0.189258 0.349307 0.039298
O O3 0.357238 0.305547 0.110281
O O4 0.441748 0.392495 0.857303
O O5 0.060855 0.615778 0.636588
O O6 0.024083 0.721520 0.825561
O O7 0.000000 0.617022 0.000000
O O8 0.123846 0.500000 0.522357
O O9 0.310087 0.425100 0.473867
O O10 0.500000 0.401880 0.500000
O O11 0.470392 0.500000 0.706771
#
# Coordination Sequence:
#
# PCOD8108740 Si02
#       5
#     8   8   8   4   8
#     4  12  21  43  67  92 127 164 211 262 305 373
#     4  10  25  42  62  93 127 166 211 253 315 366
#     4  11  23  41  65  97 127 162 207 260 319 372
#     4  10  24  44  64  90 124 172 214 254 302 372
#     4  10  21  38  64  96 128 164 205 255 318 376
#
# _framework density 20.454284000000001
#
# number of rings (size 3 to 8) (size 9 to 14) (size 15 to 20)
#    0.667    0.667    2.222    3.333    0.000    5.778 
#    0.000    0.000    0.000    0.000    0.000    0.000 
#    0.000    0.000    0.000    0.000    0.000    0.000 
#
# Total GULP energy -223189.685122 kJ/mol
# GULP energy per Si atom -12399.426951 kJ/mol
# Density = 2.040773 g / cm^3
# Si number density = 20.454284 Si / 1000 Ang^3
#
#
#
# Elastic Constant Matrix: (Units=GPa)
#
#
# Indices 1 2 3 4 5 6 
#
# 1 118.1926 30.4443 7.8127 0.0000 -4.8387 0.0000
# 2 30.4443 110.6780 36.7397 0.0000 -8.1483 0.0000
# 3 7.8127 36.7397 79.4530 0.0000 -3.8141 0.0000
# 4 0.0000 0.0000 0.0000 33.2192 0.0000 -4.0096
# 5 -4.8387 -8.1483 -3.8141 0.0000 32.3695 0.0000
# 6 0.0000 0.0000 0.0000 -4.0096 0.0000 13.2175
#
#
#
# Elastic Compliance Matrix: (Units=1/GPa)
#
#
# Indices 1 2 3 4 5 6 
#
# 1 0.009131 -0.002563 0.000324 0.000000 0.000758 0.000000
# 2 -0.002563 0.011539 -0.004991 0.000000 0.001934 0.000000
# 3 0.000324 -0.004991 0.014888 0.000000 0.000546 0.000000
# 4 0.000000 0.000000 0.000000 0.031247 0.000000 0.009479
# 5 0.000758 0.001934 0.000546 0.000000 0.031558 0.000000
# 6 0.000000 0.000000 0.000000 0.009479 0.000000 0.078533
#
#
# Mechanical properties :
#
#
# Convention : Reuss Voigt Hill
#
# Bulk Modulus (GPa) = 47.39919 50.92411 49.16165
# Shear Modulus (GPa) = 25.20292 31.31635 28.25964
#
# Velocity S-wave (km/s) = 3.51402 3.91710 3.72102
# Velocity P-wave (km/s) = 6.29984 6.73861 6.52291
#
# Compressibility (1/GPa) = 0.02109741
#
# Stress axis : x y z
#
# Youngs Moduli (GPa) = 109.52134 86.65932 67.16662
#
# Poissons Ratio (x) = 0.22213 -0.02175
# Poissons Ratio (y) = 0.28073 0.33523
# Poissons Ratio (z) = -0.03547 0.43252
#
# Static dielectric constant tensor:
#      x y z
#    x 3.912090 0.000000 0.046590 
#    y 0.000000 3.665990 0.000000 
#    z 0.046590 0.000000 3.342810 
# 
# 
# High freq. dielectric constant tensor:
#      x y z
#    x 1.824450 0.000000 0.002670 
#    y 0.000000 1.792400 0.000000 
#    z 0.002670 0.000000 1.777610 
# 
# From -- ./inp_files/50342.got.cif
#   From: 2010.06.25/outbox.cif.g09.slc.cpg/sg12_26_cif.got.tgz:50342.got - 2010.06.28 00:19:55.
