data_PCOD8108063
_publ_section_title
;
Structure prediction by ZEFSAII (Michael W. Deem and Ramdas Pophale) SiO2 
 PCOD8108063
Probable space group: C 2/M
;
_chemical_formula_sum "Si O2"
_cell_formula_units_Z 56
_cell_length_a 21.923612
_cell_length_b 8.947979
_cell_length_c 15.030649
_cell_angle_alpha 90.000000
_cell_angle_beta 65.640603
_cell_angle_gamma 90.000000
_cell_volume 2686.097784
_symmetry_space_group_name_H-M "C 2/M"
_symmetry_group_IT_number 12
_symmetry_cell_setting 'monoclinic'
loop_
_space_group_symop_operation_xyz
x,y,z
-x,y,-z
-x,-y,-z
x,-y,z
1/2+x,1/2+y,z
1/2-x,1/2+y,-z
1/2-x,1/2-y,-z
1/2+x,1/2-y,z
loop_
_atom_site_type_symbol
_atom_site_label
_atom_site_fract_x
_atom_site_fract_y
_atom_site_fract_z
Si Si1 0.824263 0.177942 0.955756
Si Si2 0.807414 0.832490 0.649578
Si Si3 0.840865 0.334160 0.260721
Si Si4 0.981033 0.332272 0.412435
Si Si5 0.879859 0.668123 0.754231
Si Si6 0.853870 0.171358 0.433522
Si Si7 0.578530 0.821765 0.954611
O O1 0.856757 0.213199 0.841092
O O2 0.817900 0.000000 0.972766
O O3 0.750000 0.250000 0.000000
O O4 0.876330 0.243782 0.996931
O O5 0.733377 0.834247 0.736281
O O6 0.850019 0.711911 0.676865
O O7 0.807513 0.782879 0.545543
O O8 0.838686 0.000000 0.638179
O O9 0.866163 0.500000 0.267962
O O10 0.832321 0.249692 0.357055
O O11 0.891745 0.265495 0.157813
O O12 0.950542 0.500000 0.433250
O O13 0.929823 0.211263 0.408521
O O14 0.000000 0.282363 0.500000
O O15 0.040805 0.327326 0.305315
O O16 0.856426 0.500000 0.793916
O O17 0.847311 0.000000 0.415837
O O18 0.586031 0.000000 0.962705
O O19 0.500000 0.774462 0.000000
#
# Coordination Sequence:
#
# PCOD8108063 Si02
#       7
#     8   8   8   8   8   8   8
#     4  12  26  45  70  99 132 169 215 271 329 389
#     4  10  21  38  59  89 126 164 205 254 311 371
#     4  10  22  40  62  85 118 164 207 252 309 374
#     4  10  21  39  60  86 121 165 209 250 304 372
#     4  11  23  39  65  94 124 164 209 257 313 375
#     4  11  23  36  57  89 124 160 204 257 308 364
#     4  10  23  44  68  95 128 170 220 272 327 386
#
# _framework density 20.848088000000001
#
# number of rings (size 3 to 8) (size 9 to 14) (size 15 to 20)
#    0.000    1.429    1.429    3.429    2.000    4.571 
#    0.000    0.000    0.000    0.000    0.000    0.000 
#    0.000    0.000    0.000    0.000    0.000    0.000 
#
# Total GULP energy -347104.493297 kJ/mol
# GULP energy per Si atom -12396.589046 kJ/mol
# Density = 2.080064 g / cm^3
# Si number density = 20.848088 Si / 1000 Ang^3
#
#
#
# Elastic Constant Matrix: (Units=GPa)
#
#
# Indices 1 2 3 4 5 6 
#
# 1 100.3920 34.9707 46.2531 0.0000 -7.6432 0.0000
# 2 34.9707 70.6712 46.3944 0.0000 -0.0779 0.0000
# 3 46.2531 46.3944 118.2738 0.0000 -8.7728 0.0000
# 4 0.0000 0.0000 0.0000 35.1986 0.0000 3.5782
# 5 -7.6432 -0.0779 -8.7728 0.0000 36.3978 0.0000
# 6 0.0000 0.0000 0.0000 3.5782 0.0000 19.7495
#
#
#
# Elastic Compliance Matrix: (Units=1/GPa)
#
#
# Indices 1 2 3 4 5 6 
#
# 1 0.013137 -0.004338 -0.003291 0.000000 0.001956 0.000000
# 2 -0.004338 0.020606 -0.006568 0.000000 -0.002450 0.000000
# 3 -0.003291 -0.006568 0.012489 0.000000 0.002305 0.000000
# 4 0.000000 0.000000 0.000000 0.028943 0.000000 -0.005244
# 5 0.001956 -0.002450 0.002305 0.000000 0.028435 0.000000
# 6 0.000000 0.000000 0.000000 -0.005244 0.000000 0.051584
#
#
# Mechanical properties :
#
#
# Convention : Reuss Voigt Hill
#
# Bulk Modulus (GPa) = 56.05950 60.50815 58.28382
# Shear Modulus (GPa) = 26.38027 29.05044 27.71535
#
# Velocity S-wave (km/s) = 3.56104 3.73692 3.65004
# Velocity P-wave (km/s) = 6.62238 6.90694 6.76616
#
# Compressibility (1/GPa) = 0.01783819
#
# Stress axis : x y z
#
# Youngs Moduli (GPa) = 76.11960 48.52970 80.06907
#
# Poissons Ratio (x) = 0.21054 0.26348
# Poissons Ratio (y) = 0.33023 0.52590
# Poissons Ratio (z) = 0.25048 0.31875
#
# Static dielectric constant tensor:
#      x y z
#    x 3.901560 0.000000 -0.131130 
#    y 0.000000 3.756140 0.000000 
#    z -0.131130 0.000000 3.900700 
# 
# 
# High freq. dielectric constant tensor:
#      x y z
#    x 1.817230 0.000000 -0.007320 
#    y 0.000000 1.809120 0.000000 
#    z -0.007320 0.000000 1.829480 
# 
# From -- ./inp_files/237302.got.cif
#   From: 2010.06.25/outbox.cif.g09.slc.cpg/sg12_119_cif.got.tgz:237302.got - 2010.06.28 00:19:55.
