data_PCOD8108105
_publ_section_title
;
Structure prediction by ZEFSAII (Michael W. Deem and Ramdas Pophale) SiO2 
 PCOD8108105
Probable space group: C 2/M
;
_chemical_formula_sum "Si O2"
_cell_formula_units_Z 48
_cell_length_a 19.808059
_cell_length_b 9.035993
_cell_length_c 13.756881
_cell_angle_alpha 90.000000
_cell_angle_beta 89.473766
_cell_angle_gamma 90.000000
_cell_volume 2462.178130
_symmetry_space_group_name_H-M "C 2/M"
_symmetry_group_IT_number 12
_symmetry_cell_setting 'monoclinic'
loop_
_space_group_symop_operation_xyz
x,y,z
-x,y,-z
-x,-y,-z
x,-y,z
1/2+x,1/2+y,z
1/2-x,1/2+y,-z
1/2-x,1/2-y,-z
1/2+x,1/2-y,z
loop_
_atom_site_type_symbol
_atom_site_label
_atom_site_fract_x
_atom_site_fract_y
_atom_site_fract_z
Si Si1 0.868503 0.327808 0.872211
Si Si2 0.394992 0.173761 0.093040
Si Si3 0.451314 0.323840 0.416273
Si Si4 0.222652 0.829962 0.795588
Si Si5 0.993013 0.175454 0.791200
Si Si6 0.700703 0.671199 0.574329
O O1 0.884031 0.500000 0.854614
O O2 0.792434 0.287662 0.845305
O O3 0.916604 0.231576 0.802532
O O4 0.878776 0.281170 0.983302
O O5 0.334214 0.223827 0.162062
O O6 0.463603 0.254836 0.122370
O O7 0.405902 0.000000 0.104324
O O8 0.500000 0.260769 0.500000
O O9 0.451192 0.500000 0.417030
O O10 0.478307 0.267554 0.312129
O O11 0.375358 0.263962 0.433551
O O12 0.229502 0.801795 0.681209
O O13 0.201867 0.000000 0.816526
O O14 0.995626 0.000000 0.798982
O O15 0.699853 0.500000 0.546880
O O16 0.750000 0.750000 0.500000
#
# Coordination Sequence:
#
# PCOD8108105 Si02
#       6
#     8   8   8   8   8   8
#     4  10  23  39  57  85 120 154 189 239 291 336
#     4  11  22  38  60  85 116 153 194 239 289 341
#     4   9  19  37  59  83 113 147 186 235 284 332
#     4  10  21  40  61  83 118 155 191 238 289 340
#     4  11  22  38  61  86 115 154 195 235 285 344
#     4  10  21  38  60  85 115 148 185 233 287 341
#
# _framework density 19.494934000000001
#
# number of rings (size 3 to 8) (size 9 to 14) (size 15 to 20)
#    0.000    1.833    1.667    2.000    2.333    4.667 
#    0.000    0.000    0.000    2.500    0.000    0.000 
#    0.000    0.000    0.000    0.000    0.000    0.000 
#
# Total GULP energy -297711.182182 kJ/mol
# GULP energy per Si atom -12404.632591 kJ/mol
# Density = 1.945056 g / cm^3
# Si number density = 19.494934 Si / 1000 Ang^3
#
#
#
# Elastic Constant Matrix: (Units=GPa)
#
#
# Indices 1 2 3 4 5 6 
#
# 1 65.4634 20.6215 15.3623 0.0000 1.2636 0.0000
# 2 20.6215 47.3634 20.9362 0.0000 -5.6175 0.0000
# 3 15.3623 20.9362 71.6586 0.0000 3.2959 0.0000
# 4 0.0000 0.0000 0.0000 27.4270 0.0000 -6.7492
# 5 1.2636 -5.6175 3.2959 0.0000 44.4679 0.0000
# 6 0.0000 0.0000 0.0000 -6.7492 0.0000 36.6852
#
#
#
# Elastic Compliance Matrix: (Units=1/GPa)
#
#
# Indices 1 2 3 4 5 6 
#
# 1 0.017975 -0.007238 -0.001679 0.000000 -0.001301 0.000000
# 2 -0.007238 0.027747 -0.006749 0.000000 0.004211 0.000000
# 3 -0.001679 -0.006749 0.016380 0.000000 -0.002019 0.000000
# 4 0.000000 0.000000 0.000000 0.038189 0.000000 0.007026
# 5 -0.001301 0.004211 -0.002019 0.000000 0.023207 0.000000
# 6 0.000000 0.000000 0.000000 0.007026 0.000000 0.028552
#
#
# Mechanical properties :
#
#
# Convention : Reuss Voigt Hill
#
# Bulk Modulus (GPa) = 32.49907 33.14728 32.82317
# Shear Modulus (GPa) = 25.82134 30.22037 28.02086
#
# Velocity S-wave (km/s) = 3.64334 3.94149 3.79534
# Velocity P-wave (km/s) = 5.86560 6.14440 6.00662
#
# Compressibility (1/GPa) = 0.03077011
#
# Stress axis : x y z
#
# Youngs Moduli (GPa) = 55.63311 36.03932 61.05149
#
# Poissons Ratio (x) = 0.26086 0.10250
# Poissons Ratio (y) = 0.40268 0.41203
# Poissons Ratio (z) = 0.09340 0.24322
#
# Static dielectric constant tensor:
#      x y z
#    x 3.820910 0.000000 0.160990 
#    y 0.000000 3.347170 0.000000 
#    z 0.160990 0.000000 3.690920 
# 
# 
# High freq. dielectric constant tensor:
#      x y z
#    x 1.774940 0.000000 0.002970 
#    y 0.000000 1.738150 0.000000 
#    z 0.002970 0.000000 1.769060 
# 
# From -- ./inp_files/221555.got.cif
#   From: 2010.06.25/outbox.cif.g09.slc.cpg/sg12_111_cif.got.tgz:221555.got - 2010.06.28 00:19:55.
