data_PCOD8108809
_publ_section_title
;
Structure prediction by ZEFSAII (Michael W. Deem and Ramdas Pophale) SiO2 
 PCOD8108809
Probable space group: C 2/M
;
_chemical_formula_sum "Si O2"
_cell_formula_units_Z 64
_cell_length_a 13.952926
_cell_length_b 22.204182
_cell_length_c 9.169119
_cell_angle_alpha 90.000000
_cell_angle_beta 83.460160
_cell_angle_gamma 90.000000
_cell_volume 2822.230277
_symmetry_space_group_name_H-M "C 2/M"
_symmetry_group_IT_number 12
_symmetry_cell_setting 'monoclinic'
loop_
_space_group_symop_operation_xyz
x,y,z
-x,y,-z
-x,-y,-z
x,-y,z
1/2+x,1/2+y,z
1/2-x,1/2+y,-z
1/2-x,1/2-y,-z
1/2+x,1/2-y,z
loop_
_atom_site_type_symbol
_atom_site_label
_atom_site_fract_x
_atom_site_fract_y
_atom_site_fract_z
Si Si1 0.734953 0.749737 0.676852
Si Si2 0.853899 0.066669 0.277098
Si Si3 0.264734 0.620111 0.782076
Si Si4 0.530628 0.629658 0.156755
Si Si5 0.197778 0.431401 0.073687
Si Si6 0.318799 0.930952 0.483678
Si Si7 0.980815 0.738383 0.168416
Si Si8 0.389815 0.151239 0.692160
O O1 0.750000 0.750000 0.500000
O O2 0.776441 0.812055 0.728174
O O3 0.627458 0.744520 0.762928
O O4 0.795672 0.693814 0.728650
O O5 0.777467 0.085352 0.411743
O O6 0.943836 0.111113 0.278527
O O7 0.893411 0.000000 0.299095
O O8 0.803530 0.070360 0.128069
O O9 0.372227 0.596874 0.803663
O O10 0.198185 0.612949 0.935468
O O11 0.208201 0.578141 0.678467
O O12 0.545035 0.701389 0.163350
O O13 0.500000 0.608447 0.000000
O O14 0.169598 0.500000 0.037709
O O15 0.117683 0.405163 0.196662
O O16 0.396472 0.881028 0.530052
O O17 0.353185 0.000000 0.504892
O O18 0.016121 0.690102 0.283428
O O19 0.000000 0.712907 0.000000
#
# Coordination Sequence:
#
# PCOD8108809 Si02
#       8
#     8   8   8   8   8   8   8   8
#     4  12  26  45  67 104 144 187 230 292 356 427
#     4   9  19  36  57  86 127 177 223 269 337 414
#     4  12  23  39  63  96 139 177 229 288 354 412
#     4  11  22  37  58  95 133 176 222 281 339 414
#     4  10  21  38  67  98 131 179 231 287 347 411
#     4  10  22  41  64  92 131 180 226 281 353 418
#     4  11  25  42  70 102 138 181 240 291 349 418
#     4  11  22  44  71  97 137 186 232 285 352 421
#
# _framework density 22.677098999999998
#
# number of rings (size 3 to 8) (size 9 to 14) (size 15 to 20)
#    0.000    1.250    3.750    3.750    1.750    3.250 
#    0.000    1.250    0.000    9.000    0.000    0.000 
#    0.000    0.000    0.000    0.000    0.000    0.000 
#
# Total GULP energy -396598.995369 kJ/mol
# GULP energy per Si atom -12393.718605 kJ/mol
# Density = 2.262549 g / cm^3
# Si number density = 22.677099 Si / 1000 Ang^3
#
#
#
# Elastic Constant Matrix: (Units=GPa)
#
#
# Indices 1 2 3 4 5 6 
#
# 1 56.4283 3.8382 9.1292 0.0000 6.3300 0.0000
# 2 3.8382 83.0472 6.2260 0.0000 12.7247 0.0000
# 3 9.1292 6.2260 100.5825 0.0000 6.8015 0.0000
# 4 0.0000 0.0000 0.0000 37.2535 0.0000 0.9046
# 5 6.3300 12.7247 6.8015 0.0000 25.8556 0.0000
# 6 0.0000 0.0000 0.0000 0.9046 0.0000 25.4700
#
#
#
# Elastic Compliance Matrix: (Units=1/GPa)
#
#
# Indices 1 2 3 4 5 6 
#
# 1 0.018412 -0.000121 -0.001388 0.000000 -0.004083 0.000000
# 2 -0.000121 0.013038 -0.000371 0.000000 -0.006290 0.000000
# 3 -0.001388 -0.000371 0.010238 0.000000 -0.002171 0.000000
# 4 0.000000 0.000000 0.000000 0.026866 0.000000 -0.000954
# 5 -0.004083 -0.006290 -0.002171 0.000000 0.043342 0.000000
# 6 0.000000 0.000000 0.000000 -0.000954 0.000000 0.039296
#
#
# Mechanical properties :
#
#
# Convention : Reuss Voigt Hill
#
# Bulk Modulus (GPa) = 26.36486 30.93832 28.65159
# Shear Modulus (GPa) = 29.83378 32.44016 31.13697
#
# Velocity S-wave (km/s) = 3.63104 3.78633 3.70950
# Velocity P-wave (km/s) = 5.40655 5.72605 5.56859
#
# Compressibility (1/GPa) = 0.03792927
#
# Stress axis : x y z
#
# Youngs Moduli (GPa) = 54.31138 76.69631 97.67747
#
# Poissons Ratio (x) = 0.00931 0.13553
# Poissons Ratio (y) = 0.00659 0.03621
# Poissons Ratio (z) = 0.07536 0.02844
#
# Static dielectric constant tensor:
#      x y z
#    x 3.799090 0.000000 0.171080 
#    y 0.000000 4.152960 0.000000 
#    z 0.171080 0.000000 4.120720 
# 
# 
# High freq. dielectric constant tensor:
#      x y z
#    x 1.871140 0.000000 0.000870 
#    y 0.000000 1.903690 0.000000 
#    z 0.000870 0.000000 1.892090 
# 
# From -- ./inp_files/65874.got.cif
#   From: 2010.06.25/outbox.cif.g09.slc.cpg/sg12_33_cif.got.tgz:65874.got - 2010.06.28 00:19:55.
