data_PCOD8108478
_publ_section_title
;
Structure prediction by ZEFSAII (Michael W. Deem and Ramdas Pophale) SiO2 
 PCOD8108478
Probable space group: C 2/M
;
_chemical_formula_sum "Si O2"
_cell_formula_units_Z 56
_cell_length_a 20.651292
_cell_length_b 8.501502
_cell_length_c 16.172351
_cell_angle_alpha 90.000000
_cell_angle_beta 74.845765
_cell_angle_gamma 90.000000
_cell_volume 2740.595144
_symmetry_space_group_name_H-M "C 2/M"
_symmetry_group_IT_number 12
_symmetry_cell_setting 'monoclinic'
loop_
_space_group_symop_operation_xyz
x,y,z
-x,y,-z
-x,-y,-z
x,-y,z
1/2+x,1/2+y,z
1/2-x,1/2+y,-z
1/2-x,1/2-y,-z
1/2+x,1/2-y,z
loop_
_atom_site_type_symbol
_atom_site_label
_atom_site_fract_x
_atom_site_fract_y
_atom_site_fract_z
Si Si1 0.095474 0.316095 0.198020
Si Si2 0.380496 0.178803 0.391309
Si Si3 0.637843 0.815916 0.424045
Si Si4 0.502125 0.816021 0.908319
Si Si5 0.131410 0.818077 0.777755
Si Si6 0.775584 0.683580 0.756180
Si Si7 0.519372 0.680777 0.373642
O O1 0.081406 0.500000 0.222186
O O2 0.175641 0.281521 0.181358
O O3 0.058461 0.206209 0.275122
O O4 0.066512 0.270168 0.117424
O O5 0.337370 0.213096 0.489655
O O6 0.361375 0.294646 0.323379
O O7 0.456824 0.202794 0.393634
O O8 0.370424 0.000000 0.364437
O O9 0.692359 0.749740 0.340113
O O10 0.567886 0.723149 0.433858
O O11 0.624377 0.000000 0.411803
O O12 0.567617 0.770308 0.835088
O O13 0.505731 0.000000 0.918892
O O14 0.500000 0.735134 0.000000
O O15 0.200410 0.748615 0.795484
O O16 0.120815 0.000000 0.800848
O O17 0.765343 0.500000 0.746105
O O18 0.496224 0.500000 0.387697
#
# Coordination Sequence:
#
# PCOD8108478 Si02
#       7
#     8   8   8   8   8   8   8
#     4   9  17  35  60  79 106 148 186 219 265 331
#     4  11  21  33  51  75 107 148 192 230 271 325
#     4   9  19  35  53  73 104 151 196 227 263 322
#     4  10  21  38  62  88 110 138 181 227 271 330
#     4  11  22  36  56  82 113 144 179 230 284 329
#     4   8  17  35  56  78 107 149 191 221 266 327
#     4  11  20  30  49  79 112 142 182 234 282 319
#
# _framework density 20.433517999999999
#
# number of rings (size 3 to 8) (size 9 to 14) (size 15 to 20)
#    0.000    2.143    1.429    3.429    0.000    3.714 
#    0.000    6.429    0.000    0.000    0.000    0.000 
#    0.000    0.000    0.000    0.000    0.000    0.000 
#
# Total GULP energy -346986.500557 kJ/mol
# GULP energy per Si atom -12392.375020 kJ/mol
# Density = 2.038701 g / cm^3
# Si number density = 20.433518 Si / 1000 Ang^3
#
#
#
# Elastic Constant Matrix: (Units=GPa)
#
#
# Indices 1 2 3 4 5 6 
#
# 1 120.1435 0.6601 50.9732 0.0000 17.5312 0.0000
# 2 0.6601 18.6208 6.9039 0.0000 5.5498 0.0000
# 3 50.9732 6.9039 111.1389 0.0000 29.0293 0.0000
# 4 0.0000 0.0000 0.0000 14.8845 0.0000 3.4891
# 5 17.5312 5.5498 29.0293 0.0000 19.3087 0.0000
# 6 0.0000 0.0000 0.0000 3.4891 0.0000 17.3073
#
#
#
# Elastic Compliance Matrix: (Units=1/GPa)
#
#
# Indices 1 2 3 4 5 6 
#
# 1 0.010596 0.002403 -0.003813 0.000000 -0.004578 0.000000
# 2 0.002403 0.059386 0.000390 0.000000 -0.019837 0.000000
# 3 -0.003813 0.000390 0.016215 0.000000 -0.021028 0.000000
# 4 0.000000 0.000000 0.000000 0.070516 0.000000 -0.014216
# 5 -0.004578 -0.019837 -0.021028 0.000000 0.093263 0.000000
# 6 0.000000 0.000000 0.000000 -0.014216 0.000000 0.060645
#
#
# Mechanical properties :
#
#
# Convention : Reuss Voigt Hill
#
# Bulk Modulus (GPa) = 11.88261 40.77530 26.32896
# Shear Modulus (GPa) = 14.67510 23.05783 18.86647
#
# Velocity S-wave (km/s) = 2.68281 3.36286 3.04190
# Velocity P-wave (km/s) = 3.92740 5.92257 5.02501
#
# Compressibility (1/GPa) = 0.08415659
#
# Stress axis : x y z
#
# Youngs Moduli (GPa) = 94.37451 16.83907 61.67166
#
# Poissons Ratio (x) = -0.04046 0.23517
# Poissons Ratio (y) = -0.22675 -0.02408
# Poissons Ratio (z) = 0.35987 -0.00658
#
# Static dielectric constant tensor:
#      x y z
#    x 3.932850 0.000000 0.166310 
#    y 0.000000 3.361870 0.000000 
#    z 0.166310 0.000000 3.782380 
# 
# 
# High freq. dielectric constant tensor:
#      x y z
#    x 1.795830 0.000000 0.015150 
#    y 0.000000 1.773750 0.000000 
#    z 0.015150 0.000000 1.781620 
# 
# From -- ./inp_files/280341.got.cif
#   From: 2010.06.25/outbox.cif.g09.slc.cpg/sg12_141_cif.got.tgz:280341.got - 2010.06.28 00:19:55.
