data_PCOD8108034
_publ_section_title
;
Structure prediction by ZEFSAII (Michael W. Deem and Ramdas Pophale) SiO2 
 PCOD8108034
Probable space group: C 2/M
;
_chemical_formula_sum "Si O2"
_cell_formula_units_Z 28
_cell_length_a 13.290515
_cell_length_b 25.978986
_cell_length_c 7.780795
_cell_angle_alpha 90.000000
_cell_angle_beta 32.111346
_cell_angle_gamma 90.000000
_cell_volume 1428.056649
_symmetry_space_group_name_H-M "C 2/M"
_symmetry_group_IT_number 12
_symmetry_cell_setting 'monoclinic'
loop_
_space_group_symop_operation_xyz
x,y,z
-x,y,-z
-x,-y,-z
x,-y,z
1/2+x,1/2+y,z
1/2-x,1/2+y,-z
1/2-x,1/2-y,-z
1/2+x,1/2-y,z
loop_
_atom_site_type_symbol
_atom_site_label
_atom_site_fract_x
_atom_site_fract_y
_atom_site_fract_z
Si Si1 0.057121 0.500000 0.222387
Si Si2 0.306599 0.584121 0.692064
Si Si3 0.500000 0.269828 0.000000
Si Si4 0.656633 0.304491 0.423965
Si Si5 0.340603 0.500000 0.371379
O O1 0.000000 0.500000 0.500000
O O2 0.871786 0.500000 0.380837
O O3 0.170448 0.551907 0.014358
O O4 0.500000 0.597768 0.500000
O O5 0.229848 0.640969 0.759416
O O6 0.364053 0.551739 0.443427
O O7 0.442036 0.305108 0.245645
O O8 0.322257 0.237556 0.184324
O O9 0.500000 0.293471 0.500000
O O10 0.500000 0.500000 0.000000
#
# Coordination Sequence:
#
# PCOD8108034 Si02
#       5
#     4   8   4   8   4
#     4  11  22  39  58  88 122 157 200 241 304 363
#     4  10  21  38  59  86 121 154 196 247 298 361
#     4  10  22  40  64  88 124 162 206 256 306 364
#     4  10  22  40  63  90 124 159 207 252 308 359
#     4  11  22  35  60  84 118 155 192 245 296 366
#
# _framework density 19.607064999999999
#
# number of rings (size 3 to 8) (size 9 to 14) (size 15 to 20)
#    0.000    1.714    0.000    6.000    6.000    0.000 
#    0.000    1.429    0.000    0.000    0.000    0.000 
#    0.000    0.000    0.000    0.000    0.000    0.000 
#
# Total GULP energy -173485.983979 kJ/mol
# GULP energy per Si atom -12391.855998 kJ/mol
# Density = 1.956244 g / cm^3
# Si number density = 19.607065 Si / 1000 Ang^3
#
#
#
# Elastic Constant Matrix: (Units=GPa)
#
#
# Indices 1 2 3 4 5 6 
#
# 1 91.2900 41.1902 28.8872 0.0000 11.0169 0.0000
# 2 41.1902 122.9203 43.0670 0.0000 13.1931 0.0000
# 3 28.8872 43.0670 118.6851 0.0000 25.0606 0.0000
# 4 0.0000 0.0000 0.0000 16.3086 0.0000 -1.2121
# 5 11.0169 13.1931 25.0606 0.0000 44.9855 0.0000
# 6 0.0000 0.0000 0.0000 -1.2121 0.0000 20.8348
#
#
#
# Elastic Compliance Matrix: (Units=1/GPa)
#
#
# Indices 1 2 3 4 5 6 
#
# 1 0.013313 -0.003762 -0.001609 0.000000 -0.001261 0.000000
# 2 -0.003762 0.010420 -0.002737 0.000000 -0.000610 0.000000
# 3 -0.001609 -0.002737 0.010832 0.000000 -0.004838 0.000000
# 4 0.000000 0.000000 0.000000 0.061584 0.000000 0.003583
# 5 -0.001261 -0.000610 -0.004838 0.000000 0.025412 0.000000
# 6 0.000000 0.000000 0.000000 0.003583 0.000000 0.048205
#
#
# Mechanical properties :
#
#
# Convention : Reuss Voigt Hill
#
# Bulk Modulus (GPa) = 54.49731 62.13157 58.31444
# Shear Modulus (GPa) = 26.02843 31.07584 28.55213
#
# Velocity S-wave (km/s) = 3.64744 3.98544 3.82018
# Velocity P-wave (km/s) = 6.75230 7.27567 7.01887
#
# Compressibility (1/GPa) = 0.01834953
#
# Stress axis : x y z
#
# Youngs Moduli (GPa) = 75.11558 95.96610 92.32082
#
# Poissons Ratio (x) = 0.36103 0.14854
# Poissons Ratio (y) = 0.28259 0.25266
# Poissons Ratio (z) = 0.12086 0.26263
#
# Static dielectric constant tensor:
#      x y z
#    x 3.787660 0.000000 -0.036780 
#    y 0.000000 3.454860 0.000000 
#    z -0.036780 0.000000 3.606730 
# 
# 
# High freq. dielectric constant tensor:
#      x y z
#    x 1.781330 0.000000 -0.003910 
#    y 0.000000 1.767330 0.000000 
#    z -0.003910 0.000000 1.768410 
# 
# From -- ./inp_files/64581.got.cif
#   From: 2010.06.25/outbox.cif.g09.slc.cpg/sg12_33_cif.got.tgz:64581.got - 2010.06.28 00:19:55.
