data_PCOD8108988
_publ_section_title
;
Structure prediction by ZEFSAII (Michael W. Deem and Ramdas Pophale) SiO2 
 PCOD8108988
Probable space group: C 2/M
;
_chemical_formula_sum "Si O2"
_cell_formula_units_Z 48
_cell_length_a 30.277735
_cell_length_b 9.028762
_cell_length_c 8.746442
_cell_angle_alpha 90.000000
_cell_angle_beta 90.252462
_cell_angle_gamma 90.000000
_cell_volume 2390.995690
_symmetry_space_group_name_H-M "C 2/M"
_symmetry_group_IT_number 12
_symmetry_cell_setting 'monoclinic'
loop_
_space_group_symop_operation_xyz
x,y,z
-x,y,-z
-x,-y,-z
x,-y,z
1/2+x,1/2+y,z
1/2-x,1/2+y,-z
1/2-x,1/2-y,-z
1/2+x,1/2-y,z
loop_
_atom_site_type_symbol
_atom_site_label
_atom_site_fract_x
_atom_site_fract_y
_atom_site_fract_z
Si Si1 0.758409 0.671616 0.841321
Si Si2 0.341625 0.826829 0.650774
Si Si3 0.669715 0.327084 0.670623
Si Si4 0.431018 0.170827 0.828044
Si Si5 0.510911 0.672386 0.674573
Si Si6 0.591561 0.173527 0.825139
O O1 0.761679 0.500000 0.879920
O O2 0.803963 0.728144 0.767260
O O3 0.719771 0.705935 0.720240
O O4 0.750000 0.750000 0.000000
O O5 0.338229 0.734617 0.497270
O O6 0.388784 0.792355 0.724983
O O7 0.335599 0.000000 0.613394
O O8 0.658660 0.500000 0.670987
O O9 0.638551 0.246681 0.792156
O O10 0.471309 0.273308 0.780361
O O11 0.445214 0.000000 0.810864
O O12 0.420521 0.210054 0.001792
O O13 0.500000 0.706941 0.500000
O O14 0.518781 0.500000 0.705328
O O15 0.555321 0.760155 0.711371
O O16 0.595176 0.000000 0.794151
#
# Coordination Sequence:
#
# PCOD8108988 Si02
#       6
#     8   8   8   8   8   8
#     4  10  22  39  60  87 119 155 196 241 288 341
#     4  10  21  39  61  85 116 155 196 237 285 344
#     4  11  23  38  58  88 121 152 192 241 291 341
#     4  10  22  39  60  86 114 149 195 240 284 341
#     4  11  24  40  59  86 119 152 189 237 291 344
#     4  11  23  40  62  86 115 153 195 238 286 344
#
# _framework density 20.075319
#
# number of rings (size 3 to 8) (size 9 to 14) (size 15 to 20)
#    0.000    1.500    0.000    4.500    0.000   11.333 
#    0.000    0.000    0.000    0.000    0.000    0.000 
#    0.000    0.000    0.000    0.000    0.000    0.000 
#
# Total GULP energy -297766.844687 kJ/mol
# GULP energy per Si atom -12406.951862 kJ/mol
# Density = 2.002963 g / cm^3
# Si number density = 20.075319 Si / 1000 Ang^3
#
#
#
# Elastic Constant Matrix: (Units=GPa)
#
#
# Indices 1 2 3 4 5 6 
#
# 1 57.4113 17.5494 -0.5088 0.0000 -11.7994 0.0000
# 2 17.5494 70.2484 35.9545 0.0000 -1.6081 0.0000
# 3 -0.5088 35.9545 83.0326 0.0000 0.1524 0.0000
# 4 0.0000 0.0000 0.0000 34.5040 0.0000 -5.5927
# 5 -11.7994 -1.6081 0.1524 0.0000 35.0110 0.0000
# 6 0.0000 0.0000 0.0000 -5.5927 0.0000 33.8735
#
#
#
# Elastic Compliance Matrix: (Units=1/GPa)
#
#
# Indices 1 2 3 4 5 6 
#
# 1 0.020829 -0.006564 0.002958 0.000000 0.006705 0.000000
# 2 -0.006564 0.020384 -0.008864 0.000000 -0.001237 0.000000
# 3 0.002958 -0.008864 0.015899 0.000000 0.000520 0.000000
# 4 0.000000 0.000000 0.000000 0.029779 0.000000 0.004917
# 5 0.006705 -0.001237 0.000520 0.000000 0.030763 0.000000
# 6 0.000000 0.000000 0.000000 0.004917 0.000000 0.030333
#
#
# Mechanical properties :
#
#
# Convention : Reuss Voigt Hill
#
# Bulk Modulus (GPa) = 31.08444 35.18695 33.13569
# Shear Modulus (GPa) = 27.22544 31.19085 29.20815
#
# Velocity S-wave (km/s) = 3.68661 3.94597 3.81849
# Velocity P-wave (km/s) = 5.79991 6.19083 5.99856
#
# Compressibility (1/GPa) = 0.03217043
#
# Stress axis : x y z
#
# Youngs Moduli (GPa) = 48.01028 49.05908 62.89673
#
# Poissons Ratio (x) = 0.32201 -0.18602
# Poissons Ratio (y) = 0.31512 0.55754
# Poissons Ratio (z) = -0.14199 0.43488
#
# Static dielectric constant tensor:
#      x y z
#    x 3.972080 0.000000 -0.045080 
#    y 0.000000 3.670150 0.000000 
#    z -0.045080 0.000000 3.711080 
# 
# 
# High freq. dielectric constant tensor:
#      x y z
#    x 1.801810 0.000000 -0.000280 
#    y 0.000000 1.784450 0.000000 
#    z -0.000280 0.000000 1.797670 
# 
# From -- ./inp_files/108744.got.cif
#   From: 2010.06.25/outbox.cif.g09.slc.cpg/sg12_55_cif.got.tgz:108744.got - 2010.06.28 00:19:55.
