data_PCOD8108457
_publ_section_title
;
Structure prediction by ZEFSAII (Michael W. Deem and Ramdas Pophale) SiO2 
 PCOD8108457
Probable space group: C 2/M
;
_chemical_formula_sum "Si O2"
_cell_formula_units_Z 56
_cell_length_a 16.582844
_cell_length_b 22.058554
_cell_length_c 8.848167
_cell_angle_alpha 90.000000
_cell_angle_beta 53.870634
_cell_angle_gamma 90.000000
_cell_volume 2614.164341
_symmetry_space_group_name_H-M "C 2/M"
_symmetry_group_IT_number 12
_symmetry_cell_setting 'monoclinic'
loop_
_space_group_symop_operation_xyz
x,y,z
-x,y,-z
-x,-y,-z
x,-y,z
1/2+x,1/2+y,z
1/2-x,1/2+y,-z
1/2-x,1/2-y,-z
1/2+x,1/2-y,z
loop_
_atom_site_type_symbol
_atom_site_label
_atom_site_fract_x
_atom_site_fract_y
_atom_site_fract_z
Si Si1 0.519245 0.782855 0.307898
Si Si2 0.751078 0.432469 0.990488
Si Si3 0.630430 0.652065 0.734129
Si Si4 0.084136 0.836958 0.122050
Si Si5 0.901320 0.372470 0.020090
Si Si6 0.704167 0.068659 0.394963
Si Si7 0.671612 0.181298 0.610850
O O1 0.500000 0.802461 0.500000
O O2 0.588659 0.723201 0.220316
O O3 0.411487 0.769054 0.347148
O O4 0.573489 0.836297 0.159439
O O5 0.705868 0.500000 0.046617
O O6 0.811697 0.423086 0.767175
O O7 0.658590 0.386188 0.110040
O O8 0.828819 0.426035 0.043753
O O9 0.531112 0.640701 0.746582
O O10 0.679263 0.585057 0.699197
O O11 0.713931 0.697274 0.563647
O O12 0.610487 0.680717 0.920789
O O13 0.836870 0.329046 0.201035
O O14 0.000000 0.396160 0.000000
O O15 0.638309 0.117661 0.561016
O O16 0.679801 0.000000 0.474358
#
# Coordination Sequence:
#
# PCOD8108457 Si02
#       7
#     8   8   8   8   8   8   8
#     4  11  24  40  62  90 128 159 209 267 312 374
#     4  10  21  40  64  91 129 168 209 257 309 370
#     4   8  19  36  60  92 124 162 208 256 297 371
#     4  10  21  38  61  94 128 166 213 251 311 368
#     4  10  23  41  64  94 123 164 210 260 318 375
#     4   8  16  35  62  90 122 163 206 252 304 363
#     4   9  20  39  61  91 124 165 206 259 308 370
#
# _framework density 21.421759000000002
#
# number of rings (size 3 to 8) (size 9 to 14) (size 15 to 20)
#    0.857    1.714    0.000    0.857    6.000    3.714 
#    0.000    5.000    0.000    9.000    0.000    0.000 
#    0.000    0.000    0.000    0.000    0.000    0.000 
#
# Total GULP energy -346935.663093 kJ/mol
# GULP energy per Si atom -12390.559396 kJ/mol
# Density = 2.137300 g / cm^3
# Si number density = 21.421759 Si / 1000 Ang^3
#
#
#
# Elastic Constant Matrix: (Units=GPa)
#
#
# Indices 1 2 3 4 5 6 
#
# 1 102.0158 29.1382 32.6271 0.0000 -3.7978 0.0000
# 2 29.1382 69.9188 20.0860 0.0000 -3.5186 0.0000
# 3 32.6271 20.0860 115.1725 0.0000 -2.8162 0.0000
# 4 0.0000 0.0000 0.0000 8.3824 0.0000 -8.9121
# 5 -3.7978 -3.5186 -2.8162 0.0000 32.5914 0.0000
# 6 0.0000 0.0000 0.0000 -8.9121 0.0000 25.1762
#
#
#
# Elastic Compliance Matrix: (Units=1/GPa)
#
#
# Indices 1 2 3 4 5 6 
#
# 1 0.011851 -0.004152 -0.002616 0.000000 0.000707 0.000000
# 2 -0.004152 0.016575 -0.001686 0.000000 0.001160 0.000000
# 3 -0.002616 -0.001686 0.009726 0.000000 0.000354 0.000000
# 4 0.000000 0.000000 0.000000 0.191292 0.000000 0.067716
# 5 0.000707 0.001160 0.000354 0.000000 0.030921 0.000000
# 6 0.000000 0.000000 0.000000 0.067716 0.000000 0.063691
#
#
# Mechanical properties :
#
#
# Convention : Reuss Voigt Hill
#
# Bulk Modulus (GPa) = 47.06995 50.08997 48.57996
# Shear Modulus (GPa) = 14.36589 26.91371 20.63980
#
# Velocity S-wave (km/s) = 2.59245 3.54838 3.10739
# Velocity P-wave (km/s) = 5.56612 6.34204 5.96671
#
# Compressibility (1/GPa) = 0.02124498
#
# Stress axis : x y z
#
# Youngs Moduli (GPa) = 84.37942 60.33060 102.81275
#
# Poissons Ratio (x) = 0.25048 0.26895
# Poissons Ratio (y) = 0.35033 0.17336
# Poissons Ratio (z) = 0.22073 0.10173
#
# Static dielectric constant tensor:
#      x y z
#    x 3.744760 0.000000 -0.090050 
#    y 0.000000 3.552360 0.000000 
#    z -0.090050 0.000000 3.874230 
# 
# 
# High freq. dielectric constant tensor:
#      x y z
#    x 1.830950 0.000000 -0.004610 
#    y 0.000000 1.823130 0.000000 
#    z -0.004610 0.000000 1.840670 
# 
# From -- ./inp_files/77386.got.cif
#   From: 2010.06.25/outbox.cif.g09.slc.cpg/sg12_39_cif.got.tgz:77386.got - 2010.06.28 00:19:55.
