data_PCOD8108623
_publ_section_title
;
Structure prediction by ZEFSAII (Michael W. Deem and Ramdas Pophale) SiO2 
 PCOD8108623
Probable space group: C 2/M
;
_chemical_formula_sum "Si O2"
_cell_formula_units_Z 44
_cell_length_a 9.005543
_cell_length_b 18.330881
_cell_length_c 13.471992
_cell_angle_alpha 90.000000
_cell_angle_beta 109.243212
_cell_angle_gamma 90.000000
_cell_volume 2099.693820
_symmetry_space_group_name_H-M "C 2/M"
_symmetry_group_IT_number 12
_symmetry_cell_setting 'monoclinic'
loop_
_space_group_symop_operation_xyz
x,y,z
-x,y,-z
-x,-y,-z
x,-y,z
1/2+x,1/2+y,z
1/2-x,1/2+y,-z
1/2-x,1/2-y,-z
1/2+x,1/2-y,z
loop_
_atom_site_type_symbol
_atom_site_label
_atom_site_fract_x
_atom_site_fract_y
_atom_site_fract_z
Si Si1 0.462575 0.360309 0.604556
Si Si2 0.395210 0.241828 0.232664
Si Si3 0.380582 0.500000 0.381628
Si Si4 0.490210 0.000000 0.678446
Si Si5 0.393018 0.837603 0.879549
Si Si6 0.572526 0.000000 0.123275
Si Si7 0.869884 0.638222 0.398010
O O1 0.500000 0.336550 0.500000
O O2 0.485726 0.295515 0.686417
O O3 0.575753 0.426072 0.667202
O O4 0.280758 0.384408 0.570040
O O5 0.496550 0.189112 0.185403
O O6 0.259803 0.285998 0.143466
O O7 0.314569 0.193798 0.300572
O O8 0.500000 0.500000 0.500000
O O9 0.198480 0.500000 0.367551
O O10 0.545187 0.000000 0.807105
O O11 0.554829 0.931383 0.635911
O O12 0.334811 0.922150 0.848562
O O13 0.500000 0.831619 0.000000
O O14 0.500000 0.000000 0.000000
O O15 0.000000 0.673636 0.500000
#
# Coordination Sequence:
#
# PCOD8108623 Si02
#       7
#     8   8   4   4   8   4   8
#     4  11  24  40  61  91 133 175 224 269 329 397
#     4  12  24  41  66  95 132 173 211 280 338 391
#     4  10  21  38  63  89 126 176 223 267 325 393
#     4  12  22  42  67  94 134 174 225 274 331 392
#     4  11  24  45  70 100 130 173 226 278 339 400
#     4  10  22  42  72  97 125 170 225 269 319 399
#     4  12  25  39  63  96 133 175 223 270 330 397
#
# _framework density 20.955435000000001
#
# number of rings (size 3 to 8) (size 9 to 14) (size 15 to 20)
#    0.000    0.727    3.636    5.182    2.545    1.455 
#    0.000    0.000    0.000    0.000    0.000   10.182 
#    0.000    0.000    0.000    0.000    0.000    0.000 
#
# Total GULP energy -272596.851610 kJ/mol
# GULP energy per Si atom -12390.765982 kJ/mol
# Density = 2.090774 g / cm^3
# Si number density = 20.955435 Si / 1000 Ang^3
#
#
#
# Elastic Constant Matrix: (Units=GPa)
#
#
# Indices 1 2 3 4 5 6 
#
# 1 147.8782 44.6916 43.8335 0.0000 0.1805 0.0000
# 2 44.6916 139.8080 39.4297 0.0000 4.4830 0.0000
# 3 43.8335 39.4297 117.1697 0.0000 -3.4020 0.0000
# 4 0.0000 0.0000 0.0000 26.8512 0.0000 -15.4388
# 5 0.1805 4.4830 -3.4020 0.0000 29.3740 0.0000
# 6 0.0000 0.0000 0.0000 -15.4388 0.0000 6.8305
#
#
#
# Elastic Compliance Matrix: (Units=1/GPa)
#
#
# Indices 1 2 3 4 5 6 
#
# 1 0.008039 -0.001901 -0.002369 0.000000 -0.000034 0.000000
# 2 -0.001901 0.008420 -0.002167 0.000000 -0.001524 0.000000
# 3 -0.002369 -0.002167 0.010194 0.000000 0.001526 0.000000
# 4 0.000000 0.000000 0.000000 -0.124305 0.000000 -0.280965
# 5 -0.000034 -0.001524 0.001526 0.000000 0.034453 0.000000
# 6 0.000000 0.000000 0.000000 -0.280965 0.000000 -0.488656
#
#
# Mechanical properties :
#
#
# Convention : Reuss Voigt Hill
#
# Bulk Modulus (GPa) = 72.56349 73.41842 72.99095
# Shear Modulus (GPa) = -9.35649 31.07121 10.85736
#
# Velocity S-wave (km/s) = -2.11533 3.85480 2.27869
# Velocity P-wave (km/s) = 5.36064 7.41109 6.46764
#
# Compressibility (1/GPa) = 0.01378104
#
# Stress axis : x y z
#
# Youngs Moduli (GPa) = 124.39503 118.76214 98.09449
#
# Poissons Ratio (x) = 0.22572 0.23236
# Poissons Ratio (y) = 0.23643 0.21255
# Poissons Ratio (z) = 0.29466 0.25733
#
# Static dielectric constant tensor:
#      x y z
#    x 3.660590 0.000000 -0.025380 
#    y 0.000000 4.581860 0.000000 
#    z -0.025380 0.000000 3.965190 
# 
# 
# High freq. dielectric constant tensor:
#      x y z
#    x 1.809900 0.000000 -0.002690 
#    y 0.000000 1.845860 0.000000 
#    z -0.002690 0.000000 1.823310 
# 
# From -- ./inp_files/195589.got.cif
#   From: 2010.06.25/outbox.cif.g09.slc.cpg/sg12_98_cif.got.tgz:195589.got - 2010.06.28 00:19:55.
