data_PCOD8108581
_publ_section_title
;
Structure prediction by ZEFSAII (Michael W. Deem and Ramdas Pophale) SiO2 
 PCOD8108581
Probable space group: C 2/M
;
_chemical_formula_sum "Si O2"
_cell_formula_units_Z 40
_cell_length_a 20.720844
_cell_length_b 8.499494
_cell_length_c 10.363742
_cell_angle_alpha 90.000000
_cell_angle_beta 98.709964
_cell_angle_gamma 90.000000
_cell_volume 1804.178610
_symmetry_space_group_name_H-M "C 2/M"
_symmetry_group_IT_number 12
_symmetry_cell_setting 'monoclinic'
loop_
_space_group_symop_operation_xyz
x,y,z
-x,y,-z
-x,-y,-z
x,-y,z
1/2+x,1/2+y,z
1/2-x,1/2+y,-z
1/2-x,1/2-y,-z
1/2+x,1/2-y,z
loop_
_atom_site_type_symbol
_atom_site_label
_atom_site_fract_x
_atom_site_fract_y
_atom_site_fract_z
Si Si1 0.205507 0.319029 0.312082
Si Si2 0.550259 0.816115 0.906236
Si Si3 0.660861 0.177915 0.574680
Si Si4 0.317274 0.314597 0.961503
Si Si5 0.537196 0.681231 0.636123
O O1 0.228087 0.500000 0.307942
O O2 0.267350 0.207273 0.349428
O O3 0.157512 0.296287 0.419217
O O4 0.168385 0.264631 0.172622
O O5 0.517642 0.777436 0.758146
O O6 0.563267 0.000000 0.925677
O O7 0.500000 0.755472 0.000000
O O8 0.619940 0.727518 0.932939
O O9 0.613782 0.299794 0.630915
O O10 0.640633 0.000000 0.604576
O O11 0.310921 0.500000 0.946226
O O12 0.250000 0.250000 0.000000
O O13 0.500000 0.751327 0.500000
O O14 0.519221 0.500000 0.652847
#
# Coordination Sequence:
#
# PCOD8108581 Si02
#       5
#     8   8   8   8   8
#     4  10  21  38  62  93 128 165 210 264 322 384
#     4  11  26  47  70  98 134 175 222 275 332 395
#     4  10  21  38  62  92 127 167 212 264 321 380
#     4  12  25  42  67  95 131 173 219 271 329 394
#     4  11  25  43  65  94 129 171 217 265 320 385
#
# _framework density 22.170755
#
# number of rings (size 3 to 8) (size 9 to 14) (size 15 to 20)
#    0.000    1.200    0.000    5.400    2.800    5.600 
#    0.000    0.000    0.000    0.000    0.000    0.000 
#    0.000    0.000    0.000    0.000    0.000    0.000 
#
# Total GULP energy -248102.790320 kJ/mol
# GULP energy per Si atom -12405.139516 kJ/mol
# Density = 2.212029 g / cm^3
# Si number density = 22.170755 Si / 1000 Ang^3
#
#
#
# Elastic Constant Matrix: (Units=GPa)
#
#
# Indices 1 2 3 4 5 6 
#
# 1 84.4815 22.0346 36.5961 0.0000 -10.6831 0.0000
# 2 22.0346 90.3707 36.5039 0.0000 -9.9550 0.0000
# 3 36.5961 36.5039 150.6699 0.0000 -2.2768 0.0000
# 4 0.0000 0.0000 0.0000 36.4625 0.0000 4.5075
# 5 -10.6831 -9.9550 -2.2768 0.0000 30.4078 0.0000
# 6 0.0000 0.0000 0.0000 4.5075 0.0000 25.8344
#
#
#
# Elastic Compliance Matrix: (Units=1/GPa)
#
#
# Indices 1 2 3 4 5 6 
#
# 1 0.014098 -0.001799 -0.002926 0.000000 0.004145 0.000000
# 2 -0.001799 0.012950 -0.002649 0.000000 0.003409 0.000000
# 3 -0.002926 -0.002649 0.007970 0.000000 -0.001298 0.000000
# 4 0.000000 0.000000 0.000000 0.028030 0.000000 -0.004891
# 5 0.004145 0.003409 -0.001298 0.000000 0.035361 0.000000
# 6 0.000000 0.000000 0.000000 -0.004891 0.000000 0.039561
#
#
# Mechanical properties :
#
#
# Convention : Reuss Voigt Hill
#
# Bulk Modulus (GPa) = 49.33417 57.31013 53.32215
# Shear Modulus (GPa) = 31.35311 33.90010 32.62660
#
# Velocity S-wave (km/s) = 3.76462 3.91454 3.84031
# Velocity P-wave (km/s) = 6.41846 6.80713 6.61565
#
# Compressibility (1/GPa) = 0.02026993
#
# Stress axis : x y z
#
# Youngs Moduli (GPa) = 70.93401 77.22173 125.47361
#
# Poissons Ratio (x) = 0.13892 0.36709
# Poissons Ratio (y) = 0.12761 0.33237
# Poissons Ratio (z) = 0.20753 0.20456
#
# Static dielectric constant tensor:
#      x y z
#    x 3.754990 0.000000 -0.063440 
#    y 0.000000 3.851010 0.000000 
#    z -0.063440 0.000000 4.331530 
# 
# 
# High freq. dielectric constant tensor:
#      x y z
#    x 1.859720 0.000000 -0.003580 
#    y 0.000000 1.876120 0.000000 
#    z -0.003580 0.000000 1.891620 
# 
# From -- ./inp_files/151846.got.cif
#   From: 2010.06.25/outbox.cif.g09.slc.cpg/sg12_76_cif.got.tgz:151846.got - 2010.06.28 00:19:55.
