data_PCOD8108410
_publ_section_title
;
Structure prediction by ZEFSAII (Michael W. Deem and Ramdas Pophale) SiO2 
 PCOD8108410
Probable space group: C 2/M
;
_chemical_formula_sum "Si O2"
_cell_formula_units_Z 56
_cell_length_a 5.246344
_cell_length_b 23.305724
_cell_length_c 23.091372
_cell_angle_alpha 90.000000
_cell_angle_beta 103.972878
_cell_angle_gamma 90.000000
_cell_volume 2739.835095
_symmetry_space_group_name_H-M "C 2/M"
_symmetry_group_IT_number 12
_symmetry_cell_setting 'monoclinic'
loop_
_space_group_symop_operation_xyz
x,y,z
-x,y,-z
-x,-y,-z
x,-y,z
1/2+x,1/2+y,z
1/2-x,1/2+y,-z
1/2-x,1/2-y,-z
1/2+x,1/2-y,z
loop_
_atom_site_type_symbol
_atom_site_label
_atom_site_fract_x
_atom_site_fract_y
_atom_site_fract_z
Si Si1 0.135560 0.625969 0.361396
Si Si2 0.090335 0.067198 0.317150
Si Si3 0.517140 0.786044 0.740774
Si Si4 0.277204 0.185113 0.025605
Si Si5 0.906414 0.367847 0.149805
Si Si6 0.438180 0.568104 0.178914
Si Si7 0.182055 0.725181 0.433207
O O1 0.394644 0.594936 0.352754
O O2 0.188389 0.654898 0.427864
O O3 0.889954 0.583166 0.348210
O O4 0.076212 0.683694 0.322507
O O5 0.017106 0.087219 0.248422
O O6 0.058957 0.000000 0.321771
O O7 0.310514 0.738035 0.749290
O O8 0.522425 0.834855 0.788871
O O9 0.353378 0.179709 0.097109
O O10 0.500000 0.153313 0.000000
O O11 0.250000 0.250000 0.000000
O O12 0.000000 0.153315 0.000000
O O13 0.650285 0.407062 0.145568
O O14 0.151545 0.408232 0.146744
O O15 0.435319 0.500000 0.173171
O O16 0.250000 0.750000 0.500000
O O17 0.393579 0.751917 0.400205
#
# Coordination Sequence:
#
# PCOD8108410 Si02
#       7
#     8   8   8   8   8   8   8
#     4  12  21  39  57  90 130 166 202 253 308 364
#     4  11  22  38  60  91 128 166 206 255 318 376
#     4  12  24  34  54  87 128 163 190 244 306 371
#     4  10  23  40  59  84 115 158 204 248 301 373
#     4  12  23  40  64  88 124 163 205 249 320 372
#     4  11  22  41  64  92 122 161 212 256 309 376
#     4  10  21  38  61  90 122 167 217 251 300 360
#
# _framework density 20.439185999999999
#
# number of rings (size 3 to 8) (size 9 to 14) (size 15 to 20)
#    0.000    0.857    2.857    5.143    4.000    2.286 
#    0.000    0.000    0.000    8.571    0.000   40.000 
#    0.000    0.000    0.000    0.000    0.000    0.000 
#
# Total GULP energy -347068.141944 kJ/mol
# GULP energy per Si atom -12395.290784 kJ/mol
# Density = 2.039267 g / cm^3
# Si number density = 20.439186 Si / 1000 Ang^3
#
#
#
# Elastic Constant Matrix: (Units=GPa)
#
#
# Indices 1 2 3 4 5 6 
#
# 1 170.7069 30.4055 24.0920 0.0000 -17.0226 0.0000
# 2 30.4055 82.4674 37.2722 0.0000 -7.1904 0.0000
# 3 24.0920 37.2722 75.7381 0.0000 -2.8867 0.0000
# 4 0.0000 0.0000 0.0000 33.9297 0.0000 -0.5694
# 5 -17.0226 -7.1904 -2.8867 0.0000 11.5441 0.0000
# 6 0.0000 0.0000 0.0000 -0.5694 0.0000 39.5987
#
#
#
# Elastic Compliance Matrix: (Units=1/GPa)
#
#
# Indices 1 2 3 4 5 6 
#
# 1 0.007216 -0.001229 -0.001327 0.000000 0.009543 0.000000
# 2 -0.001229 0.016545 -0.007499 0.000000 0.006619 0.000000
# 3 -0.001327 -0.007499 0.017228 0.000000 -0.002320 0.000000
# 4 0.000000 0.000000 0.000000 0.029480 0.000000 0.000424
# 5 0.009543 0.006619 -0.002320 0.000000 0.104238 0.000000
# 6 0.000000 0.000000 0.000000 0.000424 0.000000 0.025259
#
#
# Mechanical properties :
#
#
# Convention : Reuss Voigt Hill
#
# Bulk Modulus (GPa) = 47.89474 56.93907 52.41691
# Shear Modulus (GPa) = 22.02296 32.82401 27.42349
#
# Velocity S-wave (km/s) = 3.28607 4.01176 3.66691
# Velocity P-wave (km/s) = 6.15478 7.02689 6.60525
#
# Compressibility (1/GPa) = 0.02087912
#
# Stress axis : x y z
#
# Youngs Moduli (GPa) = 138.58646 60.43952 58.04635
#
# Poissons Ratio (x) = 0.07426 0.07702
# Poissons Ratio (y) = 0.17027 0.43530
# Poissons Ratio (z) = 0.18390 0.45325
#
# Static dielectric constant tensor:
#      x y z
#    x 7.381220 0.000000 -0.466850 
#    y 0.000000 3.589990 0.000000 
#    z -0.466850 0.000000 3.644710 
# 
# 
# High freq. dielectric constant tensor:
#      x y z
#    x 1.835800 0.000000 -0.004790 
#    y 0.000000 1.784710 0.000000 
#    z -0.004790 0.000000 1.779780 
# 
# From -- ./inp_files/331194.got.cif
#   From: 2010.06.25/outbox.cif.g09.slc.cpg/sg12_166_cif.got.tgz:331194.got - 2010.06.28 00:19:55.
