data_PCOD8108307
_publ_section_title
;
Structure prediction by ZEFSAII (Michael W. Deem and Ramdas Pophale) SiO2 
 PCOD8108307
Probable space group: C 2/M
;
_chemical_formula_sum "Si O2"
_cell_formula_units_Z 52
_cell_length_a 16.374112
_cell_length_b 16.741861
_cell_length_c 15.721102
_cell_angle_alpha 90.000000
_cell_angle_beta 141.506229
_cell_angle_gamma 90.000000
_cell_volume 2682.468786
_symmetry_space_group_name_H-M "C 2/M"
_symmetry_group_IT_number 12
_symmetry_cell_setting 'monoclinic'
loop_
_space_group_symop_operation_xyz
x,y,z
-x,y,-z
-x,-y,-z
x,-y,z
1/2+x,1/2+y,z
1/2-x,1/2+y,-z
1/2-x,1/2-y,-z
1/2+x,1/2-y,z
loop_
_atom_site_type_symbol
_atom_site_label
_atom_site_fract_x
_atom_site_fract_y
_atom_site_fract_z
Si Si1 0.894277 0.819482 0.059476
Si Si2 0.817551 0.409397 0.765963
Si Si3 0.576002 0.593168 0.324212
Si Si4 0.500000 0.783031 0.000000
Si Si5 0.855110 0.590595 0.599783
Si Si6 0.612618 0.806015 0.798661
Si Si7 0.423880 0.327150 0.354038
O O1 0.912075 0.752095 0.143837
O O2 0.998242 0.887415 0.172785
O O3 0.745763 0.855389 0.930945
O O4 0.917340 0.777826 0.988751
O O5 0.862990 0.500000 0.826137
O O6 0.803310 0.400358 0.653583
O O7 0.683294 0.392946 0.706847
O O8 0.918755 0.341777 0.874425
O O9 0.566570 0.500000 0.334525
O O10 0.730018 0.618261 0.440414
O O11 0.516716 0.636270 0.357903
O O12 0.893875 0.500000 0.611157
O O13 0.984901 0.639669 0.682745
O O14 0.638602 0.754168 0.734609
O O15 0.500000 0.300982 0.500000
#
# Coordination Sequence:
#
# PCOD8108307 Si02
#       7
#     8   8   8   4   8   8   8
#     4  10  22  37  59  81 118 157 198 244 286 347
#     4  11  22  35  57  91 123 152 188 238 301 354
#     4  10  22  38  59  87 118 155 197 244 293 348
#     4  12  21  40  57  86 118 156 196 244 287 346
#     4  10  21  38  61  87 120 155 195 243 296 355
#     4  10  21  39  55  85 120 156 198 237 291 353
#     4  11  21  35  59  89 120 152 191 240 296 356
#
# _framework density 19.385128000000002
#
# number of rings (size 3 to 8) (size 9 to 14) (size 15 to 20)
#    0.000    1.538    4.615    0.692    0.000    4.923 
#    0.000    0.385    0.000    0.462    0.000    0.000 
#    0.000    0.000    0.000    0.000    0.000    0.000 
#
# Total GULP energy -322184.741232 kJ/mol
# GULP energy per Si atom -12391.720817 kJ/mol
# Density = 1.934101 g / cm^3
# Si number density = 19.385128 Si / 1000 Ang^3
#
#
#
# Elastic Constant Matrix: (Units=GPa)
#
#
# Indices 1 2 3 4 5 6 
#
# 1 63.7195 39.3662 34.0454 0.0000 16.2773 -0.0001
# 2 39.3662 64.2641 52.3845 0.0001 8.3584 0.0000
# 3 34.0454 52.3845 114.6541 0.0000 33.3266 0.0000
# 4 0.0000 0.0001 0.0000 35.5169 0.0000 -10.2260
# 5 16.2773 8.3584 33.3266 0.0000 30.6622 -0.0001
# 6 -0.0001 0.0000 0.0000 -10.2260 -0.0001 61.0564
#
#
#
# Elastic Compliance Matrix: (Units=1/GPa)
#
#
# Indices 1 2 3 4 5 6 
#
# 1 0.029366 -0.019973 0.004904 0.000000 -0.015474 0.000000
# 2 -0.019973 0.039845 -0.017832 0.000000 0.019124 0.000000
# 3 0.004904 -0.017832 0.021572 0.000000 -0.021189 0.000000
# 4 0.000000 0.000000 0.000000 0.029582 0.000000 0.004955
# 5 -0.015474 0.019124 -0.021189 0.000000 0.058645 0.000000
# 6 0.000000 0.000000 0.000000 0.004955 0.000000 0.017208
#
#
# Mechanical properties :
#
#
# Convention : Reuss Voigt Hill
#
# Bulk Modulus (GPa) = 40.03390 54.91445 47.47417
# Shear Modulus (GPa) = 18.49457 33.23654 25.86555
#
# Velocity S-wave (km/s) = 3.09214 4.14519 3.65677
# Velocity P-wave (km/s) = 5.78317 7.16239 6.50941
#
# Compressibility (1/GPa) = 0.02497883
#
# Stress axis : x y z
#
# Youngs Moduli (GPa) = 34.05249 25.09750 46.35572
#
# Poissons Ratio (x) = 0.50128 -0.22731
# Poissons Ratio (y) = 0.68014 0.82664
# Poissons Ratio (z) = -0.16698 0.44755
#
# Static dielectric constant tensor:
#      x y z
#    x 3.436070 0.000000 0.140440 
#    y 0.000000 3.493560 0.000000 
#    z 0.140440 0.000000 4.145190 
# 
# 
# High freq. dielectric constant tensor:
#      x y z
#    x 1.741440 0.000000 0.012310 
#    y 0.000000 1.736780 0.000000 
#    z 0.012310 0.000000 1.770000 
# 
# From -- ./inp_files/225801.got.cif
#   From: 2010.06.25/outbox.cif.g09.slc.cpg/sg12_113_cif.got.tgz:225801.got - 2010.06.28 00:19:55.
