data_PCOD8108630
_publ_section_title
;
Structure prediction by ZEFSAII (Michael W. Deem and Ramdas Pophale) SiO2 
 PCOD8108630
Probable space group: C 2/M
;
_chemical_formula_sum "Si O2"
_cell_formula_units_Z 64
_cell_length_a 24.121915
_cell_length_b 8.668461
_cell_length_c 15.179476
_cell_angle_alpha 90.000000
_cell_angle_beta 92.551377
_cell_angle_gamma 90.000000
_cell_volume 3170.880209
_symmetry_space_group_name_H-M "C 2/M"
_symmetry_group_IT_number 12
_symmetry_cell_setting 'monoclinic'
loop_
_space_group_symop_operation_xyz
x,y,z
-x,y,-z
-x,-y,-z
x,-y,z
1/2+x,1/2+y,z
1/2-x,1/2+y,-z
1/2-x,1/2-y,-z
1/2+x,1/2-y,z
loop_
_atom_site_type_symbol
_atom_site_label
_atom_site_fract_x
_atom_site_fract_y
_atom_site_fract_z
Si Si1 0.348783 0.822513 0.957195
Si Si2 0.332183 0.179576 0.463915
Si Si3 0.768655 0.321334 0.635574
Si Si4 0.550130 0.681596 0.567359
Si Si5 0.041009 0.818779 0.766198
Si Si6 0.971162 0.677957 0.910492
Si Si7 0.156124 0.180543 0.856182
Si Si8 0.268397 0.321029 0.814877
O O1 0.405651 0.794233 0.909122
O O2 0.298424 0.780838 0.890321
O O3 0.343017 0.000000 0.987335
O O4 0.346711 0.711520 0.040459
O O5 0.294160 0.274081 0.393382
O O6 0.311453 0.216259 0.560835
O O7 0.395497 0.230156 0.461059
O O8 0.325680 0.000000 0.441277
O O9 0.768317 0.500000 0.661300
O O10 0.790568 0.223366 0.719901
O O11 0.500000 0.729166 0.500000
O O12 0.562288 0.500000 0.564725
O O13 0.534080 0.735542 0.664801
O O14 0.099693 0.760001 0.807424
O O15 0.991533 0.753293 0.821714
O O16 0.037502 0.000000 0.773143
O O17 0.987720 0.500000 0.907607
O O18 0.000000 0.751199 0.000000
O O19 0.203643 0.280736 0.813988
O O20 0.166645 0.000000 0.839953
O O21 0.279218 0.500000 0.834335
#
# Coordination Sequence:
#
# PCOD8108630 Si02
#       8
#     8   8   8   8   8   8   8   8
#     4  11  23  40  60  84 119 158 197 245 302 358
#     4  10  21  38  63  91 118 154 200 248 300 355
#     4  10  21  39  62  89 121 155 195 243 299 360
#     4  10  22  40  60  86 123 164 204 250 304 359
#     4  10  22  38  61  90 118 155 201 249 301 356
#     4  10  21  39  62  87 115 151 197 247 298 352
#     4  11  22  38  60  86 118 156 200 248 302 359
#     4  12  25  39  58  87 121 157 200 244 297 357
#
# _framework density 20.183671
#
# number of rings (size 3 to 8) (size 9 to 14) (size 15 to 20)
#    0.000    1.500    1.250    3.750    0.000    6.000 
#    0.000    2.500    0.000    0.000    0.000    0.000 
#    0.000    0.000    0.000    0.000    0.000    0.000 
#
# Total GULP energy -396990.452978 kJ/mol
# GULP energy per Si atom -12405.951656 kJ/mol
# Density = 2.013773 g / cm^3
# Si number density = 20.183671 Si / 1000 Ang^3
#
#
#
# Elastic Constant Matrix: (Units=GPa)
#
#
# Indices 1 2 3 4 5 6 
#
# 1 65.7281 20.3208 38.3118 0.0000 -13.1212 0.0000
# 2 20.3208 47.4147 19.5651 0.0000 -7.3437 0.0000
# 3 38.3118 19.5651 131.9591 0.0000 -1.2350 0.0000
# 4 0.0000 0.0000 0.0000 31.7814 0.0000 -6.1755
# 5 -13.1212 -7.3437 -1.2350 0.0000 28.3076 0.0000
# 6 0.0000 0.0000 0.0000 -6.1755 0.0000 30.7971
#
#
#
# Elastic Compliance Matrix: (Units=1/GPa)
#
#
# Indices 1 2 3 4 5 6 
#
# 1 0.021834 -0.005835 -0.005396 0.000000 0.008372 0.000000
# 2 -0.005835 0.024977 -0.001975 0.000000 0.003689 0.000000
# 3 -0.005396 -0.001975 0.009413 0.000000 -0.002603 0.000000
# 4 0.000000 0.000000 0.000000 0.032741 0.000000 0.006565
# 5 0.008372 0.003689 -0.002603 0.000000 0.040050 0.000000
# 6 0.000000 0.000000 0.000000 0.006565 0.000000 0.033787
#
#
# Mechanical properties :
#
#
# Convention : Reuss Voigt Hill
#
# Bulk Modulus (GPa) = 33.54070 44.61081 39.07576
# Shear Modulus (GPa) = 25.10658 29.30418 27.20538
#
# Velocity S-wave (km/s) = 3.53073 3.81448 3.67535
# Velocity P-wave (km/s) = 5.76847 6.44599 6.11662
#
# Compressibility (1/GPa) = 0.02981452
#
# Stress axis : x y z
#
# Youngs Moduli (GPa) = 45.79947 40.03628 106.23492
#
# Poissons Ratio (x) = 0.23359 0.57322
# Poissons Ratio (y) = 0.26722 0.20980
# Poissons Ratio (z) = 0.24712 0.07907
#
# Static dielectric constant tensor:
#      x y z
#    x 3.620830 0.000000 -0.026680 
#    y 0.000000 3.592690 0.000000 
#    z -0.026680 0.000000 3.809700 
# 
# 
# High freq. dielectric constant tensor:
#      x y z
#    x 1.788860 0.000000 -0.004950 
#    y 0.000000 1.786510 0.000000 
#    z -0.004950 0.000000 1.798820 
# 
# From -- ./inp_files/238623.got.cif
#   From: 2010.06.25/outbox.cif.g09.slc.cpg/sg12_120_cif.got.tgz:238623.got - 2010.06.28 00:19:55.
