data_PCOD8108643
_publ_section_title
;
Structure prediction by ZEFSAII (Michael W. Deem and Ramdas Pophale) SiO2 
 PCOD8108643
Probable space group: C 2/M
;
_chemical_formula_sum "Si O2"
_cell_formula_units_Z 56
_cell_length_a 8.052354
_cell_length_b 22.567424
_cell_length_c 15.384749
_cell_angle_alpha 90.000000
_cell_angle_beta 113.962507
_cell_angle_gamma 90.000000
_cell_volume 2554.770217
_symmetry_space_group_name_H-M "C 2/M"
_symmetry_group_IT_number 12
_symmetry_cell_setting 'monoclinic'
loop_
_space_group_symop_operation_xyz
x,y,z
-x,y,-z
-x,-y,-z
x,-y,z
1/2+x,1/2+y,z
1/2-x,1/2+y,-z
1/2-x,1/2-y,-z
1/2+x,1/2-y,z
loop_
_atom_site_type_symbol
_atom_site_label
_atom_site_fract_x
_atom_site_fract_y
_atom_site_fract_z
Si Si1 0.772267 0.065278 0.723796
Si Si2 0.494028 0.155993 0.142332
Si Si3 0.954300 0.326589 0.329180
Si Si4 0.204202 0.065733 0.066199
Si Si5 0.357491 0.289021 0.393387
Si Si6 0.392787 0.641016 0.230618
Si Si7 0.067540 0.221685 0.928727
O O1 0.616294 0.109154 0.652675
O O2 0.759814 0.063072 0.824435
O O3 0.975669 0.084677 0.740426
O O4 0.737397 0.000000 0.677147
O O5 0.408795 0.175552 0.217024
O O6 0.345528 0.115670 0.058497
O O7 0.682718 0.119193 0.188454
O O8 0.553180 0.218604 0.112215
O O9 0.835776 0.279224 0.358400
O O10 0.168127 0.315119 0.389413
O O11 0.243954 0.000000 0.034764
O O12 0.000000 0.084557 0.000000
O O13 0.500000 0.296001 0.500000
O O14 0.434382 0.322531 0.326119
O O15 0.437201 0.679198 0.154485
O O16 0.250000 0.250000 0.000000
O O17 0.000000 0.185625 0.000000
#
# Coordination Sequence:
#
# PCOD8108643 Si02
#       7
#     8   8   8   8   8   8   8
#     4  10  23  41  63  86 122 176 218 257 313 367
#     4  10  22  37  57  86 126 164 204 260 312 369
#     4  10  21  38  63  91 131 162 203 258 311 379
#     4   9  20  37  59  85 117 164 220 267 304 357
#     4  11  22  40  69 102 130 161 199 258 329 382
#     4  11  24  41  61  93 128 163 212 260 309 379
#     4  12  25  36  56  88 127 169 205 249 317 374
#
# _framework density 21.919779999999999
#
# number of rings (size 3 to 8) (size 9 to 14) (size 15 to 20)
#    0.000    1.571    2.857    1.286    8.000    0.571 
#    0.000    2.143    0.000    7.714    0.000    0.000 
#    0.000    0.000    0.000    0.000    0.000    0.000 
#
# Total GULP energy -346955.331722 kJ/mol
# GULP energy per Si atom -12391.261847 kJ/mol
# Density = 2.186989 g / cm^3
# Si number density = 21.919780 Si / 1000 Ang^3
#
#
#
# Elastic Constant Matrix: (Units=GPa)
#
#
# Indices 1 2 3 4 5 6 
#
# 1 115.8263 65.2139 37.7186 0.0000 16.5021 0.0000
# 2 65.2139 155.6000 43.0668 0.0000 18.9284 0.0000
# 3 37.7186 43.0668 84.6180 0.0000 4.6463 0.0000
# 4 0.0000 0.0000 0.0000 10.9393 0.0000 5.9000
# 5 16.5021 18.9284 4.6463 0.0000 31.5340 0.0000
# 6 0.0000 0.0000 0.0000 5.9000 0.0000 18.9572
#
#
#
# Elastic Compliance Matrix: (Units=1/GPa)
#
#
# Indices 1 2 3 4 5 6 
#
# 1 0.012412 -0.003813 -0.003388 0.000000 -0.003707 0.000000
# 2 -0.003813 0.009177 -0.002801 0.000000 -0.003100 0.000000
# 3 -0.003388 -0.002801 0.014683 0.000000 0.001291 0.000000
# 4 0.000000 0.000000 0.000000 0.109853 0.000000 -0.034189
# 5 -0.003707 -0.003100 0.001291 0.000000 0.035323 0.000000
# 6 0.000000 0.000000 0.000000 -0.034189 0.000000 0.063391
#
#
# Mechanical properties :
#
#
# Convention : Reuss Voigt Hill
#
# Bulk Modulus (GPa) = 61.47297 72.00476 66.73887
# Shear Modulus (GPa) = 18.50022 26.28910 22.39466
#
# Velocity S-wave (km/s) = 2.90831 3.46689 3.19982
# Velocity P-wave (km/s) = 6.27560 6.99617 6.64566
#
# Compressibility (1/GPa) = 0.01626731
#
# Stress axis : x y z
#
# Youngs Moduli (GPa) = 80.56556 108.96437 68.10691
#
# Poissons Ratio (x) = 0.41552 0.23077
# Poissons Ratio (y) = 0.30722 0.19075
# Poissons Ratio (z) = 0.27299 0.30519
#
# Static dielectric constant tensor:
#      x y z
#    x 4.008420 0.000000 0.068910 
#    y 0.000000 3.575850 0.000000 
#    z 0.068910 0.000000 3.740200 
# 
# 
# High freq. dielectric constant tensor:
#      x y z
#    x 1.869100 0.000000 0.009490 
#    y 0.000000 1.853480 0.000000 
#    z 0.009490 0.000000 1.838240 
# 
# From -- ./inp_files/198998.got.cif
#   From: 2010.06.25/outbox.cif.g09.slc.cpg/sg12_100_cif.got.tgz:198998.got - 2010.06.28 00:19:55.
