data_PCOD8108365
_publ_section_title
;
Structure prediction by ZEFSAII (Michael W. Deem and Ramdas Pophale) SiO2 
 PCOD8108365
Probable space group: C 2/M
;
_chemical_formula_sum "Si O2"
_cell_formula_units_Z 64
_cell_length_a 28.240012
_cell_length_b 8.922839
_cell_length_c 17.917316
_cell_angle_alpha 90.000000
_cell_angle_beta 136.836222
_cell_angle_gamma 90.000000
_cell_volume 3088.528874
_symmetry_space_group_name_H-M "C 2/M"
_symmetry_group_IT_number 12
_symmetry_cell_setting 'monoclinic'
loop_
_space_group_symop_operation_xyz
x,y,z
-x,y,-z
-x,-y,-z
x,-y,z
1/2+x,1/2+y,z
1/2-x,1/2+y,-z
1/2-x,1/2-y,-z
1/2+x,1/2-y,z
loop_
_atom_site_type_symbol
_atom_site_label
_atom_site_fract_x
_atom_site_fract_y
_atom_site_fract_z
Si Si1 0.683941 0.822370 0.463035
Si Si2 0.454322 0.668045 0.020295
Si Si3 0.453410 0.675107 0.737018
Si Si4 0.432039 0.329961 0.244946
Si Si5 0.299200 0.670674 0.999706
Si Si6 0.922260 0.674633 0.387123
Si Si7 0.685457 0.828740 0.133186
Si Si8 0.317600 0.326655 0.379830
O O1 0.750000 0.750000 0.500000
O O2 0.616127 0.771887 0.339811
O O3 0.674861 0.769514 0.537247
O O4 0.691478 0.000000 0.468834
O O5 0.428264 0.500000 0.010437
O O6 0.389013 0.770866 0.926867
O O7 0.500000 0.665945 0.000000
O O8 0.498687 0.732223 0.140128
O O9 0.435226 0.500000 0.726266
O O10 0.492451 0.703346 0.703019
O O11 0.427953 0.500000 0.270825
O O12 0.413620 0.218462 0.290632
O O13 0.378549 0.307366 0.115485
O O14 0.276729 0.500000 0.970763
O O15 0.285914 0.737837 0.903676
O O16 0.250000 0.750000 0.000000
O O17 0.905259 0.500000 0.377177
O O18 0.870458 0.769632 0.378055
O O19 0.000000 0.713767 0.500000
O O20 0.738912 0.807602 0.262137
O O21 0.679315 0.000000 0.101685
O O22 0.334645 0.500000 0.416777
#
# Coordination Sequence:
#
# PCOD8108365 Si02
#       8
#     8   8   8   8   8   8   8   8
#     4  12  27  46  69  97 128 167 213 265 322 379
#     4  10  22  41  67  98 129 169 215 260 319 386
#     4  10  21  42  67  96 131 169 213 264 319 381
#     4  10  21  38  61  88 124 166 208 254 312 377
#     4  11  22  38  59  89 126 167 213 257 311 377
#     4  11  24  40  61  93 127 163 214 267 321 380
#     4  11  24  41  63  94 131 169 213 265 319 377
#     4  11  25  45  66  94 130 170 217 264 320 384
#
# _framework density 20.721841000000001
#
# number of rings (size 3 to 8) (size 9 to 14) (size 15 to 20)
#    0.000    1.250    1.250    4.125    1.750   10.250 
#    0.000    0.000    0.000    0.000    0.000    0.000 
#    0.000    0.000    0.000    0.000    0.000    0.000 
#
# Total GULP energy -396988.021817 kJ/mol
# GULP energy per Si atom -12405.875682 kJ/mol
# Density = 2.067468 g / cm^3
# Si number density = 20.721841 Si / 1000 Ang^3
#
#
#
# Elastic Constant Matrix: (Units=GPa)
#
#
# Indices 1 2 3 4 5 6 
#
# 1 98.1208 41.1936 31.0819 0.0000 9.8009 0.0000
# 2 41.1936 126.0356 49.4801 0.0000 13.8136 0.0000
# 3 31.0819 49.4801 89.7053 0.0000 9.4543 0.0000
# 4 0.0000 0.0000 0.0000 35.6633 0.0000 0.3456
# 5 9.8009 13.8136 9.4543 0.0000 37.7324 0.0000
# 6 0.0000 0.0000 0.0000 0.3456 0.0000 33.8223
#
#
#
# Elastic Compliance Matrix: (Units=1/GPa)
#
#
# Indices 1 2 3 4 5 6 
#
# 1 0.012354 -0.002876 -0.002534 0.000000 -0.001521 0.000000
# 2 -0.002876 0.011008 -0.004857 0.000000 -0.002066 0.000000
# 3 -0.002534 -0.004857 0.014840 0.000000 -0.001282 0.000000
# 4 0.000000 0.000000 0.000000 0.028043 0.000000 -0.000287
# 5 -0.001521 -0.002066 -0.001282 0.000000 0.027975 0.000000
# 6 0.000000 0.000000 0.000000 -0.000287 0.000000 0.029569
#
#
# Mechanical properties :
#
#
# Convention : Reuss Voigt Hill
#
# Bulk Modulus (GPa) = 56.60386 61.93032 59.26709
# Shear Modulus (GPa) = 33.28644 34.25068 33.76856
#
# Velocity S-wave (km/s) = 4.01227 4.06997 4.04122
# Velocity P-wave (km/s) = 6.98855 7.21371 7.10202
#
# Compressibility (1/GPa) = 0.01766664
#
# Stress axis : x y z
#
# Youngs Moduli (GPa) = 80.94846 90.84544 67.38625
#
# Poissons Ratio (x) = 0.26130 0.17073
# Poissons Ratio (y) = 0.23283 0.32732
# Poissons Ratio (z) = 0.20509 0.44127
#
# Static dielectric constant tensor:
#      x y z
#    x 3.677750 0.000000 0.051240 
#    y 0.000000 3.827070 0.000000 
#    z 0.051240 0.000000 3.853350 
# 
# 
# High freq. dielectric constant tensor:
#      x y z
#    x 1.821080 0.000000 0.003420 
#    y 0.000000 1.811790 0.000000 
#    z 0.003420 0.000000 1.821040 
# 
# From -- ./inp_files/295774.got.cif
#   From: 2010.06.25/outbox.cif.g09.slc.cpg/sg12_148_cif.got.tgz:295774.got - 2010.06.28 00:19:55.
