data_PCOD8108681
_publ_section_title
;
Structure prediction by ZEFSAII (Michael W. Deem and Ramdas Pophale) SiO2 
 PCOD8108681
Probable space group: C 2/M
;
_chemical_formula_sum "Si O2"
_cell_formula_units_Z 64
_cell_length_a 18.797670
_cell_length_b 14.369096
_cell_length_c 25.326085
_cell_angle_alpha 90.000000
_cell_angle_beta 154.347512
_cell_angle_gamma 90.000000
_cell_volume 2961.425944
_symmetry_space_group_name_H-M "C 2/M"
_symmetry_group_IT_number 12
_symmetry_cell_setting 'monoclinic'
loop_
_space_group_symop_operation_xyz
x,y,z
-x,y,-z
-x,-y,-z
x,-y,z
1/2+x,1/2+y,z
1/2-x,1/2+y,-z
1/2-x,1/2-y,-z
1/2+x,1/2-y,z
loop_
_atom_site_type_symbol
_atom_site_label
_atom_site_fract_x
_atom_site_fract_y
_atom_site_fract_z
Si Si1 0.822816 0.392703 0.402926
Si Si2 0.652380 0.897050 0.064819
Si Si3 0.600436 0.392762 0.154249
Si Si4 0.160591 0.254002 0.496038
Si Si5 0.186255 0.722595 0.780275
Si Si6 0.718905 0.891650 0.902105
Si Si7 0.988449 0.389761 0.138050
Si Si8 0.829372 0.890850 0.411819
O O1 0.827266 0.500000 0.422848
O O2 0.689444 0.372824 0.268800
O O3 0.769561 0.334777 0.418972
O O4 0.000000 0.360204 0.500000
O O5 0.778590 0.827492 0.177106
O O6 0.734805 0.000000 0.111131
O O7 0.500000 0.912470 0.000000
O O8 0.587318 0.849991 0.966880
O O9 0.628493 0.500000 0.155017
O O10 0.662473 0.324617 0.149619
O O11 0.410778 0.370277 0.036821
O O12 0.250000 0.250000 0.500000
O O13 0.188139 0.155189 0.542620
O O14 0.968707 0.274718 0.361421
O O15 0.141775 0.660129 0.800701
O O16 0.624243 0.852881 0.889852
O O17 0.683394 0.000000 0.870705
O O18 0.982409 0.500000 0.129868
O O19 0.178327 0.358279 0.273139
O O20 0.000000 0.858130 0.500000
O O21 0.824873 0.000000 0.418773
#
# Coordination Sequence:
#
# PCOD8108681 Si02
#       8
#     8   8   8   8   8   8   8   8
#     4  10  21  42  69  92 121 170 217 260 315 373
#     4  10  23  40  60  86 118 159 208 256 305 361
#     4  10  21  39  66  96 124 157 206 256 309 379
#     4  12  27  41  60  95 133 167 208 262 316 375
#     4  12  24  38  60  91 125 167 203 251 309 373
#     4  10  21  38  63  95 128 156 193 254 321 381
#     4   9  20  41  65  89 120 159 205 258 314 369
#     4  10  23  43  69  92 119 168 220 263 306 363
#
# _framework density 21.61121
#
# number of rings (size 3 to 8) (size 9 to 14) (size 15 to 20)
#    0.000    1.625    1.250    2.625    1.750    5.000 
#    0.000    1.250    0.000    0.000    0.000    0.000 
#    0.000    0.000    0.000    0.000    0.000    0.000 
#
# Total GULP energy -396885.921118 kJ/mol
# GULP energy per Si atom -12402.685035 kJ/mol
# Density = 2.156202 g / cm^3
# Si number density = 21.611210 Si / 1000 Ang^3
#
#
#
# Elastic Constant Matrix: (Units=GPa)
#
#
# Indices 1 2 3 4 5 6 
#
# 1 126.6217 49.0698 25.0970 0.0139 -12.3782 -0.0059
# 2 49.0698 96.0059 35.2633 0.0019 -10.8500 0.0007
# 3 25.0970 35.2633 97.0540 -0.0193 -10.4457 0.0057
# 4 0.0139 0.0019 -0.0193 40.4045 0.0038 4.1331
# 5 -12.3782 -10.8500 -10.4457 0.0038 36.5684 -0.0007
# 6 -0.0059 0.0007 0.0057 4.1331 -0.0007 53.6357
#
#
#
# Elastic Compliance Matrix: (Units=1/GPa)
#
#
# Indices 1 2 3 4 5 6 
#
# 1 0.010019 -0.004658 -0.000704 -0.000004 0.001808 0.000002
# 2 -0.004658 0.014392 -0.003853 -0.000001 0.001593 0.000000
# 3 -0.000704 -0.003853 0.012109 0.000006 0.002077 -0.000002
# 4 -0.000004 -0.000001 0.000006 0.024946 -0.000002 -0.001922
# 5 0.001808 0.001593 0.002077 -0.000002 0.029024 0.000001
# 6 0.000002 0.000000 -0.000002 -0.001922 0.000001 0.018792
#
#
# Mechanical properties :
#
#
# Convention : Reuss Voigt Hill
#
# Bulk Modulus (GPa) = 55.27840 59.83799 57.55820
# Shear Modulus (GPa) = 37.38512 40.13847 38.76180
#
# Velocity S-wave (km/s) = 4.16371 4.31431 4.23968
# Velocity P-wave (km/s) = 6.98208 7.25026 7.11743
#
# Compressibility (1/GPa) = 0.01809025
#
# Stress axis : x y z
#
# Youngs Moduli (GPa) = 99.81137 69.48269 82.58223
#
# Poissons Ratio (x) = 0.32365 0.05812
# Poissons Ratio (y) = 0.46491 0.31821
# Poissons Ratio (z) = 0.07024 0.26773
#
# Static dielectric constant tensor:
#      x y z
#    x 3.890880 -0.000010 -0.125450 
#    y -0.000010 3.981800 -0.000020 
#    z -0.125450 -0.000020 4.020120 
# 
# 
# High freq. dielectric constant tensor:
#      x y z
#    x 1.845220 0.000000 -0.010690 
#    y 0.000000 1.855140 0.000000 
#    z -0.010690 0.000000 1.852690 
# 
# From -- ./inp_files/344078.got.cif
#   From: 2010.06.25/outbox.cif.g09.slc.cpg/sg12_173_cif.got.tgz:344078.got - 2010.06.28 00:19:55.
