data_PCOD8108940
_publ_section_title
;
Structure prediction by ZEFSAII (Michael W. Deem and Ramdas Pophale) SiO2 
 PCOD8108940
Probable space group: C 2/M
;
_chemical_formula_sum "Si O2"
_cell_formula_units_Z 56
_cell_length_a 19.514304
_cell_length_b 8.738145
_cell_length_c 24.163008
_cell_angle_alpha 90.000000
_cell_angle_beta 135.762620
_cell_angle_gamma 90.000000
_cell_volume 2874.419307
_symmetry_space_group_name_H-M "C 2/M"
_symmetry_group_IT_number 12
_symmetry_cell_setting 'monoclinic'
loop_
_space_group_symop_operation_xyz
x,y,z
-x,y,-z
-x,-y,-z
x,-y,z
1/2+x,1/2+y,z
1/2-x,1/2+y,-z
1/2-x,1/2-y,-z
1/2+x,1/2-y,z
loop_
_atom_site_type_symbol
_atom_site_label
_atom_site_fract_x
_atom_site_fract_y
_atom_site_fract_z
Si Si1 0.462428 0.678471 0.348955
Si Si2 0.939612 0.821661 0.018924
Si Si3 0.587453 0.832104 0.507536
Si Si4 0.949713 0.320403 0.224429
Si Si5 0.244125 0.820585 0.936357
Si Si6 0.929888 0.820991 0.800515
Si Si7 0.793752 0.679908 0.323176
O O1 0.458551 0.500000 0.333506
O O2 0.557393 0.713248 0.442404
O O3 0.479488 0.771852 0.303016
O O4 0.360595 0.727433 0.318822
O O5 0.001015 0.775489 0.108480
O O6 0.912340 0.000000 0.003738
O O7 0.840549 0.724383 0.958051
O O8 0.000000 0.776494 0.000000
O O9 0.500000 0.847008 0.500000
O O10 0.680778 0.776007 0.598016
O O11 0.607868 0.000000 0.492923
O O12 0.932604 0.500000 0.211478
O O13 0.849547 0.237379 0.150658
O O14 0.037066 0.273351 0.233796
O O15 0.235340 0.000000 0.937962
O O16 0.250000 0.750000 0.000000
O O17 0.818994 0.775798 0.752618
O O18 0.937320 0.000000 0.790937
O O19 0.813602 0.500000 0.324914
#
# Coordination Sequence:
#
# PCOD8108940 Si02
#       7
#     8   8   8   8   8   8   8
#     4  11  22  36  58  89 119 150 195 245 289 341
#     4  10  22  39  61  90 121 155 193 238 291 344
#     4   8  15  32  56  83 116 153 194 235 286 347
#     4  12  25  41  61  84 116 156 197 241 292 346
#     4  12  24  41  63  88 117 154 197 239 286 341
#     4  10  21  39  60  85 120 154 192 240 292 347
#     4   9  19  36  60  88 119 157 193 236 293 350
#
# _framework density 19.482196999999999
#
# number of rings (size 3 to 8) (size 9 to 14) (size 15 to 20)
#    0.000    1.714    1.429    4.714    2.000    3.429 
#    0.000    0.714    0.000    0.000    0.000    0.000 
#    0.000    0.000    0.000    0.000    0.000    0.000 
#
# Total GULP energy -347249.295290 kJ/mol
# GULP energy per Si atom -12401.760546 kJ/mol
# Density = 1.943785 g / cm^3
# Si number density = 19.482197 Si / 1000 Ang^3
#
#
#
# Elastic Constant Matrix: (Units=GPa)
#
#
# Indices 1 2 3 4 5 6 
#
# 1 82.8198 35.1994 16.5293 0.0000 -13.8062 0.0000
# 2 35.1994 98.0779 12.3550 0.0000 -5.9086 0.0000
# 3 16.5293 12.3550 44.9063 0.0000 -11.1597 0.0000
# 4 0.0000 0.0000 0.0000 28.2201 0.0000 -2.3098
# 5 -13.8062 -5.9086 -11.1597 0.0000 30.6303 0.0000
# 6 0.0000 0.0000 0.0000 -2.3098 0.0000 29.7243
#
#
#
# Elastic Compliance Matrix: (Units=1/GPa)
#
#
# Indices 1 2 3 4 5 6 
#
# 1 0.015616 -0.004908 -0.003171 0.000000 0.004937 0.000000
# 2 -0.004908 0.012137 -0.001650 0.000000 -0.000472 0.000000
# 3 -0.003171 -0.001650 0.025791 0.000000 0.007649 0.000000
# 4 0.000000 0.000000 0.000000 0.035663 0.000000 0.002771
# 5 0.004937 -0.000472 0.007649 0.000000 0.037568 0.000000
# 6 0.000000 0.000000 0.000000 0.002771 0.000000 0.033858
#
#
# Mechanical properties :
#
#
# Convention : Reuss Voigt Hill
#
# Bulk Modulus (GPa) = 29.33752 39.33018 34.33385
# Shear Modulus (GPa) = 26.11630 28.49628 27.30629
#
# Velocity S-wave (km/s) = 3.66529 3.82865 3.74786
# Velocity P-wave (km/s) = 5.74489 6.30685 6.03242
#
# Compressibility (1/GPa) = 0.03408605
#
# Stress axis : x y z
#
# Youngs Moduli (GPa) = 64.03666 82.39469 38.77385
#
# Poissons Ratio (x) = 0.40436 0.12295
# Poissons Ratio (y) = 0.31427 0.06398
# Poissons Ratio (z) = 0.20306 0.13596
#
# Static dielectric constant tensor:
#      x y z
#    x 3.460900 0.000000 0.100170 
#    y 0.000000 3.507390 0.000000 
#    z 0.100170 0.000000 4.256990 
# 
# 
# High freq. dielectric constant tensor:
#      x y z
#    x 1.745890 0.000000 -0.001800 
#    y 0.000000 1.753820 0.000000 
#    z -0.001800 0.000000 1.770880 
# 
# From -- ./inp_files/342611.got.cif
#   From: 2010.06.25/outbox.cif.g09.slc.cpg/sg12_172_cif.got.tgz:342611.got - 2010.06.28 00:19:55.
