data_PCOD8108057
_publ_section_title
;
Structure prediction by ZEFSAII (Michael W. Deem and Ramdas Pophale) SiO2 
 PCOD8108057
Probable space group: C 2/M
;
_chemical_formula_sum "Si O2"
_cell_formula_units_Z 64
_cell_length_a 14.564783
_cell_length_b 17.948908
_cell_length_c 23.423521
_cell_angle_alpha 90.000000
_cell_angle_beta 148.869559
_cell_angle_gamma 90.000000
_cell_volume 3165.737116
_symmetry_space_group_name_H-M "C 2/M"
_symmetry_group_IT_number 12
_symmetry_cell_setting 'monoclinic'
loop_
_space_group_symop_operation_xyz
x,y,z
-x,y,-z
-x,-y,-z
x,-y,z
1/2+x,1/2+y,z
1/2-x,1/2+y,-z
1/2-x,1/2-y,-z
1/2+x,1/2-y,z
loop_
_atom_site_type_symbol
_atom_site_label
_atom_site_fract_x
_atom_site_fract_y
_atom_site_fract_z
Si Si1 0.674651 0.214451 0.249300
Si Si2 0.003842 0.784951 0.654204
Si Si3 0.970003 0.088339 0.842408
Si Si4 0.064392 0.779345 0.970026
Si Si5 0.684879 0.866533 0.443147
Si Si6 0.424043 0.914769 0.400949
Si Si7 0.700742 0.416047 0.613989
Si Si8 0.586022 0.301924 0.821010
O O1 0.542174 0.219798 0.125089
O O2 0.692121 0.130357 0.281549
O O3 0.606069 0.266473 0.264431
O O4 0.869454 0.239682 0.330557
O O5 0.882811 0.855214 0.572951
O O6 0.889688 0.714325 0.612206
O O7 0.113428 0.811131 0.768179
O O8 0.036741 0.135863 0.932749
O O9 0.090298 0.115911 0.852696
O O10 0.766941 0.114834 0.722264
O O11 0.993168 0.000000 0.865695
O O12 0.268830 0.754291 0.075573
O O13 0.000000 0.775455 0.000000
O O14 0.566150 0.908728 0.426006
O O15 0.695277 0.914001 0.390898
O O16 0.500000 0.876040 0.500000
O O17 0.389796 0.000000 0.397997
O O18 0.500000 0.384664 0.500000
O O19 0.695533 0.500000 0.634078
#
# Coordination Sequence:
#
# PCOD8108057 Si02
#       8
#     8   8   8   8   8   8   8   8
#     4  11  21  40  60  87 121 158 209 251 303 368
#     4  11  22  34  61  89 118 158 209 250 297 362
#     4  10  22  40  63  93 126 161 203 252 315 376
#     4  11  23  41  68  90 121 159 208 267 314 364
#     4  11  21  36  57  94 121 157 206 251 301 359
#     4  10  21  38  59  88 128 164 195 245 312 373
#     4  11  23  40  60  86 126 166 203 249 303 365
#     4  11  22  41  64  90 122 165 205 258 311 361
#
# _framework density 20.216460000000001
#
# number of rings (size 3 to 8) (size 9 to 14) (size 15 to 20)
#    0.000    1.250    3.750    4.125    0.000    0.250 
#    0.000    3.750    0.000    0.750    0.000    0.000 
#    0.000    0.000    0.000    0.000    0.000    0.000 
#
# Total GULP energy -396642.117215 kJ/mol
# GULP energy per Si atom -12395.066163 kJ/mol
# Density = 2.017045 g / cm^3
# Si number density = 20.216460 Si / 1000 Ang^3
#
#
#
# Elastic Constant Matrix: (Units=GPa)
#
#
# Indices 1 2 3 4 5 6 
#
# 1 113.2052 30.2519 33.4966 0.0000 -3.2481 0.0000
# 2 30.2519 100.6774 48.7928 0.0006 -4.7543 0.0001
# 3 33.4966 48.7928 92.2363 0.0009 -3.8405 0.0001
# 4 0.0000 0.0006 0.0009 28.9765 0.0003 1.4596
# 5 -3.2481 -4.7543 -3.8405 0.0003 39.4357 0.0001
# 6 0.0000 0.0001 0.0001 1.4596 0.0001 26.9655
#
#
#
# Elastic Compliance Matrix: (Units=1/GPa)
#
#
# Indices 1 2 3 4 5 6 
#
# 1 0.010112 -0.001680 -0.002769 0.000000 0.000361 0.000000
# 2 -0.001680 0.013670 -0.006585 0.000000 0.000868 0.000000
# 3 -0.002769 -0.006585 0.015350 0.000000 0.000473 0.000000
# 4 0.000000 0.000000 0.000000 0.034605 0.000000 -0.001873
# 5 0.000361 0.000868 0.000473 0.000000 0.025538 0.000000
# 6 0.000000 0.000000 0.000000 -0.001873 0.000000 0.037186
#
#
# Mechanical properties :
#
#
# Convention : Reuss Voigt Hill
#
# Bulk Modulus (GPa) = 58.59870 59.02238 58.81054
# Shear Modulus (GPa) = 30.44753 31.98072 31.21412
#
# Velocity S-wave (km/s) = 3.88503 3.98164 3.93363
# Velocity P-wave (km/s) = 7.01236 7.09905 7.05584
#
# Compressibility (1/GPa) = 0.01706522
#
# Stress axis : x y z
#
# Youngs Moduli (GPa) = 98.89286 73.15341 65.14457
#
# Poissons Ratio (x) = 0.12287 0.18037
# Poissons Ratio (y) = 0.16610 0.42899
# Poissons Ratio (z) = 0.27381 0.48173
#
# Static dielectric constant tensor:
#      x y z
#    x 3.745210 0.000000 0.061120 
#    y 0.000000 3.427720 0.000000 
#    z 0.061120 0.000000 3.729690 
# 
# 
# High freq. dielectric constant tensor:
#      x y z
#    x 1.804150 0.000000 -0.000250 
#    y 0.000000 1.770000 0.000000 
#    z -0.000250 0.000000 1.782900 
# 
# From -- ./inp_files/340867.got.cif
#   From: 2010.06.25/outbox.cif.g09.slc.cpg/sg12_171_cif.got.tgz:340867.got - 2010.06.28 00:19:55.
