data_PCOD8108237
_publ_section_title
;
Structure prediction by ZEFSAII (Michael W. Deem and Ramdas Pophale) SiO2 
 PCOD8108237
Probable space group: C 2/M
;
_chemical_formula_sum "Si O2"
_cell_formula_units_Z 48
_cell_length_a 12.698371
_cell_length_b 18.611157
_cell_length_c 16.184883
_cell_angle_alpha 90.000000
_cell_angle_beta 36.932995
_cell_angle_gamma 90.000000
_cell_volume 2298.365854
_symmetry_space_group_name_H-M "C 2/M"
_symmetry_group_IT_number 12
_symmetry_cell_setting 'monoclinic'
loop_
_space_group_symop_operation_xyz
x,y,z
-x,y,-z
-x,-y,-z
x,-y,z
1/2+x,1/2+y,z
1/2-x,1/2+y,-z
1/2-x,1/2-y,-z
1/2+x,1/2-y,z
loop_
_atom_site_type_symbol
_atom_site_label
_atom_site_fract_x
_atom_site_fract_y
_atom_site_fract_z
Si Si1 0.017196 0.691647 0.581529
Si Si2 0.701141 0.292427 0.893713
Si Si3 0.680983 0.361611 0.182816
Si Si4 0.697773 0.918088 0.725087
Si Si5 0.699191 0.920001 0.055249
Si Si6 0.334842 0.651812 0.484107
O O1 0.146112 0.644852 0.558094
O O2 0.106786 0.769594 0.522916
O O3 0.000000 0.660491 0.500000
O O4 0.819469 0.688263 0.740133
O O5 0.783965 0.218223 0.876893
O O6 0.700924 0.358379 0.957535
O O7 0.500000 0.277597 0.000000
O O8 0.784504 0.369384 0.204413
O O9 0.476743 0.376855 0.329419
O O10 0.743374 0.418832 0.076557
O O11 0.506099 0.905181 0.808802
O O12 0.832752 0.895579 0.568552
O O13 0.732820 0.000000 0.728514
O O14 0.744265 0.000000 0.061083
#
# Coordination Sequence:
#
# PCOD8108237 Si02
#       6
#     8   8   8   8   8   8
#     4  10  21  38  63  90 123 158 205 255 306 358
#     4  11  23  40  65  90 122 161 207 259 302 363
#     4  11  23  37  63  97 121 158 208 255 309 369
#     4  11  22  40  63  90 130 165 200 252 316 375
#     4  11  24  41  60  88 127 166 205 253 309 366
#     4  10  21  38  60  92 125 158 200 256 305 362
#
# _framework density 20.884404
#
# number of rings (size 3 to 8) (size 9 to 14) (size 15 to 20)
#    0.000    1.333    1.667    5.000    2.333    3.667 
#    0.000    0.000    0.000    1.000    0.000    0.000 
#    0.000    0.000    0.000    0.000    0.000    0.000 
#
# Total GULP energy -297588.258255 kJ/mol
# GULP energy per Si atom -12399.510761 kJ/mol
# Density = 2.083687 g / cm^3
# Si number density = 20.884404 Si / 1000 Ang^3
#
#
#
# Elastic Constant Matrix: (Units=GPa)
#
#
# Indices 1 2 3 4 5 6 
#
# 1 62.0054 20.9937 37.2386 0.0024 8.9671 -0.0022
# 2 20.9937 78.3241 30.2407 -0.0127 5.3600 0.0023
# 3 37.2386 30.2407 133.3761 -0.0347 -3.8343 0.0069
# 4 0.0024 -0.0127 -0.0347 27.3286 0.0103 2.4701
# 5 8.9671 5.3600 -3.8343 0.0103 33.3890 0.0011
# 6 -0.0022 0.0023 0.0069 2.4701 0.0011 28.0531
#
#
#
# Elastic Compliance Matrix: (Units=1/GPa)
#
#
# Indices 1 2 3 4 5 6 
#
# 1 0.021294 -0.003232 -0.005380 -0.000008 -0.005818 0.000004
# 2 -0.003232 0.014715 -0.002485 0.000005 -0.001780 -0.000001
# 3 -0.005380 -0.002485 0.009648 0.000011 0.002952 -0.000004
# 4 -0.000008 0.000005 0.000011 0.036885 -0.000009 -0.003248
# 5 -0.005818 -0.001780 0.002952 -0.000009 0.032137 -0.000002
# 6 0.000004 -0.000001 -0.000004 -0.003248 -0.000002 0.035933
#
#
# Mechanical properties :
#
#
# Convention : Reuss Voigt Hill
#
# Bulk Modulus (GPa) = 42.62042 50.07240 46.34641
# Shear Modulus (GPa) = 27.68122 30.10297 28.89210
#
# Velocity S-wave (km/s) = 3.64462 3.80071 3.72348
# Velocity P-wave (km/s) = 6.17763 6.57940 6.38168
#
# Compressibility (1/GPa) = 0.02346293
#
# Stress axis : x y z
#
# Youngs Moduli (GPa) = 46.96082 67.95727 103.64927
#
# Poissons Ratio (x) = 0.21967 0.55761
# Poissons Ratio (y) = 0.15180 0.25757
# Poissons Ratio (z) = 0.25264 0.16888
#
# Static dielectric constant tensor:
#      x y z
#    x 3.568600 -0.000010 -0.079560 
#    y -0.000010 3.597720 0.000020 
#    z -0.079560 0.000020 3.906470 
# 
# 
# High freq. dielectric constant tensor:
#      x y z
#    x 1.800310 0.000000 -0.002960 
#    y 0.000000 1.798420 0.000000 
#    z -0.002960 0.000000 1.838900 
# 
# From -- ./inp_files/89426.got.cif
#   From: 2010.06.25/outbox.cif.g09.slc.cpg/sg12_45_cif.got.tgz:89426.got - 2010.06.28 00:19:55.
