data_PCOD8108584
_publ_section_title
;
Structure prediction by ZEFSAII (Michael W. Deem and Ramdas Pophale) SiO2 
 PCOD8108584
Probable space group: C 2/M
;
_chemical_formula_sum "Si O2"
_cell_formula_units_Z 64
_cell_length_a 17.767535
_cell_length_b 15.178101
_cell_length_c 23.660172
_cell_angle_alpha 90.000000
_cell_angle_beta 30.013199
_cell_angle_gamma 90.000000
_cell_volume 3191.580182
_symmetry_space_group_name_H-M "C 2/M"
_symmetry_group_IT_number 12
_symmetry_cell_setting 'monoclinic'
loop_
_space_group_symop_operation_xyz
x,y,z
-x,y,-z
-x,-y,-z
x,-y,z
1/2+x,1/2+y,z
1/2-x,1/2+y,-z
1/2-x,1/2-y,-z
1/2+x,1/2-y,z
loop_
_atom_site_type_symbol
_atom_site_label
_atom_site_fract_x
_atom_site_fract_y
_atom_site_fract_z
Si Si1 0.897608 0.801285 0.684849
Si Si2 0.780688 0.736615 0.309465
Si Si3 0.572930 0.138359 0.611312
Si Si4 0.696582 0.903572 0.134016
Si Si5 0.381548 0.182345 0.924942
Si Si6 0.844567 0.720621 0.069361
Si Si7 0.856911 0.596025 0.556669
Si Si8 0.829984 0.897659 0.528817
O O1 0.800264 0.756661 0.698457
O O2 0.783694 0.825324 0.809413
O O3 0.024933 0.736075 0.625199
O O4 0.993011 0.885690 0.602042
O O5 0.765454 0.827958 0.353910
O O6 0.706303 0.655057 0.390482
O O7 0.957701 0.727168 0.187964
O O8 0.444815 0.093416 0.732215
O O9 0.599605 0.084224 0.536920
O O10 0.727217 0.140412 0.545683
O O11 0.636635 0.896480 0.108122
O O12 0.804941 0.822244 0.079084
O O13 0.777018 0.000000 0.086811
O O14 0.250000 0.250000 0.000000
O O15 0.364587 0.156486 0.001976
O O16 0.000000 0.724936 0.000000
O O17 0.796862 0.500000 0.616268
O O18 0.000000 0.625391 0.500000
O O19 0.798217 0.000000 0.560461
#
# Coordination Sequence:
#
# PCOD8108584 Si02
#       8
#     8   8   8   8   8   8   8   8
#     4  11  23  40  65  92 127 170 205 262 320 382
#     4  12  22  41  64  90 131 168 211 260 321 377
#     4  11  21  39  59  91 128 164 203 253 315 381
#     4  10  21  38  62  93 123 160 210 261 311 373
#     4  10  22  40  63  89 121 165 213 255 307 375
#     4  10  21  40  65  91 119 165 212 256 320 380
#     4  11  22  36  57  91 133 170 204 249 316 389
#     4  12  25  40  65  98 128 165 215 267 318 377
#
# _framework density 20.052762000000001
#
# number of rings (size 3 to 8) (size 9 to 14) (size 15 to 20)
#    0.000    1.125    5.000    1.875    0.000    1.250 
#    0.000    3.125    0.000    0.750    0.000    0.000 
#    0.000    0.000    0.000    0.000    0.000    0.000 
#
# Total GULP energy -396663.316269 kJ/mol
# GULP energy per Si atom -12395.728633 kJ/mol
# Density = 2.000712 g / cm^3
# Si number density = 20.052762 Si / 1000 Ang^3
#
#
#
# Elastic Constant Matrix: (Units=GPa)
#
#
# Indices 1 2 3 4 5 6 
#
# 1 99.1845 15.2624 41.3648 0.0001 14.6152 0.0000
# 2 15.2624 73.5753 32.8845 0.0019 4.0081 -0.0006
# 3 41.3648 32.8845 124.9170 0.0039 7.7377 -0.0023
# 4 0.0001 0.0019 0.0039 8.5776 -0.0007 -5.8811
# 5 14.6152 4.0081 7.7377 -0.0007 40.9501 0.0001
# 6 0.0000 -0.0006 -0.0023 -5.8811 0.0001 27.3054
#
#
#
# Elastic Compliance Matrix: (Units=1/GPa)
#
#
# Indices 1 2 3 4 5 6 
#
# 1 0.012243 -0.000715 -0.003642 0.000001 -0.003611 0.000000
# 2 -0.000715 0.015469 -0.003802 -0.000002 -0.000540 0.000000
# 3 -0.003642 -0.003802 0.010228 -0.000004 -0.000261 0.000000
# 4 0.000001 -0.000002 -0.000004 0.136782 0.000003 0.029460
# 5 -0.003611 -0.000540 -0.000261 0.000003 0.025811 0.000000
# 6 0.000000 0.000000 0.000000 0.029460 0.000000 0.042968
#
#
# Mechanical properties :
#
#
# Convention : Reuss Voigt Hill
#
# Bulk Modulus (GPa) = 46.24943 52.96671 49.60807
# Shear Modulus (GPa) = 18.72471 29.24429 23.98450
#
# Velocity S-wave (km/s) = 3.05908 3.82300 3.46218
# Velocity P-wave (km/s) = 5.96584 6.77924 6.38551
#
# Compressibility (1/GPa) = 0.02162189
#
# Stress axis : x y z
#
# Youngs Moduli (GPa) = 81.67633 64.64743 97.76693
#
# Poissons Ratio (x) = 0.04623 0.35610
# Poissons Ratio (y) = 0.05841 0.37169
# Poissons Ratio (z) = 0.29749 0.24578
#
# Static dielectric constant tensor:
#      x y z
#    x 3.930240 -0.000010 0.177830 
#    y -0.000010 3.438890 -0.000010 
#    z 0.177830 -0.000010 3.664760 
# 
# 
# High freq. dielectric constant tensor:
#      x y z
#    x 1.799490 0.000000 0.009600 
#    y 0.000000 1.757730 0.000000 
#    z 0.009600 0.000000 1.784630 
# 
# From -- ./inp_files/344027.got.cif
#   From: 2010.06.25/outbox.cif.g09.slc.cpg/sg12_173_cif.got.tgz:344027.got - 2010.06.28 00:19:55.
