data_PCOD8108438
_publ_section_title
;
Structure prediction by ZEFSAII (Michael W. Deem and Ramdas Pophale) SiO2 
 PCOD8108438
Probable space group: C 2/M
;
_chemical_formula_sum "Si O2"
_cell_formula_units_Z 64
_cell_length_a 9.328051
_cell_length_b 27.181082
_cell_length_c 15.186182
_cell_angle_alpha 90.000000
_cell_angle_beta 126.217890
_cell_angle_gamma 90.000000
_cell_volume 3106.412673
_symmetry_space_group_name_H-M "C 2/M"
_symmetry_group_IT_number 12
_symmetry_cell_setting 'monoclinic'
loop_
_space_group_symop_operation_xyz
x,y,z
-x,y,-z
-x,-y,-z
x,-y,z
1/2+x,1/2+y,z
1/2-x,1/2+y,-z
1/2-x,1/2-y,-z
1/2+x,1/2-y,z
loop_
_atom_site_type_symbol
_atom_site_label
_atom_site_fract_x
_atom_site_fract_y
_atom_site_fract_z
Si Si1 0.539250 0.726291 0.761446
Si Si2 0.837129 0.943540 0.884631
Si Si3 0.845070 0.054816 0.682615
Si Si4 0.753567 0.841771 0.612184
Si Si5 0.440603 0.207892 0.879266
Si Si6 0.117619 0.056014 0.625769
Si Si7 0.019796 0.615297 0.220054
Si Si8 0.057529 0.311947 0.387388
O O1 0.444176 0.672874 0.723341
O O2 0.545615 0.751127 0.860181
O O3 0.733996 0.719951 0.793912
O O4 0.419538 0.760271 0.653641
O O5 0.891146 0.937850 0.801890
O O6 0.654239 0.918302 0.847877
O O7 0.810616 0.000000 0.900790
O O8 0.000000 0.920630 0.000000
O O9 0.714905 0.099639 0.608638
O O10 0.015917 0.060050 0.681836
O O11 0.759065 0.000000 0.637265
O O12 0.739227 0.827658 0.503203
O O13 0.605652 0.808935 0.604968
O O14 0.477374 0.151977 0.862597
O O15 0.500000 0.214328 0.000000
O O16 0.299866 0.084689 0.706131
O O17 0.000000 0.076538 0.500000
O O18 0.167986 0.000000 0.621831
O O19 0.998475 0.646719 0.298820
#
# Coordination Sequence:
#
# PCOD8108438 Si02
#       8
#     8   8   8   8   8   8   8   8
#     4  11  22  43  63  88 124 161 208 260 316 369
#     4  10  22  41  64  89 122 167 217 270 319 367
#     4  10  21  39  61  93 128 165 212 258 316 384
#     4  11  20  38  64  88 127 163 203 251 313 372
#     4  11  25  42  62  91 120 160 209 262 316 380
#     4  10  21  38  61  91 129 169 207 255 316 383
#     4  11  22  40  60  91 126 158 213 258 316 379
#     4  10  22  37  57  95 122 158 207 252 304 381
#
# _framework density 20.602543000000001
#
# number of rings (size 3 to 8) (size 9 to 14) (size 15 to 20)
#    0.000    1.500    2.500    2.625    0.000    2.000 
#    0.000    3.750    0.000    3.750    0.000    0.000 
#    0.000    0.000    0.000    0.000    0.000    0.000 
#
# Total GULP energy -396618.210373 kJ/mol
# GULP energy per Si atom -12394.319074 kJ/mol
# Density = 2.055565 g / cm^3
# Si number density = 20.602543 Si / 1000 Ang^3
#
#
#
# Elastic Constant Matrix: (Units=GPa)
#
#
# Indices 1 2 3 4 5 6 
#
# 1 94.2502 32.6543 37.2942 0.0000 1.1448 0.0000
# 2 32.6543 102.0010 48.6789 0.0000 -1.6676 0.0000
# 3 37.2942 48.6789 115.3572 0.0000 -9.8743 0.0000
# 4 0.0000 0.0000 0.0000 9.6925 0.0000 8.1449
# 5 1.1448 -1.6676 -9.8743 0.0000 32.4368 0.0000
# 6 0.0000 0.0000 0.0000 8.1449 0.0000 27.4996
#
#
#
# Elastic Compliance Matrix: (Units=1/GPa)
#
#
# Indices 1 2 3 4 5 6 
#
# 1 0.012785 -0.002608 -0.003166 0.000000 -0.001549 0.000000
# 2 -0.002608 0.012838 -0.004631 0.000000 -0.000658 0.000000
# 3 -0.003166 -0.004631 0.011947 0.000000 0.003510 0.000000
# 4 0.000000 0.000000 0.000000 0.137360 0.000000 -0.040684
# 5 -0.001549 -0.000658 0.003510 0.000000 0.031919 0.000000
# 6 0.000000 0.000000 0.000000 -0.040684 0.000000 0.048414
#
#
# Mechanical properties :
#
#
# Convention : Reuss Voigt Hill
#
# Bulk Modulus (GPa) = 59.65892 60.98478 60.32185
# Shear Modulus (GPa) = 17.75214 26.79117 22.27165
#
# Velocity S-wave (km/s) = 2.93857 3.60999 3.29145
# Velocity P-wave (km/s) = 6.36659 6.85864 6.61719
#
# Compressibility (1/GPa) = 0.01676195
#
# Stress axis : x y z
#
# Youngs Moduli (GPa) = 78.21755 77.89519 83.70545
#
# Poissons Ratio (x) = 0.20311 0.26497
# Poissons Ratio (y) = 0.20395 0.38761
# Poissons Ratio (z) = 0.24760 0.36070
#
# Static dielectric constant tensor:
#      x y z
#    x 3.659130 0.000000 -0.189730 
#    y 0.000000 4.030830 0.000000 
#    z -0.189730 0.000000 3.802440 
# 
# 
# High freq. dielectric constant tensor:
#      x y z
#    x 1.806470 0.000000 -0.012850 
#    y 0.000000 1.814780 0.000000 
#    z -0.012850 0.000000 1.799940 
# 
# From -- ./inp_files/201319.got.cif
#   From: 2010.06.25/outbox.cif.g09.slc.cpg/sg12_101_cif.got.tgz:201319.got - 2010.06.28 00:19:55.
