data_PCOD8108172
_publ_section_title
;
Structure prediction by ZEFSAII (Michael W. Deem and Ramdas Pophale) SiO2 
 PCOD8108172
Probable space group: C 2/M
;
_chemical_formula_sum "Si O2"
_cell_formula_units_Z 48
_cell_length_a 25.187256
_cell_length_b 8.410861
_cell_length_c 11.704384
_cell_angle_alpha 90.000000
_cell_angle_beta 90.387605
_cell_angle_gamma 90.000000
_cell_volume 2479.476155
_symmetry_space_group_name_H-M "C 2/M"
_symmetry_group_IT_number 12
_symmetry_cell_setting 'monoclinic'
loop_
_space_group_symop_operation_xyz
x,y,z
-x,y,-z
-x,-y,-z
x,-y,z
1/2+x,1/2+y,z
1/2-x,1/2+y,-z
1/2-x,1/2-y,-z
1/2+x,1/2-y,z
loop_
_atom_site_type_symbol
_atom_site_label
_atom_site_fract_x
_atom_site_fract_y
_atom_site_fract_z
Si Si1 0.103221 0.814331 0.263825
Si Si2 0.439025 0.184962 0.507989
Si Si3 0.403755 0.314924 0.274739
Si Si4 0.311669 0.183282 0.129027
Si Si5 0.198677 0.684505 0.129203
Si Si6 0.501300 0.689004 0.127023
O O1 0.091932 0.782725 0.396029
O O2 0.154971 0.720382 0.223882
O O3 0.053674 0.747981 0.190660
O O4 0.112513 0.000000 0.242911
O O5 0.500000 0.245523 0.500000
O O6 0.407166 0.216559 0.391404
O O7 0.437575 0.000000 0.539227
O O8 0.411551 0.500000 0.302767
O O9 0.347790 0.288965 0.212236
O O10 0.449908 0.248656 0.193115
O O11 0.250655 0.214446 0.160583
O O12 0.325433 0.000000 0.150225
O O13 0.322342 0.232997 0.997296
O O14 0.214235 0.500000 0.130887
O O15 0.501085 0.500000 0.123029
O O16 0.500000 0.761529 0.000000
#
# Coordination Sequence:
#
# PCOD8108172 Si02
#       6
#     8   8   8   8   8   8
#     4  11  21  36  59  85 116 152 196 241 287 343
#     4  11  23  39  58  81 116 157 197 240 290 344
#     4  11  21  36  59  85 116 152 196 241 287 343
#     4  10  21  38  60  87 119 155 194 237 289 346
#     4  10  21  38  60  87 119 155 194 237 289 346
#     4   9  18  31  51  82 116 147 182 229 284 341
#
# _framework density 19.358927999999999
#
# number of rings (size 3 to 8) (size 9 to 14) (size 15 to 20)
#    0.000    1.667    1.667    3.500    0.000    4.000 
#    0.000    0.833    0.000    4.000    0.000    0.000 
#    0.000    0.000    0.000    0.000    0.000    0.000 
#
# Total GULP energy -297742.770026 kJ/mol
# GULP energy per Si atom -12405.948751 kJ/mol
# Density = 1.931487 g / cm^3
# Si number density = 19.358928 Si / 1000 Ang^3
#
#
#
# Elastic Constant Matrix: (Units=GPa)
#
#
# Indices 1 2 3 4 5 6 
#
# 1 100.1998 10.9346 51.5030 0.0000 -7.6160 0.0000
# 2 10.9346 42.8256 9.2079 0.0000 1.2499 0.0000
# 3 51.5030 9.2079 124.9623 0.0000 -5.6365 0.0000
# 4 0.0000 0.0000 0.0000 24.8666 0.0000 0.5673
# 5 -7.6160 1.2499 -5.6365 0.0000 30.4546 0.0000
# 6 0.0000 0.0000 0.0000 0.5673 0.0000 27.1922
#
#
#
# Elastic Compliance Matrix: (Units=1/GPa)
#
#
# Indices 1 2 3 4 5 6 
#
# 1 0.013032 -0.002303 -0.005093 0.000000 0.002411 0.000000
# 2 -0.002303 0.024185 -0.000911 0.000000 -0.001737 0.000000
# 3 -0.005093 -0.000911 0.010198 0.000000 0.000651 0.000000
# 4 0.000000 0.000000 0.000000 0.040234 0.000000 -0.000839
# 5 0.002411 -0.001737 0.000651 0.000000 0.033631 0.000000
# 6 0.000000 0.000000 0.000000 -0.000839 0.000000 0.036793
#
#
# Mechanical properties :
#
#
# Convention : Reuss Voigt Hill
#
# Bulk Modulus (GPa) = 32.46609 45.69764 39.08187
# Shear Modulus (GPa) = 27.03378 29.59214 28.31296
#
# Velocity S-wave (km/s) = 3.74096 3.91398 3.82845
# Velocity P-wave (km/s) = 5.95540 6.63945 6.30671
#
# Compressibility (1/GPa) = 0.03080137
#
# Stress axis : x y z
#
# Youngs Moduli (GPa) = 76.73208 41.34767 98.05908
#
# Poissons Ratio (x) = 0.09522 0.49940
# Poissons Ratio (y) = 0.17671 0.08936
# Poissons Ratio (z) = 0.39078 0.03768
#
# Static dielectric constant tensor:
#      x y z
#    x 3.431960 0.000000 -0.020360 
#    y 0.000000 3.322770 0.000000 
#    z -0.020360 0.000000 3.515180 
# 
# 
# High freq. dielectric constant tensor:
#      x y z
#    x 1.751040 0.000000 -0.001020 
#    y 0.000000 1.747380 0.000000 
#    z -0.001020 0.000000 1.753510 
# 
# From -- ./inp_files/172250.got.cif
#   From: 2010.06.25/outbox.cif.g09.slc.cpg/sg12_87_cif.got.tgz:172250.got - 2010.06.28 00:19:55.
