data_PCOD8108306
_publ_section_title
;
Structure prediction by ZEFSAII (Michael W. Deem and Ramdas Pophale) SiO2 
 PCOD8108306
Probable space group: C 2/M
;
_chemical_formula_sum "Si O2"
_cell_formula_units_Z 56
_cell_length_a 5.189254
_cell_length_b 23.047743
_cell_length_c 24.126964
_cell_angle_alpha 90.000000
_cell_angle_beta 84.776186
_cell_angle_gamma 90.000000
_cell_volume 2873.614267
_symmetry_space_group_name_H-M "C 2/M"
_symmetry_group_IT_number 12
_symmetry_cell_setting 'monoclinic'
loop_
_space_group_symop_operation_xyz
x,y,z
-x,y,-z
-x,-y,-z
x,-y,z
1/2+x,1/2+y,z
1/2-x,1/2+y,-z
1/2-x,1/2-y,-z
1/2+x,1/2-y,z
loop_
_atom_site_type_symbol
_atom_site_label
_atom_site_fract_x
_atom_site_fract_y
_atom_site_fract_z
Si Si1 0.909349 0.285665 0.258173
Si Si2 0.476911 0.787127 0.064512
Si Si3 0.260349 0.815339 0.475679
Si Si4 0.400721 0.869690 0.160982
Si Si5 0.382479 0.568186 0.202656
Si Si6 0.338104 0.431735 0.332011
Si Si7 0.825033 0.367393 0.359730
O O1 0.699043 0.234634 0.266941
O O2 0.901812 0.311185 0.196994
O O3 0.829317 0.335331 0.301697
O O4 0.729317 0.753185 0.080494
O O5 0.450530 0.848032 0.097546
O O6 0.500000 0.804456 0.000000
O O7 0.500000 0.848029 0.500000
O O8 0.250000 0.750000 0.500000
O O9 0.288634 0.819351 0.408827
O O10 0.000000 0.847969 0.500000
O O11 0.621475 0.913935 0.176326
O O12 0.124670 0.900787 0.169487
O O13 0.421363 0.500000 0.196008
O O14 0.362257 0.586870 0.267235
O O15 0.308463 0.500000 0.337926
O O16 0.586423 0.411851 0.362239
O O17 0.087327 0.402711 0.364381
#
# Coordination Sequence:
#
# PCOD8108306 Si02
#       7
#     8   8   8   8   8   8   8
#     4  12  24  34  54  87 125 156 182 237 302 357
#     4  10  21  38  61  87 119 166 212 250 293 353
#     4  10  23  40  59  84 115 158 197 228 283 355
#     4  12  21  39  57  87 124 158 200 245 310 355
#     4  11  22  38  60  88 122 158 200 248 306 367
#     4  11  22  41  64  92 119 155 204 249 301 357
#     4  12  23  40  64  88 124 156 194 247 295 354
#
# _framework density 19.487655
#
# number of rings (size 3 to 8) (size 9 to 14) (size 15 to 20)
#    0.000    0.857    2.857    5.143    4.000    2.286 
#    0.000    0.000    0.000   11.143    0.000    0.000 
#    0.000    0.000    0.000    0.000    0.000    0.000 
#
# Total GULP energy -347273.322948 kJ/mol
# GULP energy per Si atom -12402.618677 kJ/mol
# Density = 1.944330 g / cm^3
# Si number density = 19.487655 Si / 1000 Ang^3
#
#
#
# Elastic Constant Matrix: (Units=GPa)
#
#
# Indices 1 2 3 4 5 6 
#
# 1 137.0690 25.3877 31.0490 0.0000 -19.9812 0.0000
# 2 25.3877 72.6427 39.2609 0.0000 -10.3005 0.0000
# 3 31.0490 39.2609 92.9936 0.0000 -7.2552 0.0000
# 4 0.0000 0.0000 0.0000 28.8663 0.0000 0.3050
# 5 -19.9812 -10.3005 -7.2552 0.0000 21.1128 0.0000
# 6 0.0000 0.0000 0.0000 0.3050 0.0000 32.2792
#
#
#
# Elastic Compliance Matrix: (Units=1/GPa)
#
#
# Indices 1 2 3 4 5 6 
#
# 1 0.009009 -0.001026 -0.002002 0.000000 0.007337 0.000000
# 2 -0.001026 0.018802 -0.007147 0.000000 0.005746 0.000000
# 3 -0.002002 -0.007147 0.014406 0.000000 -0.000432 0.000000
# 4 0.000000 0.000000 0.000000 0.034646 0.000000 -0.000327
# 5 0.007337 0.005746 -0.000432 0.000000 0.056964 0.000000
# 6 0.000000 0.000000 0.000000 -0.000327 0.000000 0.030983
#
#
# Mechanical properties :
#
#
# Convention : Reuss Voigt Hill
#
# Bulk Modulus (GPa) = 45.73334 54.90006 50.31670
# Shear Modulus (GPa) = 25.98093 30.25217 28.11655
#
# Velocity S-wave (km/s) = 3.65526 3.94429 3.80253
# Velocity P-wave (km/s) = 6.42910 6.99830 6.71973
#
# Compressibility (1/GPa) = 0.02186589
#
# Stress axis : x y z
#
# Youngs Moduli (GPa) = 111.00291 53.18538 69.41655
#
# Poissons Ratio (x) = 0.05456 0.13899
# Poissons Ratio (y) = 0.11387 0.49614
# Poissons Ratio (z) = 0.22226 0.38013
#
# Static dielectric constant tensor:
#      x y z
#    x 5.145000 0.000000 -0.075690 
#    y 0.000000 3.327870 0.000000 
#    z -0.075690 0.000000 3.493160 
# 
# 
# High freq. dielectric constant tensor:
#      x y z
#    x 1.790320 0.000000 -0.004400 
#    y 0.000000 1.741520 0.000000 
#    z -0.004400 0.000000 1.747560 
# 
# From -- ./inp_files/331180.got.cif
#   From: 2010.06.25/outbox.cif.g09.slc.cpg/sg12_166_cif.got.tgz:331180.got - 2010.06.28 00:19:55.
