data_PCOD8108894
_publ_section_title
;
Structure prediction by ZEFSAII (Michael W. Deem and Ramdas Pophale) SiO2 
 PCOD8108894
Probable space group: C 2/M
;
_chemical_formula_sum "Si O2"
_cell_formula_units_Z 56
_cell_length_a 20.198818
_cell_length_b 17.600707
_cell_length_c 9.210412
_cell_angle_alpha 90.000000
_cell_angle_beta 55.176691
_cell_angle_gamma 90.000000
_cell_volume 2688.031521
_symmetry_space_group_name_H-M "C 2/M"
_symmetry_group_IT_number 12
_symmetry_cell_setting 'monoclinic'
loop_
_space_group_symop_operation_xyz
x,y,z
-x,y,-z
-x,-y,-z
x,-y,z
1/2+x,1/2+y,z
1/2-x,1/2+y,-z
1/2-x,1/2-y,-z
1/2+x,1/2-y,z
loop_
_atom_site_type_symbol
_atom_site_label
_atom_site_fract_x
_atom_site_fract_y
_atom_site_fract_z
Si Si1 0.924242 0.774208 0.205382
Si Si2 0.624101 0.917296 0.051133
Si Si3 0.183269 0.086740 0.685736
Si Si4 0.715544 0.155609 0.679167
Si Si5 0.020616 0.702130 0.327538
Si Si6 0.254160 0.367895 0.090261
Si Si7 0.167446 0.211571 0.251454
O O1 0.895941 0.861873 0.244330
O O2 0.845281 0.726320 0.259195
O O3 0.948617 0.746219 0.336505
O O4 0.000000 0.764739 0.000000
O O5 0.557928 0.851776 0.157344
O O6 0.681090 0.918545 0.120930
O O7 0.582507 0.000000 0.088996
O O8 0.673820 0.902375 0.842576
O O9 0.263596 0.114473 0.498173
O O10 0.205224 0.089522 0.827442
O O11 0.162309 0.000000 0.669229
O O12 0.804628 0.180804 0.625727
O O13 0.075959 0.765667 0.336783
O O14 0.000000 0.653125 0.500000
O O15 0.225002 0.283803 0.162868
O O16 0.318534 0.355909 0.881672
#
# Coordination Sequence:
#
# PCOD8108894 Si02
#       7
#     8   8   8   8   8   8   8
#     4  12  24  43  65  94 128 169 212 262 318 382
#     4  10  21  39  59  87 128 163 202 256 319 380
#     4  12  25  39  64  99 131 164 210 273 324 365
#     4  11  22  41  67  91 123 169 221 259 307 379
#     4  11  23  37  60  91 125 167 215 256 314 378
#     4   9  18  34  61  89 117 154 208 259 307 359
#     4   9  18  38  63  88 114 166 220 259 289 374
#
# _framework density 20.833089000000001
#
# number of rings (size 3 to 8) (size 9 to 14) (size 15 to 20)
#    0.000    1.429    2.857    3.857    4.000    0.571 
#    0.000    2.143    0.000    4.714    0.000    0.000 
#    0.000    0.000    0.000    0.000    0.000    0.000 
#
# Total GULP energy -346908.351525 kJ/mol
# GULP energy per Si atom -12389.583983 kJ/mol
# Density = 2.078567 g / cm^3
# Si number density = 20.833089 Si / 1000 Ang^3
#
#
#
# Elastic Constant Matrix: (Units=GPa)
#
#
# Indices 1 2 3 4 5 6 
#
# 1 105.2903 38.1494 33.2300 0.0000 6.9567 0.0000
# 2 38.1494 116.1111 32.5343 0.0000 0.6974 0.0000
# 3 33.2300 32.5343 66.4794 0.0000 8.2403 0.0000
# 4 0.0000 0.0000 0.0000 13.0152 0.0000 4.3656
# 5 6.9567 0.6974 8.2403 0.0000 29.3706 0.0000
# 6 0.0000 0.0000 0.0000 4.3656 0.0000 13.4827
#
#
#
# Elastic Compliance Matrix: (Units=1/GPa)
#
#
# Indices 1 2 3 4 5 6 
#
# 1 0.011983 -0.002668 -0.004497 0.000000 -0.001513 0.000000
# 2 -0.002668 0.010614 -0.004049 0.000000 0.001516 0.000000
# 3 -0.004497 -0.004049 0.019817 0.000000 -0.004399 0.000000
# 4 0.000000 0.000000 0.000000 0.086195 0.000000 -0.027909
# 5 -0.001513 0.001516 -0.004399 0.000000 0.035604 0.000000
# 6 0.000000 0.000000 0.000000 -0.027909 0.000000 0.083206
#
#
# Mechanical properties :
#
#
# Convention : Reuss Voigt Hill
#
# Bulk Modulus (GPa) = 50.03183 55.07869 52.55526
# Shear Modulus (GPa) = 18.08259 23.43817 20.76038
#
# Velocity S-wave (km/s) = 2.94934 3.35781 3.16018
# Velocity P-wave (km/s) = 5.97209 6.44427 6.21267
#
# Compressibility (1/GPa) = 0.01998727
#
# Stress axis : x y z
#
# Youngs Moduli (GPa) = 83.44841 94.21088 50.46291
#
# Poissons Ratio (x) = 0.25138 0.22691
# Poissons Ratio (y) = 0.22266 0.20431
# Poissons Ratio (z) = 0.37523 0.38144
#
# Static dielectric constant tensor:
#      x y z
#    x 3.701220 0.000000 0.134800 
#    y 0.000000 3.641120 0.000000 
#    z 0.134800 0.000000 4.072550 
# 
# 
# High freq. dielectric constant tensor:
#      x y z
#    x 1.808290 0.000000 0.015460 
#    y 0.000000 1.791220 0.000000 
#    z 0.015460 0.000000 1.828520 
# 
# From -- ./inp_files/87843.got.cif
#   From: 2010.06.25/outbox.cif.g09.slc.cpg/sg12_44_cif.got.tgz:87843.got - 2010.06.28 00:19:55.
