data_PCOD8108008
_publ_section_title
;
Structure prediction by ZEFSAII (Michael W. Deem and Ramdas Pophale) SiO2 
 PCOD8108008
Probable space group: C 2/M
;
_chemical_formula_sum "Si O2"
_cell_formula_units_Z 44
_cell_length_a 20.921649
_cell_length_b 16.993731
_cell_length_c 6.461500
_cell_angle_alpha 90.000000
_cell_angle_beta 84.683028
_cell_angle_gamma 90.000000
_cell_volume 2287.416903
_symmetry_space_group_name_H-M "C 2/M"
_symmetry_group_IT_number 12
_symmetry_cell_setting 'monoclinic'
loop_
_space_group_symop_operation_xyz
x,y,z
-x,y,-z
-x,-y,-z
x,-y,z
1/2+x,1/2+y,z
1/2-x,1/2+y,-z
1/2-x,1/2-y,-z
1/2+x,1/2-y,z
loop_
_atom_site_type_symbol
_atom_site_label
_atom_site_fract_x
_atom_site_fract_y
_atom_site_fract_z
Si Si1 0.390149 0.693163 0.824374
Si Si2 0.000000 0.771218 0.500000
Si Si3 0.716223 0.589696 0.001692
Si Si4 0.328605 0.089011 0.288247
Si Si5 0.059548 0.693641 0.864212
Si Si6 0.213801 0.694437 0.349061
O O1 0.447505 0.676713 0.641563
O O2 0.338190 0.755956 0.759809
O O3 0.354531 0.611870 0.891961
O O4 0.421538 0.726309 0.023640
O O5 0.959274 0.714609 0.363512
O O6 0.715168 0.500000 0.915961
O O7 0.735718 0.652324 0.819490
O O8 0.762924 0.596905 0.182607
O O9 0.383140 0.132093 0.141420
O O10 0.322202 0.125974 0.516673
O O11 0.350062 0.000000 0.313471
O O12 0.000000 0.653208 0.000000
O O13 0.250000 0.750000 0.500000
#
# Coordination Sequence:
#
# PCOD8108008 Si02
#       6
#     8   4   8   8   8   8
#     4  11  21  38  63  85 116 157 198 247 291 345
#     4  10  22  38  62  88 112 150 216 254 274 342
#     4  11  24  39  58  93 126 152 189 246 303 353
#     4  11  22  37  57  88 125 158 191 239 303 358
#     4  10  21  38  59  85 115 157 208 244 287 342
#     4  12  21  36  62  89 117 155 200 237 293 352
#
# _framework density 19.235669999999999
#
# number of rings (size 3 to 8) (size 9 to 14) (size 15 to 20)
#    0.000    1.091    5.455    2.182    0.000    0.364 
#    0.000    0.909    0.000    4.909    0.000    0.000 
#    0.000    0.000    0.000    0.000    0.000    0.000 
#
# Total GULP energy -272813.663035 kJ/mol
# GULP energy per Si atom -12400.621047 kJ/mol
# Density = 1.919189 g / cm^3
# Si number density = 19.235670 Si / 1000 Ang^3
#
#
#
# Elastic Constant Matrix: (Units=GPa)
#
#
# Indices 1 2 3 4 5 6 
#
# 1 100.3974 38.8955 33.7186 0.0000 -20.0172 0.0000
# 2 38.8955 77.0953 35.5144 0.0000 -10.9693 0.0000
# 3 33.7186 35.5144 92.4313 0.0000 -6.2736 0.0000
# 4 0.0000 0.0000 0.0000 25.0332 0.0000 4.8375
# 5 -20.0172 -10.9693 -6.2736 0.0000 45.5060 0.0000
# 6 0.0000 0.0000 0.0000 4.8375 0.0000 12.9539
#
#
#
# Elastic Compliance Matrix: (Units=1/GPa)
#
#
# Indices 1 2 3 4 5 6 
#
# 1 0.013721 -0.005010 -0.002779 0.000000 0.004445 0.000000
# 2 -0.005010 0.018004 -0.004992 0.000000 0.001448 0.000000
# 3 -0.002779 -0.004992 0.013714 0.000000 -0.000535 0.000000
# 4 0.000000 0.000000 0.000000 0.043054 0.000000 -0.016078
# 5 0.004445 0.001448 -0.000535 0.000000 0.024206 0.000000
# 6 0.000000 0.000000 0.000000 -0.016078 0.000000 0.083201
#
#
# Mechanical properties :
#
#
# Convention : Reuss Voigt Hill
#
# Bulk Modulus (GPa) = 50.30600 54.02011 52.16306
# Shear Modulus (GPa) = 21.92158 27.48499 24.70329
#
# Velocity S-wave (km/s) = 3.37951 3.78412 3.58752
# Velocity P-wave (km/s) = 6.43718 6.87292 6.65862
#
# Compressibility (1/GPa) = 0.01987834
#
# Stress axis : x y z
#
# Youngs Moduli (GPa) = 72.88245 55.54327 72.91747
#
# Poissons Ratio (x) = 0.27826 0.20261
# Poissons Ratio (y) = 0.36513 0.36398
# Poissons Ratio (z) = 0.20252 0.27726
#
# Static dielectric constant tensor:
#      x y z
#    x 3.746600 0.000000 -0.077820 
#    y 0.000000 3.401260 0.000000 
#    z -0.077820 0.000000 3.736640 
# 
# 
# High freq. dielectric constant tensor:
#      x y z
#    x 1.758320 0.000000 -0.003930 
#    y 0.000000 1.720580 0.000000 
#    z -0.003930 0.000000 1.762670 
# 
# From -- ./inp_files/20432.got.cif
#   From: 2010.06.25/outbox.cif.g09.slc.cpg/sg12_11_cif.got.tgz:20432.got - 2010.06.28 00:19:55.
