data_PCOD8108615
_publ_section_title
;
Structure prediction by ZEFSAII (Michael W. Deem and Ramdas Pophale) SiO2 
 PCOD8108615
Probable space group: C 2/M
;
_chemical_formula_sum "Si O2"
_cell_formula_units_Z 40
_cell_length_a 22.714484
_cell_length_b 12.767153
_cell_length_c 9.267605
_cell_angle_alpha 90.000000
_cell_angle_beta 50.174412
_cell_angle_gamma 90.000000
_cell_volume 2064.069439
_symmetry_space_group_name_H-M "C 2/M"
_symmetry_group_IT_number 12
_symmetry_cell_setting 'monoclinic'
loop_
_space_group_symop_operation_xyz
x,y,z
-x,y,-z
-x,-y,-z
x,-y,z
1/2+x,1/2+y,z
1/2-x,1/2+y,-z
1/2-x,1/2-y,-z
1/2+x,1/2-y,z
loop_
_atom_site_type_symbol
_atom_site_label
_atom_site_fract_x
_atom_site_fract_y
_atom_site_fract_z
Si Si1 0.033335 0.119765 0.789868
Si Si2 0.810091 0.232348 0.533251
Si Si3 0.936310 0.194262 0.699824
Si Si4 0.354960 0.123026 0.701184
Si Si5 0.774564 0.119190 0.875353
O O1 0.117839 0.168939 0.643275
O O2 0.970181 0.189789 0.806450
O O3 0.037343 0.000000 0.727256
O O4 0.000000 0.123047 0.000000
O O5 0.750000 0.250000 0.500000
O O6 0.839055 0.341625 0.560187
O O7 0.767531 0.171016 0.729035
O O8 0.926292 0.313723 0.657275
O O9 0.859146 0.128036 0.808230
O O10 0.000000 0.138588 0.500000
O O11 0.370934 0.000000 0.679861
O O12 0.284507 0.163555 0.912286
O O13 0.751734 0.000000 0.888245
#
# Coordination Sequence:
#
# PCOD8108615 Si02
#       5
#     8   8   8   8   8
#     4  11  25  40  60  90 121 154 193 245 308 356
#     4  11  23  39  60  87 125 158 195 245 297 358
#     4  11  20  38  63  88 116 152 194 253 294 345
#     4  10  23  41  62  88 118 163 205 240 290 355
#     4  10  21  38  63  89 116 154 202 246 295 351
#
# _framework density 19.379192
#
# number of rings (size 3 to 8) (size 9 to 14) (size 15 to 20)
#    0.000    1.400    4.000    3.600    5.600    2.800 
#    0.000    0.000    0.000    1.200    0.000    0.000 
#    0.000    0.000    0.000    0.000    0.000    0.000 
#
# Total GULP energy -247873.924675 kJ/mol
# GULP energy per Si atom -12393.696234 kJ/mol
# Density = 1.933508 g / cm^3
# Si number density = 19.379192 Si / 1000 Ang^3
#
#
#
# Elastic Constant Matrix: (Units=GPa)
#
#
# Indices 1 2 3 4 5 6 
#
# 1 174.0252 57.2687 45.7690 0.0000 11.5459 0.0000
# 2 57.2687 83.9829 32.6663 0.0000 10.2391 0.0000
# 3 45.7690 32.6663 108.8787 0.0000 -1.0465 0.0000
# 4 0.0000 0.0000 0.0000 14.9732 0.0000 -1.6979
# 5 11.5459 10.2391 -1.0465 0.0000 26.2930 0.0000
# 6 0.0000 0.0000 0.0000 -1.6979 0.0000 21.7457
#
#
#
# Elastic Compliance Matrix: (Units=1/GPa)
#
#
# Indices 1 2 3 4 5 6 
#
# 1 0.007820 -0.004329 -0.002006 0.000000 -0.001828 0.000000
# 2 -0.004329 0.016694 -0.003234 0.000000 -0.004729 0.000000
# 3 -0.002006 -0.003234 0.011023 0.000000 0.002579 0.000000
# 4 0.000000 0.000000 0.000000 0.067383 0.000000 0.005261
# 5 -0.001828 -0.004729 0.002579 0.000000 0.040780 0.000000
# 6 0.000000 0.000000 0.000000 0.005261 0.000000 0.046397
#
#
# Mechanical properties :
#
#
# Convention : Reuss Voigt Hill
#
# Bulk Modulus (GPa) = 60.98345 70.92163 65.95254
# Shear Modulus (GPa) = 23.28827 28.01456 25.65142
#
# Velocity S-wave (km/s) = 3.47034 3.80623 3.64216
# Velocity P-wave (km/s) = 6.89888 7.48283 7.19678
#
# Compressibility (1/GPa) = 0.01639789
#
# Stress axis : x y z
#
# Youngs Moduli (GPa) = 127.88021 59.90221 90.72085
#
# Poissons Ratio (x) = 0.25934 0.18197
# Poissons Ratio (y) = 0.55364 0.29340
# Poissons Ratio (z) = 0.25651 0.19373
#
# Static dielectric constant tensor:
#      x y z
#    x 3.623050 0.000000 -0.089840 
#    y 0.000000 3.585100 0.000000 
#    z -0.089840 0.000000 3.774590 
# 
# 
# High freq. dielectric constant tensor:
#      x y z
#    x 1.746810 0.000000 -0.004240 
#    y 0.000000 1.757290 0.000000 
#    z -0.004240 0.000000 1.769650 
# 
# From -- ./inp_files/72336.got.cif
#   From: 2010.06.25/outbox.cif.g09.slc.cpg/sg12_37_cif.got.tgz:72336.got - 2010.06.28 00:19:55.
