data_PCOD8108903
_publ_section_title
;
Structure prediction by ZEFSAII (Michael W. Deem and Ramdas Pophale) SiO2 
 PCOD8108903
Probable space group: C 2/M
;
_chemical_formula_sum "Si O2"
_cell_formula_units_Z 56
_cell_length_a 27.933410
_cell_length_b 8.647911
_cell_length_c 17.464150
_cell_angle_alpha 90.000000
_cell_angle_beta 44.214652
_cell_angle_gamma 90.000000
_cell_volume 2941.930690
_symmetry_space_group_name_H-M "C 2/M"
_symmetry_group_IT_number 12
_symmetry_cell_setting 'monoclinic'
loop_
_space_group_symop_operation_xyz
x,y,z
-x,y,-z
-x,-y,-z
x,-y,z
1/2+x,1/2+y,z
1/2-x,1/2+y,-z
1/2-x,1/2-y,-z
1/2+x,1/2-y,z
loop_
_atom_site_type_symbol
_atom_site_label
_atom_site_fract_x
_atom_site_fract_y
_atom_site_fract_z
Si Si1 0.320341 0.819278 0.389358
Si Si2 0.563506 0.183576 0.631839
Si Si3 0.410938 0.182310 0.836911
Si Si4 0.201076 0.175927 0.740992
Si Si5 0.182375 0.181289 0.933107
Si Si6 0.855881 0.678664 0.605938
Si Si7 0.827481 0.180128 0.795667
O O1 0.250000 0.750000 0.500000
O O2 0.384208 0.749937 0.364315
O O3 0.331954 0.782259 0.286597
O O4 0.316313 0.000000 0.407071
O O5 0.487474 0.247131 0.734757
O O6 0.586970 0.235829 0.519893
O O7 0.563945 0.000000 0.634471
O O8 0.364360 0.220627 0.817966
O O9 0.410410 0.000000 0.852269
O O10 0.383917 0.268885 0.943346
O O11 0.168284 0.221490 0.860359
O O12 0.282625 0.201967 0.649699
O O13 0.183958 0.000000 0.739475
O O14 0.247636 0.275743 0.888588
O O15 0.198631 0.000000 0.923601
O O16 0.865720 0.500000 0.618629
O O17 0.862275 0.781888 0.674367
O O18 0.835582 0.000000 0.804924
#
# Coordination Sequence:
#
# PCOD8108903 Si02
#       7
#     8   8   8   8   8   8   8
#     4  11  20  34  57  85 113 143 181 224 271 323
#     4   9  20  37  56  79 112 150 185 222 270 332
#     4  11  22  38  58  79 107 148 191 227 271 324
#     4   9  18  34  57  83 110 141 180 227 275 320
#     4  10  21  39  60  81 110 145 184 229 274 323
#     4   9  17  35  57  79 111 147 185 224 270 326
#     4  11  22  36  56  84 113 141 183 231 277 325
#
# _framework density 19.035118000000001
#
# number of rings (size 3 to 8) (size 9 to 14) (size 15 to 20)
#    0.000    2.000    1.429    3.857    0.000    3.429 
#    0.000    7.857    0.000    4.286    0.000    0.000 
#    0.000    0.000    0.000    0.000    0.000    0.000 
#
# Total GULP energy -347254.212212 kJ/mol
# GULP energy per Si atom -12401.936150 kJ/mol
# Density = 1.899179 g / cm^3
# Si number density = 19.035118 Si / 1000 Ang^3
#
#
#
# Elastic Constant Matrix: (Units=GPa)
#
#
# Indices 1 2 3 4 5 6 
#
# 1 55.3818 16.6700 46.1099 -0.0210 16.8568 -0.0058
# 2 16.6700 44.0672 19.0529 -0.0393 1.7124 0.0121
# 3 46.1099 19.0529 154.2751 -0.0138 8.8235 0.0027
# 4 -0.0210 -0.0393 -0.0138 30.7425 -0.0007 6.2264
# 5 16.8568 1.7124 8.8235 -0.0007 19.4401 0.0074
# 6 -0.0058 0.0121 0.0027 6.2264 0.0074 26.5662
#
#
#
# Elastic Compliance Matrix: (Units=1/GPa)
#
#
# Indices 1 2 3 4 5 6 
#
# 1 0.035368 -0.008914 -0.007968 0.000005 -0.026267 0.000019
# 2 -0.008914 0.026231 -0.000909 0.000032 0.005831 -0.000023
# 3 -0.007968 -0.000909 0.008804 -0.000002 0.002993 -0.000003
# 4 0.000005 0.000032 -0.000002 0.034149 -0.000002 -0.008004
# 5 -0.026267 0.005831 0.002993 -0.000002 0.072345 -0.000028
# 6 0.000019 -0.000023 -0.000003 -0.008004 -0.000028 0.039518
#
#
# Mechanical properties :
#
#
# Convention : Reuss Voigt Hill
#
# Bulk Modulus (GPa) = 28.71669 46.37663 37.54666
# Shear Modulus (GPa) = 18.96788 26.80918 22.88853
#
# Velocity S-wave (km/s) = 3.16011 3.75695 3.47138
# Velocity P-wave (km/s) = 5.33235 6.57542 5.98624
#
# Compressibility (1/GPa) = 0.03482296
#
# Stress axis : x y z
#
# Youngs Moduli (GPa) = 28.27394 38.12288 113.57938
#
# Poissons Ratio (x) = 0.33982 0.90497
# Poissons Ratio (y) = 0.25202 0.10323
# Poissons Ratio (z) = 0.22528 0.03465
#
# Static dielectric constant tensor:
#      x y z
#    x 3.563970 -0.000040 0.125910 
#    y -0.000040 3.322500 0.000060 
#    z 0.125910 0.000060 3.689820 
# 
# 
# High freq. dielectric constant tensor:
#      x y z
#    x 1.733170 0.000000 0.018120 
#    y 0.000000 1.727640 0.000000 
#    z 0.018120 0.000000 1.742810 
# 
# From -- ./inp_files/288261.got.cif
#   From: 2010.06.25/outbox.cif.g09.slc.cpg/sg12_145_cif.got.tgz:288261.got - 2010.06.28 00:19:55.
