data_PCOD8108152
_publ_section_title
;
Structure prediction by ZEFSAII (Michael W. Deem and Ramdas Pophale) SiO2 
 PCOD8108152
Probable space group: C 2/M
;
_chemical_formula_sum "Si O2"
_cell_formula_units_Z 64
_cell_length_a 24.668911
_cell_length_b 13.920738
_cell_length_c 14.808795
_cell_angle_alpha 90.000000
_cell_angle_beta 36.018861
_cell_angle_gamma 90.000000
_cell_volume 2990.524393
_symmetry_space_group_name_H-M "C 2/M"
_symmetry_group_IT_number 12
_symmetry_cell_setting 'monoclinic'
loop_
_space_group_symop_operation_xyz
x,y,z
-x,y,-z
-x,-y,-z
x,-y,z
1/2+x,1/2+y,z
1/2-x,1/2+y,-z
1/2-x,1/2-y,-z
1/2+x,1/2-y,z
loop_
_atom_site_type_symbol
_atom_site_label
_atom_site_fract_x
_atom_site_fract_y
_atom_site_fract_z
Si Si1 0.602425 0.767888 0.861236
Si Si2 0.486462 0.393977 0.761408
Si Si3 0.918915 0.609583 0.947235
Si Si4 0.649184 0.763875 0.104720
Si Si5 0.102634 0.393993 0.328417
Si Si6 0.796962 0.720775 0.659257
Si Si7 0.593360 0.219015 0.674675
Si Si8 0.914334 0.105560 0.556002
O O1 0.685705 0.711323 0.799126
O O2 0.641263 0.792270 0.708449
O O3 0.500000 0.715573 0.000000
O O4 0.584564 0.866043 0.941593
O O5 0.465596 0.500000 0.832734
O O6 0.393240 0.341496 0.854833
O O7 0.541235 0.322180 0.753916
O O8 0.552256 0.410612 0.589223
O O9 0.895109 0.500000 0.963776
O O10 0.844726 0.674830 0.995212
O O11 0.017653 0.634838 0.768756
O O12 0.595810 0.821094 0.254303
O O13 0.750000 0.750000 0.000000
O O14 0.135835 0.500000 0.252016
O O15 0.170532 0.363611 0.318640
O O16 0.000000 0.399629 0.500000
O O17 0.839324 0.710820 0.501166
O O18 0.829359 0.819757 0.665281
O O19 0.000000 0.146783 0.500000
O O20 0.882486 0.000000 0.637032
#
# Coordination Sequence:
#
# PCOD8108152 Si02
#       8
#     8   8   8   8   8   8   8   8
#     4  10  22  39  58  83 117 158 203 252 302 345
#     4   9  18  33  54  79 108 146 192 240 291 346
#     4  10  21  38  60  86 118 156 199 246 298 355
#     4  11  22  37  57  85 121 158 195 239 294 360
#     4  11  23  39  61  91 126 160 195 240 297 363
#     4  11  20  36  60  87 120 159 203 244 293 358
#     4   9  20  37  59  83 114 155 199 251 300 346
#     4   9  17  30  52  84 118 150 188 237 292 348
#
# _framework density 21.400929000000001
#
# number of rings (size 3 to 8) (size 9 to 14) (size 15 to 20)
#    0.000    2.000    0.000    4.875    0.000    5.250 
#    0.000    1.875    0.000   14.250    0.000    0.000 
#    0.000    0.000    0.000    0.000    0.000    0.000 
#
# Total GULP energy -396424.093252 kJ/mol
# GULP energy per Si atom -12388.252914 kJ/mol
# Density = 2.135222 g / cm^3
# Si number density = 21.400929 Si / 1000 Ang^3
#
#
#
# Elastic Constant Matrix: (Units=GPa)
#
#
# Indices 1 2 3 4 5 6 
#
# 1 117.6186 27.9636 32.3727 0.0000 -12.4014 0.0000
# 2 27.9636 120.8220 23.6078 0.0000 -5.6869 0.0000
# 3 32.3727 23.6078 57.0632 0.0000 -2.7270 0.0000
# 4 0.0000 0.0000 0.0000 1.7087 0.0000 8.2790
# 5 -12.4014 -5.6869 -2.7270 0.0000 45.3559 0.0000
# 6 0.0000 0.0000 0.0000 8.2790 0.0000 12.2370
#
#
#
# Elastic Compliance Matrix: (Units=1/GPa)
#
#
# Indices 1 2 3 4 5 6 
#
# 1 0.010526 -0.001283 -0.005326 0.000000 0.002397 0.000000
# 2 -0.001283 0.009198 -0.003048 0.000000 0.000619 0.000000
# 3 -0.005326 -0.003048 0.021782 0.000000 -0.000529 0.000000
# 4 0.000000 0.000000 0.000000 -0.256902 0.000000 0.173808
# 5 0.002397 0.000619 -0.000529 0.000000 0.022749 0.000000
# 6 0.000000 0.000000 0.000000 0.173808 0.000000 -0.035871
#
#
# Mechanical properties :
#
#
# Convention : Reuss Voigt Hill
#
# Bulk Modulus (GPa) = 45.06169 51.48801 48.27485
# Shear Modulus (GPa) = -24.77615 25.96429 0.59407
#
# Velocity S-wave (km/s) = -3.40621 3.48693 0.52744
# Velocity P-wave (km/s) = 2.37318 6.35000 4.79346
#
# Compressibility (1/GPa) = 0.02219180
#
# Stress axis : x y z
#
# Youngs Moduli (GPa) = 95.00598 108.71643 45.90984
#
# Poissons Ratio (x) = 0.13944 0.24452
# Poissons Ratio (y) = 0.12185 0.13994
# Poissons Ratio (z) = 0.50602 0.33139
#
# Static dielectric constant tensor:
#      x y z
#    x 5.510670 0.000000 0.716390 
#    y 0.000000 4.943220 0.000000 
#    z 0.716390 0.000000 3.961610 
# 
# 
# High freq. dielectric constant tensor:
#      x y z
#    x 1.851070 0.000000 0.008820 
#    y 0.000000 1.818530 0.000000 
#    z 0.008820 0.000000 1.829110 
# 
# From -- ./inp_files/240684.got.cif
#   From: 2010.06.25/outbox.cif.g09.slc.cpg/sg12_121_cif.got.tgz:240684.got - 2010.06.28 00:19:55.
