data_PCOD8108789
_publ_section_title
;
Structure prediction by ZEFSAII (Michael W. Deem and Ramdas Pophale) SiO2 
 PCOD8108789
Probable space group: C 2/M
;
_chemical_formula_sum "Si O2"
_cell_formula_units_Z 28
_cell_length_a 23.533554
_cell_length_b 7.530046
_cell_length_c 11.663146
_cell_angle_alpha 90.000000
_cell_angle_beta 133.881856
_cell_angle_gamma 90.000000
_cell_volume 1489.697051
_symmetry_space_group_name_H-M "C 2/M"
_symmetry_group_IT_number 12
_symmetry_cell_setting 'monoclinic'
loop_
_space_group_symop_operation_xyz
x,y,z
-x,y,-z
-x,-y,-z
x,-y,z
1/2+x,1/2+y,z
1/2-x,1/2+y,-z
1/2-x,1/2-y,-z
1/2+x,1/2-y,z
loop_
_atom_site_type_symbol
_atom_site_label
_atom_site_fract_x
_atom_site_fract_y
_atom_site_fract_z
Si Si1 0.163431 0.701208 0.836590
Si Si2 0.314325 0.500000 0.766396
Si Si3 0.911776 0.000000 0.130396
Si Si4 0.908673 0.000000 0.674492
Si Si5 0.695569 0.303705 0.630900
O O1 0.143152 0.500000 0.841716
O O2 0.099322 0.825842 0.807495
O O3 0.157193 0.723596 0.691483
O O4 0.250000 0.750000 0.000000
O O5 0.384513 0.500000 0.773480
O O6 0.262351 0.675627 0.674263
O O7 0.347017 0.500000 0.940300
O O8 0.997750 0.000000 0.196890
O O9 0.873630 0.825185 0.561120
O O10 0.732620 0.500000 0.708459
#
# Coordination Sequence:
#
# PCOD8108789 Si02
#       5
#     8   4   4   4   8
#     4  12  20  37  64  94 119 154 208 252 300 366
#     4  12  21  42  68  85 120 171 209 235 292 380
#     4  12  24  40  63  92 130 154 197 261 308 351
#     4  10  26  42  57  94 131 157 197 256 308 345
#     4  10  21  38  66  88 120 156 208 246 299 352
#
# _framework density 18.795767000000001
#
# number of rings (size 3 to 8) (size 9 to 14) (size 15 to 20)
#    0.857    0.000    7.143    1.286    0.000    2.286 
#    2.571    1.429    0.000    3.429    0.000    0.000 
#    0.000    0.000    0.000    0.000    0.000    0.000 
#
# Total GULP energy -173598.128238 kJ/mol
# GULP energy per Si atom -12399.866303 kJ/mol
# Density = 1.875299 g / cm^3
# Si number density = 18.795767 Si / 1000 Ang^3
#
#
#
# Elastic Constant Matrix: (Units=GPa)
#
#
# Indices 1 2 3 4 5 6 
#
# 1 112.7906 47.3082 9.1285 0.0000 2.6825 0.0000
# 2 47.3082 157.4562 15.4273 0.0000 9.6976 0.0000
# 3 9.1285 15.4273 39.6199 0.0000 -0.1315 0.0000
# 4 0.0000 0.0000 0.0000 21.6525 0.0000 -4.3013
# 5 2.6825 9.6976 -0.1315 0.0000 35.6324 0.0000
# 6 0.0000 0.0000 0.0000 -4.3013 0.0000 22.6860
#
#
#
# Elastic Compliance Matrix: (Units=1/GPa)
#
#
# Indices 1 2 3 4 5 6 
#
# 1 0.010199 -0.002949 -0.001202 0.000000 0.000030 0.000000
# 2 -0.002949 0.007574 -0.002276 0.000000 -0.001848 0.000000
# 3 -0.001202 -0.002276 0.026406 0.000000 0.000807 0.000000
# 4 0.000000 0.000000 0.000000 0.047992 0.000000 0.009099
# 5 0.000030 -0.001848 0.000807 0.000000 0.028568 0.000000
# 6 0.000000 0.000000 0.000000 0.009099 0.000000 0.045805
#
#
# Mechanical properties :
#
#
# Convention : Reuss Voigt Hill
#
# Bulk Modulus (GPa) = 31.92203 50.39940 41.16071
# Shear Modulus (GPa) = 26.33832 31.86103 29.09968
#
# Velocity S-wave (km/s) = 3.74744 4.12165 3.93899
# Velocity P-wave (km/s) = 5.97871 7.03726 6.52947
#
# Compressibility (1/GPa) = 0.03132633
#
# Stress axis : x y z
#
# Youngs Moduli (GPa) = 98.04657 132.03701 37.87079
#
# Poissons Ratio (x) = 0.38931 0.04551
# Poissons Ratio (y) = 0.28909 0.08619
# Poissons Ratio (z) = 0.11782 0.30049
#
# Static dielectric constant tensor:
#      x y z
#    x 3.282840 0.000000 -0.207380 
#    y 0.000000 3.811140 0.000000 
#    z -0.207380 0.000000 3.281910 
# 
# 
# High freq. dielectric constant tensor:
#      x y z
#    x 1.724900 0.000000 -0.021170 
#    y 0.000000 1.734730 0.000000 
#    z -0.021170 0.000000 1.717390 
# 
# From -- ./inp_files/161680.got.cif
#   From: 2010.06.25/outbox.cif.g09.slc.cpg/sg12_81_cif.got.tgz:161680.got - 2010.06.28 00:19:55.
