data_PCOD8108440
_publ_section_title
;
Structure prediction by ZEFSAII (Michael W. Deem and Ramdas Pophale) SiO2 
 PCOD8108440
Probable space group: C 2/M
;
_chemical_formula_sum "Si O2"
_cell_formula_units_Z 40
_cell_length_a 15.402482
_cell_length_b 8.589891
_cell_length_c 14.785769
_cell_angle_alpha 90.000000
_cell_angle_beta 105.190075
_cell_angle_gamma 90.000000
_cell_volume 1887.893316
_symmetry_space_group_name_H-M "C 2/M"
_symmetry_group_IT_number 12
_symmetry_cell_setting 'monoclinic'
loop_
_space_group_symop_operation_xyz
x,y,z
-x,y,-z
-x,-y,-z
x,-y,z
1/2+x,1/2+y,z
1/2-x,1/2+y,-z
1/2-x,1/2-y,-z
1/2+x,1/2-y,z
loop_
_atom_site_type_symbol
_atom_site_label
_atom_site_fract_x
_atom_site_fract_y
_atom_site_fract_z
Si Si1 0.022392 0.819890 0.108912
Si Si2 0.790391 0.319216 0.787268
Si Si3 0.387972 0.180049 0.213521
Si Si4 0.500789 0.321805 0.602491
Si Si5 0.202981 0.821495 0.400570
O O1 0.125486 0.779406 0.155440
O O2 0.956673 0.719602 0.152787
O O3 0.006848 0.000000 0.128204
O O4 0.000000 0.780282 0.000000
O O5 0.813410 0.500000 0.802232
O O6 0.703981 0.277122 0.824899
O O7 0.765739 0.275794 0.677580
O O8 0.431068 0.217006 0.322498
O O9 0.363162 0.000000 0.202493
O O10 0.500000 0.258229 0.500000
O O11 0.535122 0.500000 0.613524
O O12 0.403725 0.307344 0.620738
O O13 0.250000 0.750000 0.500000
O O14 0.232981 0.000000 0.397637
#
# Coordination Sequence:
#
# PCOD8108440 Si02
#       5
#     8   8   8   8   8
#     4  11  25  47  73 100 133 173 221 279 340 401
#     4  12  25  43  68  97 135 177 223 276 332 396
#     4  12  25  42  68  99 134 175 222 275 333 400
#     4  10  21  38  61  91 131 176 220 270 328 390
#     4  11  22  37  61  93 135 177 223 274 327 393
#
# _framework density 21.187638
#
# number of rings (size 3 to 8) (size 9 to 14) (size 15 to 20)
#    0.000    0.800    2.000    6.000    0.000    5.200 
#    0.000    0.000    0.000    0.000    0.000    0.000 
#    0.000    0.000    0.000    0.000    0.000    0.000 
#
# Total GULP energy -248167.609252 kJ/mol
# GULP energy per Si atom -12408.380463 kJ/mol
# Density = 2.113941 g / cm^3
# Si number density = 21.187638 Si / 1000 Ang^3
#
#
#
# Elastic Constant Matrix: (Units=GPa)
#
#
# Indices 1 2 3 4 5 6 
#
# 1 101.7957 10.2847 29.1456 0.0000 0.1035 0.0000
# 2 10.2847 79.7286 29.3648 0.0000 -8.1543 0.0000
# 3 29.1456 29.3648 110.8356 0.0000 1.1376 0.0000
# 4 0.0000 0.0000 0.0000 28.4600 0.0000 -0.1557
# 5 0.1035 -8.1543 1.1376 0.0000 22.9759 0.0000
# 6 0.0000 0.0000 0.0000 -0.1557 0.0000 34.7016
#
#
#
# Elastic Compliance Matrix: (Units=1/GPa)
#
#
# Indices 1 2 3 4 5 6 
#
# 1 0.010634 -0.000385 -0.002694 0.000000 -0.000051 0.000000
# 2 -0.000385 0.014541 -0.003806 0.000000 0.005351 0.000000
# 3 -0.002694 -0.003806 0.010758 0.000000 -0.001871 0.000000
# 4 0.000000 0.000000 0.000000 0.035138 0.000000 0.000158
# 5 -0.000051 0.005351 -0.001871 0.000000 0.045516 0.000000
# 6 0.000000 0.000000 0.000000 0.000158 0.000000 0.028818
#
#
# Mechanical properties :
#
#
# Convention : Reuss Voigt Hill
#
# Bulk Modulus (GPa) = 45.11883 47.77224 46.44554
# Shear Modulus (GPa) = 30.01866 32.13181 31.07524
#
# Velocity S-wave (km/s) = 3.76813 3.89850 3.83387
# Velocity P-wave (km/s) = 6.34609 6.54680 6.44722
#
# Compressibility (1/GPa) = 0.02216370
#
# Stress axis : x y z
#
# Youngs Moduli (GPa) = 94.03967 68.76932 92.95063
#
# Poissons Ratio (x) = 0.02646 0.25039
# Poissons Ratio (y) = 0.03619 0.35380
# Poissons Ratio (z) = 0.25333 0.26176
#
# Static dielectric constant tensor:
#      x y z
#    x 4.018330 0.000000 -0.067330 
#    y 0.000000 3.819800 0.000000 
#    z -0.067330 0.000000 3.735610 
# 
# 
# High freq. dielectric constant tensor:
#      x y z
#    x 1.846180 0.000000 -0.000450 
#    y 0.000000 1.835110 0.000000 
#    z -0.000450 0.000000 1.829910 
# 
# From -- ./inp_files/211250.got.cif
#   From: 2010.06.25/outbox.cif.g09.slc.cpg/sg12_106_cif.got.tgz:211250.got - 2010.06.28 00:19:55.
