data_PCOD8108879
_publ_section_title
;
Structure prediction by ZEFSAII (Michael W. Deem and Ramdas Pophale) SiO2 
 PCOD8108879
Probable space group: C 2/M
;
_chemical_formula_sum "Si O2"
_cell_formula_units_Z 64
_cell_length_a 15.408575
_cell_length_b 8.830096
_cell_length_c 23.861285
_cell_angle_alpha 90.000000
_cell_angle_beta 89.871921
_cell_angle_gamma 90.000000
_cell_volume 3246.539152
_symmetry_space_group_name_H-M "C 2/M"
_symmetry_group_IT_number 12
_symmetry_cell_setting 'monoclinic'
loop_
_space_group_symop_operation_xyz
x,y,z
-x,y,-z
-x,-y,-z
x,-y,z
1/2+x,1/2+y,z
1/2-x,1/2+y,-z
1/2-x,1/2-y,-z
1/2+x,1/2-y,z
loop_
_atom_site_type_symbol
_atom_site_label
_atom_site_fract_x
_atom_site_fract_y
_atom_site_fract_z
Si Si1 0.597468 0.174520 0.385513
Si Si2 0.343495 0.676316 0.002426
Si Si3 0.252780 0.179790 0.187261
Si Si4 0.586817 0.676301 0.119991
Si Si5 0.089386 0.320891 0.888000
Si Si6 0.097474 0.326158 0.607655
Si Si7 0.254876 0.679100 0.686226
Si Si8 0.155740 0.178628 0.497646
O O1 0.497900 0.191897 0.364973
O O2 0.659555 0.245024 0.338892
O O3 0.605370 0.260498 0.444044
O O4 0.622815 0.000000 0.394486
O O5 0.331701 0.500000 0.014153
O O6 0.392845 0.706769 0.944731
O O7 0.250000 0.750000 0.000000
O O8 0.401005 0.748517 0.050952
O O9 0.165455 0.238885 0.157756
O O10 0.335427 0.241870 0.152998
O O11 0.256805 0.240124 0.250718
O O12 0.254658 0.000000 0.185945
O O13 0.569936 0.500000 0.131529
O O14 0.502156 0.770315 0.137887
O O15 0.094212 0.500000 0.893856
O O16 0.114497 0.500000 0.589933
O O17 0.169352 0.272002 0.652102
O O18 0.102346 0.222329 0.552846
O O19 0.268257 0.500000 0.684690
O O20 0.250000 0.250000 0.500000
O O21 0.164401 0.000000 0.492791
#
# Coordination Sequence:
#
# PCOD8108879 Si02
#       8
#     8   8   8   8   8   8   8   8
#     4  11  23  39  60  89 124 156 193 244 294 346
#     4  11  21  36  60  87 120 157 194 238 297 357
#     4   9  20  40  61  82 115 157 200 243 294 346
#     4  10  21  39  59  84 119 157 193 240 298 351
#     4  11  22  38  60  89 120 154 198 244 292 353
#     4  10  22  39  60  88 121 156 194 238 295 348
#     4  10  21  40  64  84 111 159 205 242 289 348
#     4  12  23  37  61  90 121 155 194 239 293 353
#
# _framework density 19.7133
#
# number of rings (size 3 to 8) (size 9 to 14) (size 15 to 20)
#    0.000    1.500    2.500    3.000    0.000    6.000 
#    0.000    3.125    0.000    0.000    0.000    0.000 
#    0.000    0.000    0.000    0.000    0.000    0.000 
#
# Total GULP energy -396935.426802 kJ/mol
# GULP energy per Si atom -12404.232088 kJ/mol
# Density = 1.966843 g / cm^3
# Si number density = 19.713300 Si / 1000 Ang^3
#
#
#
# Elastic Constant Matrix: (Units=GPa)
#
#
# Indices 1 2 3 4 5 6 
#
# 1 149.8924 39.5343 59.0030 0.0000 -3.4426 0.0000
# 2 39.5343 74.9782 44.0323 0.0000 -3.6227 0.0000
# 3 59.0030 44.0323 136.1779 0.0000 -2.1473 0.0000
# 4 0.0000 0.0000 0.0000 24.4448 0.0000 -2.3044
# 5 -3.4426 -3.6227 -2.1473 0.0000 14.9747 0.0000
# 6 0.0000 0.0000 0.0000 -2.3044 0.0000 35.3699
#
#
#
# Elastic Compliance Matrix: (Units=1/GPa)
#
#
# Indices 1 2 3 4 5 6 
#
# 1 0.008527 -0.002829 -0.002766 0.000000 0.000879 0.000000
# 2 -0.002829 0.017559 -0.004405 0.000000 0.002966 0.000000
# 3 -0.002766 -0.004405 0.009962 0.000000 -0.000273 0.000000
# 4 0.000000 0.000000 0.000000 0.041161 0.000000 0.002682
# 5 0.000879 0.002966 -0.000273 0.000000 0.067660 0.000000
# 6 0.000000 0.000000 0.000000 0.002682 0.000000 0.028447
#
#
# Mechanical properties :
#
#
# Convention : Reuss Voigt Hill
#
# Bulk Modulus (GPa) = 62.31477 71.79863 67.05670
# Shear Modulus (GPa) = 25.16801 29.52314 27.34557
#
# Velocity S-wave (km/s) = 3.57697 3.87412 3.72851
# Velocity P-wave (km/s) = 6.98132 7.51746 7.25434
#
# Compressibility (1/GPa) = 0.01604756
#
# Stress axis : x y z
#
# Youngs Moduli (GPa) = 117.28120 56.95012 100.38435
#
# Poissons Ratio (x) = 0.16112 0.27763
# Poissons Ratio (y) = 0.33181 0.44220
# Poissons Ratio (z) = 0.32437 0.25087
#
# Static dielectric constant tensor:
#      x y z
#    x 3.704770 0.000000 0.076080 
#    y 0.000000 3.624150 0.000000 
#    z 0.076080 0.000000 3.586240 
# 
# 
# High freq. dielectric constant tensor:
#      x y z
#    x 1.785930 0.000000 0.001300 
#    y 0.000000 1.757560 0.000000 
#    z 0.001300 0.000000 1.763920 
# 
# From -- ./inp_files/338690.got.cif
#   From: 2010.06.25/outbox.cif.g09.slc.cpg/sg12_170_cif.got.tgz:338690.got - 2010.06.28 00:19:55.
