data_PCOD8108480
_publ_section_title
;
Structure prediction by ZEFSAII (Michael W. Deem and Ramdas Pophale) SiO2 
 PCOD8108480
Probable space group: C 2/M
;
_chemical_formula_sum "Si O2"
_cell_formula_units_Z 40
_cell_length_a 24.743940
_cell_length_b 9.100326
_cell_length_c 18.816364
_cell_angle_alpha 90.000000
_cell_angle_beta 28.857102
_cell_angle_gamma 90.000000
_cell_volume 2044.903999
_symmetry_space_group_name_H-M "C 2/M"
_symmetry_group_IT_number 12
_symmetry_cell_setting 'monoclinic'
loop_
_space_group_symop_operation_xyz
x,y,z
-x,y,-z
-x,-y,-z
x,-y,z
1/2+x,1/2+y,z
1/2-x,1/2+y,-z
1/2-x,1/2-y,-z
1/2+x,1/2-y,z
loop_
_atom_site_type_symbol
_atom_site_label
_atom_site_fract_x
_atom_site_fract_y
_atom_site_fract_z
Si Si1 0.948034 0.669087 0.850530
Si Si2 0.748911 0.672063 0.848860
Si Si3 0.297284 0.326026 0.651438
Si Si4 0.815785 0.669730 0.362858
Si Si5 0.985526 0.329977 0.645117
O O1 0.907767 0.500000 0.900473
O O2 0.987130 0.709341 0.726245
O O3 0.051651 0.698630 0.783957
O O4 0.847320 0.774979 0.987216
O O5 0.735726 0.500000 0.850399
O O6 0.736285 0.756990 0.789482
O O7 0.866143 0.711055 0.750205
O O8 0.299539 0.500000 0.657354
O O9 0.225269 0.274268 0.666440
O O10 0.423451 0.267266 0.500302
O O11 0.787344 0.500000 0.405394
O O12 0.750000 0.750000 0.500000
O O13 0.015354 0.500000 0.597719
#
# Coordination Sequence:
#
# PCOD8108480 Si02
#       5
#     8   8   8   8   8
#     4  10  21  39  62  86 116 152 190 241 295 342
#     4  11  24  39  57  86 121 156 195 239 287 342
#     4  11  23  38  60  89 118 153 194 238 288 345
#     4  10  21  38  62  88 114 148 192 239 288 345
#     4  10  21  39  62  86 116 155 196 238 288 343
#
# _framework density 19.560821000000001
#
# number of rings (size 3 to 8) (size 9 to 14) (size 15 to 20)
#    0.000    1.600    2.000    2.400    0.000    7.200 
#    0.000    4.000    0.000    0.000    0.000    0.000 
#    0.000    0.000    0.000    0.000    0.000    0.000 
#
# Total GULP energy -248128.369708 kJ/mol
# GULP energy per Si atom -12406.418485 kJ/mol
# Density = 1.951630 g / cm^3
# Si number density = 19.560821 Si / 1000 Ang^3
#
#
#
# Elastic Constant Matrix: (Units=GPa)
#
#
# Indices 1 2 3 4 5 6 
#
# 1 83.2279 25.2750 4.8363 -0.0002 -3.9252 0.0001
# 2 25.2750 60.9401 24.1887 0.0012 -0.7056 -0.0002
# 3 4.8363 24.1887 56.4576 0.0008 3.6940 0.0001
# 4 -0.0002 0.0012 0.0008 38.6759 -0.0002 4.1426
# 5 -3.9252 -0.7056 3.6940 -0.0002 22.0740 0.0000
# 6 0.0001 -0.0002 0.0001 4.1426 0.0000 29.8575
#
#
#
# Elastic Compliance Matrix: (Units=1/GPa)
#
#
# Indices 1 2 3 4 5 6 
#
# 1 0.013947 -0.006306 0.001373 0.000000 0.002049 0.000000
# 2 -0.006306 0.022717 -0.009268 -0.000001 0.001156 0.000000
# 3 0.001373 -0.009268 0.021808 0.000000 -0.003702 0.000000
# 4 0.000000 -0.000001 0.000000 0.026246 0.000000 -0.003642
# 5 0.002049 0.001156 -0.003702 0.000000 0.046323 0.000000
# 6 0.000000 0.000000 0.000000 -0.003642 0.000000 0.033998
#
#
# Mechanical properties :
#
#
# Convention : Reuss Voigt Hill
#
# Bulk Modulus (GPa) = 33.25627 34.35839 33.80733
# Shear Modulus (GPa) = 24.57434 27.87653 26.22544
#
# Velocity S-wave (km/s) = 3.54828 3.77917 3.66555
# Velocity P-wave (km/s) = 5.81597 6.05358 5.93596
#
# Compressibility (1/GPa) = 0.03006952
#
# Stress axis : x y z
#
# Youngs Moduli (GPa) = 71.70002 44.01965 45.85482
#
# Poissons Ratio (x) = 0.27758 -0.06295
# Poissons Ratio (y) = 0.45212 0.42500
# Poissons Ratio (z) = -0.09843 0.40799
#
# Static dielectric constant tensor:
#      x y z
#    x 3.873830 0.000000 -0.015410 
#    y 0.000000 3.526620 0.000000 
#    z -0.015410 0.000000 3.440130 
# 
# 
# High freq. dielectric constant tensor:
#      x y z
#    x 1.778480 0.000000 0.000000 
#    y 0.000000 1.760850 0.000000 
#    z 0.000000 0.000000 1.761390 
# 
# From -- ./inp_files/151623.got.cif
#   From: 2010.06.25/outbox.cif.g09.slc.cpg/sg12_76_cif.got.tgz:151623.got - 2010.06.28 00:19:55.
