data_PCOD8108256
_publ_section_title
;
Structure prediction by ZEFSAII (Michael W. Deem and Ramdas Pophale) SiO2 
 PCOD8108256
Probable space group: C 2/M
;
_chemical_formula_sum "Si O2"
_cell_formula_units_Z 56
_cell_length_a 24.010860
_cell_length_b 15.258279
_cell_length_c 7.427461
_cell_angle_alpha 90.000000
_cell_angle_beta 62.469097
_cell_angle_gamma 90.000000
_cell_volume 2413.017953
_symmetry_space_group_name_H-M "C 2/M"
_symmetry_group_IT_number 12
_symmetry_cell_setting 'monoclinic'
loop_
_space_group_symop_operation_xyz
x,y,z
-x,y,-z
-x,-y,-z
x,-y,z
1/2+x,1/2+y,z
1/2-x,1/2+y,-z
1/2-x,1/2-y,-z
1/2+x,1/2-y,z
loop_
_atom_site_type_symbol
_atom_site_label
_atom_site_fract_x
_atom_site_fract_y
_atom_site_fract_z
Si Si1 0.753659 0.351738 0.516485
Si Si2 0.763421 0.103218 0.053294
Si Si3 0.882328 0.904579 0.338809
Si Si4 0.975658 0.596880 0.838051
Si Si5 0.011743 0.779683 0.768278
Si Si6 0.401608 0.401061 0.886863
Si Si7 0.165388 0.600666 0.919243
O O1 0.750000 0.250000 0.500000
O O2 0.762363 0.376054 0.710464
O O3 0.691634 0.393006 0.519151
O O4 0.814059 0.386410 0.318030
O O5 0.766008 0.000000 0.025179
O O6 0.834866 0.136989 0.913577
O O7 0.715847 0.146857 0.978799
O O8 0.922536 0.828227 0.375616
O O9 0.901342 0.000000 0.390280
O O10 0.897317 0.903505 0.107207
O O11 0.981204 0.500000 0.731660
O O12 0.014098 0.678398 0.690287
O O13 0.904809 0.636377 0.949584
O O14 0.000000 0.580153 0.000000
O O15 0.957261 0.834979 0.747985
O O16 0.000000 0.776143 0.000000
O O17 0.415173 0.500000 0.795532
O O18 0.162268 0.500000 0.974513
#
# Coordination Sequence:
#
# PCOD8108256 Si02
#       7
#     8   8   8   8   8   8   8
#     4  11  23  34  56  89 125 155 192 241 299 358
#     4   9  19  37  58  83 118 154 198 248 296 358
#     4   9  17  31  51  79 113 149 192 240 287 350
#     4   9  19  33  52  80 112 147 195 246 295 356
#     4   9  16  26  50  75 108 144 190 236 287 343
#     4   8  14  26  47  78 109 142 183 231 284 338
#     4  10  21  38  61  85 113 157 199 242 305 358
#
# _framework density 23.207452
#
# number of rings (size 3 to 8) (size 9 to 14) (size 15 to 20)
#    0.000    2.714    0.000    2.571    8.000    2.286 
#    0.000    0.000    0.000    1.714    0.000    9.000 
#    0.000    0.000    0.000    0.000    0.000    0.000 
#
# Total GULP energy -346944.682427 kJ/mol
# GULP energy per Si atom -12390.881515 kJ/mol
# Density = 2.315463 g / cm^3
# Si number density = 23.207452 Si / 1000 Ang^3
#
#
#
# Elastic Constant Matrix: (Units=GPa)
#
#
# Indices 1 2 3 4 5 6 
#
# 1 106.9294 36.6269 11.6115 0.0000 -1.7637 0.0000
# 2 36.6269 138.0071 5.8181 0.0000 -21.7369 0.0000
# 3 11.6115 5.8181 20.8913 0.0000 -0.8278 0.0000
# 4 0.0000 0.0000 0.0000 26.6724 0.0000 17.4872
# 5 -1.7637 -21.7369 -0.8278 0.0000 20.9657 0.0000
# 6 0.0000 0.0000 0.0000 17.4872 0.0000 98.2871
#
#
#
# Elastic Compliance Matrix: (Units=1/GPa)
#
#
# Indices 1 2 3 4 5 6 
#
# 1 0.010940 -0.003068 -0.005324 0.000000 -0.002471 0.000000
# 2 -0.003068 0.009610 -0.000587 0.000000 0.009682 0.000000
# 3 -0.005324 -0.000587 0.051028 0.000000 0.000958 0.000000
# 4 0.000000 0.000000 0.000000 0.042443 0.000000 -0.007551
# 5 -0.002471 0.009682 0.000958 0.000000 0.057566 0.000000
# 6 0.000000 0.000000 0.000000 -0.007551 0.000000 0.011518
#
#
# Mechanical properties :
#
#
# Convention : Reuss Voigt Hill
#
# Bulk Modulus (GPa) = 18.65025 41.54898 30.09961
# Shear Modulus (GPa) = 22.83766 43.30311 33.07039
#
# Velocity S-wave (km/s) = 3.14039 4.32431 3.77900
# Velocity P-wave (km/s) = 4.60469 6.54790 5.66031
#
# Compressibility (1/GPa) = 0.05361859
#
# Stress axis : x y z
#
# Youngs Moduli (GPa) = 91.40474 104.05708 19.59724
#
# Poissons Ratio (x) = 0.31928 0.10434
# Poissons Ratio (y) = 0.28046 0.01151
# Poissons Ratio (z) = 0.48665 0.06111
#
# Static dielectric constant tensor:
#      x y z
#    x 4.760470 0.000000 -0.171380 
#    y 0.000000 4.435890 0.000000 
#    z -0.171380 0.000000 3.415910 
# 
# 
# High freq. dielectric constant tensor:
#      x y z
#    x 1.922600 0.000000 -0.010660 
#    y 0.000000 1.923660 0.000000 
#    z -0.010660 0.000000 1.867590 
# 
# From -- ./inp_files/96772.got.cif
#   From: 2010.06.25/outbox.cif.g09.slc.cpg/sg12_49_cif.got.tgz:96772.got - 2010.06.28 00:19:55.
