data_PCOD8108082
_publ_section_title
;
Structure prediction by ZEFSAII (Michael W. Deem and Ramdas Pophale) SiO2 
 PCOD8108082
Probable space group: C 2/M
;
_chemical_formula_sum "Si O2"
_cell_formula_units_Z 48
_cell_length_a 23.974278
_cell_length_b 8.895566
_cell_length_c 11.870685
_cell_angle_alpha 90.000000
_cell_angle_beta 90.234094
_cell_angle_gamma 90.000000
_cell_volume 2531.577803
_symmetry_space_group_name_H-M "C 2/M"
_symmetry_group_IT_number 12
_symmetry_cell_setting 'monoclinic'
loop_
_space_group_symop_operation_xyz
x,y,z
-x,y,-z
-x,-y,-z
x,-y,z
1/2+x,1/2+y,z
1/2-x,1/2+y,-z
1/2-x,1/2-y,-z
1/2+x,1/2-y,z
loop_
_atom_site_type_symbol
_atom_site_label
_atom_site_fract_x
_atom_site_fract_y
_atom_site_fract_z
Si Si1 0.791060 0.321552 0.590030
Si Si2 0.760497 0.826076 0.821081
Si Si3 0.955591 0.176000 0.088678
Si Si4 0.669821 0.673158 0.961203
Si Si5 0.085689 0.678149 0.459942
Si Si6 0.980040 0.322068 0.325339
O O1 0.788812 0.500000 0.578574
O O2 0.750000 0.250000 0.500000
O O3 0.773180 0.275155 0.714161
O O4 0.853149 0.257297 0.566496
O O5 0.701157 0.778024 0.871937
O O6 0.757344 0.000000 0.785438
O O7 0.808747 0.795297 0.912633
O O8 0.894803 0.216453 0.041149
O O9 0.964673 0.250645 0.207968
O O10 0.964061 0.000000 0.104592
O O11 0.000000 0.241230 0.000000
O O12 0.680350 0.500000 0.927749
O O13 0.086854 0.500000 0.457739
O O14 0.065741 0.731931 0.583293
O O15 0.041308 0.733916 0.365767
O O16 0.979093 0.500000 0.313176
#
# Coordination Sequence:
#
# PCOD8108082 Si02
#       6
#     8   8   8   8   8   8
#     4  11  23  38  57  85 117 150 187 232 281 335
#     4  10  21  38  60  84 110 148 192 236 282 331
#     4  10  22  37  55  83 118 149 179 225 281 332
#     4   9  20  39  59  81 113 152 189 229 281 337
#     4   8  18  37  59  81 111 145 182 229 280 325
#     4   9  18  37  61  83 107 144 188 230 273 326
#
# _framework density 18.960508999999998
#
# number of rings (size 3 to 8) (size 9 to 14) (size 15 to 20)
#    0.000    2.500    0.000    2.000    4.667    1.667 
#    0.000    3.333    0.000    0.000    0.000    0.000 
#    0.000    0.000    0.000    0.000    0.000    0.000 
#
# Total GULP energy -297620.155220 kJ/mol
# GULP energy per Si atom -12400.839801 kJ/mol
# Density = 1.891735 g / cm^3
# Si number density = 18.960509 Si / 1000 Ang^3
#
#
#
# Elastic Constant Matrix: (Units=GPa)
#
#
# Indices 1 2 3 4 5 6 
#
# 1 146.5169 41.5103 64.1357 0.0000 0.6782 0.0000
# 2 41.5103 48.3834 39.0945 0.0000 1.5464 0.0000
# 3 64.1357 39.0945 125.6141 0.0000 1.5315 0.0000
# 4 0.0000 0.0000 0.0000 28.3034 0.0000 4.3084
# 5 0.6782 1.5464 1.5315 0.0000 22.6108 0.0000
# 6 0.0000 0.0000 0.0000 4.3084 0.0000 23.1483
#
#
#
# Elastic Compliance Matrix: (Units=1/GPa)
#
#
# Indices 1 2 3 4 5 6 
#
# 1 0.009908 -0.005905 -0.003225 0.000000 0.000325 0.000000
# 2 -0.005905 0.031170 -0.006668 0.000000 -0.001503 0.000000
# 3 -0.003225 -0.006668 0.011686 0.000000 -0.000239 0.000000
# 4 0.000000 0.000000 0.000000 0.036362 0.000000 -0.006768
# 5 0.000325 -0.001503 -0.000239 0.000000 0.044336 0.000000
# 6 0.000000 0.000000 0.000000 -0.006768 0.000000 0.044459
#
#
# Mechanical properties :
#
#
# Convention : Reuss Voigt Hill
#
# Bulk Modulus (GPa) = 47.24053 67.77728 57.50890
# Shear Modulus (GPa) = 23.08687 26.53075 24.80881
#
# Velocity S-wave (km/s) = 3.49324 3.74473 3.62117
# Velocity P-wave (km/s) = 6.42181 7.38387 6.91958
#
# Compressibility (1/GPa) = 0.02116827
#
# Stress axis : x y z
#
# Youngs Moduli (GPa) = 100.92375 32.08181 85.57553
#
# Poissons Ratio (x) = 0.18946 0.27599
# Poissons Ratio (y) = 0.59600 0.57058
# Poissons Ratio (z) = 0.32549 0.21391
#
# Static dielectric constant tensor:
#      x y z
#    x 3.882890 0.000000 -0.053990 
#    y 0.000000 3.279060 0.000000 
#    z -0.053990 0.000000 3.505260 
# 
# 
# High freq. dielectric constant tensor:
#      x y z
#    x 1.749100 0.000000 0.001210 
#    y 0.000000 1.718990 0.000000 
#    z 0.001210 0.000000 1.743900 
# 
# From -- ./inp_files/172115.got.cif
#   From: 2010.06.25/outbox.cif.g09.slc.cpg/sg12_87_cif.got.tgz:172115.got - 2010.06.28 00:19:55.
