data_PCOD8108035
_publ_section_title
;
Structure prediction by ZEFSAII (Michael W. Deem and Ramdas Pophale) SiO2 
 PCOD8108035
Probable space group: C 2/M
;
_chemical_formula_sum "Si O2"
_cell_formula_units_Z 52
_cell_length_a 24.270850
_cell_length_b 18.551797
_cell_length_c 6.562022
_cell_angle_alpha 90.000000
_cell_angle_beta 56.379190
_cell_angle_gamma 90.000000
_cell_volume 2460.411496
_symmetry_space_group_name_H-M "C 2/M"
_symmetry_group_IT_number 12
_symmetry_cell_setting 'monoclinic'
loop_
_space_group_symop_operation_xyz
x,y,z
-x,y,-z
-x,-y,-z
x,-y,z
1/2+x,1/2+y,z
1/2-x,1/2+y,-z
1/2-x,1/2-y,-z
1/2+x,1/2-y,z
loop_
_atom_site_type_symbol
_atom_site_label
_atom_site_fract_x
_atom_site_fract_y
_atom_site_fract_z
Si Si1 0.591060 0.772679 0.625227
Si Si2 0.705422 0.416493 0.675364
Si Si3 0.935701 0.147036 0.024039
Si Si4 0.313181 0.917659 0.117326
Si Si5 0.926036 0.423705 0.200977
Si Si6 0.280844 0.183726 0.824258
Si Si7 0.500000 0.307067 0.500000
O O1 0.569608 0.855980 0.661259
O O2 0.669444 0.776447 0.432240
O O3 0.552074 0.738957 0.518697
O O4 0.575510 0.728767 0.865238
O O5 0.714249 0.500000 0.721349
O O6 0.748358 0.399520 0.386366
O O7 0.727856 0.364374 0.811896
O O8 0.628007 0.401085 0.792913
O O9 0.952987 0.147041 0.748125
O O10 0.000000 0.111977 0.000000
O O11 0.380222 0.901767 0.103889
O O12 0.310123 0.000000 0.049851
O O13 0.317054 0.867529 0.912033
O O14 0.896502 0.500000 0.354049
O O15 0.000000 0.442999 0.000000
O O16 0.250000 0.250000 0.000000
#
# Coordination Sequence:
#
# PCOD8108035 Si02
#       7
#     8   8   8   8   8   8   4
#     4  11  23  37  64  89 129 163 208 259 310 374
#     4  11  24  44  66  91 129 167 210 265 318 376
#     4  10  23  43  66  94 124 159 209 264 323 385
#     4  10  23  42  62  89 130 172 211 256 310 372
#     4  10  21  38  59  86 123 166 208 254 304 360
#     4  12  25  37  63  95 124 166 214 257 310 376
#     4  10  22  40  62  94 124 162 206 264 322 374
#
# _framework density 21.134675000000001
#
# number of rings (size 3 to 8) (size 9 to 14) (size 15 to 20)
#    0.000    1.385    1.538    3.692    6.462    3.385 
#    0.000    0.769    0.000    0.000    0.000    0.000 
#    0.000    0.000    0.000    0.000    0.000    0.000 
#
# Total GULP energy -322178.831823 kJ/mol
# GULP energy per Si atom -12391.493532 kJ/mol
# Density = 2.108657 g / cm^3
# Si number density = 21.134675 Si / 1000 Ang^3
#
#
#
# Elastic Constant Matrix: (Units=GPa)
#
#
# Indices 1 2 3 4 5 6 
#
# 1 113.4286 12.8177 29.5544 0.0000 -19.2667 0.0000
# 2 12.8177 68.0119 18.4322 0.0000 -1.8100 0.0000
# 3 29.5544 18.4322 99.3628 0.0000 -9.2503 0.0000
# 4 0.0000 0.0000 0.0000 13.5104 0.0000 -25.1398
# 5 -19.2667 -1.8100 -9.2503 0.0000 36.2322 0.0000
# 6 0.0000 0.0000 0.0000 -25.1398 0.0000 8.0333
#
#
#
# Elastic Compliance Matrix: (Units=1/GPa)
#
#
# Indices 1 2 3 4 5 6 
#
# 1 0.010405 -0.001175 -0.002425 0.000000 0.004855 0.000000
# 2 -0.001175 0.015614 -0.002594 0.000000 -0.000507 0.000000
# 3 -0.002425 -0.002594 0.011406 0.000000 0.001493 0.000000
# 4 0.000000 0.000000 0.000000 -0.015346 0.000000 -0.048025
# 5 0.004855 -0.000507 0.001493 0.000000 0.030537 0.000000
# 6 0.000000 0.000000 0.000000 -0.048025 0.000000 -0.025809
#
#
# Mechanical properties :
#
#
# Convention : Reuss Voigt Hill
#
# Bulk Modulus (GPa) = 39.94027 44.71242 42.32634
# Shear Modulus (GPa) = 105.17080 26.22178 65.69629
#
# Velocity S-wave (km/s) = 7.06189 3.52618 5.58140
# Velocity P-wave (km/s) = 9.24298 6.14658 7.84898
#
# Compressibility (1/GPa) = 0.02503739
#
# Stress axis : x y z
#
# Youngs Moduli (GPa) = 96.10366 64.04390 87.67559
#
# Poissons Ratio (x) = 0.07522 0.21262
# Poissons Ratio (y) = 0.11288 0.22746
# Poissons Ratio (z) = 0.23306 0.16615
#
# Static dielectric constant tensor:
#      x y z
#    x 3.844570 0.000000 -0.129310 
#    y 0.000000 4.559480 0.000000 
#    z -0.129310 0.000000 3.736310 
# 
# 
# High freq. dielectric constant tensor:
#      x y z
#    x 1.835870 0.000000 -0.015950 
#    y 0.000000 1.831460 0.000000 
#    z -0.015950 0.000000 1.822300 
# 
# From -- ./inp_files/25587.got.cif
#   From: 2010.06.25/outbox.cif.g09.slc.cpg/sg12_13_cif.got.tgz:25587.got - 2010.06.28 00:19:55.
