data_PCOD8108772
_publ_section_title
;
Structure prediction by ZEFSAII (Michael W. Deem and Ramdas Pophale) SiO2 
 PCOD8108772
Probable space group: C 2/M
;
_chemical_formula_sum "Si O2"
_cell_formula_units_Z 48
_cell_length_a 26.924965
_cell_length_b 14.813760
_cell_length_c 11.838085
_cell_angle_alpha 90.000000
_cell_angle_beta 27.802675
_cell_angle_gamma 90.000000
_cell_volume 2202.350626
_symmetry_space_group_name_H-M "C 2/M"
_symmetry_group_IT_number 12
_symmetry_cell_setting 'monoclinic'
loop_
_space_group_symop_operation_xyz
x,y,z
-x,y,-z
-x,-y,-z
x,-y,z
1/2+x,1/2+y,z
1/2-x,1/2+y,-z
1/2-x,1/2-y,-z
1/2+x,1/2-y,z
loop_
_atom_site_type_symbol
_atom_site_label
_atom_site_fract_x
_atom_site_fract_y
_atom_site_fract_z
Si Si1 0.144655 0.704984 0.921239
Si Si2 0.157498 0.100143 0.481011
Si Si3 0.881443 0.260392 0.274345
Si Si4 0.263347 0.834124 0.846921
Si Si5 0.923623 0.397957 0.359258
Si Si6 0.888726 0.838245 0.662760
O O1 0.219178 0.619201 0.796492
O O2 0.181875 0.740261 0.718644
O O3 0.173662 0.786068 0.947413
O O4 0.024377 0.669275 0.179299
O O5 0.116548 0.168381 0.658428
O O6 0.095072 0.109506 0.487934
O O7 0.141730 0.000000 0.560788
O O8 0.852397 0.349488 0.405954
O O9 0.000000 0.280091 0.000000
O O10 0.340874 0.905208 0.629461
O O11 0.346735 0.762172 0.727482
O O12 0.198750 0.884486 0.076993
O O13 0.959665 0.500000 0.254440
O O14 0.000000 0.835271 0.500000
#
# Coordination Sequence:
#
# PCOD8108772 Si02
#       6
#     8   8   8   8   8   8
#     4  10  21  40  65  90 128 166 208 258 322 378
#     4  11  23  40  62  92 125 169 217 257 313 381
#     4  10  22  40  64  90 127 167 203 262 317 379
#     4  10  21  38  65  95 121 169 210 260 320 378
#     4  11  22  38  63  98 129 161 208 259 314 378
#     4  10  21  39  65  87 123 169 215 260 317 373
#
# _framework density 21.794896000000001
#
# number of rings (size 3 to 8) (size 9 to 14) (size 15 to 20)
#    0.000    1.667    3.333    2.000    2.333    5.000 
#    0.000    0.000    0.000   10.500    0.000    0.000 
#    0.000    0.000    0.000    0.000    0.000    0.000 
#
# Total GULP energy -297349.445964 kJ/mol
# GULP energy per Si atom -12389.560249 kJ/mol
# Density = 2.174529 g / cm^3
# Si number density = 21.794896 Si / 1000 Ang^3
#
#
#
# Elastic Constant Matrix: (Units=GPa)
#
#
# Indices 1 2 3 4 5 6 
#
# 1 128.8928 28.6137 27.4422 0.0000 0.0559 0.0000
# 2 28.6137 103.3408 17.1142 0.0000 5.8049 0.0000
# 3 27.4422 17.1142 68.2561 0.0000 14.1219 0.0000
# 4 0.0000 0.0000 0.0000 22.8320 0.0000 -0.0681
# 5 0.0559 5.8049 14.1219 0.0000 35.0386 0.0000
# 6 0.0000 0.0000 0.0000 -0.0681 0.0000 8.1095
#
#
#
# Elastic Compliance Matrix: (Units=1/GPa)
#
#
# Indices 1 2 3 4 5 6 
#
# 1 0.008935 -0.001999 -0.003444 0.000000 0.001705 0.000000
# 2 -0.001999 0.010560 -0.001617 0.000000 -0.001094 0.000000
# 3 -0.003444 -0.001617 0.017875 0.000000 -0.006931 0.000000
# 4 0.000000 0.000000 0.000000 0.043799 0.000000 0.000368
# 5 0.001705 -0.001094 -0.006931 0.000000 0.031512 0.000000
# 6 0.000000 0.000000 0.000000 0.000368 0.000000 0.123316
#
#
# Mechanical properties :
#
#
# Convention : Reuss Voigt Hill
#
# Bulk Modulus (GPa) = 43.01401 49.64779 46.33090
# Shear Modulus (GPa) = 19.38989 28.35064 23.87027
#
# Velocity S-wave (km/s) = 2.98594 3.61056 3.31301
# Velocity P-wave (km/s) = 5.62730 6.34118 5.99487
#
# Compressibility (1/GPa) = 0.02324824
#
# Stress axis : x y z
#
# Youngs Moduli (GPa) = 111.92372 94.70013 55.94513
#
# Poissons Ratio (x) = 0.18934 0.19265
# Poissons Ratio (y) = 0.22378 0.09049
# Poissons Ratio (z) = 0.38542 0.15317
#
# Static dielectric constant tensor:
#      x y z
#    x 4.707540 0.000000 0.197050 
#    y 0.000000 3.479800 0.000000 
#    z 0.197050 0.000000 4.194430 
# 
# 
# High freq. dielectric constant tensor:
#      x y z
#    x 1.869420 0.000000 0.003720 
#    y 0.000000 1.816360 0.000000 
#    z 0.003720 0.000000 1.874800 
# 
# From -- ./inp_files/183686.got.cif
#   From: 2010.06.25/outbox.cif.g09.slc.cpg/sg12_92_cif.got.tgz:183686.got - 2010.06.28 00:19:55.
