data_PCOD8108869
_publ_section_title
;
Structure prediction by ZEFSAII (Michael W. Deem and Ramdas Pophale) SiO2 
 PCOD8108869
Probable space group: C 2/M
;
_chemical_formula_sum "Si O2"
_cell_formula_units_Z 64
_cell_length_a 30.083174
_cell_length_b 9.014599
_cell_length_c 19.847129
_cell_angle_alpha 90.000000
_cell_angle_beta 142.306160
_cell_angle_gamma 90.000000
_cell_volume 3290.963055
_symmetry_space_group_name_H-M "C 2/M"
_symmetry_group_IT_number 12
_symmetry_cell_setting 'monoclinic'
loop_
_space_group_symop_operation_xyz
x,y,z
-x,y,-z
-x,-y,-z
x,-y,z
1/2+x,1/2+y,z
1/2-x,1/2+y,-z
1/2-x,1/2-y,-z
1/2+x,1/2-y,z
loop_
_atom_site_type_symbol
_atom_site_label
_atom_site_fract_x
_atom_site_fract_y
_atom_site_fract_z
Si Si1 0.918326 0.170692 0.772615
Si Si2 0.582682 0.324308 0.594761
Si Si3 0.679326 0.824459 0.446103
Si Si4 0.338455 0.332130 0.813956
Si Si5 0.827194 0.174955 0.169400
Si Si6 0.162770 0.326633 0.954576
Si Si7 0.432724 0.173524 0.033144
Si Si8 0.826283 0.328679 0.406520
O O1 0.892158 0.267439 0.678041
O O2 0.860028 0.188036 0.762128
O O3 0.995024 0.231817 0.889972
O O4 0.926336 0.000000 0.760365
O O5 0.500000 0.267709 0.500000
O O6 0.586621 0.500000 0.597740
O O7 0.628197 0.262472 0.713250
O O8 0.615818 0.265146 0.565412
O O9 0.750000 0.750000 0.500000
O O10 0.670349 0.775681 0.512428
O O11 0.687365 0.000000 0.448408
O O12 0.357099 0.500000 0.859841
O O13 0.253420 0.299089 0.719028
O O14 0.379479 0.212763 0.908290
O O15 0.860571 0.243803 0.141495
O O16 0.835801 0.000000 0.174574
O O17 0.742923 0.223314 0.075596
O O18 0.162156 0.500000 0.938720
O O19 0.105087 0.282322 0.942157
O O20 0.450822 0.000000 0.051528
O O21 0.847567 0.500000 0.426321
#
# Coordination Sequence:
#
# PCOD8108869 Si02
#       8
#     8   8   8   8   8   8   8   8
#     4  11  23  40  59  83 117 157 197 244 295 346
#     4  10  22  39  58  85 119 151 190 242 295 349
#     4  11  22  40  63  89 120 154 197 248 294 348
#     4  10  21  39  59  82 115 153 194 243 294 348
#     4   9  18  35  58  81 108 144 188 235 284 342
#     4   9  19  35  55  80 111 144 184 235 286 342
#     4  11  23  37  55  86 121 153 193 239 292 356
#     4  10  22  40  62  88 117 153 199 244 294 353
#
# _framework density 19.447195000000001
#
# number of rings (size 3 to 8) (size 9 to 14) (size 15 to 20)
#    0.000    1.875    1.250    2.250    0.000    7.750 
#    0.000    5.000    0.000    0.000    0.000    0.000 
#    0.000    0.000    0.000    0.000    0.000    0.000 
#
# Total GULP energy -396960.894523 kJ/mol
# GULP energy per Si atom -12405.027954 kJ/mol
# Density = 1.940293 g / cm^3
# Si number density = 19.447195 Si / 1000 Ang^3
#
#
#
# Elastic Constant Matrix: (Units=GPa)
#
#
# Indices 1 2 3 4 5 6 
#
# 1 109.4060 41.9454 54.4657 0.0000 0.7326 0.0000
# 2 41.9454 54.7561 35.3024 0.0000 -5.5094 0.0000
# 3 54.4657 35.3024 98.5860 0.0000 -12.1406 0.0000
# 4 0.0000 0.0000 0.0000 32.9176 0.0000 -3.6667
# 5 0.7326 -5.5094 -12.1406 0.0000 30.2558 0.0000
# 6 0.0000 0.0000 0.0000 -3.6667 0.0000 33.2004
#
#
#
# Elastic Compliance Matrix: (Units=1/GPa)
#
#
# Indices 1 2 3 4 5 6 
#
# 1 0.015362 -0.008305 -0.006044 0.000000 -0.004309 0.000000
# 2 -0.008305 0.028261 -0.005126 0.000000 0.003290 0.000000
# 3 -0.006044 -0.005126 0.016012 0.000000 0.005638 0.000000
# 4 0.000000 0.000000 0.000000 0.030757 0.000000 0.003397
# 5 -0.004309 0.003290 0.005638 0.000000 0.036017 0.000000
# 6 0.000000 0.000000 0.000000 0.003397 0.000000 0.030495
#
#
# Mechanical properties :
#
#
# Convention : Reuss Voigt Hill
#
# Bulk Modulus (GPa) = 48.34438 58.46390 53.40414
# Shear Modulus (GPa) = 24.66083 28.01040 26.33561
#
# Velocity S-wave (km/s) = 3.56489 3.79929 3.68395
# Velocity P-wave (km/s) = 6.46977 7.02668 6.75397
#
# Compressibility (1/GPa) = 0.02068493
#
# Stress axis : x y z
#
# Youngs Moduli (GPa) = 65.09581 35.38453 62.45128
#
# Poissons Ratio (x) = 0.29387 0.37744
# Poissons Ratio (y) = 0.54062 0.32016
# Poissons Ratio (z) = 0.39343 0.18140
#
# Static dielectric constant tensor:
#      x y z
#    x 3.554850 0.000000 -0.025990 
#    y 0.000000 3.470900 0.000000 
#    z -0.025990 0.000000 3.667080 
# 
# 
# High freq. dielectric constant tensor:
#      x y z
#    x 1.760230 0.000000 -0.002660 
#    y 0.000000 1.753630 0.000000 
#    z -0.002660 0.000000 1.763690 
# 
# From -- ./inp_files/295666.got.cif
#   From: 2010.06.25/outbox.cif.g09.slc.cpg/sg12_148_cif.got.tgz:295666.got - 2010.06.28 00:19:55.
