data_PCOD8108092
_publ_section_title
;
Structure prediction by ZEFSAII (Michael W. Deem and Ramdas Pophale) SiO2 
 PCOD8108092
Probable space group: C 2/M
;
_chemical_formula_sum "Si O2"
_cell_formula_units_Z 32
_cell_length_a 14.609626
_cell_length_b 18.267815
_cell_length_c 12.706925
_cell_angle_alpha 90.000000
_cell_angle_beta 152.805996
_cell_angle_gamma 90.000000
_cell_volume 1549.840395
_symmetry_space_group_name_H-M "C 2/M"
_symmetry_group_IT_number 12
_symmetry_cell_setting 'monoclinic'
loop_
_space_group_symop_operation_xyz
x,y,z
-x,y,-z
-x,-y,-z
x,-y,z
1/2+x,1/2+y,z
1/2-x,1/2+y,-z
1/2-x,1/2-y,-z
1/2+x,1/2-y,z
loop_
_atom_site_type_symbol
_atom_site_label
_atom_site_fract_x
_atom_site_fract_y
_atom_site_fract_z
Si Si1 0.574627 0.082877 0.466076
Si Si2 0.525565 0.792908 0.144528
Si Si3 0.228317 0.581506 0.028324
Si Si4 0.111402 0.842016 0.358152
O O1 0.500000 0.117294 0.500000
O O2 0.382842 0.085296 0.195939
O O3 0.755264 0.129715 0.602894
O O4 0.652038 0.000000 0.561977
O O5 0.365677 0.858618 0.990161
O O6 0.749759 0.821073 0.400242
O O7 0.483061 0.727160 0.183771
O O8 0.500000 0.763482 0.000000
O O9 0.207547 0.500000 0.056633
O O10 0.462100 0.596385 0.247421
#
# Coordination Sequence:
#
# PCOD8108092 Si02
#       4
#     8   8   8   8
#     4   9  19  34  55  88 121 148 185 234 284 337
#     4  10  23  40  57  85 116 150 189 240 280 331
#     4  10  21  38  60  84 115 150 191 238 280 336
#     4  10  21  39  59  86 113 153 190 230 286 340
#
# _framework density 20.647286000000001
#
# number of rings (size 3 to 8) (size 9 to 14) (size 15 to 20)
#    0.000    2.250    0.000    1.500    3.500    2.500 
#    0.000    5.000    0.000    0.000    0.000    0.000 
#    0.000    0.000    0.000    0.000    0.000    0.000 
#
# Total GULP energy -198396.966308 kJ/mol
# GULP energy per Si atom -12399.810394 kJ/mol
# Density = 2.060029 g / cm^3
# Si number density = 20.647286 Si / 1000 Ang^3
#
#
#
# Elastic Constant Matrix: (Units=GPa)
#
#
# Indices 1 2 3 4 5 6 
#
# 1 56.3846 21.3453 42.5537 0.0000 -1.0601 0.0000
# 2 21.3453 94.1784 30.7350 0.0000 10.7738 0.0000
# 3 42.5537 30.7350 70.3995 0.0000 3.5949 0.0000
# 4 0.0000 0.0000 0.0000 31.4066 0.0000 7.9565
# 5 -1.0601 10.7738 3.5949 0.0000 32.6997 0.0000
# 6 0.0000 0.0000 0.0000 7.9565 0.0000 32.4059
#
#
#
# Elastic Compliance Matrix: (Units=1/GPa)
#
#
# Indices 1 2 3 4 5 6 
#
# 1 0.033148 -0.001562 -0.019546 0.000000 0.003738 0.000000
# 2 -0.001562 0.012869 -0.004480 0.000000 -0.003798 0.000000
# 3 -0.019546 -0.004480 0.028090 0.000000 -0.002246 0.000000
# 4 0.000000 0.000000 0.000000 0.033952 0.000000 -0.008336
# 5 0.003738 -0.003798 -0.002246 0.000000 0.032201 0.000000
# 6 0.000000 0.000000 0.000000 -0.008336 0.000000 0.032905
#
#
# Mechanical properties :
#
#
# Convention : Reuss Voigt Hill
#
# Bulk Modulus (GPa) = 43.60875 45.58118 44.59497
# Shear Modulus (GPa) = 21.55320 27.72435 24.63877
#
# Velocity S-wave (km/s) = 3.23441 3.66834 3.45819
# Velocity P-wave (km/s) = 5.92581 6.32980 6.13113
#
# Compressibility (1/GPa) = 0.02293118
#
# Stress axis : x y z
#
# Youngs Moduli (GPa) = 30.16770 77.70773 35.60004
#
# Poissons Ratio (x) = 0.12137 0.69583
# Poissons Ratio (y) = 0.04712 0.15950
# Poissons Ratio (z) = 0.58965 0.34815
#
# Static dielectric constant tensor:
#      x y z
#    x 3.411200 0.000000 0.023940 
#    y 0.000000 3.963210 0.000000 
#    z 0.023940 0.000000 3.628620 
# 
# 
# High freq. dielectric constant tensor:
#      x y z
#    x 1.785580 0.000000 0.003590 
#    y 0.000000 1.817350 0.000000 
#    z 0.003590 0.000000 1.803860 
# 
# From -- ./inp_files/6046.got.cif
#   From: 2010.06.25/outbox.cif.g09.slc.cpg/sg12_4_cif.got.tgz:6046.got - 2010.06.28 00:19:55.
