data_PCOD8108946
_publ_section_title
;
Structure prediction by ZEFSAII (Michael W. Deem and Ramdas Pophale) SiO2 
 PCOD8108946
Probable space group: C 2/M
;
_chemical_formula_sum "Si O2"
_cell_formula_units_Z 64
_cell_length_a 21.258619
_cell_length_b 8.328007
_cell_length_c 20.243090
_cell_angle_alpha 90.000000
_cell_angle_beta 58.468583
_cell_angle_gamma 90.000000
_cell_volume 3054.729102
_symmetry_space_group_name_H-M "C 2/M"
_symmetry_group_IT_number 12
_symmetry_cell_setting 'monoclinic'
loop_
_space_group_symop_operation_xyz
x,y,z
-x,y,-z
-x,-y,-z
x,-y,z
1/2+x,1/2+y,z
1/2-x,1/2+y,-z
1/2-x,1/2-y,-z
1/2+x,1/2-y,z
loop_
_atom_site_type_symbol
_atom_site_label
_atom_site_fract_x
_atom_site_fract_y
_atom_site_fract_z
Si Si1 0.473131 0.809245 0.696864
Si Si2 0.323011 0.183651 0.989054
Si Si3 0.831396 0.690433 0.695967
Si Si4 0.051841 0.315519 0.909977
Si Si5 0.540255 0.316942 0.151248
Si Si6 0.639519 0.190028 0.587228
Si Si7 0.273218 0.809671 0.588300
Si Si8 0.301470 0.684180 0.138890
O O1 0.412495 0.749032 0.675776
O O2 0.449029 0.743344 0.780553
O O3 0.555495 0.743731 0.635720
O O4 0.472607 0.000000 0.698949
O O5 0.382523 0.305471 0.928111
O O6 0.340269 0.000000 0.959240
O O7 0.250000 0.250000 0.000000
O O8 0.315962 0.195090 0.071133
O O9 0.831609 0.500000 0.690998
O O10 0.808363 0.761066 0.636759
O O11 0.769246 0.746750 0.781878
O O12 0.073919 0.500000 0.909153
O O13 0.123163 0.201992 0.861434
O O14 0.013662 0.298356 0.859955
O O15 0.000000 0.257995 0.000000
O O16 0.512419 0.500000 0.165552
O O17 0.675345 0.254048 0.499533
O O18 0.688875 0.251147 0.622096
O O19 0.638606 0.000000 0.589851
O O20 0.272100 0.000000 0.591880
O O21 0.289381 0.500000 0.123275
#
# Coordination Sequence:
#
# PCOD8108946 Si02
#       8
#     8   8   8   8   8   8   8   8
#     4  10  21  39  60  86 122 157 198 247 299 359
#     4  12  24  40  60  83 113 155 200 246 300 355
#     4   9  20  37  59  87 118 156 196 244 296 349
#     4  11  23  40  61  85 113 151 196 248 307 359
#     4  12  25  40  60  86 116 153 197 246 301 361
#     4   9  19  35  59  90 119 155 198 243 295 352
#     4   9  18  36  60  87 120 156 198 243 292 352
#     4  11  22  37  58  86 117 153 199 247 300 359
#
# _framework density 20.951121000000001
#
# number of rings (size 3 to 8) (size 9 to 14) (size 15 to 20)
#    0.000    1.625    1.250    3.750    1.750    2.500 
#    0.000    4.375    0.000    0.000    0.000    4.375 
#    0.000    0.000    0.000    0.000    0.000    0.000 
#
# Total GULP energy -396704.863345 kJ/mol
# GULP energy per Si atom -12397.026980 kJ/mol
# Density = 2.090344 g / cm^3
# Si number density = 20.951121 Si / 1000 Ang^3
#
#
#
# Elastic Constant Matrix: (Units=GPa)
#
#
# Indices 1 2 3 4 5 6 
#
# 1 180.5121 17.1150 78.5354 0.0002 -6.1219 0.0003
# 2 17.1150 39.2662 12.5676 0.0005 1.3102 0.0007
# 3 78.5354 12.5676 109.8782 -0.0001 3.5618 -0.0002
# 4 0.0002 0.0005 -0.0001 23.0693 0.0001 1.0641
# 5 -6.1219 1.3102 3.5618 0.0001 33.3972 -0.0001
# 6 0.0003 0.0007 -0.0002 1.0641 -0.0001 30.7605
#
#
#
# Elastic Compliance Matrix: (Units=1/GPa)
#
#
# Indices 1 2 3 4 5 6 
#
# 1 0.008315 -0.001840 -0.005804 0.000000 0.002215 0.000000
# 2 -0.001840 0.026859 -0.001718 -0.000001 -0.001208 -0.000001
# 3 -0.005804 -0.001718 0.013525 0.000000 -0.002439 0.000000
# 4 0.000000 -0.000001 0.000000 0.043417 0.000000 -0.001502
# 5 0.002215 -0.001208 -0.002439 0.000000 0.030656 0.000000
# 6 0.000000 -0.000001 0.000000 -0.001502 0.000000 0.032561
#
#
# Mechanical properties :
#
#
# Convention : Reuss Voigt Hill
#
# Bulk Modulus (GPa) = 33.36129 60.67694 47.01911
# Shear Modulus (GPa) = 27.16664 32.20797 29.68731
#
# Velocity S-wave (km/s) = 3.60483 3.92508 3.76836
# Velocity P-wave (km/s) = 5.76926 7.04030 6.43623
#
# Compressibility (1/GPa) = 0.02997486
#
# Stress axis : x y z
#
# Youngs Moduli (GPa) = 120.26948 37.23094 73.93678
#
# Poissons Ratio (x) = 0.06852 0.42915
# Poissons Ratio (y) = 0.22134 0.12699
# Poissons Ratio (z) = 0.69807 0.06395
#
# Static dielectric constant tensor:
#      x y z
#    x 4.205570 -0.000010 -0.061900 
#    y -0.000010 3.501810 0.000000 
#    z -0.061900 0.000000 3.874220 
# 
# 
# High freq. dielectric constant tensor:
#      x y z
#    x 1.839930 0.000000 -0.000590 
#    y 0.000000 1.798170 0.000000 
#    z -0.000590 0.000000 1.812450 
# 
# From -- ./inp_files/319836.got.cif
#   From: 2010.06.25/outbox.cif.g09.slc.cpg/sg12_160_cif.got.tgz:319836.got - 2010.06.28 00:19:55.
