data_PCOD8108266
_publ_section_title
;
Structure prediction by ZEFSAII (Michael W. Deem and Ramdas Pophale) SiO2 
 PCOD8108266
Probable space group: C 2/M
;
_chemical_formula_sum "Si O2"
_cell_formula_units_Z 40
_cell_length_a 30.955363
_cell_length_b 8.611842
_cell_length_c 22.035128
_cell_angle_alpha 90.000000
_cell_angle_beta 160.285857
_cell_angle_gamma 90.000000
_cell_volume 1981.524577
_symmetry_space_group_name_H-M "C 2/M"
_symmetry_group_IT_number 12
_symmetry_cell_setting 'monoclinic'
loop_
_space_group_symop_operation_xyz
x,y,z
-x,y,-z
-x,-y,-z
x,-y,z
1/2+x,1/2+y,z
1/2-x,1/2+y,-z
1/2-x,1/2-y,-z
1/2+x,1/2-y,z
loop_
_atom_site_type_symbol
_atom_site_label
_atom_site_fract_x
_atom_site_fract_y
_atom_site_fract_z
Si Si1 0.454990 0.320830 0.619942
Si Si2 0.427659 0.820115 0.342145
Si Si3 0.814926 0.819127 0.733325
Si Si4 0.953127 0.680892 0.025889
Si Si5 0.364732 0.680537 0.031013
O O1 0.415027 0.500000 0.569799
O O2 0.505771 0.282892 0.620592
O O3 0.332033 0.218874 0.474160
O O4 0.565718 0.280706 0.814131
O O5 0.500000 0.786729 0.500000
O O6 0.437002 0.000000 0.335495
O O7 0.281560 0.766341 0.155918
O O8 0.902822 0.726315 0.802114
O O9 0.839875 0.000000 0.756814
O O10 0.850459 0.773193 0.849217
O O11 0.932165 0.500000 0.986786
O O12 0.932517 0.720755 0.068548
O O13 0.374182 0.500000 0.026260
#
# Coordination Sequence:
#
# PCOD8108266 Si02
#       5
#     8   8   8   8   8
#     4  11  23  38  58  86 120 155 196 244 289 340
#     4  10  21  38  61  86 114 153 198 241 290 350
#     4  11  22  39  62  85 116 156 196 239 291 347
#     4  11  22  38  62  90 118 149 193 243 289 344
#     4  10  22  39  58  85 122 159 193 235 292 351
#
# _framework density 20.186475999999999
#
# number of rings (size 3 to 8) (size 9 to 14) (size 15 to 20)
#    0.000    1.400    0.000    7.200    0.000    5.200 
#    0.000    0.000    0.000    0.000    0.000    0.000 
#    0.000    0.000    0.000    0.000    0.000    0.000 
#
# Total GULP energy -248155.610604 kJ/mol
# GULP energy per Si atom -12407.780530 kJ/mol
# Density = 2.014053 g / cm^3
# Si number density = 20.186476 Si / 1000 Ang^3
#
#
#
# Elastic Constant Matrix: (Units=GPa)
#
#
# Indices 1 2 3 4 5 6 
#
# 1 72.7522 17.3112 46.5057 0.0000 8.9318 0.0000
# 2 17.3112 69.5617 25.5309 0.0000 -0.2898 0.0000
# 3 46.5057 25.5309 137.1895 0.0000 7.6050 0.0000
# 4 0.0000 0.0000 0.0000 26.9228 0.0000 27.7577
# 5 8.9318 -0.2898 7.6050 0.0000 24.2475 0.0000
# 6 0.0000 0.0000 0.0000 27.7577 0.0000 -261.2829
#
#
#
# Elastic Compliance Matrix: (Units=1/GPa)
#
#
# Indices 1 2 3 4 5 6 
#
# 1 0.018515 -0.002608 -0.005507 0.000000 -0.005124 0.000000
# 2 -0.002608 0.015826 -0.002163 0.000000 0.001828 0.000000
# 3 -0.005507 -0.002163 0.009615 0.000000 -0.001013 0.000000
# 4 0.000000 0.000000 0.000000 0.033477 0.000000 0.003556
# 5 -0.005124 0.001828 -0.001013 0.000000 0.043468 0.000000
# 6 0.000000 0.000000 0.000000 0.003556 0.000000 -0.003449
#
#
# Mechanical properties :
#
#
# Convention : Reuss Voigt Hill
#
# Bulk Modulus (GPa) = 42.73322 50.91102 46.82212
# Shear Modulus (GPa) = 34.29200 -29.34549 2.47325
#
# Velocity S-wave (km/s) = 4.12607 -3.81690 1.10809
# Velocity P-wave (km/s) = 6.62680 2.41870 4.98822
#
# Compressibility (1/GPa) = 0.02340100
#
# Stress axis : x y z
#
# Youngs Moduli (GPa) = 54.00962 63.18703 104.00825
#
# Poissons Ratio (x) = 0.16478 0.57278
# Poissons Ratio (y) = 0.14085 0.22492
# Poissons Ratio (z) = 0.29744 0.13664
#
# Static dielectric constant tensor:
#      x y z
#    x 3.594600 0.000000 0.049610 
#    y 0.000000 3.656280 0.000000 
#    z 0.049610 0.000000 3.751720 
# 
# 
# High freq. dielectric constant tensor:
#      x y z
#    x 1.792450 0.000000 0.005110 
#    y 0.000000 1.791200 0.000000 
#    z 0.005110 0.000000 1.797300 
# 
# From -- ./inp_files/151617.got.cif
#   From: 2010.06.25/outbox.cif.g09.slc.cpg/sg12_76_cif.got.tgz:151617.got - 2010.06.28 00:19:55.
