data_PCOD8108181
_publ_section_title
;
Structure prediction by ZEFSAII (Michael W. Deem and Ramdas Pophale) SiO2 
 PCOD8108181
Probable space group: C 2/M
;
_chemical_formula_sum "Si O2"
_cell_formula_units_Z 40
_cell_length_a 9.973724
_cell_length_b 13.223542
_cell_length_c 16.645245
_cell_angle_alpha 90.000000
_cell_angle_beta 125.379432
_cell_angle_gamma 90.000000
_cell_volume 1789.912462
_symmetry_space_group_name_H-M "C 2/M"
_symmetry_group_IT_number 12
_symmetry_cell_setting 'monoclinic'
loop_
_space_group_symop_operation_xyz
x,y,z
-x,y,-z
-x,-y,-z
x,-y,z
1/2+x,1/2+y,z
1/2-x,1/2+y,-z
1/2-x,1/2-y,-z
1/2+x,1/2-y,z
loop_
_atom_site_type_symbol
_atom_site_label
_atom_site_fract_x
_atom_site_fract_y
_atom_site_fract_z
Si Si1 0.840551 0.891181 0.491311
Si Si2 0.323837 0.115657 0.178076
Si Si3 0.414093 0.747973 0.666186
Si Si4 0.489148 0.383233 0.838959
Si Si5 0.351913 0.881083 0.004369
O O1 0.725159 0.833060 0.388224
O O2 0.897428 0.822952 0.584359
O O3 0.000000 0.921178 0.500000
O O4 0.761366 0.000000 0.491461
O O5 0.413765 0.191263 0.270993
O O6 0.126251 0.126572 0.121728
O O7 0.375864 0.000000 0.214322
O O8 0.380548 0.144997 0.107530
O O9 0.395308 0.678092 0.737448
O O10 0.504078 0.500000 0.817600
O O11 0.672018 0.337006 0.917576
O O12 0.344476 0.000000 0.988905
O O13 0.500000 0.835879 0.000000
#
# Coordination Sequence:
#
# PCOD8108181 Si02
#       5
#     8   8   8   8   8
#     4  10  22  40  60  84 116 152 191 241 300 357
#     4  10  21  38  60  87 121 160 200 243 292 347
#     4  11  22  37  60  88 116 151 198 245 294 352
#     4  10  21  38  60  87 121 160 200 243 292 347
#     4   9  19  36  59  88 122 160 200 242 289 343
#
# _framework density 22.347460999999999
#
# number of rings (size 3 to 8) (size 9 to 14) (size 15 to 20)
#    0.000    2.000    0.000    3.000    0.000    6.400 
#    0.000    4.000    0.000    9.600    0.000    0.000 
#    0.000    0.000    0.000    0.000    0.000    0.000 
#
# Total GULP energy -247840.894085 kJ/mol
# GULP energy per Si atom -12392.044704 kJ/mol
# Density = 2.229660 g / cm^3
# Si number density = 22.347461 Si / 1000 Ang^3
#
#
#
# Elastic Constant Matrix: (Units=GPa)
#
#
# Indices 1 2 3 4 5 6 
#
# 1 140.3509 30.1781 42.8570 0.0000 7.5237 0.0000
# 2 30.1781 111.6257 36.9398 0.0000 17.4634 0.0000
# 3 42.8570 36.9398 99.8618 0.0000 21.9186 0.0000
# 4 0.0000 0.0000 0.0000 36.1221 0.0000 9.8336
# 5 7.5237 17.4634 21.9186 0.0000 25.2373 0.0000
# 6 0.0000 0.0000 0.0000 9.8336 0.0000 16.4448
#
#
#
# Elastic Compliance Matrix: (Units=1/GPa)
#
#
# Indices 1 2 3 4 5 6 
#
# 1 0.008381 -0.001359 -0.003400 0.000000 0.001395 0.000000
# 2 -0.001359 0.010895 -0.002324 0.000000 -0.005115 0.000000
# 3 -0.003400 -0.002324 0.014527 0.000000 -0.009994 0.000000
# 4 0.000000 0.000000 0.000000 0.033067 0.000000 -0.019773
# 5 0.001395 -0.005115 -0.009994 0.000000 0.051428 0.000000
# 6 0.000000 0.000000 0.000000 -0.019773 0.000000 0.072633
#
#
# Mechanical properties :
#
#
# Convention : Reuss Voigt Hill
#
# Bulk Modulus (GPa) = 50.92727 63.53202 57.22965
# Shear Modulus (GPa) = 23.62476 31.68506 27.65491
#
# Velocity S-wave (km/s) = 3.25492 3.76950 3.52162
# Velocity P-wave (km/s) = 6.07983 6.88741 6.49618
#
# Compressibility (1/GPa) = 0.01963585
#
# Stress axis : x y z
#
# Youngs Moduli (GPa) = 119.32246 91.78243 68.83959
#
# Poissons Ratio (x) = 0.12471 0.23407
# Poissons Ratio (y) = 0.16212 0.16001
# Poissons Ratio (z) = 0.40572 0.21334
#
# Static dielectric constant tensor:
#      x y z
#    x 4.063290 0.000000 0.097870 
#    y 0.000000 4.249480 0.000000 
#    z 0.097870 0.000000 3.951190 
# 
# 
# High freq. dielectric constant tensor:
#      x y z
#    x 1.867830 0.000000 0.007930 
#    y 0.000000 1.911400 0.000000 
#    z 0.007930 0.000000 1.867840 
# 
# From -- ./inp_files/194546.got.cif
#   From: 2010.06.25/outbox.cif.g09.slc.cpg/sg12_98_cif.got.tgz:194546.got - 2010.06.28 00:19:55.
