data_PCOD8108325
_publ_section_title
;
Structure prediction by ZEFSAII (Michael W. Deem and Ramdas Pophale) SiO2 
 PCOD8108325
Probable space group: C 2/M
;
_chemical_formula_sum "Si O2"
_cell_formula_units_Z 40
_cell_length_a 24.974278
_cell_length_b 8.649832
_cell_length_c 8.879209
_cell_angle_alpha 90.000000
_cell_angle_beta 87.864944
_cell_angle_gamma 90.000000
_cell_volume 1916.784528
_symmetry_space_group_name_H-M "C 2/M"
_symmetry_group_IT_number 12
_symmetry_cell_setting 'monoclinic'
loop_
_space_group_symop_operation_xyz
x,y,z
-x,y,-z
-x,-y,-z
x,-y,z
1/2+x,1/2+y,z
1/2-x,1/2+y,-z
1/2-x,1/2-y,-z
1/2+x,1/2-y,z
loop_
_atom_site_type_symbol
_atom_site_label
_atom_site_fract_x
_atom_site_fract_y
_atom_site_fract_z
Si Si1 0.205019 0.320291 0.301491
Si Si2 0.911218 0.179618 0.179283
Si Si3 0.312906 0.179574 0.353293
Si Si4 0.009427 0.680181 0.326845
Si Si5 0.392515 0.679891 0.837150
O O1 0.197685 0.500000 0.267951
O O2 0.266938 0.274107 0.270083
O O3 0.186979 0.274786 0.471567
O O4 0.168901 0.223768 0.189435
O O5 0.870506 0.279886 0.281657
O O6 0.971077 0.219887 0.223941
O O7 0.899221 0.000000 0.207077
O O8 0.905587 0.225384 0.006360
O O9 0.300612 0.000000 0.333441
O O10 0.997988 0.500000 0.302510
O O11 0.070246 0.720437 0.277733
O O12 0.000000 0.727736 0.500000
O O13 0.402460 0.500000 0.805887
#
# Coordination Sequence:
#
# PCOD8108325 Si02
#       5
#     8   8   8   8   8
#     4  10  21  38  61  88 117 152 195 240 287 341
#     4  11  24  40  59  86 119 154 193 237 287 343
#     4  10  21  38  61  88 117 152 195 240 287 341
#     4  11  24  41  62  88 116 149 192 239 288 344
#     4  11  24  40  59  86 119 154 193 237 287 343
#
# _framework density 20.868282000000001
#
# number of rings (size 3 to 8) (size 9 to 14) (size 15 to 20)
#    0.000    1.400    0.000    4.800    0.000   15.200 
#    0.000    0.000    0.000    0.000    0.000    0.000 
#    0.000    0.000    0.000    0.000    0.000    0.000 
#
# Total GULP energy -248186.639761 kJ/mol
# GULP energy per Si atom -12409.331988 kJ/mol
# Density = 2.082078 g / cm^3
# Si number density = 20.868282 Si / 1000 Ang^3
#
#
#
# Elastic Constant Matrix: (Units=GPa)
#
#
# Indices 1 2 3 4 5 6 
#
# 1 78.9429 10.6178 8.6217 0.0000 18.5048 0.0000
# 2 10.6178 56.8043 39.5070 0.0000 8.6087 0.0000
# 3 8.6217 39.5070 56.8249 0.0000 23.5711 0.0000
# 4 0.0000 0.0000 0.0000 28.8749 0.0000 1.6324
# 5 18.5048 8.6087 23.5711 0.0000 38.7713 0.0000
# 6 0.0000 0.0000 0.0000 1.6324 0.0000 43.5785
#
#
#
# Elastic Compliance Matrix: (Units=1/GPa)
#
#
# Indices 1 2 3 4 5 6 
#
# 1 0.014877 -0.004711 0.004720 0.000000 -0.008924 0.000000
# 2 -0.004711 0.038188 -0.031091 0.000000 0.012671 0.000000
# 3 0.004720 -0.031091 0.048900 0.000000 -0.025078 0.000000
# 4 0.000000 0.000000 0.000000 0.034706 0.000000 -0.001300
# 5 -0.008924 0.012671 -0.025078 0.000000 0.042484 0.000000
# 6 0.000000 0.000000 0.000000 -0.001300 0.000000 0.022996
#
#
# Mechanical properties :
#
#
# Convention : Reuss Voigt Hill
#
# Bulk Modulus (GPa) = 25.12510 34.45166 29.78838
# Shear Modulus (GPa) = 18.01254 31.16665 24.58960
#
# Velocity S-wave (km/s) = 2.94114 3.86877 3.43640
# Velocity P-wave (km/s) = 4.85795 6.04164 5.48184
#
# Compressibility (1/GPa) = 0.03980083
#
# Stress axis : x y z
#
# Youngs Moduli (GPa) = 67.21595 26.18598 20.44975
#
# Poissons Ratio (x) = 0.12336 -0.09652
# Poissons Ratio (y) = 0.31665 0.63581
# Poissons Ratio (z) = -0.31724 0.81416
#
# Static dielectric constant tensor:
#      x y z
#    x 3.724660 0.000000 0.067510 
#    y 0.000000 3.699480 0.000000 
#    z 0.067510 0.000000 3.714570 
# 
# 
# High freq. dielectric constant tensor:
#      x y z
#    x 1.828780 0.000000 0.006400 
#    y 0.000000 1.825250 0.000000 
#    z 0.006400 0.000000 1.813830 
# 
# From -- ./inp_files/92738.got.cif
#   From: 2010.06.25/outbox.cif.g09.slc.cpg/sg12_47_cif.got.tgz:92738.got - 2010.06.28 00:19:55.
