data_PCOD8108489
_publ_section_title
;
Structure prediction by ZEFSAII (Michael W. Deem and Ramdas Pophale) SiO2 
 PCOD8108489
Probable space group: C 2/M
;
_chemical_formula_sum "Si O2"
_cell_formula_units_Z 44
_cell_length_a 15.355124
_cell_length_b 22.196346
_cell_length_c 8.733874
_cell_angle_alpha 90.000000
_cell_angle_beta 131.507668
_cell_angle_gamma 90.000000
_cell_volume 2229.186731
_symmetry_space_group_name_H-M "C 2/M"
_symmetry_group_IT_number 12
_symmetry_cell_setting 'monoclinic'
loop_
_space_group_symop_operation_xyz
x,y,z
-x,y,-z
-x,-y,-z
x,-y,z
1/2+x,1/2+y,z
1/2-x,1/2+y,-z
1/2-x,1/2-y,-z
1/2+x,1/2-y,z
loop_
_atom_site_type_symbol
_atom_site_label
_atom_site_fract_x
_atom_site_fract_y
_atom_site_fract_z
Si Si1 0.704704 0.070038 0.426824
Si Si2 0.536067 0.429815 0.367556
Si Si3 0.028592 0.296619 0.753131
Si Si4 0.671635 0.159936 0.645181
Si Si5 0.922836 0.175628 0.055480
Si Si6 0.500000 0.872625 0.000000
O O1 0.829934 0.089877 0.503164
O O2 0.684763 0.096011 0.574345
O O3 0.702257 0.000000 0.448190
O O4 0.602198 0.087120 0.190495
O O5 0.500000 0.417696 0.500000
O O6 0.516034 0.500000 0.301124
O O7 0.453294 0.389590 0.161933
O O8 0.091809 0.339144 0.702712
O O9 0.065451 0.226741 0.799735
O O10 0.890050 0.296435 0.552557
O O11 0.059126 0.328823 0.946489
O O12 0.794907 0.182389 0.842267
O O13 0.000000 0.191343 0.000000
#
# Coordination Sequence:
#
# PCOD8108489 Si02
#       6
#     8   8   8   8   8   4
#     4  10  21  41  64  89 123 160 203 251 301 357
#     4  10  24  42  62  92 126 158 201 251 298 359
#     4  10  23  41  59  89 127 158 202 254 298 358
#     4  10  23  41  59  90 123 159 202 252 300 355
#     4  12  23  39  65  93 118 166 200 242 314 363
#     4  10  21  38  62  88 125 158 204 248 300 358
#
# _framework density 19.738140000000001
#
# number of rings (size 3 to 8) (size 9 to 14) (size 15 to 20)
#    0.000    1.636    2.727    0.818    5.091    3.273 
#    0.000    8.182    0.000    0.000    0.000    0.000 
#    0.000    0.000    0.000    0.000    0.000    0.000 
#
# Total GULP energy -272654.041355 kJ/mol
# GULP energy per Si atom -12393.365516 kJ/mol
# Density = 1.969322 g / cm^3
# Si number density = 19.738140 Si / 1000 Ang^3
#
#
#
# Elastic Constant Matrix: (Units=GPa)
#
#
# Indices 1 2 3 4 5 6 
#
# 1 117.0268 53.5939 58.1476 0.0000 -6.8144 0.0000
# 2 53.5939 102.6747 59.1693 0.0000 0.1536 0.0000
# 3 58.1476 59.1693 126.9564 0.0000 13.4227 0.0000
# 4 0.0000 0.0000 0.0000 26.5958 0.0000 -4.4023
# 5 -6.8144 0.1536 13.4227 0.0000 41.7279 0.0000
# 6 0.0000 0.0000 0.0000 -4.4023 0.0000 33.0436
#
#
#
# Elastic Compliance Matrix: (Units=1/GPa)
#
#
# Indices 1 2 3 4 5 6 
#
# 1 0.012802 -0.004234 -0.004258 0.000000 0.003476 0.000000
# 2 -0.004234 0.014882 -0.005091 0.000000 0.000891 0.000000
# 3 -0.004258 -0.005091 0.012703 0.000000 -0.004763 0.000000
# 4 0.000000 0.000000 0.000000 0.038448 0.000000 0.005122
# 5 0.003476 0.000891 -0.004763 0.000000 0.026061 0.000000
# 6 0.000000 0.000000 0.000000 0.005122 0.000000 0.030946
#
#
# Mechanical properties :
#
#
# Convention : Reuss Voigt Hill
#
# Bulk Modulus (GPa) = 75.63229 76.49772 76.06500
# Shear Modulus (GPa) = 29.86611 31.98993 30.92802
#
# Velocity S-wave (km/s) = 3.89410 4.03018 3.96272
# Velocity P-wave (km/s) = 7.65635 7.77797 7.71740
#
# Compressibility (1/GPa) = 0.01322187
#
# Stress axis : x y z
#
# Youngs Moduli (GPa) = 78.11309 67.19536 78.72139
#
# Poissons Ratio (x) = 0.28450 0.33517
# Poissons Ratio (y) = 0.33072 0.40077
# Poissons Ratio (z) = 0.33258 0.34209
#
# Static dielectric constant tensor:
#      x y z
#    x 3.525190 0.000000 -0.055430 
#    y 0.000000 3.522240 0.000000 
#    z -0.055430 0.000000 3.764200 
# 
# 
# High freq. dielectric constant tensor:
#      x y z
#    x 1.774820 0.000000 0.000950 
#    y 0.000000 1.761820 0.000000 
#    z 0.000950 0.000000 1.786370 
# 
# From -- ./inp_files/51185.got.cif
#   From: 2010.06.25/outbox.cif.g09.slc.cpg/sg12_26_cif.got.tgz:51185.got - 2010.06.28 00:19:55.
