data_PCOD8108521
_publ_section_title
;
Structure prediction by ZEFSAII (Michael W. Deem and Ramdas Pophale) SiO2 
 PCOD8108521
Probable space group: C 2/M
;
_chemical_formula_sum "Si O2"
_cell_formula_units_Z 48
_cell_length_a 21.897309
_cell_length_b 9.440987
_cell_length_c 11.045785
_cell_angle_alpha 90.000000
_cell_angle_beta 74.116590
_cell_angle_gamma 90.000000
_cell_volume 2196.336121
_symmetry_space_group_name_H-M "C 2/M"
_symmetry_group_IT_number 12
_symmetry_cell_setting 'monoclinic'
loop_
_space_group_symop_operation_xyz
x,y,z
-x,y,-z
-x,-y,-z
x,-y,z
1/2+x,1/2+y,z
1/2-x,1/2+y,-z
1/2-x,1/2-y,-z
1/2+x,1/2-y,z
loop_
_atom_site_type_symbol
_atom_site_label
_atom_site_fract_x
_atom_site_fract_y
_atom_site_fract_z
Si Si1 0.241370 0.150897 0.788082
Si Si2 0.144089 0.842828 0.348105
Si Si3 0.924649 0.657675 0.219235
Si Si4 0.616627 0.333873 0.979734
Si Si5 0.181588 0.210991 0.585341
Si Si6 0.562237 0.833931 0.232922
O O1 0.290920 0.276063 0.740140
O O2 0.192422 0.190321 0.921638
O O3 0.196148 0.117860 0.695589
O O4 0.275994 0.000000 0.797035
O O5 0.145716 0.862483 0.492711
O O6 0.085678 0.740439 0.344482
O O7 0.136479 0.000000 0.295563
O O8 0.927937 0.500000 0.161489
O O9 0.922745 0.769327 0.111109
O O10 0.864109 0.662674 0.342511
O O11 0.987337 0.691208 0.262790
O O12 0.599482 0.500000 0.001800
O O13 0.600113 0.246460 0.107477
O O14 0.250000 0.250000 0.500000
O O15 0.579309 0.000000 0.224012
#
# Coordination Sequence:
#
# PCOD8108521 Si02
#       6
#     8   8   8   8   8   8
#     4   9  19  37  61  88 116 149 192 239 291 349
#     4  11  23  38  58  86 120 156 195 241 293 344
#     4  10  22  40  63  88 115 153 198 240 284 343
#     4  10  21  38  62  90 119 151 191 243 296 343
#     4   9  20  37  61  89 115 144 185 238 291 341
#     4  11  24  40  58  83 118 160 200 237 285 346
#
# _framework density 21.854578
#
# number of rings (size 3 to 8) (size 9 to 14) (size 15 to 20)
#    0.000    2.000    0.000    2.500    0.000   15.333 
#    0.000    2.500    0.000    0.000    0.000    0.000 
#    0.000    0.000    0.000    0.000    0.000    0.000 
#
# Total GULP energy -297328.307161 kJ/mol
# GULP energy per Si atom -12388.679465 kJ/mol
# Density = 2.180484 g / cm^3
# Si number density = 21.854578 Si / 1000 Ang^3
#
#
#
# Elastic Constant Matrix: (Units=GPa)
#
#
# Indices 1 2 3 4 5 6 
#
# 1 69.8560 25.5236 8.4315 0.0000 10.4858 0.0000
# 2 25.5236 139.6862 10.1402 0.0000 5.7474 0.0000
# 3 8.4315 10.1402 56.1160 0.0000 -4.5554 0.0000
# 4 0.0000 0.0000 0.0000 19.5676 0.0000 -2.2960
# 5 10.4858 5.7474 -4.5554 0.0000 27.6412 0.0000
# 6 0.0000 0.0000 0.0000 -2.2960 0.0000 29.3113
#
#
#
# Elastic Compliance Matrix: (Units=1/GPa)
#
#
# Indices 1 2 3 4 5 6 
#
# 1 0.016479 -0.002577 -0.002508 0.000000 -0.006129 0.000000
# 2 -0.002577 0.007741 -0.001077 0.000000 -0.000810 0.000000
# 3 -0.002508 -0.001077 0.018738 0.000000 0.004263 0.000000
# 4 0.000000 0.000000 0.000000 0.051579 0.000000 0.004040
# 5 -0.006129 -0.000810 0.004263 0.000000 0.039374 0.000000
# 6 0.000000 0.000000 0.000000 0.004040 0.000000 0.034433
#
#
# Mechanical properties :
#
#
# Convention : Reuss Voigt Hill
#
# Bulk Modulus (GPa) = 32.64339 39.31651 35.97995
# Shear Modulus (GPa) = 26.19444 30.07488 28.13466
#
# Velocity S-wave (km/s) = 3.46581 3.71366 3.59187
# Velocity P-wave (km/s) = 5.56640 6.03469 5.80527
#
# Compressibility (1/GPa) = 0.03063407
#
# Stress axis : x y z
#
# Youngs Moduli (GPa) = 60.68180 129.17758 53.36797
#
# Poissons Ratio (x) = 0.33288 0.13384
# Poissons Ratio (y) = 0.15637 0.05750
# Poissons Ratio (z) = 0.15219 0.13918
#
# Static dielectric constant tensor:
#      x y z
#    x 4.089190 0.000000 0.203720 
#    y 0.000000 3.832760 0.000000 
#    z 0.203720 0.000000 4.431440 
# 
# 
# High freq. dielectric constant tensor:
#      x y z
#    x 1.858720 0.000000 0.002470 
#    y 0.000000 1.860040 0.000000 
#    z 0.002470 0.000000 1.853020 
# 
# From -- ./inp_files/172853.got.cif
#   From: 2010.06.25/outbox.cif.g09.slc.cpg/sg12_87_cif.got.tgz:172853.got - 2010.06.28 00:19:55.
