data_PCOD8108874
_publ_section_title
;
Structure prediction by ZEFSAII (Michael W. Deem and Ramdas Pophale) SiO2 
 PCOD8108874
Probable space group: C 2/M
;
_chemical_formula_sum "Si O2"
_cell_formula_units_Z 64
_cell_length_a 28.031577
_cell_length_b 9.364372
_cell_length_c 14.179213
_cell_angle_alpha 90.000000
_cell_angle_beta 66.429196
_cell_angle_gamma 90.000000
_cell_volume 3411.476231
_symmetry_space_group_name_H-M "C 2/M"
_symmetry_group_IT_number 12
_symmetry_cell_setting 'monoclinic'
loop_
_space_group_symop_operation_xyz
x,y,z
-x,y,-z
-x,-y,-z
x,-y,z
1/2+x,1/2+y,z
1/2-x,1/2+y,-z
1/2-x,1/2-y,-z
1/2+x,1/2-y,z
loop_
_atom_site_type_symbol
_atom_site_label
_atom_site_fract_x
_atom_site_fract_y
_atom_site_fract_z
Si Si1 0.197376 0.665001 0.555792
Si Si2 0.018235 0.836619 0.692072
Si Si3 0.400300 0.833742 0.487598
Si Si4 0.588111 0.667080 0.328920
Si Si5 0.679282 0.666625 0.120116
Si Si6 0.961758 0.164597 0.111551
Si Si7 0.856899 0.666139 0.211756
Si Si8 0.704530 0.835846 0.925164
O O1 0.212141 0.500000 0.557898
O O2 0.250000 0.750000 0.500000
O O3 0.159634 0.687504 0.495990
O O4 0.168161 0.723305 0.671738
O O5 0.063226 0.731578 0.621966
O O6 0.010296 0.813844 0.809837
O O7 0.964826 0.796921 0.683092
O O8 0.034269 0.000000 0.656977
O O9 0.411067 0.754584 0.576019
O O10 0.413908 0.000000 0.487816
O O11 0.592850 0.500000 0.349378
O O12 0.635606 0.720146 0.226938
O O13 0.672937 0.500000 0.105188
O O14 0.734830 0.706815 0.121102
O O15 0.671781 0.745125 0.026457
O O16 0.909014 0.251568 0.146738
O O17 0.947828 0.000000 0.104477
O O18 0.000000 0.222298 0.000000
O O19 0.870826 0.500000 0.209364
O O20 0.815307 0.697759 0.163234
O O21 0.696792 0.000000 0.958934
#
# Coordination Sequence:
#
# PCOD8108874 Si02
#       8
#     8   8   8   8   8   8   8   8
#     4  10  23  40  60  86 117 151 192 238 287 346
#     4  10  21  39  59  83 114 149 190 234 282 339
#     4  11  23  40  59  84 115 147 187 236 286 337
#     4  10  22  37  59  85 111 148 192 233 281 337
#     4   9  19  36  57  82 111 146 185 230 277 326
#     4  10  22  38  60  88 117 150 193 241 285 335
#     4  10  21  39  60  85 118 153 189 232 287 351
#     4   9  19  35  56  81 112 148 184 224 277 334
#
# _framework density 18.760207999999999
#
# number of rings (size 3 to 8) (size 9 to 14) (size 15 to 20)
#    0.000    2.125    1.250    0.750    3.500    4.750 
#    0.000    0.000    0.000    0.000    0.000    0.000 
#    0.000    0.000    0.000    0.000    0.000    0.000 
#
# Total GULP energy -396929.882300 kJ/mol
# GULP energy per Si atom -12404.058822 kJ/mol
# Density = 1.871751 g / cm^3
# Si number density = 18.760208 Si / 1000 Ang^3
#
#
#
# Elastic Constant Matrix: (Units=GPa)
#
#
# Indices 1 2 3 4 5 6 
#
# 1 99.8916 46.3025 48.1307 0.0000 -3.5618 0.0000
# 2 46.3025 62.3608 47.3288 0.0000 -6.0224 0.0000
# 3 48.1307 47.3288 115.2242 0.0000 -11.4387 0.0000
# 4 0.0000 0.0000 0.0000 31.6196 0.0000 -2.2756
# 5 -3.5618 -6.0224 -11.4387 0.0000 35.3487 0.0000
# 6 0.0000 0.0000 0.0000 -2.2756 0.0000 30.5146
#
#
#
# Elastic Compliance Matrix: (Units=1/GPa)
#
#
# Indices 1 2 3 4 5 6 
#
# 1 0.015807 -0.009801 -0.002671 0.000000 -0.000941 0.000000
# 2 -0.009801 0.029403 -0.007836 0.000000 0.001486 0.000000
# 3 -0.002671 -0.007836 0.013280 0.000000 0.002693 0.000000
# 4 0.000000 0.000000 0.000000 0.031797 0.000000 0.002371
# 5 -0.000941 0.001486 0.002693 0.000000 0.029319 0.000000
# 6 0.000000 0.000000 0.000000 0.002371 0.000000 0.032948
#
#
# Mechanical properties :
#
#
# Convention : Reuss Voigt Hill
#
# Bulk Modulus (GPa) = 55.94086 62.33337 59.13711
# Shear Modulus (GPa) = 25.10946 28.54421 26.82684
#
# Velocity S-wave (km/s) = 3.66244 3.90491 3.78562
# Velocity P-wave (km/s) = 6.91146 7.32322 7.12032
#
# Compressibility (1/GPa) = 0.01787602
#
# Stress axis : x y z
#
# Youngs Moduli (GPa) = 63.26356 34.00968 75.29907
#
# Poissons Ratio (x) = 0.33331 0.20109
# Poissons Ratio (y) = 0.62002 0.59006
# Poissons Ratio (z) = 0.16895 0.26651
#
# Static dielectric constant tensor:
#      x y z
#    x 3.516350 0.000000 0.073810 
#    y 0.000000 3.414440 0.000000 
#    z 0.073810 0.000000 3.600380 
# 
# 
# High freq. dielectric constant tensor:
#      x y z
#    x 1.737070 0.000000 0.005390 
#    y 0.000000 1.722410 0.000000 
#    z 0.005390 0.000000 1.735780 
# 
# From -- ./inp_files/249105.got.cif
#   From: 2010.06.25/outbox.cif.g09.slc.cpg/sg12_125_cif.got.tgz:249105.got - 2010.06.28 00:19:55.
