data_PCOD8108550
_publ_section_title
;
Structure prediction by ZEFSAII (Michael W. Deem and Ramdas Pophale) SiO2 
 PCOD8108550
Probable space group: C 2/M
;
_chemical_formula_sum "Si O2"
_cell_formula_units_Z 64
_cell_length_a 15.498761
_cell_length_b 17.714504
_cell_length_c 11.818850
_cell_angle_alpha 90.000000
_cell_angle_beta 91.036811
_cell_angle_gamma 90.000000
_cell_volume 3244.367846
_symmetry_space_group_name_H-M "C 2/M"
_symmetry_group_IT_number 12
_symmetry_cell_setting 'monoclinic'
loop_
_space_group_symop_operation_xyz
x,y,z
-x,y,-z
-x,-y,-z
x,-y,z
1/2+x,1/2+y,z
1/2-x,1/2+y,-z
1/2-x,1/2-y,-z
1/2+x,1/2-y,z
loop_
_atom_site_type_symbol
_atom_site_label
_atom_site_fract_x
_atom_site_fract_y
_atom_site_fract_z
Si Si1 0.711309 0.659620 0.125228
Si Si2 0.787940 0.913477 0.441967
Si Si3 0.268829 0.170080 0.880238
Si Si4 0.126002 0.587516 0.290429
Si Si5 0.202325 0.587542 0.666711
Si Si6 0.034580 0.326911 0.623624
Si Si7 0.601279 0.326854 0.723751
Si Si8 0.028962 0.911263 0.123861
O O1 0.686288 0.747910 0.127049
O O2 0.779054 0.638909 0.224394
O O3 0.628462 0.608161 0.143617
O O4 0.755805 0.641444 0.007082
O O5 0.696097 0.890574 0.386588
O O6 0.778540 0.899708 0.576058
O O7 0.865278 0.863979 0.392582
O O8 0.809051 0.000000 0.413533
O O9 0.332554 0.108416 0.829154
O O10 0.176940 0.175204 0.817005
O O11 0.101448 0.500000 0.292795
O O12 0.040590 0.635598 0.305353
O O13 0.196523 0.500000 0.700481
O O14 0.111345 0.612763 0.611197
O O15 0.067426 0.255477 0.694018
O O16 0.000000 0.302764 0.500000
O O17 0.523902 0.374301 0.775505
O O18 0.014340 0.000000 0.131860
O O19 0.000000 0.880681 0.000000
#
# Coordination Sequence:
#
# PCOD8108550 Si02
#       8
#     8   8   8   8   8   8   8   8
#     4  11  22  42  63  91 125 164 207 251 309 372
#     4   9  20  38  62  89 123 163 202 253 311 362
#     4  10  22  40  64  90 124 164 203 255 314 366
#     4  10  21  38  62  91 122 162 209 256 306 363
#     4  11  23  40  64  92 127 166 206 254 309 370
#     4  12  24  40  62  94 127 164 211 256 308 371
#     4  11  22  40  62  92 126 159 208 258 305 371
#     4  11  23  39  63  92 123 161 205 253 305 368
#
# _framework density 19.726492
#
# number of rings (size 3 to 8) (size 9 to 14) (size 15 to 20)
#    0.000    1.375    3.750    1.875    0.000    4.500 
#    0.000    0.625    0.000    4.500    0.000    0.000 
#    0.000    0.000    0.000    0.000    0.000    0.000 
#
# Total GULP energy -396927.095665 kJ/mol
# GULP energy per Si atom -12403.971740 kJ/mol
# Density = 1.968159 g / cm^3
# Si number density = 19.726492 Si / 1000 Ang^3
#
#
#
# Elastic Constant Matrix: (Units=GPa)
#
#
# Indices 1 2 3 4 5 6 
#
# 1 76.4615 44.0224 38.0805 0.0000 -17.4443 0.0000
# 2 44.0224 81.1794 37.7539 0.0000 -21.1469 0.0000
# 3 38.0805 37.7539 114.7348 0.0000 -13.8029 0.0000
# 4 0.0000 0.0000 0.0000 30.0917 0.0000 -1.7301
# 5 -17.4443 -21.1469 -13.8029 0.0000 28.9660 0.0000
# 6 0.0000 0.0000 0.0000 -1.7301 0.0000 34.5827
#
#
#
# Elastic Compliance Matrix: (Units=1/GPa)
#
#
# Indices 1 2 3 4 5 6 
#
# 1 0.020742 -0.008370 -0.003567 0.000000 0.004681 0.000000
# 2 -0.008370 0.020425 -0.002923 0.000000 0.008478 0.000000
# 3 -0.003567 -0.002923 0.010976 0.000000 0.000948 0.000000
# 4 0.000000 0.000000 0.000000 0.033328 0.000000 0.001667
# 5 0.004681 0.008478 0.000948 0.000000 0.043984 0.000000
# 6 0.000000 0.000000 0.000000 0.001667 0.000000 0.029000
#
#
# Mechanical properties :
#
#
# Convention : Reuss Voigt Hill
#
# Bulk Modulus (GPa) = 44.59717 56.89883 50.74800
# Shear Modulus (GPa) = 25.55625 28.89602 27.22614
#
# Velocity S-wave (km/s) = 3.60325 3.83147 3.71911
# Velocity P-wave (km/s) = 6.32203 6.96276 6.65011
#
# Compressibility (1/GPa) = 0.02242295
#
# Stress axis : x y z
#
# Youngs Moduli (GPa) = 48.21200 48.95943 91.11182
#
# Poissons Ratio (x) = 0.40977 0.32499
# Poissons Ratio (y) = 0.40351 0.26633
# Poissons Ratio (z) = 0.17197 0.14312
#
# Static dielectric constant tensor:
#      x y z
#    x 3.494550 0.000000 -0.074020 
#    y 0.000000 3.547420 0.000000 
#    z -0.074020 0.000000 3.652550 
# 
# 
# High freq. dielectric constant tensor:
#      x y z
#    x 1.765550 0.000000 -0.010190 
#    y 0.000000 1.773980 0.000000 
#    z -0.010190 0.000000 1.774400 
# 
# From -- ./inp_files/146162.got.cif
#   From: 2010.06.25/outbox.cif.g09.slc.cpg/sg12_74_cif.got.tgz:146162.got - 2010.06.28 00:19:55.
