data_PCOD8108939
_publ_section_title
;
Structure prediction by ZEFSAII (Michael W. Deem and Ramdas Pophale) SiO2 
 PCOD8108939
Probable space group: C 2/M
;
_chemical_formula_sum "Si O2"
_cell_formula_units_Z 64
_cell_length_a 15.203308
_cell_length_b 24.767614
_cell_length_c 17.576305
_cell_angle_alpha 90.000000
_cell_angle_beta 149.999581
_cell_angle_gamma 90.000000
_cell_volume 3309.217787
_symmetry_space_group_name_H-M "C 2/M"
_symmetry_group_IT_number 12
_symmetry_cell_setting 'monoclinic'
loop_
_space_group_symop_operation_xyz
x,y,z
-x,y,-z
-x,-y,-z
x,-y,z
1/2+x,1/2+y,z
1/2-x,1/2+y,-z
1/2-x,1/2-y,-z
1/2+x,1/2-y,z
loop_
_atom_site_type_symbol
_atom_site_label
_atom_site_fract_x
_atom_site_fract_y
_atom_site_fract_z
Si Si1 0.998759 0.854881 0.321117
Si Si2 0.498917 0.061040 0.673628
Si Si3 0.150208 0.938129 0.323303
Si Si4 0.143800 0.219430 0.172032
Si Si5 0.683094 0.603467 0.180069
Si Si6 0.135797 0.647067 0.318703
Si Si7 0.948111 0.241368 0.174352
Si Si8 0.318137 0.162291 0.818089
O O1 0.014389 0.900747 0.268244
O O2 0.171445 0.850853 0.501300
O O3 0.955583 0.796878 0.252829
O O4 0.833377 0.870083 0.250911
O O5 0.346966 0.073456 0.499115
O O6 0.682660 0.069388 0.769095
O O7 0.479783 0.099001 0.732527
O O8 0.489262 0.000000 0.696469
O O9 0.146809 0.925752 0.232021
O O10 0.094161 0.000000 0.295156
O O11 0.259173 0.164912 0.247864
O O12 0.250582 0.275754 0.247465
O O13 0.053999 0.212730 0.186587
O O14 0.000000 0.222971 0.000000
O O15 0.500000 0.606982 0.000000
O O16 0.149880 0.635081 0.239633
O O17 0.033825 0.701940 0.261228
O O18 0.750000 0.250000 0.000000
O O19 0.500000 0.160660 0.000000
#
# Coordination Sequence:
#
# PCOD8108939 Si02
#       8
#     8   8   8   8   8   8   8   8
#     4  11  21  38  60  87 117 149 197 247 287 344
#     4  10  23  41  61  82 115 159 197 238 291 345
#     4  10  22  42  60  82 117 157 198 238 288 346
#     4   9  19  34  50  84 117 151 189 223 280 348
#     4  11  22  35  57  87 120 152 195 241 287 338
#     4  10  23  38  59  88 114 150 198 247 290 340
#     4  11  21  35  59  84 118 159 193 234 295 352
#     4  10  21  39  60  85 119 157 188 233 300 357
#
# _framework density 19.339918000000001
#
# number of rings (size 3 to 8) (size 9 to 14) (size 15 to 20)
#    0.000    1.750    1.250    3.750    5.250    3.000 
#    0.000    1.875    0.000    3.750    0.000    0.000 
#    0.000    0.000    0.000    0.000    0.000    0.000 
#
# Total GULP energy -396816.742194 kJ/mol
# GULP energy per Si atom -12400.523194 kJ/mol
# Density = 1.929590 g / cm^3
# Si number density = 19.339918 Si / 1000 Ang^3
#
#
#
# Elastic Constant Matrix: (Units=GPa)
#
#
# Indices 1 2 3 4 5 6 
#
# 1 144.8751 64.2600 47.8156 0.0000 -5.9228 0.0000
# 2 64.2600 106.1620 36.0576 0.0000 -0.0212 0.0000
# 3 47.8156 36.0576 75.4212 0.0001 0.4826 -0.0001
# 4 0.0000 0.0000 0.0001 35.6650 0.0001 -1.4307
# 5 -5.9228 -0.0212 0.4826 0.0001 34.5995 0.0000
# 6 0.0000 0.0000 -0.0001 -1.4307 0.0000 30.5117
#
#
#
# Elastic Compliance Matrix: (Units=1/GPa)
#
#
# Indices 1 2 3 4 5 6 
#
# 1 0.010615 -0.004937 -0.004382 0.000000 0.001875 0.000000
# 2 -0.004937 0.013542 -0.003339 0.000000 -0.000790 0.000000
# 3 -0.004382 -0.003339 0.017640 0.000000 -0.000998 0.000000
# 4 0.000000 0.000000 0.000000 0.028091 0.000000 0.001317
# 5 0.001875 -0.000790 -0.000998 0.000000 0.029237 0.000000
# 6 0.000000 0.000000 0.000000 0.001317 0.000000 0.032836
#
#
# Mechanical properties :
#
#
# Convention : Reuss Voigt Hill
#
# Bulk Modulus (GPa) = 60.67496 69.19162 64.93329
# Shear Modulus (GPa) = 30.71836 32.04360 31.38098
#
# Velocity S-wave (km/s) = 3.98972 4.07487 4.03252
# Velocity P-wave (km/s) = 7.25706 7.61536 7.43837
#
# Compressibility (1/GPa) = 0.01648126
#
# Stress axis : x y z
#
# Youngs Moduli (GPa) = 94.20664 73.84563 56.69094
#
# Poissons Ratio (x) = 0.36455 0.24839
# Poissons Ratio (y) = 0.46507 0.18931
# Poissons Ratio (z) = 0.41277 0.24659
#
# Static dielectric constant tensor:
#      x y z
#    x 3.647740 0.000000 -0.097630 
#    y 0.000000 3.765280 0.000000 
#    z -0.097630 0.000000 3.411330 
# 
# 
# High freq. dielectric constant tensor:
#      x y z
#    x 1.762670 0.000000 -0.009150 
#    y 0.000000 1.749170 0.000000 
#    z -0.009150 0.000000 1.745330 
# 
# From -- ./inp_files/65879.got.cif
#   From: 2010.06.25/outbox.cif.g09.slc.cpg/sg12_33_cif.got.tgz:65879.got - 2010.06.28 00:19:55.
