data_PCOD8108838
_publ_section_title
;
Structure prediction by ZEFSAII (Michael W. Deem and Ramdas Pophale) SiO2 
 PCOD8108838
Probable space group: C 2/M
;
_chemical_formula_sum "Si O2"
_cell_formula_units_Z 56
_cell_length_a 17.380083
_cell_length_b 28.341674
_cell_length_c 7.654213
_cell_angle_alpha 90.000000
_cell_angle_beta 49.378587
_cell_angle_gamma 90.000000
_cell_volume 2861.776474
_symmetry_space_group_name_H-M "C 2/M"
_symmetry_group_IT_number 12
_symmetry_cell_setting 'monoclinic'
loop_
_space_group_symop_operation_xyz
x,y,z
-x,y,-z
-x,-y,-z
x,-y,z
1/2+x,1/2+y,z
1/2-x,1/2+y,-z
1/2-x,1/2-y,-z
1/2+x,1/2-y,z
loop_
_atom_site_type_symbol
_atom_site_label
_atom_site_fract_x
_atom_site_fract_y
_atom_site_fract_z
Si Si1 0.116639 0.225935 0.780278
Si Si2 0.751568 0.865225 0.413501
Si Si3 0.743518 0.135085 0.827941
Si Si4 0.388728 0.552124 0.207921
Si Si5 0.296246 0.264075 0.708836
Si Si6 0.612357 0.447699 0.380776
Si Si7 0.618685 0.827801 0.306124
O O1 0.159133 0.173003 0.722932
O O2 0.178694 0.258613 0.823928
O O3 0.131392 0.246846 0.564530
O O4 0.000000 0.227021 0.000000
O O5 0.711011 0.870924 0.673022
O O6 0.801693 0.913279 0.264949
O O7 0.659964 0.851421 0.422857
O O8 0.812088 0.182497 0.752722
O O9 0.807810 0.090863 0.806732
O O10 0.645464 0.140128 0.098060
O O11 0.374860 0.500000 0.143803
O O12 0.375997 0.549294 0.431670
O O13 0.500000 0.572162 0.000000
O O14 0.329342 0.224230 0.800954
O O15 0.500000 0.430284 0.500000
O O16 0.633088 0.500000 0.268357
O O17 0.500000 0.822871 0.500000
#
# Coordination Sequence:
#
# PCOD8108838 Si02
#       7
#     8   8   8   8   8   8   8
#     4   9  17  32  57  77 109 154 181 224 283 322
#     4   9  20  38  53  80 114 144 191 227 273 341
#     4  10  21  39  58  79 116 149 181 231 283 326
#     4   9  17  30  55  85 112 146 180 221 281 334
#     4   9  20  36  50  84 111 143 196 225 270 335
#     4   9  19  35  56  87 117 144 180 222 281 345
#     4  11  24  38  56  82 109 149 196 235 273 325
#
# _framework density 19.568263999999999
#
# number of rings (size 3 to 8) (size 9 to 14) (size 15 to 20)
#    0.000    2.571    0.000    1.714    4.000    1.143 
#    5.143    0.000    0.000    1.714    0.000    4.000 
#    0.000    0.000    0.000    0.000    0.000    0.000 
#
# Total GULP energy -347093.449387 kJ/mol
# GULP energy per Si atom -12396.194621 kJ/mol
# Density = 1.952373 g / cm^3
# Si number density = 19.568264 Si / 1000 Ang^3
#
#
#
# Elastic Constant Matrix: (Units=GPa)
#
#
# Indices 1 2 3 4 5 6 
#
# 1 66.4453 32.2752 28.6965 0.0000 -12.6991 0.0000
# 2 32.2752 106.0123 23.6105 0.0000 -9.9646 0.0000
# 3 28.6965 23.6105 83.5046 0.0000 -13.8295 0.0000
# 4 0.0000 0.0000 0.0000 19.6667 0.0000 -1.3713
# 5 -12.6991 -9.9646 -13.8295 0.0000 30.4830 0.0000
# 6 0.0000 0.0000 0.0000 -1.3713 0.0000 18.6647
#
#
#
# Elastic Compliance Matrix: (Units=1/GPa)
#
#
# Indices 1 2 3 4 5 6 
#
# 1 0.020325 -0.004655 -0.004885 0.000000 0.004729 0.000000
# 2 -0.004655 0.011267 -0.001402 0.000000 0.001107 0.000000
# 3 -0.004885 -0.001402 0.014746 0.000000 0.004196 0.000000
# 4 0.000000 0.000000 0.000000 0.051109 0.000000 0.003755
# 5 0.004729 0.001107 0.004196 0.000000 0.037041 0.000000
# 6 0.000000 0.000000 0.000000 0.003755 0.000000 0.053853
#
#
# Mechanical properties :
#
#
# Convention : Reuss Voigt Hill
#
# Bulk Modulus (GPa) = 40.89756 47.23630 44.06693
# Shear Modulus (GPa) = 22.89619 25.18820 24.04219
#
# Velocity S-wave (km/s) = 3.42434 3.59164 3.50899
# Velocity P-wave (km/s) = 6.04815 6.43362 6.24386
#
# Compressibility (1/GPa) = 0.02445134
#
# Stress axis : x y z
#
# Youngs Moduli (GPa) = 49.20063 88.75798 67.81653
#
# Poissons Ratio (x) = 0.41320 0.33130
# Poissons Ratio (y) = 0.22905 0.09510
# Poissons Ratio (z) = 0.24036 0.12447
#
# Static dielectric constant tensor:
#      x y z
#    x 3.565470 0.000000 0.128320 
#    y 0.000000 4.145500 0.000000 
#    z 0.128320 0.000000 3.504720 
# 
# 
# High freq. dielectric constant tensor:
#      x y z
#    x 1.740940 0.000000 0.023220 
#    y 0.000000 1.763160 0.000000 
#    z 0.023220 0.000000 1.754820 
# 
# From -- ./inp_files/80410.got.cif
#   From: 2010.06.25/outbox.cif.g09.slc.cpg/sg12_41_cif.got.tgz:80410.got - 2010.06.28 00:19:55.
