data_PCOD8108691
_publ_section_title
;
Structure prediction by ZEFSAII (Michael W. Deem and Ramdas Pophale) SiO2 
 PCOD8108691
Probable space group: C 2/M
;
_chemical_formula_sum "Si O2"
_cell_formula_units_Z 48
_cell_length_a 17.011752
_cell_length_b 18.436642
_cell_length_c 14.586034
_cell_angle_alpha 90.000000
_cell_angle_beta 150.157442
_cell_angle_gamma 90.000000
_cell_volume 2276.483466
_symmetry_space_group_name_H-M "C 2/M"
_symmetry_group_IT_number 12
_symmetry_cell_setting 'monoclinic'
loop_
_space_group_symop_operation_xyz
x,y,z
-x,y,-z
-x,-y,-z
x,-y,z
1/2+x,1/2+y,z
1/2-x,1/2+y,-z
1/2-x,1/2-y,-z
1/2+x,1/2-y,z
loop_
_atom_site_type_symbol
_atom_site_label
_atom_site_fract_x
_atom_site_fract_y
_atom_site_fract_z
Si Si1 0.201542 0.636514 0.029731
Si Si2 0.111565 0.366770 0.194165
Si Si3 0.093384 0.500000 0.449025
Si Si4 0.668933 0.119537 0.791911
Si Si5 0.826150 0.000000 0.852709
Si Si6 0.170258 0.233558 0.696255
Si Si7 0.221541 0.000000 0.554547
Si Si8 0.398228 0.500000 0.299487
O O1 0.276399 0.706697 0.150813
O O2 0.281436 0.568354 0.164529
O O3 0.236471 0.643983 0.958186
O O4 0.009766 0.642747 0.844329
O O5 0.204628 0.292739 0.256236
O O6 0.236440 0.428645 0.344474
O O7 0.000000 0.394914 0.000000
O O8 0.208811 0.500000 0.649839
O O9 0.191691 0.500000 0.454806
O O10 0.989981 0.572819 0.352794
O O11 0.649927 0.180797 0.694183
O O12 0.807359 0.070323 0.894817
O O13 0.000000 0.000000 0.000000
O O14 0.000000 0.200297 0.500000
O O15 0.031178 0.000000 0.353373
O O16 0.500000 0.500000 0.500000
#
# Coordination Sequence:
#
# PCOD8108691 Si02
#       8
#     8   8   4   8   4   8   4   4
#     4  11  22  40  65  96 133 173 216 264 328 390
#     4  10  21  38  63  97 135 171 211 260 327 393
#     4  11  23  43  71  96 127 172 221 267 325 387
#     4  11  23  46  68  91 129 178 219 265 326 385
#     4  11  26  43  68  98 122 164 223 276 323 375
#     4  11  23  41  64  92 133 173 216 264 325 389
#     4  12  21  37  67 102 132 164 218 270 322 387
#     4  12  23  37  66 103 140 170 209 275 334 392
#
# _framework density 21.085151
#
# number of rings (size 3 to 8) (size 9 to 14) (size 15 to 20)
#    0.000    1.000    1.667    7.750    2.333    2.000 
#    0.000    0.833    0.000    0.000    0.000    0.000 
#    0.000    0.000    0.000    0.000    0.000    0.000 
#
# Total GULP energy -297316.707882 kJ/mol
# GULP energy per Si atom -12388.196162 kJ/mol
# Density = 2.103716 g / cm^3
# Si number density = 21.085151 Si / 1000 Ang^3
#
#
#
# Elastic Constant Matrix: (Units=GPa)
#
#
# Indices 1 2 3 4 5 6 
#
# 1 149.5800 53.6779 48.2240 0.0000 20.3422 0.0000
# 2 53.6779 104.3212 19.3297 0.0000 15.1946 0.0000
# 3 48.2240 19.3297 74.7481 0.0000 26.5351 0.0000
# 4 0.0000 0.0000 0.0000 10.2027 0.0000 11.9119
# 5 20.3422 15.1946 26.5351 0.0000 35.9643 0.0000
# 6 0.0000 0.0000 0.0000 11.9119 0.0000 50.2948
#
#
#
# Elastic Compliance Matrix: (Units=1/GPa)
#
#
# Indices 1 2 3 4 5 6 
#
# 1 0.009865 -0.004100 -0.005336 0.000000 0.000089 0.000000
# 2 -0.004100 0.012045 0.000696 0.000000 -0.003283 0.000000
# 3 -0.005336 0.000696 0.021236 0.000000 -0.012944 0.000000
# 4 0.000000 0.000000 0.000000 0.135473 0.000000 -0.032086
# 5 0.000089 -0.003283 -0.012944 0.000000 0.038692 0.000000
# 6 0.000000 0.000000 0.000000 -0.032086 0.000000 0.027482
#
#
# Mechanical properties :
#
#
# Convention : Reuss Voigt Hill
#
# Bulk Modulus (GPa) = 38.96291 63.45695 51.20993
# Shear Modulus (GPa) = 18.46190 33.12022 25.79106
#
# Velocity S-wave (km/s) = 2.96224 3.96761 3.50120
# Velocity P-wave (km/s) = 5.49716 7.15193 6.37844
#
# Compressibility (1/GPa) = 0.02566544
#
# Stress axis : x y z
#
# Youngs Moduli (GPa) = 101.36980 83.02356 47.09041
#
# Poissons Ratio (x) = 0.34042 0.25126
# Poissons Ratio (y) = 0.41564 -0.03278
# Poissons Ratio (z) = 0.54088 -0.05779
#
# Static dielectric constant tensor:
#      x y z
#    x 4.123520 0.000000 0.147400 
#    y 0.000000 3.823120 0.000000 
#    z 0.147400 0.000000 3.863150 
# 
# 
# High freq. dielectric constant tensor:
#      x y z
#    x 1.835690 0.000000 0.003700 
#    y 0.000000 1.819670 0.000000 
#    z 0.003700 0.000000 1.829940 
# 
# From -- ./inp_files/226984.got.cif
#   From: 2010.06.25/outbox.cif.g09.slc.cpg/sg12_114_cif.got.tgz:226984.got - 2010.06.28 00:19:55.
