data_PCOD8108551
_publ_section_title
;
Structure prediction by ZEFSAII (Michael W. Deem and Ramdas Pophale) SiO2 
 PCOD8108551
Probable space group: C 2/M
;
_chemical_formula_sum "Si O2"
_cell_formula_units_Z 64
_cell_length_a 24.585202
_cell_length_b 8.734517
_cell_length_c 14.478587
_cell_angle_alpha 90.000000
_cell_angle_beta 90.448521
_cell_angle_gamma 90.000000
_cell_volume 3109.034552
_symmetry_space_group_name_H-M "C 2/M"
_symmetry_group_IT_number 12
_symmetry_cell_setting 'monoclinic'
loop_
_space_group_symop_operation_xyz
x,y,z
-x,y,-z
-x,-y,-z
x,-y,z
1/2+x,1/2+y,z
1/2-x,1/2+y,-z
1/2-x,1/2-y,-z
1/2+x,1/2-y,z
loop_
_atom_site_type_symbol
_atom_site_label
_atom_site_fract_x
_atom_site_fract_y
_atom_site_fract_z
Si Si1 0.163713 0.319248 0.269132
Si Si2 0.364161 0.826689 0.347123
Si Si3 0.771900 0.673714 0.208883
Si Si4 0.059944 0.173987 0.797246
Si Si5 0.808033 0.319472 0.525170
Si Si6 0.439133 0.675078 0.826787
Si Si7 0.585944 0.820196 0.991510
Si Si8 0.694656 0.320633 0.964957
O O1 0.170927 0.500000 0.258523
O O2 0.210880 0.236812 0.211788
O O3 0.169837 0.265331 0.375240
O O4 0.105155 0.271877 0.229812
O O5 0.302772 0.818272 0.306212
O O6 0.407362 0.724104 0.293347
O O7 0.354959 0.769643 0.452117
O O8 0.386325 0.000000 0.342860
O O9 0.769558 0.500000 0.170421
O O10 0.809075 0.779856 0.143384
O O11 0.996033 0.188242 0.772815
O O12 0.075803 0.000000 0.822011
O O13 0.072840 0.274739 0.886910
O O14 0.800224 0.500000 0.521756
O O15 0.750000 0.250000 0.500000
O O16 0.419640 0.500000 0.833951
O O17 0.451020 0.740937 0.930326
O O18 0.579646 0.000000 0.001931
O O19 0.646628 0.764999 0.018508
O O20 0.690869 0.500000 0.982876
O O21 0.750000 0.250000 0.000000
#
# Coordination Sequence:
#
# PCOD8108551 Si02
#       8
#     8   8   8   8   8   8   8   8
#     4  11  23  39  62  92 125 162 205 252 305 366
#     4  10  21  38  62  91 123 157 198 246 301 360
#     4  11  21  36  59  87 122 160 197 243 302 363
#     4  11  24  42  65  91 121 161 208 256 304 357
#     4  10  21  38  62  93 125 159 200 247 302 364
#     4  11  25  44  63  87 122 163 207 255 306 360
#     4  12  24  40  63  91 121 158 205 253 303 361
#     4  12  24  38  56  82 121 162 202 247 299 360
#
# _framework density 20.585170000000002
#
# number of rings (size 3 to 8) (size 9 to 14) (size 15 to 20)
#    0.000    1.000    2.500    4.875    0.000    5.000 
#    0.000    0.625    0.000    3.750    0.000    0.000 
#    0.000    0.000    0.000    0.000    0.000    0.000 
#
# Total GULP energy -396846.334202 kJ/mol
# GULP energy per Si atom -12401.447944 kJ/mol
# Density = 2.053832 g / cm^3
# Si number density = 20.585170 Si / 1000 Ang^3
#
#
#
# Elastic Constant Matrix: (Units=GPa)
#
#
# Indices 1 2 3 4 5 6 
#
# 1 87.8883 28.7957 18.2981 0.0000 -17.2133 0.0000
# 2 28.7957 88.2302 19.7485 0.0000 -10.0634 0.0000
# 3 18.2981 19.7485 80.4541 0.0000 -13.9470 0.0000
# 4 0.0000 0.0000 0.0000 27.5040 0.0000 -4.2560
# 5 -17.2133 -10.0634 -13.9470 0.0000 28.7446 0.0000
# 6 0.0000 0.0000 0.0000 -4.2560 0.0000 32.7474
#
#
#
# Elastic Compliance Matrix: (Units=1/GPa)
#
#
# Indices 1 2 3 4 5 6 
#
# 1 0.014092 -0.003581 -0.001180 0.000000 0.006613 0.000000
# 2 -0.003581 0.013149 -0.002169 0.000000 0.001406 0.000000
# 3 -0.001180 -0.002169 0.014168 0.000000 0.005408 0.000000
# 4 0.000000 0.000000 0.000000 0.037105 0.000000 0.004822
# 5 0.006613 0.001406 0.005408 0.000000 0.041866 0.000000
# 6 0.000000 0.000000 0.000000 0.004822 0.000000 0.031163
#
#
# Mechanical properties :
#
#
# Convention : Reuss Voigt Hill
#
# Bulk Modulus (GPa) = 36.29941 43.36191 39.83066
# Shear Modulus (GPa) = 28.63939 30.44792 29.54365
#
# Velocity S-wave (km/s) = 3.73401 3.85010 3.79250
# Velocity P-wave (km/s) = 6.02183 6.39334 6.21036
#
# Compressibility (1/GPa) = 0.02754866
#
# Stress axis : x y z
#
# Youngs Moduli (GPa) = 70.96182 76.05345 70.58269
#
# Poissons Ratio (x) = 0.27234 0.08327
# Poissons Ratio (y) = 0.25411 0.15311
# Poissons Ratio (z) = 0.08371 0.16498
#
# Static dielectric constant tensor:
#      x y z
#    x 3.724450 0.000000 -0.135150 
#    y 0.000000 3.842030 0.000000 
#    z -0.135150 0.000000 4.021220 
# 
# 
# High freq. dielectric constant tensor:
#      x y z
#    x 1.805590 0.000000 -0.009790 
#    y 0.000000 1.811300 0.000000 
#    z -0.009790 0.000000 1.803710 
# 
# From -- ./inp_files/238784.got.cif
#   From: 2010.06.25/outbox.cif.g09.slc.cpg/sg12_120_cif.got.tgz:238784.got - 2010.06.28 00:19:55.
