data_PCOD8108484
_publ_section_title
;
Structure prediction by ZEFSAII (Michael W. Deem and Ramdas Pophale) SiO2 
 PCOD8108484
Probable space group: C 2/M
;
_chemical_formula_sum "Si O2"
_cell_formula_units_Z 56
_cell_length_a 10.120874
_cell_length_b 14.139729
_cell_length_c 22.759279
_cell_angle_alpha 90.000000
_cell_angle_beta 58.055592
_cell_angle_gamma 90.000000
_cell_volume 2763.764987
_symmetry_space_group_name_H-M "C 2/M"
_symmetry_group_IT_number 12
_symmetry_cell_setting 'monoclinic'
loop_
_space_group_symop_operation_xyz
x,y,z
-x,y,-z
-x,-y,-z
x,-y,z
1/2+x,1/2+y,z
1/2-x,1/2+y,-z
1/2-x,1/2-y,-z
1/2+x,1/2-y,z
loop_
_atom_site_type_symbol
_atom_site_label
_atom_site_fract_x
_atom_site_fract_y
_atom_site_fract_z
Si Si1 0.989608 0.610603 0.178677
Si Si2 0.100210 0.237056 0.612452
Si Si3 0.729907 0.610160 0.800174
Si Si4 0.455863 0.387660 0.946659
Si Si5 0.349910 0.889707 0.495230
Si Si6 0.890602 0.387527 0.974497
Si Si7 0.245591 0.736648 0.703440
O O1 0.953995 0.500000 0.183105
O O2 0.123013 0.633388 0.194047
O O3 0.045351 0.650483 0.102576
O O4 0.829914 0.660860 0.234698
O O5 0.199689 0.149930 0.564217
O O6 0.129493 0.334214 0.570455
O O7 0.143886 0.257561 0.668968
O O8 0.921392 0.204970 0.648352
O O9 0.717696 0.500000 0.788841
O O10 0.575237 0.648457 0.869169
O O11 0.747733 0.661027 0.733655
O O12 0.464318 0.500000 0.947302
O O13 0.500000 0.346306 0.000000
O O14 0.283646 0.350204 0.971884
O O15 0.500000 0.872155 0.500000
O O16 0.325115 0.000000 0.486897
O O17 0.888504 0.500000 0.973790
O O18 0.000000 0.347479 0.000000
#
# Coordination Sequence:
#
# PCOD8108484 Si02
#       7
#     8   8   8   8   8   8   8
#     4  10  21  39  61  86 121 166 211 255 312 378
#     4  11  24  42  65  98 133 163 194 252 304 349
#     4  10  21  38  62  88 117 165 218 255 304 377
#     4   9  15  29  56  82 107 150 210 266 309 360
#     4  10  22  43  73 101 125 161 208 246 288 356
#     4   9  17  31  54  83 115 152 201 267 328 361
#     4  12  24  41  62  93 134 165 201 249 305 364
#
# _framework density 20.262215000000001
#
# number of rings (size 3 to 8) (size 9 to 14) (size 15 to 20)
#    0.000    1.857    4.286    0.000    0.000    3.429 
#    0.000    3.571    0.000    0.000    0.000    0.000 
#    0.000    0.000    0.000    0.000    0.000    0.000 
#
# Total GULP energy -347275.633365 kJ/mol
# GULP energy per Si atom -12402.701192 kJ/mol
# Density = 2.021610 g / cm^3
# Si number density = 20.262215 Si / 1000 Ang^3
#
#
#
# Elastic Constant Matrix: (Units=GPa)
#
#
# Indices 1 2 3 4 5 6 
#
# 1 95.6700 30.9837 35.8637 0.0000 -6.2109 0.0000
# 2 30.9837 81.6686 41.3264 0.0000 -4.3322 0.0000
# 3 35.8637 41.3264 115.0572 0.0000 -12.7195 0.0000
# 4 0.0000 0.0000 0.0000 17.6637 0.0000 -9.9726
# 5 -6.2109 -4.3322 -12.7195 0.0000 51.3675 0.0000
# 6 0.0000 0.0000 0.0000 -9.9726 0.0000 8.7271
#
#
#
# Elastic Compliance Matrix: (Units=1/GPa)
#
#
# Indices 1 2 3 4 5 6 
#
# 1 0.012582 -0.003410 -0.002633 0.000000 0.000582 0.000000
# 2 -0.003410 0.015889 -0.004669 0.000000 -0.000229 0.000000
# 3 -0.002633 -0.004669 0.011423 0.000000 0.002116 0.000000
# 4 0.000000 0.000000 0.000000 0.159543 0.000000 0.182313
# 5 0.000582 -0.000229 0.002116 0.000000 0.020043 0.000000
# 6 0.000000 0.000000 0.000000 0.182313 0.000000 0.322918
#
#
# Mechanical properties :
#
#
# Convention : Reuss Voigt Hill
#
# Bulk Modulus (GPa) = 54.14332 56.52702 55.33517
# Shear Modulus (GPa) = 8.77226 27.83312 18.30269
#
# Velocity S-wave (km/s) = 2.08297 3.71029 3.00874
# Velocity P-wave (km/s) = 5.70652 6.80539 6.28004
#
# Compressibility (1/GPa) = 0.01846950
#
# Stress axis : x y z
#
# Youngs Moduli (GPa) = 79.48066 62.93620 87.54267
#
# Poissons Ratio (x) = 0.21463 0.23046
# Poissons Ratio (y) = 0.27105 0.40877
# Poissons Ratio (z) = 0.20923 0.29387
#
# Static dielectric constant tensor:
#      x y z
#    x 3.773510 0.000000 -0.103670 
#    y 0.000000 3.429320 0.000000 
#    z -0.103670 0.000000 3.818520 
# 
# 
# High freq. dielectric constant tensor:
#      x y z
#    x 1.795740 0.000000 -0.005940 
#    y 0.000000 1.783630 0.000000 
#    z -0.005940 0.000000 1.801100 
# 
# From -- ./inp_files/332831.got.cif
#   From: 2010.06.25/outbox.cif.g09.slc.cpg/sg12_167_cif.got.tgz:332831.got - 2010.06.28 00:19:55.
