data_PCOD8108338
_publ_section_title
;
Structure prediction by ZEFSAII (Michael W. Deem and Ramdas Pophale) SiO2 
 PCOD8108338
Probable space group: C 2/M
;
_chemical_formula_sum "Si O2"
_cell_formula_units_Z 40
_cell_length_a 30.912541
_cell_length_b 8.423790
_cell_length_c 22.134973
_cell_angle_alpha 90.000000
_cell_angle_beta 160.393085
_cell_angle_gamma 90.000000
_cell_volume 1934.185984
_symmetry_space_group_name_H-M "C 2/M"
_symmetry_group_IT_number 12
_symmetry_cell_setting 'monoclinic'
loop_
_space_group_symop_operation_xyz
x,y,z
-x,y,-z
-x,-y,-z
x,-y,z
1/2+x,1/2+y,z
1/2-x,1/2+y,-z
1/2-x,1/2-y,-z
1/2+x,1/2-y,z
loop_
_atom_site_type_symbol
_atom_site_label
_atom_site_fract_x
_atom_site_fract_y
_atom_site_fract_z
Si Si1 0.045964 0.183388 0.213045
Si Si2 0.616759 0.315676 0.534438
Si Si3 0.665459 0.815550 0.834649
Si Si4 0.225528 0.683494 0.141195
Si Si5 0.699819 0.183769 0.520449
O O1 0.156937 0.234064 0.311794
O O2 0.093668 0.216274 0.344043
O O3 0.008754 0.000000 0.157880
O O4 0.922106 0.288444 0.034094
O O5 0.639886 0.500000 0.551747
O O6 0.466265 0.281302 0.341025
O O7 0.682439 0.263290 0.683237
O O8 0.684471 0.216067 0.570828
O O9 0.742346 0.792114 0.873800
O O10 0.635730 0.000000 0.806004
O O11 0.750000 0.750000 0.000000
O O12 0.247783 0.500000 0.153838
O O13 0.676032 0.000000 0.474557
#
# Coordination Sequence:
#
# PCOD8108338 Si02
#       5
#     8   8   8   8   8
#     4  10  21  38  61  88 119 156 199 245 291 344
#     4  11  24  41  61  87 121 157 194 240 294 350
#     4  12  25  42  65  89 117 153 195 242 291 348
#     4  11  24  41  61  87 121 157 194 240 294 350
#     4  10  21  38  61  88 119 156 199 245 291 344
#
# _framework density 20.680534000000002
#
# number of rings (size 3 to 8) (size 9 to 14) (size 15 to 20)
#    0.000    1.200    0.000    6.000    0.000    8.800 
#    0.000    4.000    0.000    0.000    0.000    0.000 
#    0.000    0.000    0.000    0.000    0.000    0.000 
#
# Total GULP energy -248173.125388 kJ/mol
# GULP energy per Si atom -12408.656269 kJ/mol
# Density = 2.063346 g / cm^3
# Si number density = 20.680534 Si / 1000 Ang^3
#
#
#
# Elastic Constant Matrix: (Units=GPa)
#
#
# Indices 1 2 3 4 5 6 
#
# 1 92.1512 19.9982 69.9827 0.0000 -0.6450 0.0000
# 2 19.9982 49.9697 19.1119 0.0000 -4.9400 0.0000
# 3 69.9827 19.1119 146.8517 0.0000 -9.1425 0.0000
# 4 0.0000 0.0000 0.0000 31.0413 0.0000 3.9148
# 5 -0.6450 -4.9400 -9.1425 0.0000 29.6757 0.0000
# 6 0.0000 0.0000 0.0000 3.9148 0.0000 33.9678
#
#
#
# Elastic Compliance Matrix: (Units=1/GPa)
#
#
# Indices 1 2 3 4 5 6 
#
# 1 0.017993 -0.004352 -0.008186 0.000000 -0.002855 0.000000
# 2 -0.004352 0.022330 -0.000618 0.000000 0.003432 0.000000
# 3 -0.008186 -0.000618 0.010984 0.000000 0.003103 0.000000
# 4 0.000000 0.000000 0.000000 0.032690 0.000000 -0.003768
# 5 -0.002855 0.003432 0.003103 0.000000 0.035163 0.000000
# 6 0.000000 0.000000 0.000000 -0.003768 0.000000 0.029874
#
#
# Mechanical properties :
#
#
# Convention : Reuss Voigt Hill
#
# Bulk Modulus (GPa) = 40.00982 56.35092 48.18037
# Shear Modulus (GPa) = 27.22150 30.92895 29.07522
#
# Velocity S-wave (km/s) = 3.63200 3.87144 3.75363
# Velocity P-wave (km/s) = 6.08089 6.87688 6.49110
#
# Compressibility (1/GPa) = 0.02499386
#
# Stress axis : x y z
#
# Youngs Moduli (GPa) = 55.57742 44.78333 91.03915
#
# Poissons Ratio (x) = 0.19491 0.74524
# Poissons Ratio (y) = 0.24189 0.05629
# Poissons Ratio (z) = 0.45495 0.02769
#
# Static dielectric constant tensor:
#      x y z
#    x 3.772820 0.000000 -0.012520 
#    y 0.000000 3.706500 0.000000 
#    z -0.012520 0.000000 3.821400 
# 
# 
# High freq. dielectric constant tensor:
#      x y z
#    x 1.814590 0.000000 0.005130 
#    y 0.000000 1.817640 0.000000 
#    z 0.005130 0.000000 1.816490 
# 
# From -- ./inp_files/119061.got.cif
#   From: 2010.06.25/outbox.cif.g09.slc.cpg/sg12_60_cif.got.tgz:119061.got - 2010.06.28 00:19:55.
