data_PCOD8108393
_publ_section_title
;
Structure prediction by ZEFSAII (Michael W. Deem and Ramdas Pophale) SiO2 
 PCOD8108393
Probable space group: C 2/M
;
_chemical_formula_sum "Si O2"
_cell_formula_units_Z 64
_cell_length_a 21.516673
_cell_length_b 26.902013
_cell_length_c 17.490696
_cell_angle_alpha 90.000000
_cell_angle_beta 161.974428
_cell_angle_gamma 90.000000
_cell_volume 3132.892231
_symmetry_space_group_name_H-M "C 2/M"
_symmetry_group_IT_number 12
_symmetry_cell_setting 'monoclinic'
loop_
_space_group_symop_operation_xyz
x,y,z
-x,y,-z
-x,-y,-z
x,-y,z
1/2+x,1/2+y,z
1/2-x,1/2+y,-z
1/2-x,1/2-y,-z
1/2+x,1/2-y,z
loop_
_atom_site_type_symbol
_atom_site_label
_atom_site_fract_x
_atom_site_fract_y
_atom_site_fract_z
Si Si1 0.171600 0.557154 0.851694
Si Si2 0.944181 0.235622 0.099201
Si Si3 0.804922 0.625640 0.406965
Si Si4 0.294080 0.941779 0.797771
Si Si5 0.869077 0.127971 0.961965
Si Si6 0.635400 0.765835 0.479212
Si Si7 0.087731 0.806066 0.679753
Si Si8 0.623044 0.411637 0.756153
O O1 0.149320 0.500000 0.800998
O O2 0.299660 0.584919 0.937114
O O3 0.950068 0.580500 0.598268
O O4 0.282095 0.559229 0.062293
O O5 0.128902 0.241292 0.257727
O O6 0.004764 0.244865 0.257140
O O7 0.847269 0.181133 0.978195
O O8 0.791285 0.278132 0.897044
O O9 0.770726 0.628543 0.276243
O O10 0.910564 0.676446 0.558781
O O11 0.598483 0.616478 0.209750
O O12 0.262367 0.918264 0.844304
O O13 0.104109 0.930723 0.521236
O O14 0.313663 0.000000 0.833293
O O15 0.500000 0.920879 0.000000
O O16 0.574673 0.733180 0.480254
O O17 0.121704 0.852803 0.775672
O O18 0.000000 0.830142 0.500000
#
# Coordination Sequence:
#
# PCOD8108393 Si02
#       8
#     8   8   8   8   8   8   8   8
#     4  12  25  40  65  91 117 156 207 268 323 373
#     4  10  21  38  61  89 122 161 203 246 296 360
#     4  10  22  41  62  88 125 167 208 254 310 371
#     4  10  21  41  66  85 115 166 209 249 310 375
#     4  10  22  41  62  88 125 167 208 254 310 371
#     4  10  21  38  61  89 122 161 203 246 296 360
#     4  12  22  34  56  90 123 161 195 239 293 354
#     4  11  23  42  58  92 129 155 201 260 313 369
#
# _framework density 20.428408000000001
#
# number of rings (size 3 to 8) (size 9 to 14) (size 15 to 20)
#    0.000    1.375    1.250    5.250    0.000    5.000 
#    0.000    1.250    0.000    0.000    0.000    0.000 
#    0.000    0.000    0.000    0.000    0.000    0.000 
#
# Total GULP energy -396910.877739 kJ/mol
# GULP energy per Si atom -12403.464929 kJ/mol
# Density = 2.038191 g / cm^3
# Si number density = 20.428408 Si / 1000 Ang^3
#
#
#
# Elastic Constant Matrix: (Units=GPa)
#
#
# Indices 1 2 3 4 5 6 
#
# 1 52.7983 4.5380 31.7404 -0.0001 4.9150 0.0001
# 2 4.5380 114.8876 27.9811 -0.0005 6.2336 -0.0011
# 3 31.7404 27.9811 84.1797 0.0002 7.2522 -0.0015
# 4 -0.0001 -0.0005 0.0002 35.5538 0.0009 1.9115
# 5 4.9150 6.2336 7.2522 0.0009 33.8956 0.0018
# 6 0.0001 -0.0011 -0.0015 1.9115 0.0018 30.0684
#
#
#
# Elastic Compliance Matrix: (Units=1/GPa)
#
#
# Indices 1 2 3 4 5 6 
#
# 1 0.024805 0.001477 -0.009689 0.000000 -0.001795 0.000000
# 2 0.001477 0.009598 -0.003644 0.000000 -0.001200 0.000000
# 3 -0.009689 -0.003644 0.016876 0.000000 -0.001536 0.000001
# 4 0.000000 0.000000 0.000000 0.028223 -0.000001 -0.001794
# 5 -0.001795 -0.001200 -0.001536 -0.000001 0.030312 -0.000002
# 6 0.000000 0.000000 0.000001 -0.001794 -0.000002 0.033372
#
#
# Mechanical properties :
#
#
# Convention : Reuss Voigt Hill
#
# Bulk Modulus (GPa) = 36.27426 42.26495 39.26960
# Shear Modulus (GPa) = 28.39500 32.41065 30.40283
#
# Velocity S-wave (km/s) = 3.73228 3.98747 3.86199
# Velocity P-wave (km/s) = 6.03064 6.47566 6.25710
#
# Compressibility (1/GPa) = 0.02756776
#
# Stress axis : x y z
#
# Youngs Moduli (GPa) = 40.31449 104.18342 59.25449
#
# Poissons Ratio (x) = -0.15393 0.57413
# Poissons Ratio (y) = -0.05956 0.21594
# Poissons Ratio (z) = 0.39062 0.37967
#
# Static dielectric constant tensor:
#      x y z
#    x 3.709960 0.000000 0.013730 
#    y 0.000000 3.685710 -0.000010 
#    z 0.013730 -0.000010 3.943750 
# 
# 
# High freq. dielectric constant tensor:
#      x y z
#    x 1.801270 0.000000 0.003320 
#    y 0.000000 1.803930 0.000000 
#    z 0.003320 0.000000 1.806610 
# 
# From -- ./inp_files/286452.got.cif
#   From: 2010.06.25/outbox.cif.g09.slc.cpg/sg12_144_cif.got.tgz:286452.got - 2010.06.28 00:19:55.
