data_PCOD8108199
_publ_section_title
;
Structure prediction by ZEFSAII (Michael W. Deem and Ramdas Pophale) SiO2 
 PCOD8108199
Probable space group: C 2/M
;
_chemical_formula_sum "Si O2"
_cell_formula_units_Z 64
_cell_length_a 15.387383
_cell_length_b 8.606681
_cell_length_c 33.275365
_cell_angle_alpha 90.000000
_cell_angle_beta 134.120491
_cell_angle_gamma 90.000000
_cell_volume 3163.541679
_symmetry_space_group_name_H-M "C 2/M"
_symmetry_group_IT_number 12
_symmetry_cell_setting 'monoclinic'
loop_
_space_group_symop_operation_xyz
x,y,z
-x,y,-z
-x,-y,-z
x,-y,z
1/2+x,1/2+y,z
1/2-x,1/2+y,-z
1/2-x,1/2-y,-z
1/2+x,1/2-y,z
loop_
_atom_site_type_symbol
_atom_site_label
_atom_site_fract_x
_atom_site_fract_y
_atom_site_fract_z
Si Si1 0.839382 0.318927 0.061119
Si Si2 0.550865 0.682394 0.638884
Si Si3 0.206996 0.822201 0.869470
Si Si4 0.887686 0.680992 0.859678
Si Si5 0.594016 0.315622 0.562622
Si Si6 0.635998 0.817337 0.366100
Si Si7 0.285559 0.680394 0.749545
Si Si8 0.518017 0.179928 0.243965
O O1 0.839452 0.500000 0.054595
O O2 0.794518 0.281882 0.091410
O O3 0.974981 0.255352 0.097174
O O4 0.750000 0.250000 0.000000
O O5 0.578385 0.500000 0.651180
O O6 0.554411 0.739537 0.594038
O O7 0.419375 0.724124 0.614185
O O8 0.647451 0.778982 0.695645
O O9 0.332704 0.793249 0.886404
O O10 0.096900 0.783036 0.804337
O O11 0.194884 0.000000 0.879184
O O12 0.881247 0.500000 0.845228
O O13 0.808948 0.781953 0.803559
O O14 0.500000 0.245487 0.500000
O O15 0.593753 0.500000 0.560465
O O16 0.728251 0.253621 0.596262
O O17 0.557791 0.777760 0.301603
O O18 0.635587 0.000000 0.375085
O O19 0.310517 0.500000 0.749107
O O20 0.371468 0.786181 0.750094
O O21 0.483075 0.000000 0.228389
#
# Coordination Sequence:
#
# PCOD8108199 Si02
#       8
#     8   8   8   8   8   8   8   8
#     4  11  24  43  65  88 121 164 205 255 302 351
#     4  11  22  38  60  88 120 157 197 244 301 359
#     4  11  23  40  63  93 122 157 201 247 298 359
#     4  10  23  42  64  90 125 162 197 243 303 359
#     4   9  19  38  61  83 114 159 204 246 299 359
#     4  10  21  38  60  88 120 157 199 245 297 360
#     4  12  23  36  61  92 122 157 198 245 296 357
#     4  11  21  37  60  88 123 160 194 238 302 361
#
# _framework density 20.230491000000001
#
# number of rings (size 3 to 8) (size 9 to 14) (size 15 to 20)
#    0.000    1.375    2.500    3.375    0.000    5.500 
#    0.000    2.500    0.000    2.625    0.000    0.000 
#    0.000    0.000    0.000    0.000    0.000    0.000 
#
# Total GULP energy -396969.995553 kJ/mol
# GULP energy per Si atom -12405.312361 kJ/mol
# Density = 2.018445 g / cm^3
# Si number density = 20.230491 Si / 1000 Ang^3
#
#
#
# Elastic Constant Matrix: (Units=GPa)
#
#
# Indices 1 2 3 4 5 6 
#
# 1 146.1927 20.3060 60.3159 0.0000 -10.3590 0.0000
# 2 20.3060 37.4746 29.9877 0.0000 -1.0753 0.0000
# 3 60.3159 29.9877 141.4152 0.0000 -3.9962 0.0000
# 4 0.0000 0.0000 0.0000 19.1721 0.0000 0.8406
# 5 -10.3590 -1.0753 -3.9962 0.0000 13.4452 0.0000
# 6 0.0000 0.0000 0.0000 0.8406 0.0000 32.8716
#
#
#
# Elastic Compliance Matrix: (Units=1/GPa)
#
#
# Indices 1 2 3 4 5 6 
#
# 1 0.008841 -0.002094 -0.003166 0.000000 0.005704 0.000000
# 2 -0.002094 0.032638 -0.006051 0.000000 -0.000801 0.000000
# 3 -0.003166 -0.006051 0.009704 0.000000 -0.000039 0.000000
# 4 0.000000 0.000000 0.000000 0.052218 0.000000 -0.001335
# 5 0.005704 -0.000801 -0.000039 0.000000 0.078695 0.000000
# 6 0.000000 0.000000 0.000000 -0.001335 0.000000 0.030456
#
#
# Mechanical properties :
#
#
# Convention : Reuss Voigt Hill
#
# Bulk Modulus (GPa) = 35.01088 60.70017 47.85553
# Shear Modulus (GPa) = 20.43383 27.39598 23.91490
#
# Velocity S-wave (km/s) = 3.18158 3.68393 3.44193
# Velocity P-wave (km/s) = 5.55339 6.94007 6.28509
#
# Compressibility (1/GPa) = 0.02856255
#
# Stress axis : x y z
#
# Youngs Moduli (GPa) = 113.10414 30.63906 103.05438
#
# Poissons Ratio (x) = 0.06415 0.32625
# Poissons Ratio (y) = 0.23682 0.62354
# Poissons Ratio (z) = 0.35807 0.18539
#
# Static dielectric constant tensor:
#      x y z
#    x 25.196030 0.000000 6.282460 
#    y 0.000000 3.475730 0.000000 
#    z 6.282460 0.000000 5.558160 
# 
# 
# High freq. dielectric constant tensor:
#      x y z
#    x 1.805470 0.000000 -0.001020 
#    y 0.000000 1.778150 0.000000 
#    z -0.001020 0.000000 1.785570 
# 
# From -- ./inp_files/359744.got.cif
#   From: 2010.06.25/outbox.cif.g09.slc.cpg/sg12_180_cif.got.tgz:359744.got - 2010.06.28 00:19:55.
