data_PCOD8108269
_publ_section_title
;
Structure prediction by ZEFSAII (Michael W. Deem and Ramdas Pophale) SiO2 
 PCOD8108269
Probable space group: C 2/M
;
_chemical_formula_sum "Si O2"
_cell_formula_units_Z 48
_cell_length_a 9.117398
_cell_length_b 18.130840
_cell_length_c 30.270667
_cell_angle_alpha 90.000000
_cell_angle_beta 151.965168
_cell_angle_gamma 90.000000
_cell_volume 2351.886231
_symmetry_space_group_name_H-M "C 2/M"
_symmetry_group_IT_number 12
_symmetry_cell_setting 'monoclinic'
loop_
_space_group_symop_operation_xyz
x,y,z
-x,y,-z
-x,-y,-z
x,-y,z
1/2+x,1/2+y,z
1/2-x,1/2+y,-z
1/2-x,1/2-y,-z
1/2+x,1/2-y,z
loop_
_atom_site_type_symbol
_atom_site_label
_atom_site_fract_x
_atom_site_fract_y
_atom_site_fract_z
Si Si1 0.752984 0.661865 0.271666
Si Si2 0.365695 0.412877 0.598400
Si Si3 0.651850 0.584721 0.583523
Si Si4 0.644155 0.917982 0.085933
Si Si5 0.198302 0.687643 0.949149
Si Si6 0.578574 0.694409 0.729184
O O1 0.427334 0.640662 0.161689
O O2 0.689410 0.682270 0.305655
O O3 0.954892 0.728061 0.304459
O O4 0.976072 0.591773 0.323753
O O5 0.417050 0.500000 0.619030
O O6 0.520588 0.382159 0.594432
O O7 0.547440 0.372843 0.686632
O O8 0.000000 0.392627 0.500000
O O9 0.500000 0.623814 0.500000
O O10 0.553695 0.500000 0.558116
O O11 0.371588 0.890131 0.045820
O O12 0.751471 0.000000 0.129366
O O13 0.500000 0.920269 0.000000
O O14 0.916118 0.702795 0.840958
O O15 0.500000 0.678713 0.000000
O O16 0.250000 0.750000 0.000000
#
# Coordination Sequence:
#
# PCOD8108269 Si02
#       6
#     8   8   8   8   8   8
#     4  11  22  38  58  85 119 152 196 251 301 356
#     4  10  22  41  63  90 126 162 201 253 310 367
#     4  10  21  38  61  86 115 157 201 242 299 367
#     4  10  22  39  60  86 118 157 199 246 302 364
#     4  11  22  39  62  88 123 164 205 253 307 368
#     4  11  23  37  61  89 118 159 205 250 305 369
#
# _framework density 20.409148999999999
#
# number of rings (size 3 to 8) (size 9 to 14) (size 15 to 20)
#    0.000    1.500    0.000    6.000    0.000    7.000 
#    0.000    5.000    0.000    0.000    0.000    0.000 
#    0.000    0.000    0.000    0.000    0.000    0.000 
#
# Total GULP energy -297506.470985 kJ/mol
# GULP energy per Si atom -12396.102958 kJ/mol
# Density = 2.036270 g / cm^3
# Si number density = 20.409149 Si / 1000 Ang^3
#
#
#
# Elastic Constant Matrix: (Units=GPa)
#
#
# Indices 1 2 3 4 5 6 
#
# 1 173.5491 45.3430 62.8795 0.0147 9.0491 -0.0095
# 2 45.3430 86.6472 30.7520 0.0433 -6.4711 -0.0188
# 3 62.8795 30.7520 103.5513 0.0809 -5.6049 -0.0385
# 4 0.0147 0.0433 0.0809 3.7761 0.0353 12.6637
# 5 9.0491 -6.4711 -5.6049 0.0353 41.1352 -0.0168
# 6 -0.0095 -0.0188 -0.0385 12.6637 -0.0168 33.0776
#
#
#
# Elastic Compliance Matrix: (Units=1/GPa)
#
#
# Indices 1 2 3 4 5 6 
#
# 1 0.008245 -0.003015 -0.004266 -0.000493 -0.002869 0.000183
# 2 -0.003015 0.014098 -0.002217 0.000515 0.002578 -0.000191
# 3 -0.004266 -0.002217 0.013033 0.001077 0.002364 -0.000398
# 4 -0.000493 0.000515 0.001077 -0.932535 0.001283 0.357022
# 5 -0.002869 0.002578 0.002364 0.001283 0.025668 -0.000475
# 6 0.000183 -0.000191 -0.000398 0.357022 -0.000475 -0.106455
#
#
# Mechanical properties :
#
#
# Convention : Reuss Voigt Hill
#
# Bulk Modulus (GPa) = 61.04949 71.29961 66.17455
# Shear Modulus (GPa) = -5.24389 30.58267 12.66939
#
# Velocity S-wave (km/s) = -1.60467 3.87522 2.49423
# Velocity P-wave (km/s) = 5.15213 7.41849 6.38665
#
# Compressibility (1/GPa) = 0.01638015
#
# Stress axis : x y z
#
# Youngs Moduli (GPa) = 121.28561 70.93367 76.72821
#
# Poissons Ratio (x) = 0.21383 0.32734
# Poissons Ratio (y) = 0.36562 0.17011
# Poissons Ratio (z) = 0.51743 0.15726
#
# Static dielectric constant tensor:
#      x y z
#    x 4.145100 -0.000150 -0.063470 
#    y -0.000150 3.875510 -0.000280 
#    z -0.063470 -0.000280 3.795040 
# 
# 
# High freq. dielectric constant tensor:
#      x y z
#    x 1.816350 0.000000 -0.004120 
#    y 0.000000 1.792330 0.000000 
#    z -0.004120 0.000000 1.797210 
# 
# From -- ./inp_files/256442.got.cif
#   From: 2010.06.25/outbox.cif.g09.slc.cpg/sg12_129_cif.got.tgz:256442.got - 2010.06.28 00:19:55.
