data_PCOD8108193
_publ_section_title
;
Structure prediction by ZEFSAII (Michael W. Deem and Ramdas Pophale) SiO2 
 PCOD8108193
Probable space group: C 2/M
;
_chemical_formula_sum "Si O2"
_cell_formula_units_Z 64
_cell_length_a 14.978225
_cell_length_b 8.896413
_cell_length_c 28.397071
_cell_angle_alpha 90.000000
_cell_angle_beta 55.899541
_cell_angle_gamma 90.000000
_cell_volume 3133.346759
_symmetry_space_group_name_H-M "C 2/M"
_symmetry_group_IT_number 12
_symmetry_cell_setting 'monoclinic'
loop_
_space_group_symop_operation_xyz
x,y,z
-x,y,-z
-x,-y,-z
x,-y,z
1/2+x,1/2+y,z
1/2-x,1/2+y,-z
1/2-x,1/2-y,-z
1/2+x,1/2-y,z
loop_
_atom_site_type_symbol
_atom_site_label
_atom_site_fract_x
_atom_site_fract_y
_atom_site_fract_z
Si Si1 0.072418 0.678083 0.614644
Si Si2 0.158496 0.829758 0.753311
Si Si3 0.271895 0.323192 0.852263
Si Si4 0.765641 0.176089 0.369595
Si Si5 0.381840 0.171500 0.737874
Si Si6 0.054281 0.676553 0.866385
Si Si7 0.961038 0.825206 0.564096
Si Si8 0.830142 0.178379 0.939348
O O1 0.071029 0.500000 0.607226
O O2 0.187976 0.731950 0.599830
O O3 0.983396 0.732775 0.678703
O O4 0.053349 0.760884 0.570921
O O5 0.157747 0.792168 0.698188
O O6 0.279791 0.806362 0.734662
O O7 0.078241 0.719165 0.804891
O O8 0.119452 0.000000 0.774382
O O9 0.278195 0.500000 0.847498
O O10 0.366851 0.261691 0.790819
O O11 0.154205 0.268433 0.869330
O O12 0.292414 0.265896 0.898967
O O13 0.646651 0.233079 0.393672
O O14 0.761165 0.000000 0.382500
O O15 0.399917 0.000000 0.746809
O O16 0.034186 0.500000 0.876470
O O17 0.949526 0.763093 0.915645
O O18 0.000000 0.796642 0.500000
O O19 0.940718 0.000000 0.580437
O O20 0.827193 0.000000 0.944530
O O21 0.750000 0.250000 0.000000
#
# Coordination Sequence:
#
# PCOD8108193 Si02
#       8
#     8   8   8   8   8   8   8   8
#     4  11  23  40  62  94 128 164 207 255 310 370
#     4   9  18  36  59  87 123 159 197 244 300 362
#     4   9  21  39  59  85 118 157 197 241 298 359
#     4  11  23  40  63  93 127 166 207 254 312 369
#     4   9  18  35  59  88 122 156 197 246 299 359
#     4  10  21  38  60  88 118 155 198 244 299 357
#     4  11  25  45  67  91 122 164 213 262 312 371
#     4  11  24  42  61  85 118 158 203 249 298 359
#
# _framework density 20.425445
#
# number of rings (size 3 to 8) (size 9 to 14) (size 15 to 20)
#    0.000    1.875    1.250    1.875    1.750    5.500 
#    0.000    2.500    0.000    0.000    0.000    0.000 
#    0.000    0.000    0.000    0.000    0.000    0.000 
#
# Total GULP energy -396930.029414 kJ/mol
# GULP energy per Si atom -12404.063419 kJ/mol
# Density = 2.037896 g / cm^3
# Si number density = 20.425445 Si / 1000 Ang^3
#
#
#
# Elastic Constant Matrix: (Units=GPa)
#
#
# Indices 1 2 3 4 5 6 
#
# 1 65.7145 20.1201 12.8417 0.0000 19.5290 0.0000
# 2 20.1201 64.8889 34.4710 -0.0001 9.5795 -0.0001
# 3 12.8417 34.4710 68.0888 0.0000 14.3853 0.0000
# 4 0.0000 -0.0001 0.0000 35.4419 0.0000 0.3456
# 5 19.5290 9.5795 14.3853 0.0000 32.4831 0.0000
# 6 0.0000 -0.0001 0.0000 0.3456 0.0000 33.5324
#
#
#
# Elastic Compliance Matrix: (Units=1/GPa)
#
#
# Indices 1 2 3 4 5 6 
#
# 1 0.019808 -0.005159 0.001181 0.000000 -0.010911 0.000000
# 2 -0.005159 0.022504 -0.010671 0.000000 0.001191 0.000000
# 3 0.001181 -0.010671 0.021349 0.000000 -0.007017 0.000000
# 4 0.000000 0.000000 0.000000 0.028218 0.000000 -0.000291
# 5 -0.010911 0.001191 -0.007017 0.000000 0.040101 0.000000
# 6 0.000000 0.000000 0.000000 -0.000291 0.000000 0.029825
#
#
# Mechanical properties :
#
#
# Convention : Reuss Voigt Hill
#
# Bulk Modulus (GPa) = 29.10128 37.06198 33.08163
# Shear Modulus (GPa) = 24.68428 29.04211 26.86319
#
# Velocity S-wave (km/s) = 3.48013 3.77485 3.63048
# Velocity P-wave (km/s) = 5.51606 6.09784 5.81423
#
# Compressibility (1/GPa) = 0.03436275
#
# Stress axis : x y z
#
# Youngs Moduli (GPa) = 50.48369 44.43719 46.84024
#
# Poissons Ratio (x) = 0.22923 -0.05531
# Poissons Ratio (y) = 0.26042 0.49985
# Poissons Ratio (z) = -0.05961 0.47421
#
# Static dielectric constant tensor:
#      x y z
#    x 3.847470 0.000000 0.082970 
#    y 0.000000 3.633650 0.000000 
#    z 0.082970 0.000000 3.675410 
# 
# 
# High freq. dielectric constant tensor:
#      x y z
#    x 1.804430 0.000000 0.002050 
#    y 0.000000 1.798630 0.000000 
#    z 0.002050 0.000000 1.793610 
# 
# From -- ./inp_files/375501.got.cif
#   From: 2010.06.25/outbox.cif.g09.slc.cpg/sg12_188_cif.got.tgz:375501.got - 2010.06.28 00:19:55.
