data_PCOD8108445
_publ_section_title
;
Structure prediction by ZEFSAII (Michael W. Deem and Ramdas Pophale) SiO2 
 PCOD8108445
Probable space group: C 2/M
;
_chemical_formula_sum "Si O2"
_cell_formula_units_Z 56
_cell_length_a 14.666922
_cell_length_b 9.806960
_cell_length_c 18.808770
_cell_angle_alpha 90.000000
_cell_angle_beta 92.544930
_cell_angle_gamma 90.000000
_cell_volume 2702.745980
_symmetry_space_group_name_H-M "C 2/M"
_symmetry_group_IT_number 12
_symmetry_cell_setting 'monoclinic'
loop_
_space_group_symop_operation_xyz
x,y,z
-x,y,-z
-x,-y,-z
x,-y,z
1/2+x,1/2+y,z
1/2-x,1/2+y,-z
1/2-x,1/2-y,-z
1/2+x,1/2-y,z
loop_
_atom_site_type_symbol
_atom_site_label
_atom_site_fract_x
_atom_site_fract_y
_atom_site_fract_z
Si Si1 0.532839 0.158193 0.080768
Si Si2 0.400447 0.762905 0.473449
Si Si3 0.367792 0.342228 0.687070
Si Si4 0.274176 0.853701 0.588614
Si Si5 0.034705 0.652853 0.669744
Si Si6 0.322347 0.342445 0.848000
Si Si7 0.378345 0.160483 0.182092
O O1 0.622455 0.248916 0.095304
O O2 0.455314 0.215274 0.131164
O O3 0.555675 0.000000 0.097183
O O4 0.500000 0.179444 0.000000
O O5 0.500000 0.703115 0.500000
O O6 0.357935 0.852977 0.535165
O O7 0.324064 0.648284 0.454456
O O8 0.411299 0.852247 0.402402
O O9 0.370727 0.500000 0.663598
O O10 0.281658 0.269488 0.645818
O O11 0.455194 0.263309 0.660653
O O12 0.363725 0.327696 0.771063
O O13 0.280731 0.000000 0.628155
O O14 0.997367 0.500000 0.685255
O O15 0.100189 0.702263 0.736148
O O16 0.326685 0.500000 0.873106
O O17 0.220012 0.281465 0.844030
O O18 0.370484 0.000000 0.175279
#
# Coordination Sequence:
#
# PCOD8108445 Si02
#       7
#     8   8   8   8   8   8   8
#     4  10  21  38  61  92 127 158 196 246 294 349
#     4  11  24  41  61  92 119 156 200 259 304 361
#     4  11  23  39  61  90 122 155 202 262 308 349
#     4  11  25  43  63  89 120 160 205 250 308 372
#     4  11  21  39  66  88 115 161 208 246 303 372
#     4  10  21  39  62  87 120 161 203 244 292 355
#     4   9  19  37  62  87 117 159 198 238 297 357
#
# _framework density 20.719667999999999
#
# number of rings (size 3 to 8) (size 9 to 14) (size 15 to 20)
#    0.000    1.571    2.857    1.714    0.000    6.857 
#    0.000    1.429    0.000    0.000    0.000    0.000 
#    0.000    0.000    0.000    0.000    0.000    0.000 
#
# Total GULP energy -347078.028702 kJ/mol
# GULP energy per Si atom -12395.643882 kJ/mol
# Density = 2.067251 g / cm^3
# Si number density = 20.719668 Si / 1000 Ang^3
#
#
#
# Elastic Constant Matrix: (Units=GPa)
#
#
# Indices 1 2 3 4 5 6 
#
# 1 139.8147 45.0523 33.6639 0.0000 23.4982 0.0000
# 2 45.0523 117.8235 33.3715 0.0000 20.2332 0.0000
# 3 33.6639 33.3715 93.0239 0.0000 16.1172 0.0000
# 4 0.0000 0.0000 0.0000 25.3970 0.0000 6.6742
# 5 23.4982 20.2332 16.1172 0.0000 30.3519 0.0000
# 6 0.0000 0.0000 0.0000 6.6742 0.0000 21.9117
#
#
#
# Elastic Compliance Matrix: (Units=1/GPa)
#
#
# Indices 1 2 3 4 5 6 
#
# 1 0.009043 -0.002182 -0.001684 0.000000 -0.004652 0.000000
# 2 -0.002182 0.010702 -0.002320 0.000000 -0.004213 0.000000
# 3 -0.001684 -0.002320 0.012883 0.000000 -0.003991 0.000000
# 4 0.000000 0.000000 0.000000 0.042801 0.000000 -0.013037
# 5 -0.004652 -0.004213 -0.003991 0.000000 0.041477 0.000000
# 6 0.000000 0.000000 0.000000 -0.013037 0.000000 0.049609
#
#
# Mechanical properties :
#
#
# Convention : Reuss Voigt Hill
#
# Bulk Modulus (GPa) = 49.36524 63.87085 56.61804
# Shear Modulus (GPa) = 26.93434 31.43707 29.18570
#
# Velocity S-wave (km/s) = 3.60938 3.89942 3.75720
# Velocity P-wave (km/s) = 6.42240 7.15312 6.79758
#
# Compressibility (1/GPa) = 0.02025717
#
# Stress axis : x y z
#
# Youngs Moduli (GPa) = 110.58698 93.43958 77.62246
#
# Poissons Ratio (x) = 0.20387 0.13069
# Poissons Ratio (y) = 0.24129 0.18006
# Poissons Ratio (z) = 0.18619 0.21675
#
# Static dielectric constant tensor:
#      x y z
#    x 3.950980 0.000000 0.046690 
#    y 0.000000 3.464670 0.000000 
#    z 0.046690 0.000000 3.767640 
# 
# 
# High freq. dielectric constant tensor:
#      x y z
#    x 1.820680 0.000000 0.007490 
#    y 0.000000 1.784140 0.000000 
#    z 0.007490 0.000000 1.808730 
# 
# From -- ./inp_files/308972.got.cif
#   From: 2010.06.25/outbox.cif.g09.slc.cpg/sg12_155_cif.got.tgz:308972.got - 2010.06.28 00:19:55.
