data_PCOD8108634
_publ_section_title
;
Structure prediction by ZEFSAII (Michael W. Deem and Ramdas Pophale) SiO2 
 PCOD8108634
Probable space group: C 2/M
;
_chemical_formula_sum "Si O2"
_cell_formula_units_Z 64
_cell_length_a 19.260445
_cell_length_b 9.025125
_cell_length_c 30.067210
_cell_angle_alpha 90.000000
_cell_angle_beta 38.376879
_cell_angle_gamma 90.000000
_cell_volume 3244.788572
_symmetry_space_group_name_H-M "C 2/M"
_symmetry_group_IT_number 12
_symmetry_cell_setting 'monoclinic'
loop_
_space_group_symop_operation_xyz
x,y,z
-x,y,-z
-x,-y,-z
x,-y,z
1/2+x,1/2+y,z
1/2-x,1/2+y,-z
1/2-x,1/2-y,-z
1/2+x,1/2-y,z
loop_
_atom_site_type_symbol
_atom_site_label
_atom_site_fract_x
_atom_site_fract_y
_atom_site_fract_z
Si Si1 0.726848 0.330062 0.877744
Si Si2 0.302389 0.828659 0.515695
Si Si3 0.333100 0.674643 0.992891
Si Si4 0.269518 0.174801 0.281049
Si Si5 0.912957 0.829935 0.136189
Si Si6 0.159380 0.831754 0.669417
Si Si7 0.932419 0.831769 0.732395
Si Si8 0.550379 0.827919 0.367858
O O1 0.768696 0.500000 0.857088
O O2 0.619060 0.314130 0.899735
O O3 0.824149 0.224806 0.812005
O O4 0.695232 0.276002 0.942831
O O5 0.250000 0.750000 0.500000
O O6 0.245959 0.768756 0.589184
O O7 0.434840 0.801628 0.452036
O O8 0.271635 0.000000 0.525641
O O9 0.321241 0.500000 0.993454
O O10 0.460424 0.724881 0.919417
O O11 0.250000 0.750000 0.000000
O O12 0.328456 0.229969 0.206651
O O13 0.338486 0.227363 0.288954
O O14 0.145055 0.240482 0.347043
O O15 0.263358 0.000000 0.283019
O O16 0.899637 0.000000 0.158363
O O17 0.033871 0.823636 0.715381
O O18 0.191660 0.000000 0.666351
O O19 0.961493 0.730353 0.676047
O O20 0.911889 0.000000 0.726346
O O21 0.582540 0.000000 0.349669
#
# Coordination Sequence:
#
# PCOD8108634 Si02
#       8
#     8   8   8   8   8   8   8   8
#     4  10  21  39  64  90 120 162 208 248 296 360
#     4  10  21  38  63  91 120 159 204 253 306 366
#     4  10  23  41  62  92 125 160 202 248 303 362
#     4  12  26  41  61  91 125 161 207 258 305 358
#     4  10  21  41  66  88 119 163 205 248 303 362
#     4  10  23  42  61  87 125 164 202 250 312 370
#     4  11  22  37  62  93 124 159 205 255 302 358
#     4  11  22  39  64  91 123 162 203 250 309 368
#
# _framework density 19.723935000000001
#
# number of rings (size 3 to 8) (size 9 to 14) (size 15 to 20)
#    0.000    1.500    2.500    2.250    1.750    5.000 
#    0.000    2.500    0.000    2.250    0.000    0.000 
#    0.000    0.000    0.000    0.000    0.000    0.000 
#
# Total GULP energy -396937.977376 kJ/mol
# GULP energy per Si atom -12404.311793 kJ/mol
# Density = 1.967904 g / cm^3
# Si number density = 19.723935 Si / 1000 Ang^3
#
#
#
# Elastic Constant Matrix: (Units=GPa)
#
#
# Indices 1 2 3 4 5 6 
#
# 1 106.7598 41.0400 39.6024 -0.0006 -3.7128 0.0069
# 2 41.0400 89.4860 35.2883 -0.0006 -6.7916 0.0083
# 3 39.6024 35.2883 87.0722 0.0004 -8.1551 -0.0026
# 4 -0.0006 -0.0006 0.0004 18.8944 -0.0005 -1.5268
# 5 -3.7128 -6.7916 -8.1551 -0.0005 33.8166 -0.0013
# 6 0.0069 0.0083 -0.0026 -1.5268 -0.0013 36.6178
#
#
#
# Elastic Compliance Matrix: (Units=1/GPa)
#
#
# Indices 1 2 3 4 5 6 
#
# 1 0.012438 -0.004154 -0.004014 0.000000 -0.000437 -0.000002
# 2 -0.004154 0.014754 -0.003944 0.000000 0.001556 -0.000003
# 3 -0.004014 -0.003944 0.015135 0.000000 0.002417 0.000003
# 4 0.000000 0.000000 0.000000 0.053105 0.000001 0.002214
# 5 -0.000437 0.001556 0.002417 0.000001 0.030419 0.000001
# 6 -0.000002 -0.000003 0.000003 0.002214 0.000001 0.027401
#
#
# Mechanical properties :
#
#
# Convention : Reuss Voigt Hill
#
# Bulk Modulus (GPa) = 55.24450 57.24215 56.24333
# Shear Modulus (GPa) = 27.24645 29.02494 28.13569
#
# Velocity S-wave (km/s) = 3.72074 3.84025 3.78097
# Velocity P-wave (km/s) = 6.82116 6.98198 6.90204
#
# Compressibility (1/GPa) = 0.01810135
#
# Stress axis : x y z
#
# Youngs Moduli (GPa) = 80.40089 67.78018 66.07073
#
# Poissons Ratio (x) = 0.28158 0.26522
# Poissons Ratio (y) = 0.33401 0.26059
# Poissons Ratio (z) = 0.32275 0.26733
#
# Static dielectric constant tensor:
#      x y z
#    x 3.636690 -0.000010 -0.050690 
#    y -0.000010 3.591700 0.000000 
#    z -0.050690 0.000000 3.754730 
# 
# 
# High freq. dielectric constant tensor:
#      x y z
#    x 1.776230 0.000000 -0.005470 
#    y 0.000000 1.763680 0.000000 
#    z -0.005470 0.000000 1.777000 
# 
# From -- ./inp_files/378211.got.cif
#   From: 2010.06.25/outbox.cif.g09.slc.cpg/sg12_190_cif.got.tgz:378211.got - 2010.06.28 00:19:55.
