data_PCOD8108358
_publ_section_title
;
Structure prediction by ZEFSAII (Michael W. Deem and Ramdas Pophale) SiO2 
 PCOD8108358
Probable space group: C 2/M
;
_chemical_formula_sum "Si O2"
_cell_formula_units_Z 64
_cell_length_a 30.469856
_cell_length_b 8.984638
_cell_length_c 14.280419
_cell_angle_alpha 90.000000
_cell_angle_beta 126.004086
_cell_angle_gamma 90.000000
_cell_volume 3162.620462
_symmetry_space_group_name_H-M "C 2/M"
_symmetry_group_IT_number 12
_symmetry_cell_setting 'monoclinic'
loop_
_space_group_symop_operation_xyz
x,y,z
-x,y,-z
-x,-y,-z
x,-y,z
1/2+x,1/2+y,z
1/2-x,1/2+y,-z
1/2-x,1/2-y,-z
1/2+x,1/2-y,z
loop_
_atom_site_type_symbol
_atom_site_label
_atom_site_fract_x
_atom_site_fract_y
_atom_site_fract_z
Si Si1 0.056356 0.671810 0.616388
Si Si2 0.995861 0.323112 0.100175
Si Si3 0.907305 0.671932 0.133739
Si Si4 0.293638 0.828979 0.618635
Si Si5 0.793310 0.830557 0.990682
Si Si6 0.750728 0.329391 0.271359
Si Si7 0.866335 0.823794 0.422837
Si Si8 0.094898 0.328561 0.347846
O O1 0.067366 0.500000 0.604494
O O2 0.055312 0.695216 0.727145
O O3 0.105235 0.769687 0.636605
O O4 0.000000 0.726005 0.500000
O O5 0.998560 0.500000 0.098194
O O6 0.940711 0.273170 0.084138
O O7 0.046141 0.264319 0.224137
O O8 0.000000 0.256082 0.000000
O O9 0.891201 0.500000 0.102830
O O10 0.852558 0.762912 0.075542
O O11 0.250000 0.750000 0.500000
O O12 0.294111 0.747154 0.719105
O O13 0.352085 0.811087 0.647754
O O14 0.277259 0.000000 0.611354
O O15 0.772535 0.814983 0.860240
O O16 0.796693 0.000000 0.027900
O O17 0.750000 0.750000 0.000000
O O18 0.760247 0.500000 0.313292
O O19 0.806966 0.244841 0.354430
O O20 0.902032 0.769334 0.555115
O O21 0.861672 0.000000 0.417272
O O22 0.084953 0.500000 0.364766
#
# Coordination Sequence:
#
# PCOD8108358 Si02
#       8
#     8   8   8   8   8   8   8   8
#     4  10  21  39  63  89 119 158 200 244 300 364
#     4   9  19  37  63  93 121 157 208 254 293 353
#     4  10  21  38  64  93 123 160 203 254 307 360
#     4  11  22  36  60  92 124 160 201 252 308 364
#     4  11  25  43  64  90 123 164 206 255 311 369
#     4  11  24  41  60  84 119 161 204 248 303 370
#     4  12  24  37  59  90 120 155 196 250 308 363
#     4  10  21  38  61  88 122 162 202 249 302 361
#
# _framework density 20.236381999999999
#
# number of rings (size 3 to 8) (size 9 to 14) (size 15 to 20)
#    0.000    1.500    1.250    3.750    1.750    8.250 
#    0.000    1.875    0.000    0.750    0.000    0.000 
#    0.000    0.000    0.000    0.000    0.000    0.000 
#
# Total GULP energy -396918.518305 kJ/mol
# GULP energy per Si atom -12403.703697 kJ/mol
# Density = 2.019032 g / cm^3
# Si number density = 20.236382 Si / 1000 Ang^3
#
#
#
# Elastic Constant Matrix: (Units=GPa)
#
#
# Indices 1 2 3 4 5 6 
#
# 1 118.4312 52.6217 45.3628 0.0000 -11.0978 0.0000
# 2 52.6217 110.9598 43.7494 0.0000 -7.3320 0.0000
# 3 45.3628 43.7494 99.4478 0.0000 4.8673 0.0000
# 4 0.0000 0.0000 0.0000 19.1328 0.0000 -2.2915
# 5 -11.0978 -7.3320 4.8673 0.0000 35.1294 0.0000
# 6 0.0000 0.0000 0.0000 -2.2915 0.0000 31.3375
#
#
#
# Elastic Compliance Matrix: (Units=1/GPa)
#
#
# Indices 1 2 3 4 5 6 
#
# 1 0.012021 -0.003917 -0.003932 0.000000 0.003525 0.000000
# 2 -0.003917 0.012495 -0.003803 0.000000 0.001897 0.000000
# 3 -0.003932 -0.003803 0.013715 0.000000 -0.003936 0.000000
# 4 0.000000 0.000000 0.000000 0.052728 0.000000 0.003856
# 5 0.003525 0.001897 -0.003936 0.000000 0.030521 0.000000
# 6 0.000000 0.000000 0.000000 0.003856 0.000000 0.032193
#
#
# Mechanical properties :
#
#
# Convention : Reuss Voigt Hill
#
# Bulk Modulus (GPa) = 66.99974 68.03404 67.51689
# Shear Modulus (GPa) = 27.47976 29.59363 28.53670
#
# Velocity S-wave (km/s) = 3.68902 3.82828 3.75929
# Velocity P-wave (km/s) = 7.16419 7.29614 7.23046
#
# Compressibility (1/GPa) = 0.01492543
#
# Stress axis : x y z
#
# Youngs Moduli (GPa) = 83.18887 80.03366 72.91376
#
# Poissons Ratio (x) = 0.31352 0.28673
# Poissons Ratio (y) = 0.32588 0.27727
# Poissons Ratio (z) = 0.32713 0.30434
#
# Static dielectric constant tensor:
#      x y z
#    x 3.663620 0.000000 -0.196650 
#    y 0.000000 3.536510 0.000000 
#    z -0.196650 0.000000 3.792140 
# 
# 
# High freq. dielectric constant tensor:
#      x y z
#    x 1.806160 0.000000 -0.005840 
#    y 0.000000 1.773690 0.000000 
#    z -0.005840 0.000000 1.799060 
# 
# From -- ./inp_files/250098.got.cif
#   From: 2010.06.25/outbox.cif.g09.slc.cpg/sg12_126_cif.got.tgz:250098.got - 2010.06.28 00:19:55.
