data_PCOD8108714
_publ_section_title
;
Structure prediction by ZEFSAII (Michael W. Deem and Ramdas Pophale) SiO2 
 PCOD8108714
Probable space group: C 2/M
;
_chemical_formula_sum "Si O2"
_cell_formula_units_Z 64
_cell_length_a 19.683573
_cell_length_b 8.813983
_cell_length_c 34.840904
_cell_angle_alpha 90.000000
_cell_angle_beta 147.775798
_cell_angle_gamma 90.000000
_cell_volume 3223.169304
_symmetry_space_group_name_H-M "C 2/M"
_symmetry_group_IT_number 12
_symmetry_cell_setting 'monoclinic'
loop_
_space_group_symop_operation_xyz
x,y,z
-x,y,-z
-x,-y,-z
x,-y,z
1/2+x,1/2+y,z
1/2-x,1/2+y,-z
1/2-x,1/2-y,-z
1/2+x,1/2-y,z
loop_
_atom_site_type_symbol
_atom_site_label
_atom_site_fract_x
_atom_site_fract_y
_atom_site_fract_z
Si Si1 0.394250 0.178276 0.980261
Si Si2 0.642819 0.175844 0.827498
Si Si3 0.884928 0.821468 0.055197
Si Si4 0.779304 0.821869 0.554721
Si Si5 0.166503 0.821069 0.679093
Si Si6 0.953366 0.177673 0.520045
Si Si7 0.935554 0.821490 0.288489
Si Si8 0.549642 0.823694 0.198470
O O1 0.255827 0.230689 0.900713
O O2 0.390130 0.000000 0.985682
O O3 0.500000 0.224242 0.000000
O O4 0.436103 0.260146 0.039253
O O5 0.621031 0.230555 0.774070
O O6 0.514879 0.203953 0.791074
O O7 0.681054 0.000000 0.845646
O O8 0.984222 0.778570 0.135274
O O9 0.868186 0.000000 0.044951
O O10 0.750000 0.750000 0.000000
O O11 0.750000 0.750000 0.500000
O O12 0.679872 0.762965 0.538550
O O13 0.918577 0.773931 0.635635
O O14 0.769805 0.000000 0.545299
O O15 0.144656 0.769627 0.712509
O O16 0.304109 0.768412 0.729466
O O17 0.056609 0.753451 0.599182
O O18 0.154793 0.000000 0.670683
O O19 0.000000 0.213196 0.500000
O O20 0.930684 0.000000 0.516125
O O21 0.920934 0.000000 0.273600
O O22 0.539741 0.000000 0.181539
#
# Coordination Sequence:
#
# PCOD8108714 Si02
#       8
#     8   8   8   8   8   8   8   8
#     4  11  25  44  67  92 123 165 208 251 307 368
#     4  11  24  40  62  93 126 159 203 257 305 360
#     4  12  24  41  66  93 123 161 205 254 306 364
#     4  11  22  39  63  89 121 160 206 258 308 363
#     4   9  19  39  61  86 120 161 206 249 301 368
#     4  10  21  38  64  92 122 162 208 255 307 368
#     4  10  22  40  61  85 121 165 205 251 309 371
#     4  10  22  40  63  89 121 163 206 251 304 365
#
# _framework density 19.856233
#
# number of rings (size 3 to 8) (size 9 to 14) (size 15 to 20)
#    0.000    1.500    2.500    2.250    3.500    2.750 
#    0.000    0.625    0.000    0.000    0.000    0.000 
#    0.000    0.000    0.000    0.000    0.000    0.000 
#
# Total GULP energy -396941.956715 kJ/mol
# GULP energy per Si atom -12404.436147 kJ/mol
# Density = 1.981104 g / cm^3
# Si number density = 19.856233 Si / 1000 Ang^3
#
#
#
# Elastic Constant Matrix: (Units=GPa)
#
#
# Indices 1 2 3 4 5 6 
#
# 1 112.1988 27.8665 32.3304 0.0000 7.6418 0.0000
# 2 27.8665 61.5048 13.0495 0.0000 -1.7551 0.0002
# 3 32.3304 13.0495 65.4931 0.0000 -6.6525 -0.0001
# 4 0.0000 0.0000 0.0000 31.8348 -0.0001 -0.7290
# 5 7.6418 -1.7551 -6.6525 -0.0001 40.8895 0.0001
# 6 0.0000 0.0002 -0.0001 -0.7290 0.0001 30.8727
#
#
#
# Elastic Compliance Matrix: (Units=1/GPa)
#
#
# Indices 1 2 3 4 5 6 
#
# 1 0.011711 -0.004283 -0.005255 0.000000 -0.003227 0.000000
# 2 -0.004283 0.018544 -0.001442 0.000000 0.001362 0.000000
# 3 -0.005255 -0.001442 0.018551 0.000000 0.003938 0.000000
# 4 0.000000 0.000000 0.000000 0.031429 0.000000 0.000742
# 5 -0.003227 0.001362 0.003938 0.000000 0.025759 0.000000
# 6 0.000000 0.000000 0.000000 0.000742 0.000000 0.032409
#
#
# Mechanical properties :
#
#
# Convention : Reuss Voigt Hill
#
# Bulk Modulus (GPa) = 37.25212 42.85438 40.05325
# Shear Modulus (GPa) = 29.53141 31.78274 30.65708
#
# Velocity S-wave (km/s) = 3.86069 4.00514 3.93358
# Velocity P-wave (km/s) = 6.21891 6.55877 6.39110
#
# Compressibility (1/GPa) = 0.02684411
#
# Stress axis : x y z
#
# Youngs Moduli (GPa) = 85.39223 53.92497 53.90686
#
# Poissons Ratio (x) = 0.23096 0.28330
# Poissons Ratio (y) = 0.36573 0.07775
# Poissons Ratio (z) = 0.44877 0.07778
#
# Static dielectric constant tensor:
#      x y z
#    x 3.735880 0.000000 -0.072500 
#    y 0.000000 3.546990 0.000000 
#    z -0.072500 0.000000 3.730720 
# 
# 
# High freq. dielectric constant tensor:
#      x y z
#    x 1.791880 0.000000 0.000180 
#    y 0.000000 1.761720 0.000000 
#    z 0.000180 0.000000 1.780690 
# 
# From -- ./inp_files/378519.got.cif
#   From: 2010.06.25/outbox.cif.g09.slc.cpg/sg12_190_cif.got.tgz:378519.got - 2010.06.28 00:19:55.
