data_PCOD8108415
_publ_section_title
;
Structure prediction by ZEFSAII (Michael W. Deem and Ramdas Pophale) SiO2 
 PCOD8108415
Probable space group: C 2/M
;
_chemical_formula_sum "Si O2"
_cell_formula_units_Z 64
_cell_length_a 18.509919
_cell_length_b 18.990468
_cell_length_c 12.557359
_cell_angle_alpha 90.000000
_cell_angle_beta 132.719707
_cell_angle_gamma 90.000000
_cell_volume 3242.929299
_symmetry_space_group_name_H-M "C 2/M"
_symmetry_group_IT_number 12
_symmetry_cell_setting 'monoclinic'
loop_
_space_group_symop_operation_xyz
x,y,z
-x,y,-z
-x,-y,-z
x,-y,z
1/2+x,1/2+y,z
1/2-x,1/2+y,-z
1/2-x,1/2-y,-z
1/2+x,1/2-y,z
loop_
_atom_site_type_symbol
_atom_site_label
_atom_site_fract_x
_atom_site_fract_y
_atom_site_fract_z
Si Si1 0.615790 0.627165 0.115790
Si Si2 0.383497 0.078975 0.264409
Si Si3 0.883687 0.709557 0.883687
Si Si4 0.777695 0.327081 0.566020
Si Si5 0.887665 0.919381 0.115234
Si Si6 0.777695 0.672919 0.989370
Si Si7 0.883497 0.578975 0.502586
Si Si8 0.887665 0.919381 0.660096
O O1 0.644871 0.708666 0.144871
O O2 0.656314 0.590376 0.263809
O O3 0.500000 0.615437 0.000000
O O4 0.656314 0.590376 0.048820
O O5 0.343372 0.095752 0.343372
O O6 0.500000 0.083692 0.381511
O O7 0.350622 0.000000 0.196801
O O8 0.343983 0.136601 0.144381
O O9 0.838048 0.672744 0.735144
O O10 0.838048 0.672744 0.940952
O O11 0.000000 0.697901 0.000000
O O12 0.750000 0.250000 0.500000
O O13 0.843983 0.363399 0.543584
O O14 0.677359 0.371694 0.483711
O O15 0.822641 0.871694 0.128993
O O16 0.000000 0.892454 0.233825
O O17 0.879792 0.000000 0.142420
O O18 0.750000 0.750000 0.000000
O O19 0.850622 0.500000 0.504444
O O20 0.879792 0.000000 0.617164
#
# Coordination Sequence:
#
# PCOD8108415 Si02
#       8
#     8   8   8   8   8   8   8   8
#     4   9  17  34  59  90 122 154 192 244 312 372
#     4   9  20  40  65  92 120 153 203 269 325 361
#     4  11  24  43  62  89 131 169 203 251 306 373
#     4  12  24  37  62  91 128 166 208 246 305 377
#     4  10  21  38  61  90 124 159 201 255 311 369
#     4  12  24  37  62  91 128 166 208 246 305 377
#     4   9  20  40  65  92 120 153 203 269 325 361
#     4  10  21  38  61  90 124 159 201 255 311 369
#
# _framework density 19.735244000000002
#
# number of rings (size 3 to 8) (size 9 to 14) (size 15 to 20)
#    0.000    1.750    2.500    2.625    3.500    2.500 
#    0.000    3.125    0.000    6.000    0.000    0.000 
#    0.000    0.000    0.000    0.000    0.000    0.000 
#
# Total GULP energy -396854.551791 kJ/mol
# GULP energy per Si atom -12401.704743 kJ/mol
# Density = 1.969033 g / cm^3
# Si number density = 19.735244 Si / 1000 Ang^3
#
#
#
# Elastic Constant Matrix: (Units=GPa)
#
#
# Indices 1 2 3 4 5 6 
#
# 1 114.6596 57.7644 34.7017 0.0000 -11.9069 0.0000
# 2 57.7644 128.2028 60.2457 0.0000 -8.6510 0.0000
# 3 34.7017 60.2457 119.9483 0.0000 -6.5318 0.0000
# 4 0.0000 0.0000 0.0000 36.3002 0.0000 0.6447
# 5 -11.9069 -8.6510 -6.5318 0.0000 22.9462 0.0000
# 6 0.0000 0.0000 0.0000 0.6447 0.0000 36.4851
#
#
#
# Elastic Compliance Matrix: (Units=1/GPa)
#
#
# Indices 1 2 3 4 5 6 
#
# 1 0.011727 -0.004604 -0.000857 0.000000 0.004105 0.000000
# 2 -0.004604 0.012152 -0.004726 0.000000 0.000847 0.000000
# 3 -0.000857 -0.004726 0.011008 0.000000 0.000907 0.000000
# 4 0.000000 0.000000 0.000000 0.027557 0.000000 -0.000487
# 5 0.004105 0.000847 0.000907 0.000000 0.046288 0.000000
# 6 0.000000 0.000000 0.000000 -0.000487 0.000000 0.027417
#
#
# Mechanical properties :
#
#
# Convention : Reuss Voigt Hill
#
# Bulk Modulus (GPa) = 68.89819 74.24823 71.57321
# Shear Modulus (GPa) = 30.98677 33.15289 32.06983
#
# Velocity S-wave (km/s) = 3.96678 4.10308 4.03551
# Velocity P-wave (km/s) = 7.48114 7.75570 7.61966
#
# Compressibility (1/GPa) = 0.01451417
#
# Stress axis : x y z
#
# Youngs Moduli (GPa) = 85.27680 82.28772 90.84601
#
# Poissons Ratio (x) = 0.37886 0.07781
# Poissons Ratio (y) = 0.39262 0.42930
# Poissons Ratio (z) = 0.07304 0.38886
#
# Static dielectric constant tensor:
#      x y z
#    x 3.708160 0.000000 0.168970 
#    y 0.000000 2.763310 0.000000 
#    z 0.168970 0.000000 3.659690 
# 
# 
# High freq. dielectric constant tensor:
#      x y z
#    x 1.772540 0.000000 0.024180 
#    y 0.000000 1.769990 0.000000 
#    z 0.024180 0.000000 1.765600 
# 
# From -- ./inp_files/159584.got.cif
#   From: 2010.06.25/outbox.cif.g09.slc.cpg/sg12_80_cif.got.tgz:159584.got - 2010.06.28 00:19:55.
