data_PCOD8108187
_publ_section_title
;
Structure prediction by ZEFSAII (Michael W. Deem and Ramdas Pophale) SiO2 
 PCOD8108187
Probable space group: C 2/M
;
_chemical_formula_sum "Si O2"
_cell_formula_units_Z 64
_cell_length_a 28.840602
_cell_length_b 8.953599
_cell_length_c 24.606872
_cell_angle_alpha 90.000000
_cell_angle_beta 150.026459
_cell_angle_gamma 90.000000
_cell_volume 3174.540103
_symmetry_space_group_name_H-M "C 2/M"
_symmetry_group_IT_number 12
_symmetry_cell_setting 'monoclinic'
loop_
_space_group_symop_operation_xyz
x,y,z
-x,y,-z
-x,-y,-z
x,-y,z
1/2+x,1/2+y,z
1/2-x,1/2+y,-z
1/2-x,1/2-y,-z
1/2+x,1/2-y,z
loop_
_atom_site_type_symbol
_atom_site_label
_atom_site_fract_x
_atom_site_fract_y
_atom_site_fract_z
Si Si1 0.491619 0.827219 0.660034
Si Si2 0.401293 0.173744 0.876480
Si Si3 0.914826 0.169328 0.782495
Si Si4 0.850465 0.320721 0.607680
Si Si5 0.054869 0.323424 0.609691
Si Si6 0.348273 0.827070 0.099222
Si Si7 0.880476 0.832058 0.028875
Si Si8 0.747864 0.825888 0.182959
O O1 0.412684 0.758748 0.619831
O O2 0.495618 0.764583 0.602165
O O3 0.594961 0.798454 0.788064
O O4 0.467883 0.000000 0.633749
O O5 0.368858 0.259924 0.789279
O O6 0.319947 0.207581 0.836019
O O7 0.409806 0.000000 0.870656
O O8 0.500000 0.231277 0.000000
O O9 0.893202 0.266611 0.707722
O O10 0.024395 0.169535 0.908107
O O11 0.878518 0.000000 0.736743
O O12 0.846083 0.500000 0.603777
O O13 0.750000 0.250000 0.500000
O O14 0.071513 0.500000 0.631541
O O15 0.153148 0.244232 0.704617
O O16 0.000000 0.279318 0.500000
O O17 0.407235 0.752326 0.111294
O O18 0.335713 0.000000 0.074153
O O19 0.250000 0.750000 0.000000
O O20 0.846195 0.000000 0.006125
O O21 0.796079 0.747961 0.914750
O O22 0.759296 0.000000 0.183341
#
# Coordination Sequence:
#
# PCOD8108187 Si02
#       8
#     8   8   8   8   8   8   8   8
#     4   9  20  39  62  87 120 161 203 245 301 368
#     4  10  21  38  60  87 126 170 207 247 309 381
#     4  11  23  38  60  90 122 159 208 259 309 364
#     4  11  23  42  65  90 124 165 210 258 309 370
#     4  10  22  42  66  90 120 162 207 256 310 364
#     4  11  21  35  57  87 122 164 206 250 306 367
#     4  11  22  36  57  87 124 159 200 254 309 370
#     4  11  23  39  62  92 124 163 210 257 310 370
#
# _framework density 20.160399999999999
#
# number of rings (size 3 to 8) (size 9 to 14) (size 15 to 20)
#    0.000    1.500    2.500    2.625    0.000    4.500 
#    0.000    3.125    0.000    0.000    0.000    0.000 
#    0.000    0.000    0.000    0.000    0.000    0.000 
#
# Total GULP energy -396743.371649 kJ/mol
# GULP energy per Si atom -12398.230364 kJ/mol
# Density = 2.011451 g / cm^3
# Si number density = 20.160400 Si / 1000 Ang^3
#
#
#
# Elastic Constant Matrix: (Units=GPa)
#
#
# Indices 1 2 3 4 5 6 
#
# 1 127.2640 48.9129 62.3635 0.0000 -13.9072 0.0000
# 2 48.9129 86.1854 49.0835 0.0000 -6.7523 0.0000
# 3 62.3635 49.0835 109.9690 0.0000 -4.7715 0.0000
# 4 0.0000 0.0000 0.0000 32.7830 0.0000 2.2323
# 5 -13.9072 -6.7523 -4.7715 0.0000 38.6358 0.0000
# 6 0.0000 0.0000 0.0000 2.2323 0.0000 29.2359
#
#
#
# Elastic Compliance Matrix: (Units=1/GPa)
#
#
# Indices 1 2 3 4 5 6 
#
# 1 0.012118 -0.003752 -0.005064 0.000000 0.003081 0.000000
# 2 -0.003752 0.016855 -0.005355 0.000000 0.000934 0.000000
# 3 -0.005064 -0.005355 0.014312 0.000000 -0.000991 0.000000
# 4 0.000000 0.000000 0.000000 0.030663 0.000000 -0.002341
# 5 0.003081 0.000934 -0.000991 0.000000 0.027032 0.000000
# 6 0.000000 0.000000 0.000000 -0.002341 0.000000 0.034383
#
#
# Mechanical properties :
#
#
# Convention : Reuss Voigt Hill
#
# Bulk Modulus (GPa) = 66.91635 71.57092 69.24364
# Shear Modulus (GPa) = 29.64087 31.00151 30.32119
#
# Velocity S-wave (km/s) = 3.83855 3.92566 3.88235
# Velocity P-wave (km/s) = 7.27392 7.49170 7.38361
#
# Compressibility (1/GPa) = 0.01494403
#
# Stress axis : x y z
#
# Youngs Moduli (GPa) = 82.52349 59.32937 69.87089
#
# Poissons Ratio (x) = 0.22261 0.35380
# Poissons Ratio (y) = 0.30963 0.37414
# Poissons Ratio (z) = 0.41787 0.31770
#
# Static dielectric constant tensor:
#      x y z
#    x 4.056680 0.000000 -0.026490 
#    y 0.000000 3.646470 0.000000 
#    z -0.026490 0.000000 3.531920 
# 
# 
# High freq. dielectric constant tensor:
#      x y z
#    x 1.801830 0.000000 -0.003160 
#    y 0.000000 1.779700 0.000000 
#    z -0.003160 0.000000 1.781740 
# 
# From -- ./inp_files/353463.got.cif
#   From: 2010.06.25/outbox.cif.g09.slc.cpg/sg12_177_cif.got.tgz:353463.got - 2010.06.28 00:19:55.
