data_PCOD8108652
_publ_section_title
;
Structure prediction by ZEFSAII (Michael W. Deem and Ramdas Pophale) SiO2 
 PCOD8108652
Probable space group: C 2/M
;
_chemical_formula_sum "Si O2"
_cell_formula_units_Z 64
_cell_length_a 18.188193
_cell_length_b 13.176794
_cell_length_c 25.178873
_cell_angle_alpha 90.000000
_cell_angle_beta 150.088479
_cell_angle_gamma 90.000000
_cell_volume 3009.136657
_symmetry_space_group_name_H-M "C 2/M"
_symmetry_group_IT_number 12
_symmetry_cell_setting 'monoclinic'
loop_
_space_group_symop_operation_xyz
x,y,z
-x,y,-z
-x,-y,-z
x,-y,z
1/2+x,1/2+y,z
1/2-x,1/2+y,-z
1/2-x,1/2-y,-z
1/2+x,1/2-y,z
loop_
_atom_site_type_symbol
_atom_site_label
_atom_site_fract_x
_atom_site_fract_y
_atom_site_fract_z
Si Si1 0.150904 0.117721 0.214349
Si Si2 0.662019 0.119663 0.361730
Si Si3 0.603205 0.620041 0.776103
Si Si4 0.155262 0.119650 0.925519
Si Si5 0.232056 0.119976 0.456784
Si Si6 0.833821 0.763702 0.883401
Si Si7 0.160940 0.282762 0.579408
Si Si8 0.330410 0.119855 0.131588
O O1 0.186169 0.183225 0.185230
O O2 0.263742 0.142173 0.331897
O O3 0.989923 0.147341 0.133122
O O4 0.165438 0.000000 0.208671
O O5 0.716361 0.160452 0.453262
O O6 0.754574 0.175203 0.373584
O O7 0.493074 0.153129 0.250053
O O8 0.685494 0.000000 0.369573
O O9 0.617046 0.500000 0.781374
O O10 0.649421 0.667715 0.862785
O O11 0.436540 0.654141 0.659177
O O12 0.722161 0.667872 0.810528
O O13 0.164275 0.000000 0.921262
O O14 0.292616 0.159297 0.047640
O O15 0.339126 0.162611 0.478083
O O16 0.247428 0.000000 0.465820
O O17 0.787886 0.842086 0.900143
O O18 0.000000 0.726876 0.000000
O O19 0.000000 0.257556 0.500000
O O20 0.312694 0.000000 0.119637
#
# Coordination Sequence:
#
# PCOD8108652 Si02
#       8
#     8   8   8   8   8   8   8   8
#     4  11  24  42  62  93 132 163 203 256 323 382
#     4  10  24  44  66  92 123 168 217 261 307 369
#     4  10  22  41  66  92 123 168 218 261 304 365
#     4   9  18  38  66  90 117 158 205 259 309 365
#     4  10  21  42  69  92 121 164 215 265 313 368
#     4  12  25  38  60  96 131 170 205 253 318 378
#     4  12  26  40  63  95 130 164 204 261 320 379
#     4  10  21  38  63  92 125 162 208 261 313 372
#
# _framework density 21.268557999999999
#
# number of rings (size 3 to 8) (size 9 to 14) (size 15 to 20)
#    0.000    1.500    2.500    1.875    3.500    3.500 
#    0.000    0.625    0.000    0.000    0.000    0.000 
#    0.000    0.000    0.000    0.000    0.000    0.000 
#
# Total GULP energy -396890.829523 kJ/mol
# GULP energy per Si atom -12402.838423 kJ/mol
# Density = 2.122015 g / cm^3
# Si number density = 21.268558 Si / 1000 Ang^3
#
#
#
# Elastic Constant Matrix: (Units=GPa)
#
#
# Indices 1 2 3 4 5 6 
#
# 1 125.2801 42.8577 64.2520 0.0002 1.6923 0.0000
# 2 42.8577 35.7837 36.5069 0.0000 -3.4237 0.0001
# 3 64.2520 36.5069 136.6624 0.0015 4.7779 -0.0005
# 4 0.0002 0.0000 0.0015 32.6024 0.0004 -1.5415
# 5 1.6923 -3.4237 4.7779 0.0004 32.0682 -0.0003
# 6 0.0000 0.0001 -0.0005 -1.5415 -0.0003 35.8526
#
#
#
# Elastic Compliance Matrix: (Units=1/GPa)
#
#
# Indices 1 2 3 4 5 6 
#
# 1 0.014456 -0.014612 -0.002827 0.000000 -0.001902 0.000000
# 2 -0.014612 0.054235 -0.007888 0.000000 0.007737 0.000000
# 3 -0.002827 -0.007888 0.010834 0.000000 -0.002307 0.000000
# 4 0.000000 0.000000 0.000000 0.030735 0.000000 0.001321
# 5 -0.001902 0.007737 -0.002307 0.000000 0.032454 0.000000
# 6 0.000000 0.000000 0.000000 0.001321 0.000000 0.027949
#
#
# Mechanical properties :
#
#
# Convention : Reuss Voigt Hill
#
# Bulk Modulus (GPa) = 34.63749 64.99549 49.81649
# Shear Modulus (GPa) = 21.65057 30.37862 26.01459
#
# Velocity S-wave (km/s) = 3.19401 3.78343 3.50115
# Velocity P-wave (km/s) = 5.47023 7.05064 6.31011
#
# Compressibility (1/GPa) = 0.02887045
#
# Stress axis : x y z
#
# Youngs Moduli (GPa) = 69.17374 18.43842 92.30030
#
# Poissons Ratio (x) = 0.26943 0.26091
# Poissons Ratio (y) = 1.01079 0.72809
# Poissons Ratio (z) = 0.19554 0.14545
#
# Static dielectric constant tensor:
#      x y z
#    x 3.798290 0.000000 -0.130290 
#    y 0.000000 3.871550 0.000000 
#    z -0.130290 0.000000 4.245570 
# 
# 
# High freq. dielectric constant tensor:
#      x y z
#    x 1.822700 0.000000 -0.009680 
#    y 0.000000 1.855090 0.000000 
#    z -0.009680 0.000000 1.847220 
# 
# From -- ./inp_files/344105.got.cif
#   From: 2010.06.25/outbox.cif.g09.slc.cpg/sg12_173_cif.got.tgz:344105.got - 2010.06.28 00:19:55.
