data_PCOD8108069
_publ_section_title
;
Structure prediction by ZEFSAII (Michael W. Deem and Ramdas Pophale) SiO2 
 PCOD8108069
Probable space group: C 2/M
;
_chemical_formula_sum "Si O2"
_cell_formula_units_Z 56
_cell_length_a 12.867473
_cell_length_b 25.627196
_cell_length_c 11.315634
_cell_angle_alpha 90.000000
_cell_angle_beta 45.562841
_cell_angle_gamma 90.000000
_cell_volume 2664.298458
_symmetry_space_group_name_H-M "C 2/M"
_symmetry_group_IT_number 12
_symmetry_cell_setting 'monoclinic'
loop_
_space_group_symop_operation_xyz
x,y,z
-x,y,-z
-x,-y,-z
x,-y,z
1/2+x,1/2+y,z
1/2-x,1/2+y,-z
1/2-x,1/2-y,-z
1/2+x,1/2-y,z
loop_
_atom_site_type_symbol
_atom_site_label
_atom_site_fract_x
_atom_site_fract_y
_atom_site_fract_z
Si Si1 0.338905 0.342348 0.127351
Si Si2 0.828873 0.872714 0.660791
Si Si3 0.876321 0.369385 0.507270
Si Si4 0.181939 0.626448 0.009875
Si Si5 0.167197 0.712450 0.652211
Si Si6 0.596081 0.939016 0.712209
Si Si7 0.120820 0.738924 0.017344
O O1 0.273847 0.359527 0.304992
O O2 0.500000 0.367067 0.000000
O O3 0.247694 0.364257 0.088235
O O4 0.350695 0.278722 0.114099
O O5 0.809071 0.887687 0.815373
O O6 0.771132 0.814285 0.669193
O O7 0.739823 0.915798 0.658763
O O8 0.000000 0.876343 0.500000
O O9 0.902705 0.333627 0.371008
O O10 0.890211 0.427361 0.440562
O O11 0.000000 0.355359 0.500000
O O12 0.116114 0.677435 0.995073
O O13 0.055191 0.583549 0.114543
O O14 0.250000 0.750000 0.500000
O O15 0.039374 0.749555 0.803602
O O16 0.592054 0.000000 0.737193
O O17 0.250000 0.750000 0.000000
#
# Coordination Sequence:
#
# PCOD8108069 Si02
#       7
#     8   8   8   8   8   8   8
#     4  11  24  37  66  96 140 187 220 271 343 411
#     4  11  27  43  69  98 140 179 229 293 346 409
#     4  11  21  43  65  99 135 175 226 287 338 414
#     4  11  23  45  64  99 138 175 231 285 340 412
#     4  11  24  39  60  97 140 187 229 272 333 407
#     4  11  25  48  77  99 127 177 235 299 356 407
#     4  10  21  38  59  93 132 184 226 267 326 396
#
# _framework density 21.018667000000001
#
# number of rings (size 3 to 8) (size 9 to 14) (size 15 to 20)
#    0.000    1.143    4.286    2.143   12.000    2.286 
#    0.000    0.000    0.000    0.857    0.000    0.000 
#    0.000    0.000    0.000    0.000    0.000    0.000 
#
# Total GULP energy -346888.814598 kJ/mol
# GULP energy per Si atom -12388.886236 kJ/mol
# Density = 2.097083 g / cm^3
# Si number density = 21.018667 Si / 1000 Ang^3
#
#
#
# Elastic Constant Matrix: (Units=GPa)
#
#
# Indices 1 2 3 4 5 6 
#
# 1 112.7510 26.6612 40.2878 0.0000 -11.5742 0.0000
# 2 26.6612 109.1755 46.5645 0.0000 -10.5924 0.0000
# 3 40.2878 46.5645 152.3813 0.0000 -13.0414 0.0000
# 4 0.0000 0.0000 0.0000 28.4997 0.0000 -1.7290
# 5 -11.5742 -10.5924 -13.0414 0.0000 45.5263 0.0000
# 6 0.0000 0.0000 0.0000 -1.7290 0.0000 19.3308
#
#
#
# Elastic Compliance Matrix: (Units=1/GPa)
#
#
# Indices 1 2 3 4 5 6 
#
# 1 0.010124 -0.001416 -0.002104 0.000000 0.001642 0.000000
# 2 -0.001416 0.010840 -0.002822 0.000000 0.001354 0.000000
# 3 -0.002104 -0.002822 0.008077 0.000000 0.001122 0.000000
# 4 0.000000 0.000000 0.000000 0.035279 0.000000 0.003155
# 5 0.001642 0.001354 0.001122 0.000000 0.023019 0.000000
# 6 0.000000 0.000000 0.000000 0.003155 0.000000 0.052013
#
#
# Mechanical properties :
#
#
# Convention : Reuss Voigt Hill
#
# Bulk Modulus (GPa) = 61.13191 66.81497 63.97344
# Shear Modulus (GPa) = 31.74807 36.05764 33.90285
#
# Velocity S-wave (km/s) = 3.89069 4.14636 4.02056
# Velocity P-wave (km/s) = 7.02361 7.40138 7.21497
#
# Compressibility (1/GPa) = 0.01635807
#
# Stress axis : x y z
#
# Youngs Moduli (GPa) = 98.77457 92.24702 123.80609
#
# Poissons Ratio (x) = 0.13061 0.26043
# Poissons Ratio (y) = 0.13985 0.34943
# Poissons Ratio (z) = 0.20777 0.26036
#
# Static dielectric constant tensor:
#      x y z
#    x 3.974150 0.000000 0.052360 
#    y 0.000000 4.092330 0.000000 
#    z 0.052360 0.000000 4.177180 
# 
# 
# High freq. dielectric constant tensor:
#      x y z
#    x 1.838440 0.000000 0.003360 
#    y 0.000000 1.783910 0.000000 
#    z 0.003360 0.000000 1.842750 
# 
# From -- ./inp_files/149456.got.cif
#   From: 2010.06.25/outbox.cif.g09.slc.cpg/sg12_75_cif.got.tgz:149456.got - 2010.06.28 00:19:55.
