data_PCOD8108141
_publ_section_title
;
Structure prediction by ZEFSAII (Michael W. Deem and Ramdas Pophale) SiO2 
 PCOD8108141
Probable space group: C 2/M
;
_chemical_formula_sum "Si O2"
_cell_formula_units_Z 48
_cell_length_a 14.407169
_cell_length_b 16.804240
_cell_length_c 15.896616
_cell_angle_alpha 90.000000
_cell_angle_beta 32.220694
_cell_angle_gamma 90.000000
_cell_volume 2052.001064
_symmetry_space_group_name_H-M "C 2/M"
_symmetry_group_IT_number 12
_symmetry_cell_setting 'monoclinic'
loop_
_space_group_symop_operation_xyz
x,y,z
-x,y,-z
-x,-y,-z
x,-y,z
1/2+x,1/2+y,z
1/2-x,1/2+y,-z
1/2-x,1/2-y,-z
1/2+x,1/2-y,z
loop_
_atom_site_type_symbol
_atom_site_label
_atom_site_fract_x
_atom_site_fract_y
_atom_site_fract_z
Si Si1 0.601339 0.855169 0.772491
Si Si2 0.568403 0.667144 0.805994
Si Si3 0.861206 0.407738 0.672634
Si Si4 0.616213 0.589229 0.328790
Si Si5 0.332192 0.663215 0.447247
Si Si6 0.202651 0.409599 0.094349
O O1 0.585886 0.761215 0.788255
O O2 0.687604 0.885776 0.793247
O O3 0.714379 0.884367 0.604464
O O4 0.412303 0.893575 0.900894
O O5 0.673834 0.633665 0.804247
O O6 0.656611 0.626852 0.655103
O O7 0.366558 0.647826 0.967403
O O8 0.840482 0.500000 0.668071
O O9 0.909500 0.392548 0.733697
O O10 0.000000 0.369702 0.500000
O O11 0.500000 0.589547 0.500000
O O12 0.621037 0.500000 0.285158
O O13 0.532759 0.654721 0.328792
O O14 0.250000 0.750000 0.500000
O O15 0.269388 0.500000 0.042823
#
# Coordination Sequence:
#
# PCOD8108141 Si02
#       6
#     8   8   8   8   8   8
#     4  10  21  38  60  86 116 156 202 247 297 356
#     4  11  22  36  58  87 121 156 194 246 306 360
#     4  10  22  40  63  89 116 153 202 251 300 359
#     4   9  18  34  58  87 117 151 195 246 295 344
#     4   9  20  37  59  87 118 153 196 243 292 353
#     4  11  23  40  60  84 120 160 200 249 305 364
#
# _framework density 23.391801999999998
#
# number of rings (size 3 to 8) (size 9 to 14) (size 15 to 20)
#    0.000    2.000    0.000    3.000    0.000    9.333 
#    0.000    2.500    0.000    2.000    0.000    0.000 
#    0.000    0.000    0.000    0.000    0.000    0.167 
#
# Total GULP energy -297391.137917 kJ/mol
# GULP energy per Si atom -12391.297413 kJ/mol
# Density = 2.333856 g / cm^3
# Si number density = 23.391802 Si / 1000 Ang^3
#
#
#
# Elastic Constant Matrix: (Units=GPa)
#
#
# Indices 1 2 3 4 5 6 
#
# 1 141.3590 52.6856 21.6202 0.0092 -40.8340 0.0027
# 2 52.6856 83.7691 26.7987 0.0064 -10.3089 0.0016
# 3 21.6202 26.7987 57.6621 0.0143 -21.7383 0.0078
# 4 0.0092 0.0064 0.0143 23.3386 -0.0049 -14.0667
# 5 -40.8340 -10.3089 -21.7383 -0.0049 41.2367 -0.0039
# 6 0.0027 0.0016 0.0078 -14.0667 -0.0039 32.9849
#
#
#
# Elastic Compliance Matrix: (Units=1/GPa)
#
#
# Indices 1 2 3 4 5 6 
#
# 1 0.013215 -0.007863 0.003609 -0.000003 0.013022 -0.000001
# 2 -0.007863 0.018702 -0.008632 0.000003 -0.007661 0.000002
# 3 0.003609 -0.008632 0.025628 -0.000019 0.014926 -0.000012
# 4 -0.000003 0.000003 -0.000019 0.057671 -0.000004 0.024594
# 5 0.013022 -0.007661 0.014926 -0.000004 0.043098 -0.000001
# 6 -0.000001 0.000002 -0.000012 0.024594 -0.000001 0.040805
#
#
# Mechanical properties :
#
#
# Convention : Reuss Voigt Hill
#
# Bulk Modulus (GPa) = 31.47392 53.88880 42.68136
# Shear Modulus (GPa) = 21.23312 31.62441 26.42877
#
# Velocity S-wave (km/s) = 3.01610 3.68087 3.36494
# Velocity P-wave (km/s) = 5.06098 6.41502 5.77780
#
# Compressibility (1/GPa) = 0.03177233
#
# Stress axis : x y z
#
# Youngs Moduli (GPa) = 75.67397 53.47158 39.02022
#
# Poissons Ratio (x) = 0.42045 -0.14082
# Poissons Ratio (y) = 0.59504 0.33681
# Poissons Ratio (z) = -0.27311 0.46155
#
# Static dielectric constant tensor:
#      x y z
#    x 4.696260 -0.000010 0.038970 
#    y -0.000010 3.909930 0.000010 
#    z 0.038970 0.000010 4.184190 
# 
# 
# High freq. dielectric constant tensor:
#      x y z
#    x 1.939550 0.000000 -0.008090 
#    y 0.000000 1.902730 0.000000 
#    z -0.008090 0.000000 1.912310 
# 
# From -- ./inp_files/271607.got.cif
#   From: 2010.06.25/outbox.cif.g09.slc.cpg/sg12_136_cif.got.tgz:271607.got - 2010.06.28 00:19:55.
