data_PCOD8108911
_publ_section_title
;
Structure prediction by ZEFSAII (Michael W. Deem and Ramdas Pophale) SiO2 
 PCOD8108911
Probable space group: C 2/M
;
_chemical_formula_sum "Si O2"
_cell_formula_units_Z 64
_cell_length_a 28.327544
_cell_length_b 9.218500
_cell_length_c 24.320366
_cell_angle_alpha 90.000000
_cell_angle_beta 148.597770
_cell_angle_gamma 90.000000
_cell_volume 3309.121641
_symmetry_space_group_name_H-M "C 2/M"
_symmetry_group_IT_number 12
_symmetry_cell_setting 'monoclinic'
loop_
_space_group_symop_operation_xyz
x,y,z
-x,y,-z
-x,-y,-z
x,-y,z
1/2+x,1/2+y,z
1/2-x,1/2+y,-z
1/2-x,1/2-y,-z
1/2+x,1/2-y,z
loop_
_atom_site_type_symbol
_atom_site_label
_atom_site_fract_x
_atom_site_fract_y
_atom_site_fract_z
Si Si1 0.171726 0.332387 0.952433
Si Si2 0.046043 0.170109 0.602815
Si Si3 0.630035 0.830973 0.032984
Si Si4 0.072719 0.333198 0.194835
Si Si5 0.776157 0.667017 0.241688
Si Si6 0.901570 0.171046 0.551288
Si Si7 0.029108 0.333550 0.276684
Si Si8 0.746240 0.332959 0.337657
O O1 0.195635 0.500000 0.974439
O O2 0.077640 0.301109 0.828281
O O3 0.250000 0.250000 0.000000
O O4 0.166834 0.280398 0.010395
O O5 0.140071 0.254083 0.704704
O O6 0.000000 0.218096 0.500000
O O7 0.981102 0.215270 0.588326
O O8 0.067478 0.000000 0.624081
O O9 0.681184 0.737945 0.129651
O O10 0.649506 0.000000 0.062477
O O11 0.522941 0.800022 0.929503
O O12 0.100039 0.500000 0.211867
O O13 0.068168 0.301582 0.255233
O O14 0.144903 0.228507 0.238526
O O15 0.776504 0.500000 0.224154
O O16 0.786659 0.685604 0.317193
O O17 0.923779 0.225708 0.634139
O O18 0.807771 0.243476 0.440620
O O19 0.886870 0.000000 0.537692
O O20 0.048031 0.500000 0.312302
O O21 0.744878 0.500000 0.354408
#
# Coordination Sequence:
#
# PCOD8108911 Si02
#       8
#     8   8   8   8   8   8   8   8
#     4   9  19  35  55  81 113 149 189 232 279 334
#     4  10  21  39  60  82 114 153 192 239 284 334
#     4   9  20  39  60  83 115 152 192 237 282 336
#     4   9  20  41  65  85 111 152 196 238 285 338
#     4  11  24  38  57  87 119 153 191 234 290 347
#     4  11  23  38  60  88 115 151 196 235 282 345
#     4   9  20  39  59  83 117 150 186 237 289 336
#     4  11  24  40  59  85 117 151 190 241 293 341
#
# _framework density 19.340478999999998
#
# number of rings (size 3 to 8) (size 9 to 14) (size 15 to 20)
#    0.000    2.125    1.250    2.625    1.750    5.750 
#    0.000    5.000    0.000    0.000    0.000    0.000 
#    0.000    0.000    0.000    0.000    0.000    0.000 
#
# Total GULP energy -396925.431824 kJ/mol
# GULP energy per Si atom -12403.919745 kJ/mol
# Density = 1.929646 g / cm^3
# Si number density = 19.340479 Si / 1000 Ang^3
#
#
#
# Elastic Constant Matrix: (Units=GPa)
#
#
# Indices 1 2 3 4 5 6 
#
# 1 45.7620 30.2659 17.5269 0.0000 18.6129 0.0000
# 2 30.2659 85.4055 50.5433 0.0000 9.6189 0.0000
# 3 17.5269 50.5433 96.7434 0.0000 3.9959 0.0000
# 4 0.0000 0.0000 0.0000 36.2457 0.0000 0.4519
# 5 18.6129 9.6189 3.9959 0.0000 31.7681 0.0000
# 6 0.0000 0.0000 0.0000 0.4519 0.0000 33.8761
#
#
#
# Elastic Compliance Matrix: (Units=1/GPa)
#
#
# Indices 1 2 3 4 5 6 
#
# 1 0.036364 -0.010709 -0.000248 0.000000 -0.018032 0.000000
# 2 -0.010709 0.020635 -0.008888 0.000000 0.001144 0.000000
# 3 -0.000248 -0.008888 0.014986 0.000000 0.000952 0.000000
# 4 0.000000 0.000000 0.000000 0.027594 0.000000 -0.000368
# 5 -0.018032 0.001144 0.000952 0.000000 0.041577 0.000000
# 6 0.000000 0.000000 0.000000 -0.000368 0.000000 0.029524
#
#
# Mechanical properties :
#
#
# Convention : Reuss Voigt Hill
#
# Bulk Modulus (GPa) = 30.96489 47.17589 39.07039
# Shear Modulus (GPa) = 22.61065 29.01628 25.81347
#
# Velocity S-wave (km/s) = 3.42290 3.87756 3.65730
# Velocity P-wave (km/s) = 5.62733 6.67027 6.17087
#
# Compressibility (1/GPa) = 0.03229464
#
# Stress axis : x y z
#
# Youngs Moduli (GPa) = 27.49963 48.46193 66.73020
#
# Poissons Ratio (x) = 0.51897 0.01658
# Poissons Ratio (y) = 0.29449 0.59308
# Poissons Ratio (z) = 0.00683 0.43072
#
# Static dielectric constant tensor:
#      x y z
#    x 3.403780 0.000000 0.022390 
#    y 0.000000 3.445430 0.000000 
#    z 0.022390 0.000000 3.490160 
# 
# 
# High freq. dielectric constant tensor:
#      x y z
#    x 1.750970 0.000000 0.003410 
#    y 0.000000 1.750310 0.000000 
#    z 0.003410 0.000000 1.759260 
# 
# From -- ./inp_files/249035.got.cif
#   From: 2010.06.25/outbox.cif.g09.slc.cpg/sg12_125_cif.got.tgz:249035.got - 2010.06.28 00:19:55.
