data_PCOD8108963
_publ_section_title
;
Structure prediction by ZEFSAII (Michael W. Deem and Ramdas Pophale) SiO2 
 PCOD8108963
Probable space group: C 2/M
;
_chemical_formula_sum "Si O2"
_cell_formula_units_Z 40
_cell_length_a 14.192854
_cell_length_b 18.091326
_cell_length_c 13.918674
_cell_angle_alpha 90.000000
_cell_angle_beta 150.703050
_cell_angle_gamma 90.000000
_cell_volume 1748.820320
_symmetry_space_group_name_H-M "C 2/M"
_symmetry_group_IT_number 12
_symmetry_cell_setting 'monoclinic'
loop_
_space_group_symop_operation_xyz
x,y,z
-x,y,-z
-x,-y,-z
x,-y,z
1/2+x,1/2+y,z
1/2-x,1/2+y,-z
1/2-x,1/2-y,-z
1/2+x,1/2-y,z
loop_
_atom_site_type_symbol
_atom_site_label
_atom_site_fract_x
_atom_site_fract_y
_atom_site_fract_z
Si Si1 0.203158 0.085035 0.714265
Si Si2 0.210805 0.916568 0.292292
Si Si3 0.566827 0.716770 0.956472
Si Si4 0.608190 0.118939 0.737118
Si Si5 0.048928 0.626998 0.892496
O O1 0.356853 0.091880 0.765270
O O2 0.000000 0.120567 0.500000
O O3 0.172687 0.000000 0.712530
O O4 0.273914 0.122821 0.875415
O O5 0.251279 0.924161 0.213137
O O6 0.394712 0.879047 0.505493
O O7 0.038063 0.860787 0.164672
O O8 0.170584 0.000000 0.295115
O O9 0.521302 0.784962 0.844860
O O10 0.500000 0.746729 0.000000
O O11 0.795824 0.700143 0.165281
O O12 0.597344 0.084742 0.835522
#
# Coordination Sequence:
#
# PCOD8108963 Si02
#       5
#     8   8   8   8   8
#     4  10  23  41  62  90 124 161 204 257 311 368
#     4  10  23  41  59  90 129 168 211 254 307 369
#     4  10  21  39  60  92 123 163 206 256 314 363
#     4  10  22  37  63  89 122 161 207 256 307 361
#     4  11  21  40  64  93 124 161 206 256 312 374
#
# _framework density 22.872561999999999
#
# number of rings (size 3 to 8) (size 9 to 14) (size 15 to 20)
#    0.000    1.800    2.000    3.000    0.000   11.600 
#    0.000    2.000    0.000    0.000    0.000    0.000 
#    0.000    0.000    0.000    0.000    0.000    0.000 
#
# Total GULP energy -247769.506907 kJ/mol
# GULP energy per Si atom -12388.475345 kJ/mol
# Density = 2.282050 g / cm^3
# Si number density = 22.872562 Si / 1000 Ang^3
#
#
#
# Elastic Constant Matrix: (Units=GPa)
#
#
# Indices 1 2 3 4 5 6 
#
# 1 115.6931 10.2282 42.7021 0.0000 -22.2183 0.0000
# 2 10.2282 102.4825 37.8934 0.0000 9.9912 0.0000
# 3 42.7021 37.8934 127.5361 -0.0001 4.0592 0.0000
# 4 0.0000 0.0000 -0.0001 26.2707 0.0000 5.6039
# 5 -22.2183 9.9912 4.0592 0.0000 20.5321 0.0000
# 6 0.0000 0.0000 0.0000 5.6039 0.0000 9.9111
#
#
#
# Elastic Compliance Matrix: (Units=1/GPa)
#
#
# Indices 1 2 3 4 5 6 
#
# 1 0.013610 -0.001197 -0.004718 0.000000 0.016244 0.000000
# 2 -0.001197 0.011542 -0.002826 0.000000 -0.006353 0.000000
# 3 -0.004718 -0.002826 0.010445 0.000000 -0.005796 0.000000
# 4 0.000000 0.000000 0.000000 0.043286 0.000000 -0.024474
# 5 0.016244 -0.006353 -0.005796 0.000000 0.070519 0.000000
# 6 0.000000 0.000000 0.000000 -0.024474 0.000000 0.114735
#
#
# Mechanical properties :
#
#
# Convention : Reuss Voigt Hill
#
# Bulk Modulus (GPa) = 55.20804 58.59546 56.90175
# Shear Modulus (GPa) = 17.38171 28.33532 22.85852
#
# Velocity S-wave (km/s) = 2.75969 3.52353 3.16474
# Velocity P-wave (km/s) = 5.86039 6.49827 6.18755
#
# Compressibility (1/GPa) = 0.01811330
#
# Stress axis : x y z
#
# Youngs Moduli (GPa) = 73.47281 86.64285 95.74068
#
# Poissons Ratio (x) = 0.10375 0.45174
# Poissons Ratio (y) = 0.08798 0.27057
# Poissons Ratio (z) = 0.34667 0.24486
#
# Static dielectric constant tensor:
#      x y z
#    x 4.188480 0.000000 -0.002280 
#    y 0.000000 3.911850 0.000000 
#    z -0.002280 0.000000 4.241440 
# 
# 
# High freq. dielectric constant tensor:
#      x y z
#    x 1.897240 0.000000 0.005030 
#    y 0.000000 1.892090 0.000000 
#    z 0.005030 0.000000 1.899670 
# 
# From -- ./inp_files/216918.got.cif
#   From: 2010.06.25/outbox.cif.g09.slc.cpg/sg12_109_cif.got.tgz:216918.got - 2010.06.28 00:19:55.
