data_PCOD8108865
_publ_section_title
;
Structure prediction by ZEFSAII (Michael W. Deem and Ramdas Pophale) SiO2 
 PCOD8108865
Probable space group: C 2/M
;
_chemical_formula_sum "Si O2"
_cell_formula_units_Z 56
_cell_length_a 9.877370
_cell_length_b 14.865995
_cell_length_c 24.067055
_cell_angle_alpha 90.000000
_cell_angle_beta 51.973139
_cell_angle_gamma 90.000000
_cell_volume 2783.756542
_symmetry_space_group_name_H-M "C 2/M"
_symmetry_group_IT_number 12
_symmetry_cell_setting 'monoclinic'
loop_
_space_group_symop_operation_xyz
x,y,z
-x,y,-z
-x,-y,-z
x,-y,z
1/2+x,1/2+y,z
1/2-x,1/2+y,-z
1/2-x,1/2-y,-z
1/2+x,1/2-y,z
loop_
_atom_site_type_symbol
_atom_site_label
_atom_site_fract_x
_atom_site_fract_y
_atom_site_fract_z
Si Si1 0.256092 0.597739 0.553501
Si Si2 0.822296 0.606561 0.011967
Si Si3 0.097118 0.267758 0.108792
Si Si4 0.477564 0.656052 0.593185
Si Si5 0.472541 0.598171 0.297068
Si Si6 0.377390 0.157061 0.663134
Si Si7 0.803517 0.261678 0.796199
O O1 0.299941 0.500000 0.517656
O O2 0.331775 0.602434 0.596563
O O3 0.351264 0.668375 0.488459
O O4 0.052953 0.605962 0.607261
O O5 0.767596 0.500000 0.021302
O O6 0.681955 0.668624 0.078847
O O7 0.836817 0.652584 0.947845
O O8 0.000000 0.614414 0.000000
O O9 0.139214 0.303715 0.159732
O O10 0.896254 0.257691 0.152006
O O11 0.532996 0.607599 0.635341
O O12 0.386071 0.749157 0.629399
O O13 0.545709 0.500000 0.263596
O O14 0.279555 0.602897 0.322822
O O15 0.595762 0.668626 0.236641
O O16 0.351989 0.168729 0.735581
#
# Coordination Sequence:
#
# PCOD8108865 Si02
#       7
#     8   8   8   8   8   8   8
#     4  11  22  38  58  84 117 153 199 258 311 357
#     4  10  22  41  70 101 127 164 209 248 297 359
#     4  11  22  43  67  94 132 166 200 253 300 359
#     4  10  21  39  59  81 114 158 201 247 314 377
#     4  11  23  39  60  88 119 156 208 259 303 365
#     4  11  23  39  59  86 118 156 205 250 302 363
#     4  11  23  41  62  89 126 169 201 238 312 362
#
# _framework density 20.116700999999999
#
# number of rings (size 3 to 8) (size 9 to 14) (size 15 to 20)
#    0.000    1.286    2.857    4.286    2.000    2.857 
#    0.000    4.286    0.000    0.000    0.000    0.000 
#    0.000    0.000    0.000    0.000    0.000    0.000 
#
# Total GULP energy -347119.138605 kJ/mol
# GULP energy per Si atom -12397.112093 kJ/mol
# Density = 2.007091 g / cm^3
# Si number density = 20.116701 Si / 1000 Ang^3
#
#
#
# Elastic Constant Matrix: (Units=GPa)
#
#
# Indices 1 2 3 4 5 6 
#
# 1 116.3130 14.8398 32.5148 0.0000 -9.0973 0.0000
# 2 14.8398 94.9398 12.7650 0.0000 6.4677 -0.0002
# 3 32.5148 12.7650 84.5608 0.0001 3.4211 -0.0003
# 4 0.0000 0.0000 0.0001 24.0612 -0.0001 -27.5168
# 5 -9.0973 6.4677 3.4211 -0.0001 43.0047 0.0005
# 6 0.0000 -0.0002 -0.0003 -27.5168 0.0005 107.7769
#
#
#
# Elastic Compliance Matrix: (Units=1/GPa)
#
#
# Indices 1 2 3 4 5 6 
#
# 1 0.010012 -0.001236 -0.003769 0.000000 0.002604 0.000000
# 2 -0.001236 0.011000 -0.001111 0.000000 -0.001827 0.000000
# 3 -0.003769 -0.001111 0.013512 0.000000 -0.001705 0.000000
# 4 0.000000 0.000000 0.000000 0.058700 0.000000 0.014987
# 5 0.002604 -0.001827 -0.001705 0.000000 0.024215 0.000000
# 6 0.000000 0.000000 0.000000 0.014987 0.000000 0.013105
#
#
# Mechanical properties :
#
#
# Convention : Reuss Voigt Hill
#
# Bulk Modulus (GPa) = 44.85826 46.22807 45.54317
# Shear Modulus (GPa) = 33.28773 50.68150 41.98461
#
# Velocity S-wave (km/s) = 4.07225 5.02478 4.57338
# Velocity P-wave (km/s) = 6.66771 7.52957 7.11171
#
# Compressibility (1/GPa) = 0.02229244
#
# Stress axis : x y z
#
# Youngs Moduli (GPa) = 99.87711 90.90859 74.01005
#
# Poissons Ratio (x) = 0.11233 0.27892
# Poissons Ratio (y) = 0.12341 0.08226
# Poissons Ratio (z) = 0.37640 0.10104
#
# Static dielectric constant tensor:
#      x y z
#    x 3.762380 0.000000 0.099570 
#    y 0.000000 3.783480 0.000000 
#    z 0.099570 0.000000 3.761040 
# 
# 
# High freq. dielectric constant tensor:
#      x y z
#    x 1.800280 0.000000 0.003020 
#    y 0.000000 1.776160 0.000000 
#    z 0.003020 0.000000 1.791800 
# 
# From -- ./inp_files/332843.got.cif
#   From: 2010.06.25/outbox.cif.g09.slc.cpg/sg12_167_cif.got.tgz:332843.got - 2010.06.28 00:19:55.
