data_PCOD8108547
_publ_section_title
;
Structure prediction by ZEFSAII (Michael W. Deem and Ramdas Pophale) SiO2 
 PCOD8108547
Probable space group: C 2/M
;
_chemical_formula_sum "Si O2"
_cell_formula_units_Z 48
_cell_length_a 15.169915
_cell_length_b 8.711295
_cell_length_c 26.549215
_cell_angle_alpha 90.000000
_cell_angle_beta 135.489389
_cell_angle_gamma 90.000000
_cell_volume 2459.581309
_symmetry_space_group_name_H-M "C 2/M"
_symmetry_group_IT_number 12
_symmetry_cell_setting 'monoclinic'
loop_
_space_group_symop_operation_xyz
x,y,z
-x,y,-z
-x,-y,-z
x,-y,z
1/2+x,1/2+y,z
1/2-x,1/2+y,-z
1/2-x,1/2-y,-z
1/2+x,1/2-y,z
loop_
_atom_site_type_symbol
_atom_site_label
_atom_site_fract_x
_atom_site_fract_y
_atom_site_fract_z
Si Si1 0.555647 0.819277 0.918498
Si Si2 0.240898 0.819279 0.918471
Si Si3 0.081222 0.676825 0.664455
Si Si4 0.707039 0.675513 0.165899
Si Si5 0.132370 0.819935 0.579233
Si Si6 0.316853 0.682022 0.575933
O O1 0.618182 0.749896 0.894399
O O2 0.416394 0.756991 0.864364
O O3 0.552089 0.000000 0.911417
O O4 0.633684 0.769968 0.000012
O O5 0.244974 0.756872 0.864330
O O6 0.226858 0.000000 0.911336
O O7 0.054499 0.500000 0.639419
O O8 0.187196 0.692585 0.749308
O O9 0.129449 0.767112 0.635454
O O10 0.956792 0.752683 0.636529
O O11 0.675986 0.500000 0.141026
O O12 0.242466 0.729157 0.595746
O O13 0.000000 0.778554 0.500000
O O14 0.161042 0.000000 0.587688
O O15 0.322062 0.500000 0.573034
O O16 0.250000 0.750000 0.500000
#
# Coordination Sequence:
#
# PCOD8108547 Si02
#       6
#     8   8   8   8   8   8
#     4  10  21  38  62  91 122 160 205 252 301 356
#     4  10  21  38  62  91 122 160 206 251 300 358
#     4  11  25  43  62  89 123 161 204 249 302 362
#     4  11  24  40  60  88 124 163 203 249 303 360
#     4  11  23  40  65  93 119 153 198 246 300 359
#     4  12  24  40  65  92 120 155 196 246 301 357
#
# _framework density 19.515516999999999
#
# number of rings (size 3 to 8) (size 9 to 14) (size 15 to 20)
#    0.000    1.167    1.667    4.500    0.000    8.667 
#    0.000    0.000    0.000    0.000    0.000    0.000 
#    0.000    0.000    0.000    0.000    0.000    0.000 
#
# Total GULP energy -297756.539349 kJ/mol
# GULP energy per Si atom -12406.522473 kJ/mol
# Density = 1.947110 g / cm^3
# Si number density = 19.515517 Si / 1000 Ang^3
#
#
#
# Elastic Constant Matrix: (Units=GPa)
#
#
# Indices 1 2 3 4 5 6 
#
# 1 138.1571 41.4924 56.1207 0.0000 12.1159 0.0000
# 2 41.4924 92.5049 46.6121 0.0000 16.3237 0.0000
# 3 56.1207 46.6121 78.6513 0.0000 9.8521 0.0000
# 4 0.0000 0.0000 0.0000 30.0948 0.0000 -1.8767
# 5 12.1159 16.3237 9.8521 0.0000 55.5418 0.0000
# 6 0.0000 0.0000 0.0000 -1.8767 0.0000 38.7743
#
#
#
# Elastic Compliance Matrix: (Units=1/GPa)
#
#
# Indices 1 2 3 4 5 6 
#
# 1 0.010331 -0.001192 -0.006573 0.000000 -0.000737 0.000000
# 2 -0.001192 0.016047 -0.008286 0.000000 -0.002986 0.000000
# 3 -0.006573 -0.008286 0.022326 0.000000 -0.000091 0.000000
# 4 0.000000 0.000000 0.000000 0.033329 0.000000 0.001613
# 5 -0.000737 -0.002986 -0.000091 0.000000 0.019059 0.000000
# 6 0.000000 0.000000 0.000000 0.001613 0.000000 0.025868
#
#
# Mechanical properties :
#
#
# Convention : Reuss Voigt Hill
#
# Bulk Modulus (GPa) = 60.22822 66.41820 63.32321
# Shear Modulus (GPa) = 30.37774 35.88806 33.13290
#
# Velocity S-wave (km/s) = 3.94965 4.29295 4.12487
# Velocity P-wave (km/s) = 7.19224 7.66029 7.42995
#
# Compressibility (1/GPa) = 0.01660351
#
# Stress axis : x y z
#
# Youngs Moduli (GPa) = 96.80007 62.31784 44.79079
#
# Poissons Ratio (x) = 0.07426 0.29439
# Poissons Ratio (y) = 0.11536 0.37112
# Poissons Ratio (z) = 0.63623 0.51634
#
# Static dielectric constant tensor:
#      x y z
#    x 4.107730 0.000000 0.068960 
#    y 0.000000 3.818220 0.000000 
#    z 0.068960 0.000000 3.527580 
# 
# 
# High freq. dielectric constant tensor:
#      x y z
#    x 1.777680 0.000000 0.002000 
#    y 0.000000 1.780840 0.000000 
#    z 0.002000 0.000000 1.757280 
# 
# From -- ./inp_files/267635.got.cif
#   From: 2010.06.25/outbox.cif.g09.slc.cpg/sg12_134_cif.got.tgz:267635.got - 2010.06.28 00:19:55.
