data_PCOD8108618
_publ_section_title
;
Structure prediction by ZEFSAII (Michael W. Deem and Ramdas Pophale) SiO2 
 PCOD8108618
Probable space group: C 2/M
;
_chemical_formula_sum "Si O2"
_cell_formula_units_Z 36
_cell_length_a 15.569540
_cell_length_b 9.662367
_cell_length_c 12.282694
_cell_angle_alpha 90.000000
_cell_angle_beta 115.609817
_cell_angle_gamma 90.000000
_cell_volume 1666.261570
_symmetry_space_group_name_H-M "C 2/M"
_symmetry_group_IT_number 12
_symmetry_cell_setting 'monoclinic'
loop_
_space_group_symop_operation_xyz
x,y,z
-x,y,-z
-x,-y,-z
x,-y,z
1/2+x,1/2+y,z
1/2-x,1/2+y,-z
1/2-x,1/2-y,-z
1/2+x,1/2-y,z
loop_
_atom_site_type_symbol
_atom_site_label
_atom_site_fract_x
_atom_site_fract_y
_atom_site_fract_z
Si Si1 0.765145 0.658000 0.310135
Si Si2 0.785904 0.340331 0.917400
Si Si3 0.949735 0.149369 0.747914
Si Si4 0.000000 0.264899 0.000000
Si Si5 0.574361 0.149434 0.447589
O O1 0.794391 0.500000 0.289455
O O2 0.767300 0.765999 0.212014
O O3 0.662702 0.654519 0.306697
O O4 0.832998 0.715498 0.443604
O O5 0.751221 0.500000 0.910446
O O6 0.900778 0.348747 0.959713
O O7 0.750000 0.250000 0.000000
O O8 0.978116 0.261123 0.673528
O O9 0.996558 0.171918 0.890730
O O10 0.984964 0.000000 0.726038
O O11 0.500000 0.125219 0.500000
O O12 0.601009 0.000000 0.409841
#
# Coordination Sequence:
#
# PCOD8108618 Si02
#       5
#     8   8   8   4   8
#     4   9  20  40  60  85 121 161 203 251 311 370
#     4  11  24  41  65  94 126 167 212 261 313 375
#     4  10  21  38  63  89 120 160 205 260 309 363
#     4  10  24  44  64  94 130 170 212 256 316 382
#     4  10  22  38  58  87 123 162 202 251 308 370
#
# _framework density 21.605250999999999
#
# number of rings (size 3 to 8) (size 9 to 14) (size 15 to 20)
#    0.000    2.000    0.000    2.000    3.111    8.444 
#    0.000    0.000    0.000    0.000    0.000    0.000 
#    0.000    0.000    0.000    0.000    0.000    0.000 
#
# Total GULP energy -223007.021684 kJ/mol
# GULP energy per Si atom -12389.278982 kJ/mol
# Density = 2.155608 g / cm^3
# Si number density = 21.605251 Si / 1000 Ang^3
#
#
#
# Elastic Constant Matrix: (Units=GPa)
#
#
# Indices 1 2 3 4 5 6 
#
# 1 36.8479 18.9344 22.6954 0.0000 0.4067 0.0000
# 2 18.9344 159.8200 76.3991 0.0000 -17.0710 0.0000
# 3 22.6954 76.3991 147.9885 0.0000 -0.7006 0.0000
# 4 0.0000 0.0000 0.0000 43.6191 0.0000 -3.8577
# 5 0.4067 -17.0710 -0.7006 0.0000 35.3600 0.0000
# 6 0.0000 0.0000 0.0000 -3.8577 0.0000 19.7641
#
#
#
# Elastic Compliance Matrix: (Units=1/GPa)
#
#
# Indices 1 2 3 4 5 6 
#
# 1 0.030428 -0.002018 -0.003631 0.000000 -0.001396 0.000000
# 2 -0.002018 0.009024 -0.004329 0.000000 0.004294 0.000000
# 3 -0.003631 -0.004329 0.009540 0.000000 -0.001859 0.000000
# 4 0.000000 0.000000 0.000000 0.023328 0.000000 0.004553
# 5 -0.001396 0.004294 -0.001859 0.000000 0.030333 0.000000
# 6 0.000000 0.000000 0.000000 0.004553 0.000000 0.051486
#
#
# Mechanical properties :
#
#
# Convention : Reuss Voigt Hill
#
# Bulk Modulus (GPa) = 34.44063 64.52382 49.48222
# Shear Modulus (GPa) = 27.20741 34.85714 31.03228
#
# Velocity S-wave (km/s) = 3.55251 4.02103 3.79401
# Velocity P-wave (km/s) = 5.72735 7.17551 6.49194
#
# Compressibility (1/GPa) = 0.02903548
#
# Stress axis : x y z
#
# Youngs Moduli (GPa) = 32.86499 110.81368 104.82050
#
# Poissons Ratio (x) = 0.22365 0.38061
# Poissons Ratio (y) = 0.06633 0.45376
# Poissons Ratio (z) = 0.11933 0.47970
#
# Static dielectric constant tensor:
#      x y z
#    x 3.968850 0.000000 0.273000 
#    y 0.000000 4.137740 0.000000 
#    z 0.273000 0.000000 4.042190 
# 
# 
# High freq. dielectric constant tensor:
#      x y z
#    x 1.844130 0.000000 0.010790 
#    y 0.000000 1.843820 0.000000 
#    z 0.010790 0.000000 1.854240 
# 
# From -- ./inp_files/152083.got.cif
#   From: 2010.06.25/outbox.cif.g09.slc.cpg/sg12_77_cif.got.tgz:152083.got - 2010.06.28 00:19:55.
