data_PCOD8108608
_publ_section_title
;
Structure prediction by ZEFSAII (Michael W. Deem and Ramdas Pophale) SiO2 
 PCOD8108608
Probable space group: C 2/M
;
_chemical_formula_sum "Si O2"
_cell_formula_units_Z 56
_cell_length_a 20.929758
_cell_length_b 25.754667
_cell_length_c 8.991254
_cell_angle_alpha 90.000000
_cell_angle_beta 148.406611
_cell_angle_gamma 90.000000
_cell_volume 2539.092683
_symmetry_space_group_name_H-M "C 2/M"
_symmetry_group_IT_number 12
_symmetry_cell_setting 'monoclinic'
loop_
_space_group_symop_operation_xyz
x,y,z
-x,y,-z
-x,-y,-z
x,-y,z
1/2+x,1/2+y,z
1/2-x,1/2+y,-z
1/2-x,1/2-y,-z
1/2+x,1/2-y,z
loop_
_atom_site_type_symbol
_atom_site_label
_atom_site_fract_x
_atom_site_fract_y
_atom_site_fract_z
Si Si1 0.789111 0.407520 0.281381
Si Si2 0.894737 0.000000 0.574818
Si Si3 0.172250 0.000000 0.212887
Si Si4 0.822039 0.271363 0.781930
Si Si5 0.271221 0.919709 0.913254
Si Si6 0.837266 0.188021 0.295595
Si Si7 0.964447 0.619075 0.089468
Si Si8 0.903126 0.182437 0.113735
O O1 0.753687 0.450462 0.332434
O O2 0.912595 0.376352 0.568653
O O3 0.800661 0.436401 0.142396
O O4 0.681008 0.366392 0.082527
O O5 0.843744 0.950325 0.382647
O O6 0.847764 0.000000 0.650264
O O7 0.042156 0.000000 0.866518
O O8 0.750000 0.250000 0.500000
O O9 0.718188 0.270407 0.702910
O O10 0.895748 0.325683 0.917578
O O11 0.913266 0.224964 0.003851
O O12 0.256139 0.858731 0.903652
O O13 0.382153 0.923323 0.014610
O O14 0.861179 0.212835 0.181228
O O15 0.960275 0.161362 0.601241
O O16 0.000000 0.595284 0.000000
#
# Coordination Sequence:
#
# PCOD8108608 Si02
#       8
#     8   4   4   8   8   8   8   8
#     4  11  23  42  67  98 130 172 223 273 334 385
#     4  11  23  42  69 100 137 169 221 261 336 389
#     4  11  25  42  69 104 137 175 211 269 326 407
#     4  11  24  38  60  88 123 166 214 264 321 391
#     4  10  22  42  66  94 128 171 221 277 321 390
#     4   9  21  40  57  88 119 161 212 263 321 374
#     4  11  24  42  62  91 134 173 216 269 333 398
#     4  10  21  38  63  85 122 163 211 270 317 381
#
# _framework density 22.055122999999998
#
# number of rings (size 3 to 8) (size 9 to 14) (size 15 to 20)
#    0.000    1.571    0.000    3.857    4.000    4.000 
#    5.143    2.857    0.000    0.000    0.000    0.000 
#    0.000    0.000    0.000    0.000    0.000    0.000 
#
# Total GULP energy -346874.850873 kJ/mol
# GULP energy per Si atom -12388.387531 kJ/mol
# Density = 2.200492 g / cm^3
# Si number density = 22.055123 Si / 1000 Ang^3
#
#
#
# Elastic Constant Matrix: (Units=GPa)
#
#
# Indices 1 2 3 4 5 6 
#
# 1 89.9693 17.4153 25.3714 0.0000 -9.8149 0.0000
# 2 17.4153 65.9184 22.9563 0.0000 -8.3188 0.0000
# 3 25.3714 22.9563 127.7962 0.0000 -9.0171 0.0000
# 4 0.0000 0.0000 0.0000 40.0001 0.0000 -4.8461
# 5 -9.8149 -8.3188 -9.0171 0.0000 37.0005 0.0000
# 6 0.0000 0.0000 0.0000 -4.8461 0.0000 25.7187
#
#
#
# Elastic Compliance Matrix: (Units=1/GPa)
#
#
# Indices 1 2 3 4 5 6 
#
# 1 0.012342 -0.002319 -0.001872 0.000000 0.002296 0.000000
# 2 -0.002319 0.016948 -0.002400 0.000000 0.002610 0.000000
# 3 -0.001872 -0.002400 0.008704 0.000000 0.001085 0.000000
# 4 0.000000 0.000000 0.000000 0.025584 0.000000 0.004821
# 5 0.002296 0.002610 0.001085 0.000000 0.028487 0.000000
# 6 0.000000 0.000000 0.000000 0.004821 0.000000 0.039791
#
#
# Mechanical properties :
#
#
# Convention : Reuss Voigt Hill
#
# Bulk Modulus (GPa) = 40.30103 46.12998 43.21550
# Shear Modulus (GPa) = 32.61397 35.07325 33.84361
#
# Velocity S-wave (km/s) = 3.84962 3.99213 3.92152
# Velocity P-wave (km/s) = 6.17025 6.49697 6.33572
#
# Compressibility (1/GPa) = 0.02481326
#
# Stress axis : x y z
#
# Youngs Moduli (GPa) = 81.02327 59.00348 114.88704
#
# Poissons Ratio (x) = 0.13684 0.21503
# Poissons Ratio (y) = 0.18790 0.27571
# Poissons Ratio (z) = 0.15165 0.14160
#
# Static dielectric constant tensor:
#      x y z
#    x 4.438620 0.000000 -0.023960 
#    y 0.000000 3.587850 0.000000 
#    z -0.023960 0.000000 4.043480 
# 
# 
# High freq. dielectric constant tensor:
#      x y z
#    x 1.883350 0.000000 -0.002560 
#    y 0.000000 1.847130 0.000000 
#    z -0.002560 0.000000 1.876490 
# 
# From -- ./inp_files/91662.got.cif
#   From: 2010.06.25/outbox.cif.g09.slc.cpg/sg12_46_cif.got.tgz:91662.got - 2010.06.28 00:19:55.
