data_PCOD8108183
_publ_section_title
;
Structure prediction by ZEFSAII (Michael W. Deem and Ramdas Pophale) SiO2 
 PCOD8108183
Probable space group: C 2/M
;
_chemical_formula_sum "Si O2"
_cell_formula_units_Z 64
_cell_length_a 29.197864
_cell_length_b 8.707708
_cell_length_c 15.202779
_cell_angle_alpha 90.000000
_cell_angle_beta 131.332919
_cell_angle_gamma 90.000000
_cell_volume 2902.359726
_symmetry_space_group_name_H-M "C 2/M"
_symmetry_group_IT_number 12
_symmetry_cell_setting 'monoclinic'
loop_
_space_group_symop_operation_xyz
x,y,z
-x,y,-z
-x,-y,-z
x,-y,z
1/2+x,1/2+y,z
1/2-x,1/2+y,-z
1/2-x,1/2-y,-z
1/2+x,1/2-y,z
loop_
_atom_site_type_symbol
_atom_site_label
_atom_site_fract_x
_atom_site_fract_y
_atom_site_fract_z
Si Si1 0.631113 0.820938 0.383080
Si Si2 0.045466 0.823921 0.409645
Si Si3 0.644551 0.679751 0.219374
Si Si4 0.728258 0.325888 0.619731
Si Si5 0.070095 0.176659 0.837042
Si Si6 0.362534 0.672942 0.333297
Si Si7 0.952909 0.318054 0.014760
Si Si8 0.316162 0.820753 0.101465
O O1 0.575381 0.789040 0.377176
O O2 0.614298 0.765835 0.264186
O O3 0.690984 0.726713 0.487034
O O4 0.645946 0.000000 0.401967
O O5 0.070700 0.784524 0.539988
O O6 0.972202 0.805750 0.305093
O O7 0.065453 0.000000 0.413980
O O8 0.632209 0.500000 0.211087
O O9 0.715697 0.711881 0.298393
O O10 0.613121 0.750994 0.093524
O O11 0.751262 0.500000 0.634380
O O12 0.686415 0.311997 0.651825
O O13 0.134994 0.258271 0.906642
O O14 0.082847 0.000000 0.873956
O O15 0.032454 0.250526 0.870271
O O16 0.363814 0.500000 0.295880
O O17 0.342344 0.787397 0.231508
O O18 0.952537 0.500000 0.020433
O O19 0.000000 0.259599 0.000000
O O20 0.309526 0.000000 0.079266
O O21 0.250000 0.750000 0.000000
#
# Coordination Sequence:
#
# PCOD8108183 Si02
#       8
#     8   8   8   8   8   8   8   8
#     4  11  21  35  57  88 127 167 211 263 321 382
#     4   9  20  40  67  96 129 168 210 261 322 388
#     4  12  24  37  57  84 120 165 215 267 320 385
#     4  10  21  38  60  87 123 164 210 263 322 386
#     4  11  24  44  70  99 131 172 221 269 324 390
#     4   9  20  41  67  95 128 167 210 261 322 385
#     4  11  25  44  65  93 129 169 214 266 325 385
#     4  12  27  46  69  96 132 173 219 272 328 391
#
# _framework density 22.051024000000002
#
# number of rings (size 3 to 8) (size 9 to 14) (size 15 to 20)
#    0.000    1.375    0.000    6.375    1.750    7.000 
#    0.000    2.500    0.000    0.000    0.000    0.000 
#    0.000    0.000    0.000    0.000    0.000    0.000 
#
# Total GULP energy -396859.809757 kJ/mol
# GULP energy per Si atom -12401.869055 kJ/mol
# Density = 2.200083 g / cm^3
# Si number density = 22.051024 Si / 1000 Ang^3
#
#
#
# Elastic Constant Matrix: (Units=GPa)
#
#
# Indices 1 2 3 4 5 6 
#
# 1 72.0020 42.9067 39.5719 0.0000 8.1690 0.0000
# 2 42.9067 132.1777 39.7697 0.0000 -5.1426 0.0000
# 3 39.5719 39.7697 123.2166 0.0000 4.6943 0.0000
# 4 0.0000 0.0000 0.0000 32.7187 0.0000 -4.7181
# 5 8.1690 -5.1426 4.6943 0.0000 31.6592 0.0000
# 6 0.0000 0.0000 0.0000 -4.7181 0.0000 32.5940
#
#
#
# Elastic Compliance Matrix: (Units=1/GPa)
#
#
# Indices 1 2 3 4 5 6 
#
# 1 0.020224 -0.005409 -0.004543 0.000000 -0.005423 0.000000
# 2 -0.005409 0.009926 -0.001590 0.000000 0.003244 0.000000
# 3 -0.004543 -0.001590 0.010110 0.000000 -0.000585 0.000000
# 4 0.000000 0.000000 0.000000 0.031215 0.000000 0.004518
# 5 -0.005423 0.003244 -0.000585 0.000000 0.033600 0.000000
# 6 0.000000 0.000000 0.000000 0.004518 0.000000 0.031335
#
#
# Mechanical properties :
#
#
# Convention : Reuss Voigt Hill
#
# Bulk Modulus (GPa) = 58.21951 63.54365 60.88158
# Shear Modulus (GPa) = 30.26296 33.07090 31.66693
#
# Velocity S-wave (km/s) = 3.70862 3.87685 3.79367
# Velocity P-wave (km/s) = 6.69313 6.99423 6.84533
#
# Compressibility (1/GPa) = 0.01717637
#
# Stress axis : x y z
#
# Youngs Moduli (GPa) = 49.44685 100.74422 98.91005
#
# Poissons Ratio (x) = 0.54494 0.44930
# Poissons Ratio (y) = 0.26747 0.15728
# Poissons Ratio (z) = 0.22461 0.16020
#
# Static dielectric constant tensor:
#      x y z
#    x 3.846500 0.000000 0.055580 
#    y 0.000000 3.890600 0.000000 
#    z 0.055580 0.000000 4.179520 
# 
# 
# High freq. dielectric constant tensor:
#      x y z
#    x 1.861590 0.000000 0.005230 
#    y 0.000000 1.866470 0.000000 
#    z 0.005230 0.000000 1.881560 
# 
# From -- ./inp_files/249955.got.cif
#   From: 2010.06.25/outbox.cif.g09.slc.cpg/sg12_125_cif.got.tgz:249955.got - 2010.06.28 00:19:55.
