data_PCOD8108856
_publ_section_title
;
Structure prediction by ZEFSAII (Michael W. Deem and Ramdas Pophale) SiO2 
 PCOD8108856
Probable space group: C 2/M
;
_chemical_formula_sum "Si O2"
_cell_formula_units_Z 56
_cell_length_a 23.225072
_cell_length_b 9.055309
_cell_length_c 15.389837
_cell_angle_alpha 90.000000
_cell_angle_beta 116.211167
_cell_angle_gamma 90.000000
_cell_volume 2903.823539
_symmetry_space_group_name_H-M "C 2/M"
_symmetry_group_IT_number 12
_symmetry_cell_setting 'monoclinic'
loop_
_space_group_symop_operation_xyz
x,y,z
-x,y,-z
-x,-y,-z
x,-y,z
1/2+x,1/2+y,z
1/2-x,1/2+y,-z
1/2-x,1/2-y,-z
1/2+x,1/2-y,z
loop_
_atom_site_type_symbol
_atom_site_label
_atom_site_fract_x
_atom_site_fract_y
_atom_site_fract_z
Si Si1 0.696771 0.829353 0.408015
Si Si2 0.712817 0.326940 0.239066
Si Si3 0.103667 0.330295 0.080661
Si Si4 0.081412 0.668920 0.457098
Si Si5 0.010213 0.330120 0.865729
Si Si6 0.640584 0.172271 0.679284
Si Si7 0.967898 0.825833 0.297573
O O1 0.750000 0.750000 0.500000
O O2 0.691425 0.758867 0.310411
O O3 0.627789 0.809794 0.406129
O O4 0.715999 0.000000 0.413398
O O5 0.706028 0.500000 0.252230
O O6 0.665675 0.274564 0.130689
O O7 0.785019 0.286045 0.260503
O O8 0.124797 0.500000 0.105029
O O9 0.052251 0.289183 0.120305
O O10 0.073432 0.303154 0.965888
O O11 0.058729 0.500000 0.450278
O O12 0.118440 0.719658 0.568228
O O13 0.018451 0.767595 0.402587
O O14 0.007003 0.500000 0.832658
O O15 0.011999 0.224896 0.784497
O O16 0.602113 0.263179 0.725906
O O17 0.628819 0.000000 0.687806
O O18 0.966288 0.000000 0.299922
#
# Coordination Sequence:
#
# PCOD8108856 Si02
#       7
#     8   8   8   8   8   8   8
#     4  11  21  35  56  83 115 149 187 230 276 330
#     4  11  22  37  57  86 118 151 189 229 284 340
#     4   9  19  37  63  91 113 144 187 229 277 337
#     4  10  21  39  59  79 109 154 195 226 277 343
#     4   9  19  39  63  85 114 149 186 225 277 344
#     4  10  22  41  58  75 109 157 198 227 272 342
#     4  12  25  37  55  86 114 142 190 243 287 325
#
# _framework density 19.284918999999999
#
# number of rings (size 3 to 8) (size 9 to 14) (size 15 to 20)
#    0.000    1.714    1.429    4.286    0.000    9.143 
#    0.000    2.143    0.000    0.000    0.000    0.000 
#    0.000    0.000    0.000    0.000    0.000    0.000 
#
# Total GULP energy -347341.661651 kJ/mol
# GULP energy per Si atom -12405.059345 kJ/mol
# Density = 1.924103 g / cm^3
# Si number density = 19.284919 Si / 1000 Ang^3
#
#
#
# Elastic Constant Matrix: (Units=GPa)
#
#
# Indices 1 2 3 4 5 6 
#
# 1 85.6745 47.9255 32.1273 0.0000 16.4426 0.0000
# 2 47.9255 93.1464 36.8168 0.0000 10.1403 0.0000
# 3 32.1273 36.8168 75.4553 0.0000 20.3254 0.0000
# 4 0.0000 0.0000 0.0000 36.0327 0.0000 3.7900
# 5 16.4426 10.1403 20.3254 0.0000 30.0125 0.0000
# 6 0.0000 0.0000 0.0000 3.7900 0.0000 30.1747
#
#
#
# Elastic Compliance Matrix: (Units=1/GPa)
#
#
# Indices 1 2 3 4 5 6 
#
# 1 0.017937 -0.007678 -0.002376 0.000000 -0.005624 0.000000
# 2 -0.007678 0.016588 -0.005440 0.000000 0.002286 0.000000
# 3 -0.002376 -0.005440 0.019660 0.000000 -0.010174 0.000000
# 4 0.000000 0.000000 0.000000 0.028124 0.000000 -0.003532
# 5 -0.005624 0.002286 -0.010174 0.000000 0.042518 0.000000
# 6 0.000000 0.000000 0.000000 -0.003532 0.000000 0.033584
#
#
# Mechanical properties :
#
#
# Convention : Reuss Voigt Hill
#
# Bulk Modulus (GPa) = 43.11092 54.22394 48.66743
# Shear Modulus (GPa) = 25.36375 28.40441 26.88408
#
# Velocity S-wave (km/s) = 3.63052 3.84198 3.73774
# Velocity P-wave (km/s) = 6.32278 6.91805 6.62710
#
# Compressibility (1/GPa) = 0.02319598
#
# Stress axis : x y z
#
# Youngs Moduli (GPa) = 55.74996 60.28631 50.86513
#
# Poissons Ratio (x) = 0.46285 0.12087
# Poissons Ratio (y) = 0.42802 0.27673
# Poissons Ratio (z) = 0.13248 0.32798
#
# Static dielectric constant tensor:
#      x y z
#    x 3.533220 0.000000 0.082130 
#    y 0.000000 3.450010 0.000000 
#    z 0.082130 0.000000 3.639120 
# 
# 
# High freq. dielectric constant tensor:
#      x y z
#    x 1.750240 0.000000 0.008940 
#    y 0.000000 1.744970 0.000000 
#    z 0.008940 0.000000 1.750930 
# 
# From -- ./inp_files/238974.got.cif
#   From: 2010.06.25/outbox.cif.g09.slc.cpg/sg12_120_cif.got.tgz:238974.got - 2010.06.28 00:19:55.
