data_PCOD8108156
_publ_section_title
;
Structure prediction by ZEFSAII (Michael W. Deem and Ramdas Pophale) SiO2 
 PCOD8108156
Probable space group: C 2/M
;
_chemical_formula_sum "Si O2"
_cell_formula_units_Z 48
_cell_length_a 9.446962
_cell_length_b 28.873055
_cell_length_c 16.450701
_cell_angle_alpha 90.000000
_cell_angle_beta 147.646680
_cell_angle_gamma 90.000000
_cell_volume 2401.240703
_symmetry_space_group_name_H-M "C 2/M"
_symmetry_group_IT_number 12
_symmetry_cell_setting 'monoclinic'
loop_
_space_group_symop_operation_xyz
x,y,z
-x,y,-z
-x,-y,-z
x,-y,z
1/2+x,1/2+y,z
1/2-x,1/2+y,-z
1/2-x,1/2-y,-z
1/2+x,1/2-y,z
loop_
_atom_site_type_symbol
_atom_site_label
_atom_site_fract_x
_atom_site_fract_y
_atom_site_fract_z
Si Si1 0.187769 0.447575 0.345983
Si Si2 0.066388 0.884356 0.823425
Si Si3 0.881619 0.446047 0.358963
Si Si4 0.295794 0.226094 0.825094
Si Si5 0.894766 0.374853 0.832098
Si Si6 0.205693 0.210604 0.324446
O O1 0.500000 0.447367 0.500000
O O2 0.090782 0.500000 0.274772
O O3 0.094729 0.407292 0.241147
O O4 0.071616 0.432714 0.376795
O O5 0.198845 0.899592 0.801893
O O6 0.914211 0.926199 0.793473
O O7 0.853142 0.843732 0.709320
O O8 0.303792 0.868435 0.995178
O O9 0.845375 0.500000 0.348185
O O10 0.000000 0.425549 0.500000
O O11 0.298082 0.178123 0.773929
O O12 0.350401 0.268434 0.791906
O O13 0.000562 0.234400 0.714648
O O14 0.500000 0.224190 0.000000
O O15 0.500000 0.219959 0.500000
#
# Coordination Sequence:
#
# PCOD8108156 Si02
#       6
#     8   8   8   8   8   8
#     4  10  22  39  60  89 121 155 203 257 304 363
#     4  10  21  39  59  85 121 161 203 248 303 364
#     4  10  21  38  60  86 119 157 195 246 308 362
#     4  11  22  42  63  88 128 164 202 257 312 370
#     4  10  21  39  61  83 121 164 199 244 306 369
#     4  11  23  39  63  92 123 161 209 258 303 368
#
# _framework density 19.989667000000001
#
# number of rings (size 3 to 8) (size 9 to 14) (size 15 to 20)
#    0.000    1.667    3.333    2.500    0.000    6.667 
#    0.000    3.333    0.000    0.000    0.000    0.000 
#    0.000    0.000    0.000    0.000    0.000    0.000 
#
# Total GULP energy -297488.031784 kJ/mol
# GULP energy per Si atom -12395.334658 kJ/mol
# Density = 1.994417 g / cm^3
# Si number density = 19.989667 Si / 1000 Ang^3
#
#
#
# Elastic Constant Matrix: (Units=GPa)
#
#
# Indices 1 2 3 4 5 6 
#
# 1 141.0255 65.3635 52.6940 0.0000 10.0986 0.0000
# 2 65.3635 59.9155 40.4971 0.0000 -6.2282 0.0000
# 3 52.6940 40.4971 88.0129 0.0000 16.7133 0.0000
# 4 0.0000 0.0000 0.0000 28.4997 0.0000 -2.3960
# 5 10.0986 -6.2282 16.7133 0.0000 38.5961 0.0000
# 6 0.0000 0.0000 0.0000 -2.3960 0.0000 37.8604
#
#
#
# Elastic Compliance Matrix: (Units=1/GPa)
#
#
# Indices 1 2 3 4 5 6 
#
# 1 0.016081 -0.018479 0.000262 0.000000 -0.007303 0.000000
# 2 -0.018479 0.049158 -0.015233 0.000000 0.019364 0.000000
# 3 0.000262 -0.015233 0.020369 0.000000 -0.011347 0.000000
# 4 0.000000 0.000000 0.000000 0.035276 0.000000 0.002232
# 5 -0.007303 0.019364 -0.011347 0.000000 0.035858 0.000000
# 6 0.000000 0.000000 0.000000 0.002232 0.000000 0.026554
#
#
# Mechanical properties :
#
#
# Convention : Reuss Voigt Hill
#
# Bulk Modulus (GPa) = 53.45257 67.34036 60.39646
# Shear Modulus (GPa) = 19.49831 29.68450 24.59140
#
# Velocity S-wave (km/s) = 3.12656 3.85774 3.51123
# Velocity P-wave (km/s) = 6.31126 7.32145 6.83504
#
# Compressibility (1/GPa) = 0.01870817
#
# Stress axis : x y z
#
# Youngs Moduli (GPa) = 62.18541 20.34245 49.09453
#
# Poissons Ratio (x) = 0.37591 -0.01285
# Poissons Ratio (y) = 1.14914 0.74783
# Poissons Ratio (z) = -0.01628 0.30987
#
# Static dielectric constant tensor:
#      x y z
#    x 3.989090 0.000000 0.117580 
#    y 0.000000 3.633740 0.000000 
#    z 0.117580 0.000000 3.598070 
# 
# 
# High freq. dielectric constant tensor:
#      x y z
#    x 1.786080 0.000000 0.019440 
#    y 0.000000 1.778480 0.000000 
#    z 0.019440 0.000000 1.776860 
# 
# From -- ./inp_files/260423.got.cif
#   From: 2010.06.25/outbox.cif.g09.slc.cpg/sg12_131_cif.got.tgz:260423.got - 2010.06.28 00:19:55.
