data_PCOD8108221
_publ_section_title
;
Structure prediction by ZEFSAII (Michael W. Deem and Ramdas Pophale) SiO2 
 PCOD8108221
Probable space group: C 2/M
;
_chemical_formula_sum "Si O2"
_cell_formula_units_Z 48
_cell_length_a 12.375006
_cell_length_b 22.498066
_cell_length_c 8.846474
_cell_angle_alpha 90.000000
_cell_angle_beta 61.426699
_cell_angle_gamma 90.000000
_cell_volume 2163.003300
_symmetry_space_group_name_H-M "C 2/M"
_symmetry_group_IT_number 12
_symmetry_cell_setting 'monoclinic'
loop_
_space_group_symop_operation_xyz
x,y,z
-x,y,-z
-x,-y,-z
x,-y,z
1/2+x,1/2+y,z
1/2-x,1/2+y,-z
1/2-x,1/2-y,-z
1/2+x,1/2-y,z
loop_
_atom_site_type_symbol
_atom_site_label
_atom_site_fract_x
_atom_site_fract_y
_atom_site_fract_z
Si Si1 0.879410 0.722252 0.653318
Si Si2 0.213623 0.874346 0.640619
Si Si3 0.707384 0.065611 0.137072
Si Si4 0.953529 0.930459 0.789941
Si Si5 0.110984 0.671978 0.038030
Si Si6 0.682306 0.349626 0.333653
O O1 0.752834 0.689528 0.685633
O O2 0.887143 0.721706 0.831690
O O3 0.887932 0.788832 0.578932
O O4 0.000000 0.689914 0.500000
O O5 0.291722 0.922967 0.682892
O O6 0.249109 0.875039 0.439273
O O7 0.069470 0.889822 0.759567
O O8 0.608648 0.107693 0.121105
O O9 0.661062 0.000000 0.131992
O O10 0.847584 0.075868 0.986655
O O11 0.904360 0.903127 0.665215
O O12 0.990023 0.000000 0.743637
O O13 0.230315 0.674518 0.855581
O O14 0.000000 0.682170 0.000000
#
# Coordination Sequence:
#
# PCOD8108221 Si02
#       6
#     8   8   8   8   8   8
#     4  11  23  41  61  86 120 159 204 250 300 361
#     4  11  21  34  59  87 117 156 198 248 300 355
#     4   9  20  38  60  88 122 161 204 248 298 357
#     4  10  21  38  60  89 125 162 202 249 302 359
#     4  10  22  40  62  86 119 159 202 250 301 360
#     4  11  23  39  59  90 123 158 200 249 305 359
#
# _framework density 22.191368000000001
#
# number of rings (size 3 to 8) (size 9 to 14) (size 15 to 20)
#    0.000    1.667    0.000    4.500    0.000    5.000 
#    0.000    1.667    0.000   25.500    0.000    0.000 
#    0.000    0.000    0.000    0.000    0.000    0.000 
#
# Total GULP energy -297394.972764 kJ/mol
# GULP energy per Si atom -12391.457198 kJ/mol
# Density = 2.214086 g / cm^3
# Si number density = 22.191368 Si / 1000 Ang^3
#
#
#
# Elastic Constant Matrix: (Units=GPa)
#
#
# Indices 1 2 3 4 5 6 
#
# 1 101.6772 35.2944 28.8186 0.0000 27.1631 0.0000
# 2 35.2944 109.1373 24.5095 0.0000 8.0179 0.0000
# 3 28.8186 24.5095 91.5219 0.0000 29.5103 0.0000
# 4 0.0000 0.0000 0.0000 19.6056 0.0000 6.4505
# 5 27.1631 8.0179 29.5103 0.0000 45.3409 0.0000
# 6 0.0000 0.0000 0.0000 6.4505 0.0000 11.1846
#
#
#
# Elastic Compliance Matrix: (Units=1/GPa)
#
#
# Indices 1 2 3 4 5 6 
#
# 1 0.013105 -0.003516 -0.001081 0.000000 -0.006526 0.000000
# 2 -0.003516 0.010692 -0.002311 0.000000 0.001720 0.000000
# 3 -0.001081 -0.002311 0.014611 0.000000 -0.008454 0.000000
# 4 0.000000 0.000000 0.000000 0.062951 0.000000 -0.036306
# 5 -0.006526 0.001720 -0.008454 0.000000 0.031163 0.000000
# 6 0.000000 0.000000 0.000000 -0.036306 0.000000 0.110348
#
#
# Mechanical properties :
#
#
# Convention : Reuss Voigt Hill
#
# Bulk Modulus (GPa) = 40.66046 53.28683 46.97364
# Shear Modulus (GPa) = 18.87621 29.47380 24.17501
#
# Velocity S-wave (km/s) = 2.91969 3.64835 3.30417
# Velocity P-wave (km/s) = 5.45239 6.46621 5.98082
#
# Compressibility (1/GPa) = 0.02459392
#
# Stress axis : x y z
#
# Youngs Moduli (GPa) = 76.30498 93.52400 68.44016
#
# Poissons Ratio (x) = 0.32883 0.07397
# Poissons Ratio (y) = 0.26829 0.15815
# Poissons Ratio (z) = 0.08247 0.21611
#
# Static dielectric constant tensor:
#      x y z
#    x 4.059610 0.000000 0.123320 
#    y 0.000000 3.970600 0.000000 
#    z 0.123320 0.000000 4.127360 
# 
# 
# High freq. dielectric constant tensor:
#      x y z
#    x 1.864090 0.000000 0.015510 
#    y 0.000000 1.865780 0.000000 
#    z 0.015510 0.000000 1.880460 
# 
# From -- ./inp_files/51359.got.cif
#   From: 2010.06.25/outbox.cif.g09.slc.cpg/sg12_26_cif.got.tgz:51359.got - 2010.06.28 00:19:55.
