data_PCOD8108753
_publ_section_title
;
Structure prediction by ZEFSAII (Michael W. Deem and Ramdas Pophale) SiO2 
 PCOD8108753
Probable space group: C 2/M
;
_chemical_formula_sum "Si O2"
_cell_formula_units_Z 48
_cell_length_a 22.826852
_cell_length_b 13.418571
_cell_length_c 13.053977
_cell_angle_alpha 90.000000
_cell_angle_beta 142.650749
_cell_angle_gamma 90.000000
_cell_volume 2425.766849
_symmetry_space_group_name_H-M "C 2/M"
_symmetry_group_IT_number 12
_symmetry_cell_setting 'monoclinic'
loop_
_space_group_symop_operation_xyz
x,y,z
-x,y,-z
-x,-y,-z
x,-y,z
1/2+x,1/2+y,z
1/2-x,1/2+y,-z
1/2-x,1/2-y,-z
1/2+x,1/2-y,z
loop_
_atom_site_type_symbol
_atom_site_label
_atom_site_fract_x
_atom_site_fract_y
_atom_site_fract_z
Si Si1 0.628117 0.387839 0.565914
Si Si2 0.198600 0.889428 0.069991
Si Si3 0.519499 0.611224 0.215240
Si Si4 0.874311 0.615625 0.168726
Si Si5 0.500000 0.752334 0.000000
Si Si6 0.000000 0.264050 0.500000
Si Si7 0.672097 0.811276 0.118118
O O1 0.592962 0.500000 0.544252
O O2 0.596916 0.358638 0.408278
O O3 0.586749 0.307211 0.586408
O O4 0.743926 0.386701 0.734399
O O5 0.268000 0.870062 0.069891
O O6 0.213654 0.803020 0.175844
O O7 0.220468 0.000000 0.147107
O O8 0.086654 0.882561 0.879530
O O9 0.538768 0.500000 0.200957
O O10 0.534084 0.684391 0.141215
O O11 0.901339 0.500000 0.196631
O O12 0.958587 0.666820 0.352232
O O13 0.872538 0.665077 0.054959
O O14 0.588419 0.821764 0.086852
#
# Coordination Sequence:
#
# PCOD8108753 Si02
#       7
#     8   8   8   8   4   4   8
#     4  11  24  38  58  91 124 152 192 245 302 356
#     4   9  18  35  60  87 118 154 196 241 291 349
#     4   9  19  36  59  90 119 150 195 247 296 347
#     4  11  23  39  60  88 122 160 197 241 294 352
#     4  10  21  38  65  80 110 164 206 242 286 342
#     4  12  22  38  62  88 124 158 194 240 292 362
#     4  11  22  40  60  88 121 158 201 244 294 349
#
# _framework density 19.787557
#
# number of rings (size 3 to 8) (size 9 to 14) (size 15 to 20)
#    0.000    1.667    1.667    3.750    2.333    1.333 
#    0.000    1.667    0.000    2.000    0.000    0.000 
#    0.000    0.000    0.000    0.000    0.000    0.000 
#
# Total GULP energy -297571.546536 kJ/mol
# GULP energy per Si atom -12398.814439 kJ/mol
# Density = 1.974252 g / cm^3
# Si number density = 19.787557 Si / 1000 Ang^3
#
#
#
# Elastic Constant Matrix: (Units=GPa)
#
#
# Indices 1 2 3 4 5 6 
#
# 1 116.9861 34.6988 34.5818 0.0000 11.5521 0.0000
# 2 34.6988 94.0594 30.0935 0.0000 0.2223 0.0000
# 3 34.5818 30.0935 114.2463 0.0000 -1.6267 0.0000
# 4 0.0000 0.0000 0.0000 26.8310 0.0000 1.2486
# 5 11.5521 0.2223 -1.6267 0.0000 20.0373 0.0000
# 6 0.0000 0.0000 0.0000 1.2486 0.0000 23.2032
#
#
#
# Elastic Compliance Matrix: (Units=1/GPa)
#
#
# Indices 1 2 3 4 5 6 
#
# 1 0.010882 -0.003184 -0.002547 0.000000 -0.006445 0.000000
# 2 -0.003184 0.012545 -0.002319 0.000000 0.001508 0.000000
# 3 -0.002547 -0.002319 0.010168 0.000000 0.002320 0.000000
# 4 0.000000 0.000000 0.000000 0.037364 0.000000 -0.002011
# 5 -0.006445 0.001508 0.002320 0.000000 0.053794 0.000000
# 6 0.000000 0.000000 0.000000 -0.002011 0.000000 0.043206
#
#
# Mechanical properties :
#
#
# Convention : Reuss Voigt Hill
#
# Bulk Modulus (GPa) = 57.16262 58.22667 57.69464
# Shear Modulus (GPa) = 26.33106 29.07548 27.70327
#
# Velocity S-wave (km/s) = 3.65182 3.83741 3.74576
# Velocity P-wave (km/s) = 6.83607 7.00886 6.92300
#
# Compressibility (1/GPa) = 0.01749395
#
# Stress axis : x y z
#
# Youngs Moduli (GPa) = 91.89657 79.71518 98.34949
#
# Poissons Ratio (x) = 0.25383 0.25048
# Poissons Ratio (y) = 0.29262 0.22808
# Poissons Ratio (z) = 0.23405 0.18486
#
# Static dielectric constant tensor:
#      x y z
#    x 3.482000 0.000000 0.133720 
#    y 0.000000 3.831880 0.000000 
#    z 0.133720 0.000000 3.435280 
# 
# 
# High freq. dielectric constant tensor:
#      x y z
#    x 1.752870 0.000000 0.008220 
#    y 0.000000 1.786170 0.000000 
#    z 0.008220 0.000000 1.759300 
# 
# From -- ./inp_files/167657.got.cif
#   From: 2010.06.25/outbox.cif.g09.slc.cpg/sg12_84_cif.got.tgz:167657.got - 2010.06.28 00:19:55.
