data_PCOD8108150
_publ_section_title
;
Structure prediction by ZEFSAII (Michael W. Deem and Ramdas Pophale) SiO2 
 PCOD8108150
Probable space group: C 2/M
;
_chemical_formula_sum "Si O2"
_cell_formula_units_Z 56
_cell_length_a 29.129726
_cell_length_b 17.632893
_cell_length_c 9.187261
_cell_angle_alpha 90.000000
_cell_angle_beta 144.246758
_cell_angle_gamma 90.000000
_cell_volume 2757.265787
_symmetry_space_group_name_H-M "C 2/M"
_symmetry_group_IT_number 12
_symmetry_cell_setting 'monoclinic'
loop_
_space_group_symop_operation_xyz
x,y,z
-x,y,-z
-x,-y,-z
x,-y,z
1/2+x,1/2+y,z
1/2-x,1/2+y,-z
1/2-x,1/2-y,-z
1/2+x,1/2-y,z
loop_
_atom_site_type_symbol
_atom_site_label
_atom_site_fract_x
_atom_site_fract_y
_atom_site_fract_z
Si Si1 0.322289 0.347868 0.689107
Si Si2 0.012565 0.412890 0.702494
Si Si3 0.071345 0.177435 0.280585
Si Si4 0.710661 0.586660 0.095171
Si Si5 0.558203 0.587902 0.529199
Si Si6 0.125765 0.661457 0.473020
Si Si7 0.645355 0.172647 0.199737
O O1 0.374350 0.374836 0.685506
O O2 0.331894 0.397285 0.859399
O O3 0.352154 0.263250 0.802528
O O4 0.233637 0.355679 0.403914
O O5 0.028070 0.500000 0.786537
O O6 0.000000 0.404372 0.500000
O O7 0.935528 0.383938 0.587328
O O8 0.088628 0.361978 0.932381
O O9 0.038896 0.126287 0.326430
O O10 0.117635 0.248013 0.471535
O O11 0.000000 0.210040 0.000000
O O12 0.739338 0.500000 0.168099
O O13 0.785051 0.640075 0.254727
O O14 0.648253 0.602055 0.807108
O O15 0.500000 0.623291 0.500000
O O16 0.539208 0.500000 0.461588
O O17 0.112288 0.642169 0.268751
#
# Coordination Sequence:
#
# PCOD8108150 Si02
#       7
#     8   8   8   8   8   8   8
#     4   9  19  36  57  84 112 141 190 243 280 330
#     4  11  24  38  55  85 122 156 192 234 279 338
#     4  11  22  37  61  90 116 148 191 239 291 342
#     4  10  21  38  61  87 116 153 192 232 286 347
#     4  10  23  41  59  83 116 153 195 242 290 342
#     4  10  21  38  60  86 118 153 191 233 282 348
#     4   9  19  37  58  79 112 154 189 231 283 332
#
# _framework density 20.309975000000001
#
# number of rings (size 3 to 8) (size 9 to 14) (size 15 to 20)
#    0.000    2.000    0.000    4.286    0.000    7.714 
#    0.000    1.429    0.000    0.000    0.000    0.000 
#    0.000    0.000    0.000    0.000    0.000    0.000 
#
# Total GULP energy -347189.822274 kJ/mol
# GULP energy per Si atom -12399.636510 kJ/mol
# Density = 2.026375 g / cm^3
# Si number density = 20.309975 Si / 1000 Ang^3
#
#
#
# Elastic Constant Matrix: (Units=GPa)
#
#
# Indices 1 2 3 4 5 6 
#
# 1 128.0626 42.3826 39.7162 0.0000 6.9577 0.0000
# 2 42.3826 70.0627 51.6784 0.0000 0.9022 0.0000
# 3 39.7162 51.6784 82.7585 0.0000 0.1720 0.0000
# 4 0.0000 0.0000 0.0000 26.8843 0.0000 -4.1772
# 5 6.9577 0.9022 0.1720 0.0000 26.1491 0.0000
# 6 0.0000 0.0000 0.0000 -4.1772 0.0000 27.2101
#
#
#
# Elastic Compliance Matrix: (Units=1/GPa)
#
#
# Indices 1 2 3 4 5 6 
#
# 1 0.010080 -0.004637 -0.001937 0.000000 -0.002509 0.000000
# 2 -0.004637 0.028610 -0.015641 0.000000 0.000350 0.000000
# 3 -0.001937 -0.015641 0.022778 0.000000 0.000905 0.000000
# 4 0.000000 0.000000 0.000000 0.038105 0.000000 0.005850
# 5 -0.002509 0.000350 0.000905 0.000000 0.038892 0.000000
# 6 0.000000 0.000000 0.000000 0.005850 0.000000 0.037649
#
#
# Mechanical properties :
#
#
# Convention : Reuss Voigt Hill
#
# Bulk Modulus (GPa) = 58.68917 60.93759 59.81338
# Shear Modulus (GPa) = 22.10193 25.85579 23.97886
#
# Velocity S-wave (km/s) = 3.30241 3.57187 3.43978
# Velocity P-wave (km/s) = 6.59551 6.86148 6.72981
#
# Compressibility (1/GPa) = 0.01703892
#
# Stress axis : x y z
#
# Youngs Moduli (GPa) = 99.20359 34.95239 43.90178
#
# Poissons Ratio (x) = 0.16207 0.08503
# Poissons Ratio (y) = 0.45999 0.68668
# Poissons Ratio (z) = 0.19215 0.54670
#
# Static dielectric constant tensor:
#      x y z
#    x 3.885940 0.000000 0.119250 
#    y 0.000000 3.524940 0.000000 
#    z 0.119250 0.000000 3.591610 
# 
# 
# High freq. dielectric constant tensor:
#      x y z
#    x 1.802760 0.000000 0.011520 
#    y 0.000000 1.779670 0.000000 
#    z 0.011520 0.000000 1.794620 
# 
# From -- ./inp_files/106013.got.cif
#   From: 2010.06.25/outbox.cif.g09.slc.cpg/sg12_54_cif.got.tgz:106013.got - 2010.06.28 00:19:55.
