data_PCOD8108989
_publ_section_title
;
Structure prediction by ZEFSAII (Michael W. Deem and Ramdas Pophale) SiO2 
 PCOD8108989
Probable space group: C 2/M
;
_chemical_formula_sum "Si O2"
_cell_formula_units_Z 40
_cell_length_a 14.319524
_cell_length_b 13.421539
_cell_length_c 12.647799
_cell_angle_alpha 90.000000
_cell_angle_beta 124.484255
_cell_angle_gamma 90.000000
_cell_volume 2003.648654
_symmetry_space_group_name_H-M "C 2/M"
_symmetry_group_IT_number 12
_symmetry_cell_setting 'monoclinic'
loop_
_space_group_symop_operation_xyz
x,y,z
-x,y,-z
-x,-y,-z
x,-y,z
1/2+x,1/2+y,z
1/2-x,1/2+y,-z
1/2-x,1/2-y,-z
1/2+x,1/2-y,z
loop_
_atom_site_type_symbol
_atom_site_label
_atom_site_fract_x
_atom_site_fract_y
_atom_site_fract_z
Si Si1 0.273630 0.771449 0.753898
Si Si2 0.519721 0.271602 0.246024
Si Si3 0.110366 0.884258 0.500015
Si Si4 0.359421 0.886548 0.218642
Si Si5 0.207075 0.113046 0.914062
O O1 0.403256 0.749910 0.806555
O O2 0.217415 0.833900 0.623914
O O3 0.205885 0.667947 0.727440
O O4 0.273331 0.834427 0.861364
O O5 0.593311 0.334298 0.375824
O O6 0.478614 0.168095 0.272722
O O7 0.411795 0.334343 0.138353
O O8 0.000000 0.866679 0.500000
O O9 0.136482 0.000000 0.500324
O O10 0.383888 0.000000 0.267467
O O11 0.282992 0.879776 0.065628
O O12 0.182135 0.000000 0.864328
#
# Coordination Sequence:
#
# PCOD8108989 Si02
#       5
#     8   8   8   8   8
#     4  11  22  38  60  88 116 149 193 242 287 338
#     4  11  22  38  60  88 116 149 193 242 287 338
#     4  11  21  38  64  87 111 149 196 240 286 343
#     4  10  23  39  56  85 123 156 188 234 290 342
#     4  10  21  39  61  85 116 156 197 234 280 340
#
# _framework density 19.96358
#
# number of rings (size 3 to 8) (size 9 to 14) (size 15 to 20)
#    0.000    1.400    4.000    4.200    0.000    6.400 
#    0.000    6.000    0.000    0.000    0.000    0.000 
#    0.000    0.000    0.000    0.000    0.000    0.000 
#
# Total GULP energy -248090.542724 kJ/mol
# GULP energy per Si atom -12404.527136 kJ/mol
# Density = 1.991814 g / cm^3
# Si number density = 19.963580 Si / 1000 Ang^3
#
#
#
# Elastic Constant Matrix: (Units=GPa)
#
#
# Indices 1 2 3 4 5 6 
#
# 1 167.5855 65.8357 14.4385 0.0000 1.1913 0.0000
# 2 65.8357 168.9723 28.4524 0.0000 -0.1998 0.0000
# 3 14.4385 28.4524 55.1118 0.0000 -0.7195 0.0000
# 4 0.0000 0.0000 0.0000 39.8373 0.0000 -0.3268
# 5 1.1913 -0.1998 -0.7195 0.0000 5.1551 0.0000
# 6 0.0000 0.0000 0.0000 -0.3268 0.0000 12.4212
#
#
#
# Elastic Compliance Matrix: (Units=1/GPa)
#
#
# Indices 1 2 3 4 5 6 
#
# 1 0.007073 -0.002675 -0.000496 0.000000 -0.001807 0.000000
# 2 -0.002675 0.007493 -0.003162 0.000000 0.000467 0.000000
# 3 -0.000496 -0.003162 0.019943 0.000000 0.002776 0.000000
# 4 0.000000 0.000000 0.000000 0.025108 0.000000 0.000661
# 5 -0.001807 0.000467 0.002776 0.000000 0.194805 0.000000
# 6 0.000000 0.000000 0.000000 0.000661 0.000000 0.080525
#
#
# Mechanical properties :
#
#
# Convention : Reuss Voigt Hill
#
# Bulk Modulus (GPa) = 45.77596 67.68032 56.72814
# Shear Modulus (GPa) = 14.08873 30.34559 22.21716
#
# Velocity S-wave (km/s) = 2.65942 3.90301 3.33961
# Velocity P-wave (km/s) = 5.69294 7.36796 6.58393
#
# Compressibility (1/GPa) = 0.02184553
#
# Stress axis : x y z
#
# Youngs Moduli (GPa) = 141.37497 133.45536 50.14205
#
# Poissons Ratio (x) = 0.35694 0.02487
# Poissons Ratio (y) = 0.37812 0.15853
# Poissons Ratio (z) = 0.07011 0.42194
#
# Static dielectric constant tensor:
#      x y z
#    x 3.574310 0.000000 0.000900 
#    y 0.000000 4.100980 0.000000 
#    z 0.000900 0.000000 3.526370 
# 
# 
# High freq. dielectric constant tensor:
#      x y z
#    x 1.768790 0.000000 -0.000080 
#    y 0.000000 1.795230 0.000000 
#    z -0.000080 0.000000 1.775680 
# 
# From -- ./inp_files/142204.got.cif
#   From: 2010.06.25/outbox.cif.g09.slc.cpg/sg12_72_cif.got.tgz:142204.got - 2010.06.28 00:19:55.
