data_PCOD8108123
_publ_section_title
;
Structure prediction by ZEFSAII (Michael W. Deem and Ramdas Pophale) SiO2 
 PCOD8108123
Probable space group: C 2/M
;
_chemical_formula_sum "Si O2"
_cell_formula_units_Z 64
_cell_length_a 15.498280
_cell_length_b 8.579005
_cell_length_c 30.514899
_cell_angle_alpha 90.000000
_cell_angle_beta 129.421527
_cell_angle_gamma 90.000000
_cell_volume 3134.209771
_symmetry_space_group_name_H-M "C 2/M"
_symmetry_group_IT_number 12
_symmetry_cell_setting 'monoclinic'
loop_
_space_group_symop_operation_xyz
x,y,z
-x,y,-z
-x,-y,-z
x,-y,z
1/2+x,1/2+y,z
1/2-x,1/2+y,-z
1/2-x,1/2-y,-z
1/2+x,1/2-y,z
loop_
_atom_site_type_symbol
_atom_site_label
_atom_site_fract_x
_atom_site_fract_y
_atom_site_fract_z
Si Si1 0.239246 0.178709 0.323863
Si Si2 0.851098 0.818201 0.559966
Si Si3 0.171656 0.185095 0.138475
Si Si4 0.434394 0.818813 0.672922
Si Si5 0.824791 0.818563 0.262055
Si Si6 0.234464 0.815883 0.061929
Si Si7 0.918459 0.815872 0.065818
Si Si8 0.030744 0.679329 0.558839
O O1 0.132726 0.280812 0.304116
O O2 0.279777 0.224193 0.288915
O O3 0.338301 0.203670 0.390924
O O4 0.201132 0.000000 0.310493
O O5 0.750000 0.750000 0.500000
O O6 0.854513 0.729626 0.607169
O O7 0.966376 0.790695 0.571588
O O8 0.832542 0.000000 0.562757
O O9 0.252192 0.275507 0.196783
O O10 0.202379 0.242140 0.099709
O O11 0.045845 0.240202 0.107732
O O12 0.186467 0.000000 0.148741
O O13 0.547767 0.721941 0.707329
O O14 0.464465 0.000000 0.680798
O O15 0.815515 0.000000 0.269628
O O16 0.356339 0.750891 0.088538
O O17 0.238555 0.000000 0.061953
O O18 0.141831 0.752668 0.997720
O O19 0.912463 0.000000 0.064958
O O20 0.995174 0.500000 0.555851
O O21 0.000000 0.731211 0.500000
#
# Coordination Sequence:
#
# PCOD8108123 Si02
#       8
#     8   8   8   8   8   8   8   8
#     4  11  23  42  68  94 125 162 203 254 316 378
#     4  12  24  39  62  92 128 163 205 253 308 372
#     4  10  21  38  60  85 119 163 210 255 309 372
#     4  12  25  44  68  93 124 162 208 258 315 376
#     4  12  26  44  64  90 125 166 215 265 314 374
#     4   9  18  34  58  88 122 160 203 253 309 368
#     4   9  18  34  58  88 122 160 202 252 310 371
#     4  10  21  38  62  92 126 159 198 249 310 374
#
# _framework density 20.419820000000001
#
# number of rings (size 3 to 8) (size 9 to 14) (size 15 to 20)
#    0.000    1.375    1.250    4.875    0.000    5.250 
#    0.000    2.500    0.000    3.750    0.000    0.000 
#    0.000    0.000    0.000    0.000    0.000    0.000 
#
# Total GULP energy -396974.188318 kJ/mol
# GULP energy per Si atom -12405.443385 kJ/mol
# Density = 2.037334 g / cm^3
# Si number density = 20.419820 Si / 1000 Ang^3
#
#
#
# Elastic Constant Matrix: (Units=GPa)
#
#
# Indices 1 2 3 4 5 6 
#
# 1 119.8218 11.8795 35.4435 0.0000 7.9534 0.0000
# 2 11.8795 58.1315 16.6808 0.0000 0.5556 0.0000
# 3 35.4435 16.6808 92.7912 0.0000 9.1521 0.0000
# 4 0.0000 0.0000 0.0000 28.3795 0.0000 -0.8442
# 5 7.9534 0.5556 9.1521 0.0000 19.9893 0.0000
# 6 0.0000 0.0000 0.0000 -0.8442 0.0000 38.0631
#
#
#
# Elastic Compliance Matrix: (Units=1/GPa)
#
#
# Indices 1 2 3 4 5 6 
#
# 1 0.009557 -0.001000 -0.003245 0.000000 -0.002289 0.000000
# 2 -0.001000 0.018263 -0.003027 0.000000 0.001276 0.000000
# 3 -0.003245 -0.003027 0.013012 0.000000 -0.004583 0.000000
# 4 0.000000 0.000000 0.000000 0.035260 0.000000 0.000782
# 5 -0.002289 0.001276 -0.004583 0.000000 0.053000 0.000000
# 6 0.000000 0.000000 0.000000 0.000782 0.000000 0.026290
#
#
# Mechanical properties :
#
#
# Convention : Reuss Voigt Hill
#
# Bulk Modulus (GPa) = 38.03931 44.30577 41.17254
# Shear Modulus (GPa) = 27.98166 31.06908 29.52537
#
# Velocity S-wave (km/s) = 3.70580 3.90489 3.80665
# Velocity P-wave (km/s) = 6.08109 6.48656 6.28709
#
# Compressibility (1/GPa) = 0.02628859
#
# Stress axis : x y z
#
# Youngs Moduli (GPa) = 104.63946 54.75508 76.84947
#
# Poissons Ratio (x) = 0.05475 0.24936
# Poissons Ratio (y) = 0.10464 0.23263
# Poissons Ratio (z) = 0.33954 0.16575
#
# Static dielectric constant tensor:
#      x y z
#    x 3.822360 0.000000 -0.001720 
#    y 0.000000 3.661990 0.000000 
#    z -0.001720 0.000000 3.763640 
# 
# 
# High freq. dielectric constant tensor:
#      x y z
#    x 1.811130 0.000000 0.000280 
#    y 0.000000 1.792500 0.000000 
#    z 0.000280 0.000000 1.797000 
# 
# From -- ./inp_files/375679.got.cif
#   From: 2010.06.25/outbox.cif.g09.slc.cpg/sg12_188_cif.got.tgz:375679.got - 2010.06.28 00:19:55.
