data_PCOD8108909
_publ_section_title
;
Structure prediction by ZEFSAII (Michael W. Deem and Ramdas Pophale) SiO2 
 PCOD8108909
Probable space group: C 2/M
;
_chemical_formula_sum "Si O2"
_cell_formula_units_Z 48
_cell_length_a 19.900831
_cell_length_b 9.308393
_cell_length_c 32.799207
_cell_angle_alpha 90.000000
_cell_angle_beta 155.420986
_cell_angle_gamma 90.000000
_cell_volume 2527.248975
_symmetry_space_group_name_H-M "C 2/M"
_symmetry_group_IT_number 12
_symmetry_cell_setting 'monoclinic'
loop_
_space_group_symop_operation_xyz
x,y,z
-x,y,-z
-x,-y,-z
x,-y,z
1/2+x,1/2+y,z
1/2-x,1/2+y,-z
1/2-x,1/2-y,-z
1/2+x,1/2-y,z
loop_
_atom_site_type_symbol
_atom_site_label
_atom_site_fract_x
_atom_site_fract_y
_atom_site_fract_z
Si Si1 0.684240 0.832970 0.425126
Si Si2 0.553129 0.664135 0.122035
Si Si3 0.563268 0.333421 0.220758
Si Si4 0.226926 0.331372 0.076259
Si Si5 0.824278 0.664574 0.207975
Si Si6 0.324964 0.332585 0.416802
O O1 0.750000 0.750000 0.500000
O O2 0.504700 0.777758 0.315316
O O3 0.801150 0.801134 0.451530
O O4 0.679270 0.000000 0.433614
O O5 0.489194 0.500000 0.084468
O O6 0.579163 0.713039 0.182711
O O7 0.725331 0.679223 0.195119
O O8 0.425258 0.768561 0.031117
O O9 0.602208 0.500000 0.248513
O O10 0.384567 0.294428 0.137057
O O11 0.689628 0.245677 0.316496
O O12 0.201779 0.500000 0.068224
O O13 0.237415 0.260455 0.126303
O O14 0.828209 0.500000 0.194633
O O15 0.500000 0.274354 0.500000
O O16 0.307558 0.500000 0.397559
#
# Coordination Sequence:
#
# PCOD8108909 Si02
#       6
#     8   8   8   8   8   8
#     4  10  22  39  60  86 115 148 188 232 281 337
#     4  10  22  38  58  84 114 151 194 232 276 337
#     4  10  22  39  59  85 115 150 191 234 279 334
#     4  11  22  37  58  86 116 148 190 236 285 332
#     4  10  21  39  60  82 113 154 191 229 281 339
#     4  10  22  40  61  86 115 149 188 232 285 339
#
# _framework density 18.992984
#
# number of rings (size 3 to 8) (size 9 to 14) (size 15 to 20)
#    0.000    1.833    1.667    1.500    2.333    5.667 
#    0.000    0.000    0.000    0.000    0.000    0.000 
#    0.000    0.000    0.000    0.000    0.000    0.000 
#
# Total GULP energy -297732.046049 kJ/mol
# GULP energy per Si atom -12405.501919 kJ/mol
# Density = 1.894975 g / cm^3
# Si number density = 18.992984 Si / 1000 Ang^3
#
#
#
# Elastic Constant Matrix: (Units=GPa)
#
#
# Indices 1 2 3 4 5 6 
#
# 1 110.6875 34.3631 34.1576 -0.0005 -3.8284 -0.0013
# 2 34.3631 61.4071 47.9001 0.0011 -6.5687 0.0003
# 3 34.1576 47.9001 84.5656 0.0059 -1.1342 0.0085
# 4 -0.0005 0.0011 0.0059 -4.2217 0.0003 -75.9881
# 5 -3.8284 -6.5687 -1.1342 0.0003 37.1647 0.0002
# 6 -0.0013 0.0003 0.0085 -75.9881 0.0002 -90.0557
#
#
#
# Elastic Compliance Matrix: (Units=1/GPa)
#
#
# Indices 1 2 3 4 5 6 
#
# 1 0.011075 -0.004811 -0.001745 0.000000 0.000237 0.000000
# 2 -0.004811 0.032093 -0.016172 -0.000001 0.004683 -0.000001
# 3 -0.001745 -0.016172 0.021659 0.000001 -0.002377 0.000001
# 4 0.000000 -0.000001 0.000001 0.016696 0.000000 -0.014088
# 5 0.000237 0.004683 -0.002377 0.000000 0.027687 0.000000
# 6 0.000000 -0.000001 0.000001 -0.014088 0.000000 0.000783
#
#
# Mechanical properties :
#
#
# Convention : Reuss Voigt Hill
#
# Bulk Modulus (GPa) = 51.62671 54.38910 53.00790
# Shear Modulus (GPa) = 30.88247 -2.07327 14.40460
#
# Velocity S-wave (km/s) = 4.03674 -1.04593 2.75692
# Velocity P-wave (km/s) = 6.99771 5.21919 6.17284
#
# Compressibility (1/GPa) = 0.01936982
#
# Stress axis : x y z
#
# Youngs Moduli (GPa) = 90.29601 31.15962 46.17103
#
# Poissons Ratio (x) = 0.14990 0.08058
# Poissons Ratio (y) = 0.43438 0.74669
# Poissons Ratio (z) = 0.15759 0.50392
#
# Static dielectric constant tensor:
#      x y z
#    x 3.876260 -0.000010 0.153180 
#    y -0.000010 3.580220 0.000010 
#    z 0.153180 0.000010 3.476610 
# 
# 
# High freq. dielectric constant tensor:
#      x y z
#    x 1.756770 0.000000 0.004880 
#    y 0.000000 1.733480 0.000000 
#    z 0.004880 0.000000 1.740730 
# 
# From -- ./inp_files/230397.got.cif
#   From: 2010.06.25/outbox.cif.g09.slc.cpg/sg12_116_cif.got.tgz:230397.got - 2010.06.28 00:19:55.
