data_PCOD8108771
_publ_section_title
;
Structure prediction by ZEFSAII (Michael W. Deem and Ramdas Pophale) SiO2 
 PCOD8108771
Probable space group: C 2/M
;
_chemical_formula_sum "Si O2"
_cell_formula_units_Z 56
_cell_length_a 22.718407
_cell_length_b 17.201965
_cell_length_c 13.632418
_cell_angle_alpha 90.000000
_cell_angle_beta 150.212591
_cell_angle_gamma 90.000000
_cell_volume 2646.645516
_symmetry_space_group_name_H-M "C 2/M"
_symmetry_group_IT_number 12
_symmetry_cell_setting 'monoclinic'
loop_
_space_group_symop_operation_xyz
x,y,z
-x,y,-z
-x,-y,-z
x,-y,z
1/2+x,1/2+y,z
1/2-x,1/2+y,-z
1/2-x,1/2-y,-z
1/2+x,1/2-y,z
loop_
_atom_site_type_symbol
_atom_site_label
_atom_site_fract_x
_atom_site_fract_y
_atom_site_fract_z
Si Si1 0.319903 0.670858 0.099236
Si Si2 0.635366 0.413730 0.223686
Si Si3 0.685627 0.688239 0.472581
Si Si4 0.775681 0.816240 0.821956
Si Si5 0.888336 0.333307 0.910235
Si Si6 0.617231 0.089614 0.900496
Si Si7 0.468493 0.229862 0.601249
O O1 0.451221 0.697861 0.323162
O O2 0.250000 0.750000 0.000000
O O3 0.312707 0.639733 0.975543
O O4 0.256910 0.608215 0.079396
O O5 0.686722 0.500000 0.300959
O O6 0.639392 0.380814 0.338729
O O7 0.717137 0.369873 0.263527
O O8 0.500000 0.410675 0.000000
O O9 0.750000 0.750000 0.500000
O O10 0.771629 0.649878 0.677607
O O11 0.579620 0.737070 0.366019
O O12 0.868305 0.745850 0.942261
O O13 0.638785 0.786195 0.630379
O O14 0.906776 0.400678 0.017701
O O15 0.000000 0.325575 0.000000
O O16 0.537058 0.148314 0.719840
O O17 0.589330 0.000000 0.832267
#
# Coordination Sequence:
#
# PCOD8108771 Si02
#       7
#     8   8   8   8   8   8   8
#     4  10  21  40  63  89 120 166 212 262 306 378
#     4  11  24  38  59  92 135 171 204 262 322 370
#     4  11  21  37  64  97 125 168 220 258 307 382
#     4  11  21  37  66  95 123 161 222 259 309 378
#     4  11  22  38  66  97 126 168 209 259 315 381
#     4  11  25  43  62  94 132 166 208 266 327 375
#     4  10  21  38  65  95 119 169 215 263 311 373
#
# _framework density 21.158857999999999
#
# number of rings (size 3 to 8) (size 9 to 14) (size 15 to 20)
#    0.000    1.286    5.714    2.143    0.000    4.286 
#    0.000    1.429    0.000    4.286    0.000    0.000 
#    0.000    0.000    0.000    0.000    0.000    0.000 
#
# Total GULP energy -347041.654707 kJ/mol
# GULP energy per Si atom -12394.344811 kJ/mol
# Density = 2.111070 g / cm^3
# Si number density = 21.158858 Si / 1000 Ang^3
#
#
#
# Elastic Constant Matrix: (Units=GPa)
#
#
# Indices 1 2 3 4 5 6 
#
# 1 84.2524 20.8604 21.7572 0.0000 7.2502 0.0000
# 2 20.8604 80.8416 38.6678 0.0000 5.9060 0.0000
# 3 21.7572 38.6678 75.5256 0.0000 13.0322 0.0000
# 4 0.0000 0.0000 0.0000 8.7463 0.0000 7.2998
# 5 7.2502 5.9060 13.0322 0.0000 40.1167 0.0000
# 6 0.0000 0.0000 0.0000 7.2998 0.0000 25.5242
#
#
#
# Elastic Compliance Matrix: (Units=1/GPa)
#
#
# Indices 1 2 3 4 5 6 
#
# 1 0.013142 -0.002109 -0.002490 0.000000 -0.001256 0.000000
# 2 -0.002109 0.016724 -0.008047 0.000000 0.000533 0.000000
# 3 -0.002490 -0.008047 0.018852 0.000000 -0.004490 0.000000
# 4 0.000000 0.000000 0.000000 0.150181 0.000000 -0.042951
# 5 -0.001256 0.000533 -0.004490 0.000000 0.026534 0.000000
# 6 0.000000 0.000000 0.000000 -0.042951 0.000000 0.051462
#
#
# Mechanical properties :
#
#
# Convention : Reuss Voigt Hill
#
# Bulk Modulus (GPa) = 42.68378 44.79893 43.74135
# Shear Modulus (GPa) = 16.12924 25.49972 20.81448
#
# Velocity S-wave (km/s) = 2.76396 3.47530 3.13984
# Velocity P-wave (km/s) = 5.51387 6.10919 5.81915
#
# Compressibility (1/GPa) = 0.02342810
#
# Stress axis : x y z
#
# Youngs Moduli (GPa) = 76.09089 59.79425 53.04372
#
# Poissons Ratio (x) = 0.12608 0.13206
# Poissons Ratio (y) = 0.16045 0.42684
# Poissons Ratio (z) = 0.18944 0.48116
#
# Static dielectric constant tensor:
#      x y z
#    x 5.793230 0.000000 -0.656090 
#    y 0.000000 3.790550 0.000000 
#    z -0.656090 0.000000 6.198640 
# 
# 
# High freq. dielectric constant tensor:
#      x y z
#    x 1.846480 0.000000 0.005850 
#    y 0.000000 1.790010 0.000000 
#    z 0.005850 0.000000 1.833640 
# 
# From -- ./inp_files/234694.got.cif
#   From: 2010.06.25/outbox.cif.g09.slc.cpg/sg12_118_cif.got.tgz:234694.got - 2010.06.28 00:19:55.
