data_PCOD8108819
_publ_section_title
;
Structure prediction by ZEFSAII (Michael W. Deem and Ramdas Pophale) SiO2 
 PCOD8108819
Probable space group: C 2/M
;
_chemical_formula_sum "Si O2"
_cell_formula_units_Z 52
_cell_length_a 15.876626
_cell_length_b 29.235874
_cell_length_c 5.379540
_cell_angle_alpha 90.000000
_cell_angle_beta 108.948769
_cell_angle_gamma 90.000000
_cell_volume 2361.690698
_symmetry_space_group_name_H-M "C 2/M"
_symmetry_group_IT_number 12
_symmetry_cell_setting 'monoclinic'
loop_
_space_group_symop_operation_xyz
x,y,z
-x,y,-z
-x,-y,-z
x,-y,z
1/2+x,1/2+y,z
1/2-x,1/2+y,-z
1/2-x,1/2-y,-z
1/2+x,1/2-y,z
loop_
_atom_site_type_symbol
_atom_site_label
_atom_site_fract_x
_atom_site_fract_y
_atom_site_fract_z
Si Si1 0.750930 0.448791 0.516000
Si Si2 0.500000 0.683257 0.000000
Si Si3 0.793593 0.303839 0.240926
Si Si4 0.950177 0.357144 0.201606
Si Si5 0.627032 0.285566 0.758652
Si Si6 0.863141 0.448788 0.123795
Si Si7 0.837478 0.857722 0.595806
O O1 0.710292 0.500000 0.474258
O O2 0.805193 0.440042 0.314957
O O3 0.671019 0.412098 0.449780
O O4 0.808396 0.441571 0.818408
O O5 0.471060 0.716069 0.203623
O O6 0.585497 0.651106 0.128184
O O7 0.852156 0.334221 0.106340
O O8 0.854003 0.260140 0.389138
O O9 0.760311 0.336522 0.432389
O O10 0.703060 0.284489 0.039543
O O11 0.942861 0.412310 0.196404
O O12 0.000000 0.340899 0.500000
O O13 0.000000 0.340799 0.000000
O O14 0.630336 0.333484 0.622002
O O15 0.903892 0.500000 0.169754
#
# Coordination Sequence:
#
# PCOD8108819 Si02
#       7
#     8   4   8   8   8   8   8
#     4  10  21  38  69  96 123 165 214 263 315 385
#     4  10  24  38  59 100 118 168 197 270 318 384
#     4  10  23  40  62  92 118 175 212 264 310 387
#     4  12  26  39  60  94 133 170 211 266 320 371
#     4  10  22  41  65  87 126 161 220 257 324 376
#     4  10  21  41  63  91 125 168 217 261 314 376
#     4  11  21  40  67  88 129 160 216 256 323 380
#
# _framework density 22.018125999999999
#
# number of rings (size 3 to 8) (size 9 to 14) (size 15 to 20)
#    0.000    1.538    1.538    2.769    5.385    1.846 
#    0.000    0.385    0.000    1.846    0.000    0.000 
#    0.000    0.000    0.000    0.000    0.000    0.000 
#
# Total GULP energy -322248.069189 kJ/mol
# GULP energy per Si atom -12394.156507 kJ/mol
# Density = 2.196801 g / cm^3
# Si number density = 22.018126 Si / 1000 Ang^3
#
#
#
# Elastic Constant Matrix: (Units=GPa)
#
#
# Indices 1 2 3 4 5 6 
#
# 1 126.8763 49.0249 29.9026 0.0000 -24.8666 0.0000
# 2 49.0249 118.5743 18.3558 0.0000 -5.8117 0.0000
# 3 29.9026 18.3558 90.7793 0.0000 -27.3425 0.0000
# 4 0.0000 0.0000 0.0000 29.0908 0.0000 -1.3699
# 5 -24.8666 -5.8117 -27.3425 0.0000 31.9399 0.0000
# 6 0.0000 0.0000 0.0000 -1.3699 0.0000 31.7019
#
#
#
# Elastic Compliance Matrix: (Units=1/GPa)
#
#
# Indices 1 2 3 4 5 6 
#
# 1 0.011053 -0.004118 -0.000596 0.000000 0.007346 0.000000
# 2 -0.004118 0.010240 -0.001507 0.000000 -0.002633 0.000000
# 3 -0.000596 -0.001507 0.015218 0.000000 0.012290 0.000000
# 4 0.000000 0.000000 0.000000 0.034445 0.000000 0.001488
# 5 0.007346 -0.002633 0.012290 0.000000 0.047070 0.000000
# 6 0.000000 0.000000 0.000000 0.001488 0.000000 0.031608
#
#
# Mechanical properties :
#
#
# Convention : Reuss Voigt Hill
#
# Bulk Modulus (GPa) = 41.54451 58.97740 50.26096
# Shear Modulus (GPa) = 29.39464 34.47629 31.93546
#
# Velocity S-wave (km/s) = 3.65776 3.96133 3.81257
# Velocity P-wave (km/s) = 6.06203 6.91136 6.50058
#
# Compressibility (1/GPa) = 0.02407057
#
# Stress axis : x y z
#
# Youngs Moduli (GPa) = 90.47442 97.65383 65.71006
#
# Poissons Ratio (x) = 0.40210 0.03914
# Poissons Ratio (y) = 0.37254 0.09904
# Poissons Ratio (z) = 0.05389 0.14719
#
# Static dielectric constant tensor:
#      x y z
#    x 4.025750 0.000000 -0.134860 
#    y 0.000000 4.214420 0.000000 
#    z -0.134860 0.000000 3.857320 
# 
# 
# High freq. dielectric constant tensor:
#      x y z
#    x 1.855670 0.000000 -0.015480 
#    y 0.000000 1.870870 0.000000 
#    z -0.015480 0.000000 1.860660 
# 
# From -- ./inp_files/13209.got.cif
#   From: 2010.06.25/outbox.cif.g09.slc.cpg/sg12_7_cif.got.tgz:13209.got - 2010.06.28 00:19:55.
