data_PCOD8108537
_publ_section_title
;
Structure prediction by ZEFSAII (Michael W. Deem and Ramdas Pophale) SiO2 
 PCOD8108537
Probable space group: C 2/M
;
_chemical_formula_sum "Si O2"
_cell_formula_units_Z 48
_cell_length_a 29.258776
_cell_length_b 8.733623
_cell_length_c 14.943312
_cell_angle_alpha 90.000000
_cell_angle_beta 40.186612
_cell_angle_gamma 90.000000
_cell_volume 2464.025081
_symmetry_space_group_name_H-M "C 2/M"
_symmetry_group_IT_number 12
_symmetry_cell_setting 'monoclinic'
loop_
_space_group_symop_operation_xyz
x,y,z
-x,y,-z
-x,-y,-z
x,-y,z
1/2+x,1/2+y,z
1/2-x,1/2+y,-z
1/2-x,1/2-y,-z
1/2+x,1/2-y,z
loop_
_atom_site_type_symbol
_atom_site_label
_atom_site_fract_x
_atom_site_fract_y
_atom_site_fract_z
Si Si1 0.327590 0.321380 0.103471
Si Si2 0.419340 0.321868 0.630667
Si Si3 0.916730 0.323144 0.123861
Si Si4 0.325309 0.677502 0.408605
Si Si5 0.684142 0.325382 0.373051
Si Si6 0.823704 0.320600 0.920121
O O1 0.333576 0.500000 0.075463
O O2 0.385104 0.273461 0.090150
O O3 0.249409 0.285357 0.256161
O O4 0.344972 0.233202 0.986668
O O5 0.500000 0.269042 0.500000
O O6 0.413580 0.500000 0.664322
O O7 0.380039 0.284651 0.596684
O O8 0.385923 0.224939 0.760233
O O9 0.895716 0.500000 0.142948
O O10 0.886140 0.263831 0.263327
O O11 0.000000 0.297840 0.000000
O O12 0.323669 0.500000 0.383265
O O13 0.250000 0.750000 0.500000
O O14 0.343910 0.699550 0.484834
O O15 0.710086 0.500000 0.320106
O O16 0.813371 0.500000 0.935664
O O17 0.750000 0.250000 0.000000
#
# Coordination Sequence:
#
# PCOD8108537 Si02
#       6
#     8   8   8   8   8   8
#     4  12  24  39  65  95 123 164 213 262 315 377
#     4  10  22  41  64  93 129 167 207 258 317 373
#     4  11  25  44  64  91 130 170 208 261 320 372
#     4  11  22  37  62  93 125 165 211 258 309 372
#     4  10  21  38  62  90 125 164 206 259 311 370
#     4  12  24  40  64  94 128 167 213 262 313 373
#
# _framework density 19.480321
#
# number of rings (size 3 to 8) (size 9 to 14) (size 15 to 20)
#    0.000    1.000    3.333    4.000    0.000    3.667 
#    0.000    1.667    0.000    0.000    0.000    0.000 
#    0.000    0.000    0.000    0.000    0.000    0.000 
#
# Total GULP energy -297767.971711 kJ/mol
# GULP energy per Si atom -12406.998821 kJ/mol
# Density = 1.943598 g / cm^3
# Si number density = 19.480321 Si / 1000 Ang^3
#
#
#
# Elastic Constant Matrix: (Units=GPa)
#
#
# Indices 1 2 3 4 5 6 
#
# 1 114.3425 37.4046 61.1983 0.0002 5.4073 -0.0001
# 2 37.4046 118.7041 64.8303 0.0010 -3.8176 -0.0006
# 3 61.1983 64.8303 141.1224 0.0003 5.1277 -0.0002
# 4 0.0002 0.0010 0.0003 32.4036 0.0000 10.6572
# 5 5.4073 -3.8176 5.1277 0.0000 36.4995 -0.0001
# 6 -0.0001 -0.0006 -0.0002 10.6572 -0.0001 17.9548
#
#
#
# Elastic Compliance Matrix: (Units=1/GPa)
#
#
# Indices 1 2 3 4 5 6 
#
# 1 0.011571 -0.001295 -0.004378 0.000000 -0.001235 0.000000
# 2 -0.001295 0.011525 -0.004808 0.000000 0.002073 0.000001
# 3 -0.004378 -0.004808 0.011246 0.000000 -0.001434 0.000000
# 4 0.000000 0.000000 0.000000 0.038347 0.000000 -0.022761
# 5 -0.001235 0.002073 -0.001434 0.000000 0.027999 0.000000
# 6 0.000000 0.000001 0.000000 -0.022761 0.000000 0.069205
#
#
# Mechanical properties :
#
#
# Convention : Reuss Voigt Hill
#
# Bulk Modulus (GPa) = 74.74278 77.89281 76.31780
# Shear Modulus (GPa) = 25.59978 31.42063 28.51021
#
# Velocity S-wave (km/s) = 3.62903 4.02050 3.82977
# Velocity P-wave (km/s) = 7.48408 7.85014 7.66930
#
# Compressibility (1/GPa) = 0.01337922
#
# Stress axis : x y z
#
# Youngs Moduli (GPa) = 86.42448 86.76783 88.92320
#
# Poissons Ratio (x) = 0.11233 0.38932
# Poissons Ratio (y) = 0.11189 0.42758
# Poissons Ratio (z) = 0.37838 0.41721
#
# Static dielectric constant tensor:
#      x y z
#    x 3.885610 0.000000 -0.244210 
#    y 0.000000 3.749350 0.000000 
#    z -0.244210 0.000000 3.321160 
# 
# 
# High freq. dielectric constant tensor:
#      x y z
#    x 1.769240 0.000000 0.011150 
#    y 0.000000 1.767770 0.000000 
#    z 0.011150 0.000000 1.762270 
# 
# From -- ./inp_files/229968.got.cif
#   From: 2010.06.25/outbox.cif.g09.slc.cpg/sg12_115_cif.got.tgz:229968.got - 2010.06.28 00:19:55.
