data_PCOD8108010
_publ_section_title
;
Structure prediction by ZEFSAII (Michael W. Deem and Ramdas Pophale) SiO2 
 PCOD8108010
Probable space group: C 2/M
;
_chemical_formula_sum "Si O2"
_cell_formula_units_Z 64
_cell_length_a 18.775652
_cell_length_b 8.723395
_cell_length_c 30.719901
_cell_angle_alpha 90.000000
_cell_angle_beta 40.769067
_cell_angle_gamma 90.000000
_cell_volume 3285.650913
_symmetry_space_group_name_H-M "C 2/M"
_symmetry_group_IT_number 12
_symmetry_cell_setting 'monoclinic'
loop_
_space_group_symop_operation_xyz
x,y,z
-x,y,-z
-x,-y,-z
x,-y,z
1/2+x,1/2+y,z
1/2-x,1/2+y,-z
1/2-x,1/2-y,-z
1/2+x,1/2-y,z
loop_
_atom_site_type_symbol
_atom_site_label
_atom_site_fract_x
_atom_site_fract_y
_atom_site_fract_z
Si Si1 0.993997 0.178888 0.066977
Si Si2 0.925060 0.176690 0.319832
Si Si3 0.035004 0.320397 0.435071
Si Si4 0.232773 0.680028 0.672209
Si Si5 0.949698 0.672163 0.176200
Si Si6 0.631446 0.322103 0.555179
Si Si7 0.890305 0.326797 0.819559
Si Si8 0.838547 0.679541 0.069607
O O1 0.971824 0.209591 0.127610
O O2 0.895343 0.248886 0.085343
O O3 0.000020 0.000000 0.055474
O O4 0.108912 0.252054 0.998796
O O5 0.813095 0.235198 0.349449
O O6 0.920072 0.200036 0.373578
O O7 0.028315 0.272772 0.255841
O O8 0.940948 0.000000 0.299790
O O9 0.054723 0.500000 0.419991
O O10 0.145837 0.231872 0.372856
O O11 0.000000 0.278946 0.500000
O O12 0.941750 0.265709 0.445737
O O13 0.227696 0.500000 0.665121
O O14 0.159298 0.722710 0.747954
O O15 0.936473 0.500000 0.163635
O O16 0.051744 0.680446 0.160941
O O17 0.638622 0.500000 0.538976
O O18 0.750000 0.250000 0.500000
O O19 0.852960 0.500000 0.826143
O O20 0.788464 0.214663 0.869083
O O21 0.858021 0.500000 0.060733
#
# Coordination Sequence:
#
# PCOD8108010 Si02
#       8
#     8   8   8   8   8   8   8   8
#     4  11  22  37  58  83 112 147 190 235 280 335
#     4  10  21  38  59  85 117 150 186 230 282 337
#     4  11  24  40  59  85 116 150 190 236 284 335
#     4  10  21  38  61  86 114 150 190 233 280 334
#     4   9  20  38  58  83 115 148 185 230 281 335
#     4  11  24  40  60  86 116 151 190 233 281 336
#     4  10  21  38  60  86 115 148 189 234 279 333
#     4  11  22  38  59  81 112 151 188 232 286 337
#
# _framework density 19.478636000000002
#
# number of rings (size 3 to 8) (size 9 to 14) (size 15 to 20)
#    0.000    1.625    0.000    6.375    0.000   10.500 
#    0.000    1.250    0.000    0.000    0.000    0.000 
#    0.000    0.000    0.000    0.000    0.000    0.000 
#
# Total GULP energy -396968.740534 kJ/mol
# GULP energy per Si atom -12405.273142 kJ/mol
# Density = 1.943430 g / cm^3
# Si number density = 19.478636 Si / 1000 Ang^3
#
#
#
# Elastic Constant Matrix: (Units=GPa)
#
#
# Indices 1 2 3 4 5 6 
#
# 1 91.0542 36.7926 54.8704 0.0001 -1.5663 0.0023
# 2 36.7926 122.9442 43.4694 0.0012 9.8936 0.0066
# 3 54.8704 43.4694 90.7866 0.0001 -5.1606 0.0012
# 4 0.0001 0.0012 0.0001 35.4684 -0.0004 -3.7192
# 5 -1.5663 9.8936 -5.1606 -0.0004 37.2321 -0.0003
# 6 0.0023 0.0066 0.0012 -3.7192 -0.0003 35.2783
#
#
#
# Elastic Compliance Matrix: (Units=1/GPa)
#
#
# Indices 1 2 3 4 5 6 
#
# 1 0.017604 -0.001797 -0.009787 0.000000 -0.000139 0.000000
# 2 -0.001797 0.010388 -0.004082 -0.000001 -0.003402 -0.000002
# 3 -0.009787 -0.004082 0.019073 0.000000 0.003316 0.000001
# 4 0.000000 -0.000001 0.000000 0.028509 0.000000 0.003006
# 5 -0.000139 -0.003402 0.003316 0.000000 0.028216 0.000001
# 6 0.000000 -0.000002 0.000001 0.003006 0.000001 0.028663
#
#
# Mechanical properties :
#
#
# Convention : Reuss Voigt Hill
#
# Bulk Modulus (GPa) = 63.55503 63.89445 63.72474
# Shear Modulus (GPa) = 29.58063 32.90591 31.24327
#
# Velocity S-wave (km/s) = 3.90117 4.11461 4.00931
# Velocity P-wave (km/s) = 7.27950 7.44627 7.36335
#
# Compressibility (1/GPa) = 0.01573440
#
# Stress axis : x y z
#
# Youngs Moduli (GPa) = 56.80528 96.26244 52.43017
#
# Poissons Ratio (x) = 0.17294 0.51315
# Poissons Ratio (y) = 0.10205 0.21400
# Poissons Ratio (z) = 0.55597 0.39290
#
# Static dielectric constant tensor:
#      x y z
#    x 3.475280 0.000000 -0.005620 
#    y 0.000000 3.718600 0.000000 
#    z -0.005620 0.000000 3.605440 
# 
# 
# High freq. dielectric constant tensor:
#      x y z
#    x 1.755440 0.000000 -0.001800 
#    y 0.000000 1.775430 0.000000 
#    z -0.001800 0.000000 1.767840 
# 
# From -- ./inp_files/378121.got.cif
#   From: 2010.06.25/outbox.cif.g09.slc.cpg/sg12_190_cif.got.tgz:378121.got - 2010.06.28 00:19:55.
