data_PCOD8108132
_publ_section_title
;
Structure prediction by ZEFSAII (Michael W. Deem and Ramdas Pophale) SiO2 
 PCOD8108132
Probable space group: C 2/M
;
_chemical_formula_sum "Si O2"
_cell_formula_units_Z 64
_cell_length_a 14.476903
_cell_length_b 18.402370
_cell_length_c 22.052791
_cell_angle_alpha 90.000000
_cell_angle_beta 34.141886
_cell_angle_gamma 90.000000
_cell_volume 3297.348482
_symmetry_space_group_name_H-M "C 2/M"
_symmetry_group_IT_number 12
_symmetry_cell_setting 'monoclinic'
loop_
_space_group_symop_operation_xyz
x,y,z
-x,y,-z
-x,-y,-z
x,-y,z
1/2+x,1/2+y,z
1/2-x,1/2+y,-z
1/2-x,1/2-y,-z
1/2+x,1/2-y,z
loop_
_atom_site_type_symbol
_atom_site_label
_atom_site_fract_x
_atom_site_fract_y
_atom_site_fract_z
Si Si1 0.830189 0.082239 0.066873
Si Si2 0.853560 0.696410 0.624427
Si Si3 0.847852 0.690366 0.909512
Si Si4 0.366270 0.083791 0.228770
Si Si5 0.279507 0.124400 0.411879
Si Si6 0.559870 0.343134 0.353419
Si Si7 0.934915 0.769841 0.301582
Si Si8 0.412219 0.079398 0.691438
O O1 0.789033 0.131048 0.031906
O O2 0.682638 0.089805 0.194266
O O3 0.853079 0.000000 0.031895
O O4 0.000000 0.113065 0.000000
O O5 0.880780 0.775929 0.637460
O O6 0.678936 0.688138 0.685064
O O7 0.846385 0.638852 0.681689
O O8 0.000000 0.675592 0.500000
O O9 0.992729 0.643818 0.863873
O O10 0.914672 0.730506 0.813482
O O11 0.750000 0.750000 0.000000
O O12 0.310929 0.091807 0.328589
O O13 0.212366 0.100858 0.268316
O O14 0.424984 0.000000 0.186332
O O15 0.317557 0.210178 0.396325
O O16 0.393958 0.085195 0.399374
O O17 0.089854 0.114657 0.532946
O O18 0.508970 0.321914 0.312855
O O19 0.376749 0.000000 0.682767
#
# Coordination Sequence:
#
# PCOD8108132 Si02
#       8
#     8   8   8   8   8   8   8   8
#     4  10  21  38  60  86 115 151 197 253 314 358
#     4  12  21  36  59  86 123 162 207 245 296 366
#     4  11  23  38  63  91 117 152 203 257 309 360
#     4  11  23  40  62  92 128 159 198 254 308 361
#     4  11  19  35  62  93 123 157 208 251 298 360
#     4  12  21  37  62  91 124 167 207 244 302 366
#     4  11  22  36  58  90 118 158 203 260 302 353
#     4  11  23  38  59  86 123 163 199 255 311 357
#
# _framework density 19.409535999999999
#
# number of rings (size 3 to 8) (size 9 to 14) (size 15 to 20)
#    0.000    0.875    7.500    2.250    1.750    2.750 
#    0.000    0.625    0.000    2.250    0.000    0.000 
#    0.000    0.000    0.000    0.000    0.000    0.000 
#
# Total GULP energy -396772.192616 kJ/mol
# GULP energy per Si atom -12399.131019 kJ/mol
# Density = 1.936536 g / cm^3
# Si number density = 19.409536 Si / 1000 Ang^3
#
#
#
# Elastic Constant Matrix: (Units=GPa)
#
#
# Indices 1 2 3 4 5 6 
#
# 1 112.9721 34.9863 28.9966 -0.0010 -26.1241 0.0007
# 2 34.9863 95.5237 38.6249 -0.0026 -7.3217 0.0001
# 3 28.9966 38.6249 77.0686 -0.0094 -26.0799 0.0017
# 4 -0.0010 -0.0026 -0.0094 25.8644 0.0007 1.5126
# 5 -26.1241 -7.3217 -26.0799 0.0007 29.6996 -0.0003
# 6 0.0007 0.0001 0.0017 1.5126 -0.0003 29.1667
#
#
#
# Elastic Compliance Matrix: (Units=1/GPa)
#
#
# Indices 1 2 3 4 5 6 
#
# 1 0.012350 -0.004131 0.001074 0.000000 0.010788 0.000000
# 2 -0.004131 0.014790 -0.008329 -0.000002 -0.007301 0.000001
# 3 0.001074 -0.008329 0.023292 0.000007 0.019345 -0.000002
# 4 0.000000 -0.000002 0.000007 0.038781 0.000005 -0.002011
# 5 0.010788 -0.007301 0.019345 0.000005 0.058347 -0.000001
# 6 0.000000 0.000001 -0.000002 -0.002011 -0.000001 0.034390
#
#
# Mechanical properties :
#
#
# Convention : Reuss Voigt Hill
#
# Bulk Modulus (GPa) = 36.15201 54.53109 45.34155
# Shear Modulus (GPa) = 23.37109 29.14325 26.25717
#
# Velocity S-wave (km/s) = 3.47378 3.87911 3.68203
# Velocity P-wave (km/s) = 5.89541 6.94401 6.44109
#
# Compressibility (1/GPa) = 0.02766098
#
# Stress axis : x y z
#
# Youngs Moduli (GPa) = 80.97181 67.61496 42.93398
#
# Poissons Ratio (x) = 0.27930 -0.04613
# Poissons Ratio (y) = 0.33448 0.35758
# Poissons Ratio (z) = -0.08700 0.56314
#
# Static dielectric constant tensor:
#      x y z
#    x 3.552180 0.000000 -0.304950 
#    y 0.000000 3.592400 0.000010 
#    z -0.304950 0.000010 3.573100 
# 
# 
# High freq. dielectric constant tensor:
#      x y z
#    x 1.752430 0.000000 -0.027320 
#    y 0.000000 1.751250 0.000000 
#    z -0.027320 0.000000 1.740260 
# 
# From -- ./inp_files/340814.got.cif
#   From: 2010.06.25/outbox.cif.g09.slc.cpg/sg12_171_cif.got.tgz:340814.got - 2010.06.28 00:19:55.
