data_PCOD8108516
_publ_section_title
;
Structure prediction by ZEFSAII (Michael W. Deem and Ramdas Pophale) SiO2 
 PCOD8108516
Probable space group: C 2/M
;
_chemical_formula_sum "Si O2"
_cell_formula_units_Z 56
_cell_length_a 13.801236
_cell_length_b 21.936865
_cell_length_c 8.751563
_cell_angle_alpha 90.000000
_cell_angle_beta 87.022142
_cell_angle_gamma 90.000000
_cell_volume 2646.009128
_symmetry_space_group_name_H-M "C 2/M"
_symmetry_group_IT_number 12
_symmetry_cell_setting 'monoclinic'
loop_
_space_group_symop_operation_xyz
x,y,z
-x,y,-z
-x,-y,-z
x,-y,z
1/2+x,1/2+y,z
1/2-x,1/2+y,-z
1/2-x,1/2-y,-z
1/2+x,1/2-y,z
loop_
_atom_site_type_symbol
_atom_site_label
_atom_site_fract_x
_atom_site_fract_y
_atom_site_fract_z
Si Si1 0.884262 0.130134 0.999161
Si Si2 0.248822 0.395814 0.479130
Si Si3 0.908925 0.658474 0.920491
Si Si4 0.441821 0.068957 0.651843
Si Si5 0.103751 0.000000 0.918533
Si Si6 0.235880 0.794130 0.757513
Si Si7 0.728544 0.155326 0.795011
Si Si8 0.603920 0.500000 0.564469
O O1 0.842851 0.176838 0.124939
O O2 0.842099 0.062068 0.036550
O O3 0.841760 0.148729 0.836630
O O4 0.000000 0.132761 0.000000
O O5 0.172037 0.430619 0.379303
O O6 0.271761 0.329550 0.403128
O O7 0.205906 0.386773 0.651975
O O8 0.342377 0.438124 0.488936
O O9 0.956089 0.606603 0.807348
O O10 0.845209 0.703535 0.820126
O O11 0.837817 0.632678 0.058363
O O12 0.000000 0.690953 0.000000
O O13 0.500000 0.096394 0.500000
O O14 0.476446 0.000000 0.680429
O O15 0.087375 0.000000 0.742730
O O16 0.000000 0.000000 0.000000
O O17 0.206555 0.724154 0.743205
O O18 0.500000 0.500000 0.500000
#
# Coordination Sequence:
#
# PCOD8108516 Si02
#       8
#     8   8   8   8   4   8   8   4
#     4  10  21  38  62  89 124 161 204 255 317 364
#     4  11  23  41  62  89 123 164 200 254 308 362
#     4  10  21  39  61  88 118 153 200 252 297 355
#     4  10  21  40  63  86 119 159 197 243 309 364
#     4  10  22  40  64  89 124 162 205 254 310 368
#     4  10  22  41  61  86 121 166 204 251 303 366
#     4  11  24  38  60  92 122 159 212 251 300 368
#     4  12  26  42  65  93 127 164 207 251 310 377
#
# _framework density 21.163948999999999
#
# number of rings (size 3 to 8) (size 9 to 14) (size 15 to 20)
#    0.000    1.571    2.143    3.000    4.000    2.571 
#    1.286    0.000    0.000    5.143    0.000    0.000 
#    0.000    0.000    0.000    0.000    0.000    0.000 
#
# Total GULP energy -347074.331749 kJ/mol
# GULP energy per Si atom -12395.511848 kJ/mol
# Density = 2.111578 g / cm^3
# Si number density = 21.163949 Si / 1000 Ang^3
#
#
#
# Elastic Constant Matrix: (Units=GPa)
#
#
# Indices 1 2 3 4 5 6 
#
# 1 89.9450 23.8105 13.8515 0.0000 4.7025 0.0000
# 2 23.8105 103.5815 38.8879 0.0000 -4.6172 0.0000
# 3 13.8515 38.8879 118.0802 0.0000 -16.4426 0.0000
# 4 0.0000 0.0000 0.0000 24.5247 0.0000 -4.0760
# 5 4.7025 -4.6172 -16.4426 0.0000 27.0849 0.0000
# 6 0.0000 0.0000 0.0000 -4.0760 0.0000 24.3994
#
#
#
# Elastic Compliance Matrix: (Units=1/GPa)
#
#
# Indices 1 2 3 4 5 6 
#
# 1 0.012113 -0.002541 -0.001024 0.000000 -0.003158 0.000000
# 2 -0.002541 0.011552 -0.003464 0.000000 0.000308 0.000000
# 3 -0.001024 -0.003464 0.010565 0.000000 0.006001 0.000000
# 4 0.000000 0.000000 0.000000 0.041940 0.000000 0.007006
# 5 -0.003158 0.000308 0.006001 0.000000 0.041165 0.000000
# 6 0.000000 0.000000 0.000000 0.007006 0.000000 0.042155
#
#
# Mechanical properties :
#
#
# Convention : Reuss Voigt Hill
#
# Bulk Modulus (GPa) = 49.56843 51.63404 50.60123
# Shear Modulus (GPa) = 27.73583 30.87225 29.30404
#
# Velocity S-wave (km/s) = 3.62404 3.82346 3.72509
# Velocity P-wave (km/s) = 6.40184 6.62887 6.51635
#
# Compressibility (1/GPa) = 0.02017413
#
# Stress axis : x y z
#
# Youngs Moduli (GPa) = 82.55387 86.56203 94.64930
#
# Poissons Ratio (x) = 0.21994 0.09691
# Poissons Ratio (y) = 0.20976 0.32784
# Poissons Ratio (z) = 0.08453 0.29982
#
# Static dielectric constant tensor:
#      x y z
#    x 3.823010 0.000000 0.013910 
#    y 0.000000 3.998160 0.000000 
#    z 0.013910 0.000000 3.958000 
# 
# 
# High freq. dielectric constant tensor:
#      x y z
#    x 1.825130 0.000000 -0.003030 
#    y 0.000000 1.820270 0.000000 
#    z -0.003030 0.000000 1.835610 
# 
# From -- ./inp_files/64119.got.cif
#   From: 2010.06.25/outbox.cif.g09.slc.cpg/sg12_33_cif.got.tgz:64119.got - 2010.06.28 00:19:55.
