data_PCOD8108366
_publ_section_title
;
Structure prediction by ZEFSAII (Michael W. Deem and Ramdas Pophale) SiO2 
 PCOD8108366
Probable space group: C 2/M
;
_chemical_formula_sum "Si O2"
_cell_formula_units_Z 48
_cell_length_a 14.792799
_cell_length_b 8.534762
_cell_length_c 28.792991
_cell_angle_alpha 90.000000
_cell_angle_beta 40.382397
_cell_angle_gamma 90.000000
_cell_volume 2355.196151
_symmetry_space_group_name_H-M "C 2/M"
_symmetry_group_IT_number 12
_symmetry_cell_setting 'monoclinic'
loop_
_space_group_symop_operation_xyz
x,y,z
-x,y,-z
-x,-y,-z
x,-y,z
1/2+x,1/2+y,z
1/2-x,1/2+y,-z
1/2-x,1/2-y,-z
1/2+x,1/2-y,z
loop_
_atom_site_type_symbol
_atom_site_label
_atom_site_fract_x
_atom_site_fract_y
_atom_site_fract_z
Si Si1 0.861659 0.819726 0.174584
Si Si2 0.596006 0.815807 0.420421
Si Si3 0.415342 0.319071 0.307041
Si Si4 0.401675 0.680481 0.677262
Si Si5 0.646586 0.182301 0.921854
Si Si6 0.428513 0.180821 0.839487
O O1 0.733073 0.785800 0.259123
O O2 0.848381 0.711211 0.134938
O O3 0.003625 0.783101 0.146272
O O4 0.860370 0.000000 0.159634
O O5 0.500000 0.756188 0.500000
O O6 0.754644 0.768809 0.369854
O O7 0.543451 0.727669 0.394930
O O8 0.578746 0.000000 0.419497
O O9 0.434173 0.500000 0.285139
O O10 0.474014 0.286543 0.335386
O O11 0.502039 0.215118 0.237299
O O12 0.355419 0.500000 0.696468
O O13 0.765314 0.279447 0.901705
O O14 0.672484 0.000000 0.921077
O O15 0.500000 0.239447 0.000000
O O16 0.449085 0.000000 0.843751
#
# Coordination Sequence:
#
# PCOD8108366 Si02
#       6
#     8   8   8   8   8   8
#     4  12  24  40  65  94 127 166 211 261 311 372
#     4  10  22  40  61  88 125 168 211 259 317 375
#     4  10  21  38  61  88 125 165 205 258 314 368
#     4  11  22  37  61  91 123 161 210 260 312 375
#     4  11  25  45  67  94 130 167 206 259 317 372
#     4  12  24  39  65  96 126 165 212 258 311 375
#
# _framework density 20.380466999999999
#
# number of rings (size 3 to 8) (size 9 to 14) (size 15 to 20)
#    0.000    1.000    3.333    4.000    0.000    3.667 
#    0.000    0.000    0.000    0.000    0.000    0.000 
#    0.000    0.000    0.000    0.000    0.000    0.000 
#
# Total GULP energy -297802.800671 kJ/mol
# GULP energy per Si atom -12408.450028 kJ/mol
# Density = 2.033408 g / cm^3
# Si number density = 20.380467 Si / 1000 Ang^3
#
#
#
# Elastic Constant Matrix: (Units=GPa)
#
#
# Indices 1 2 3 4 5 6 
#
# 1 88.3440 11.7767 -2.9634 -0.0006 -3.8595 -0.0019
# 2 11.7767 68.0403 12.7324 -0.0008 -5.5628 -0.0008
# 3 -2.9634 12.7324 61.3896 0.0000 -11.1279 -0.0003
# 4 -0.0006 -0.0008 0.0000 24.0395 0.0000 4.8160
# 5 -3.8595 -5.5628 -11.1279 0.0000 32.2030 -0.0002
# 6 -0.0019 -0.0008 -0.0003 4.8160 -0.0002 27.8618
#
#
#
# Elastic Compliance Matrix: (Units=1/GPa)
#
#
# Indices 1 2 3 4 5 6 
#
# 1 0.011713 -0.002146 0.001278 0.000000 0.001475 0.000001
# 2 -0.002146 0.015766 -0.003122 0.000000 0.001387 0.000000
# 3 0.001278 -0.003122 0.018060 0.000000 0.005854 0.000000
# 4 0.000000 0.000000 0.000000 0.043090 0.000000 -0.007448
# 5 0.001475 0.001387 0.005854 0.000000 0.033492 0.000000
# 6 0.000001 0.000000 0.000000 -0.007448 0.000000 0.037179
#
#
# Mechanical properties :
#
#
# Convention : Reuss Voigt Hill
#
# Bulk Modulus (GPa) = 26.62510 28.98503 27.80506
# Shear Modulus (GPa) = 27.80863 29.90274 28.85569
#
# Velocity S-wave (km/s) = 3.69789 3.83459 3.76686
# Velocity P-wave (km/s) = 5.59686 5.81879 5.70891
#
# Compressibility (1/GPa) = 0.03755854
#
# Stress axis : x y z
#
# Youngs Moduli (GPa) = 85.37726 63.42665 55.37147
#
# Poissons Ratio (x) = 0.13610 -0.07075
# Poissons Ratio (y) = 0.18320 0.17287
# Poissons Ratio (z) = -0.10909 0.19802
#
# Static dielectric constant tensor:
#      x y z
#    x 3.828170 0.000000 -0.055660 
#    y 0.000000 3.615560 0.000000 
#    z -0.055660 0.000000 3.672050 
# 
# 
# High freq. dielectric constant tensor:
#      x y z
#    x 1.812170 0.000000 -0.000260 
#    y 0.000000 1.796570 0.000000 
#    z -0.000260 0.000000 1.787440 
# 
# From -- ./inp_files/308295.got.cif
#   From: 2010.06.25/outbox.cif.g09.slc.cpg/sg12_155_cif.got.tgz:308295.got - 2010.06.28 00:19:55.
