data_PCOD8108762
_publ_section_title
;
Structure prediction by ZEFSAII (Michael W. Deem and Ramdas Pophale) SiO2 
 PCOD8108762
Probable space group: C 2/M
;
_chemical_formula_sum "Si O2"
_cell_formula_units_Z 52
_cell_length_a 15.900424
_cell_length_b 18.947766
_cell_length_c 12.146324
_cell_angle_alpha 90.000000
_cell_angle_beta 133.835373
_cell_angle_gamma 90.000000
_cell_volume 2639.655477
_symmetry_space_group_name_H-M "C 2/M"
_symmetry_group_IT_number 12
_symmetry_cell_setting 'monoclinic'
loop_
_space_group_symop_operation_xyz
x,y,z
-x,y,-z
-x,-y,-z
x,-y,z
1/2+x,1/2+y,z
1/2-x,1/2+y,-z
1/2-x,1/2-y,-z
1/2+x,1/2-y,z
loop_
_atom_site_type_symbol
_atom_site_label
_atom_site_fract_x
_atom_site_fract_y
_atom_site_fract_z
Si Si1 0.737566 0.889957 0.139928
Si Si2 0.635401 0.278390 0.628642
Si Si3 0.131049 0.000000 0.880439
Si Si4 0.739090 0.887079 0.382645
Si Si5 0.629352 0.500000 0.362380
Si Si6 0.202062 0.000000 0.189217
Si Si7 0.522706 0.085138 0.813621
Si Si8 0.385955 0.881344 0.336104
O O1 0.799801 0.813042 0.205658
O O2 0.747509 0.926183 0.270512
O O3 0.801775 0.931854 0.101992
O O4 0.599705 0.888657 0.986978
O O5 0.500000 0.301064 0.500000
O O6 0.701151 0.309378 0.578578
O O7 0.648616 0.194968 0.648162
O O8 0.002209 0.000000 0.713081
O O9 0.127924 0.000000 0.009974
O O10 0.604474 0.880265 0.295192
O O11 0.805934 0.930490 0.536099
O O12 0.620436 0.500000 0.222102
O O13 0.279063 0.069456 0.267278
O O14 0.588216 0.119034 0.769401
O O15 0.516563 0.000000 0.800135
O O16 0.500000 0.911204 0.500000
#
# Coordination Sequence:
#
# PCOD8108762 Si02
#       8
#     8   8   4   8   4   4   8   8
#     4  10  21  38  65  91 133 164 208 262 326 377
#     4   9  22  41  60  92 128 173 210 258 318 386
#     4  12  22  40  61  96 126 176 210 263 307 394
#     4  10  23  38  63  99 129 159 216 263 322 380
#     4  12  24  38  66  90 128 174 205 266 319 382
#     4  12  24  44  61  95 125 166 224 266 315 381
#     4  12  21  38  63 104 126 163 214 275 321 360
#     4  11  22  41  67  89 127 171 219 262 318 381
#
# _framework density 19.699541
#
# number of rings (size 3 to 8) (size 9 to 14) (size 15 to 20)
#    0.923    0.308    3.846    3.231    0.000    1.846 
#    0.000    8.462    3.385    0.000    0.000    0.000 
#    0.000    0.000    0.000    0.000    0.000    0.000 
#
# Total GULP energy -322229.340926 kJ/mol
# GULP energy per Si atom -12393.436189 kJ/mol
# Density = 1.965470 g / cm^3
# Si number density = 19.699541 Si / 1000 Ang^3
#
#
#
# Elastic Constant Matrix: (Units=GPa)
#
#
# Indices 1 2 3 4 5 6 
#
# 1 85.3262 34.1695 20.1529 0.0000 10.7212 0.0000
# 2 34.1695 92.8604 20.1147 0.0000 16.6112 0.0000
# 3 20.1529 20.1147 82.8839 0.0000 13.9781 0.0000
# 4 0.0000 0.0000 0.0000 -65.4384 0.0000 23.9166
# 5 10.7212 16.6112 13.9781 0.0000 50.3702 0.0000
# 6 0.0000 0.0000 0.0000 23.9166 0.0000 19.1443
#
#
#
# Elastic Compliance Matrix: (Units=1/GPa)
#
#
# Indices 1 2 3 4 5 6 
#
# 1 0.014185 -0.004585 -0.002184 0.000000 -0.000901 0.000000
# 2 -0.004585 0.013339 -0.001621 0.000000 -0.002973 0.000000
# 3 -0.002184 -0.001621 0.013450 0.000000 -0.002733 0.000000
# 4 0.000000 0.000000 0.000000 -0.010491 0.000000 0.013107
# 5 -0.000901 -0.002973 -0.002733 0.000000 0.021784 0.000000
# 6 0.000000 0.000000 0.000000 0.013107 0.000000 0.035861
#
#
# Mechanical properties :
#
#
# Convention : Reuss Voigt Hill
#
# Bulk Modulus (GPa) = 41.33325 45.54940 43.44133
# Shear Modulus (GPa) = 44.25814 13.25745 28.75780
#
# Velocity S-wave (km/s) = 4.74504 2.59701 3.82490
# Velocity P-wave (km/s) = 7.14478 5.67141 6.45030
#
# Compressibility (1/GPa) = 0.02419360
#
# Stress axis : x y z
#
# Youngs Moduli (GPa) = 70.49667 74.96788 74.34683
#
# Poissons Ratio (x) = 0.34375 0.16240
# Poissons Ratio (y) = 0.32325 0.12051
# Poissons Ratio (z) = 0.15399 0.12151
#
# Static dielectric constant tensor:
#      x y z
#    x 3.535160 0.000000 0.048220 
#    y 0.000000 3.472430 0.000000 
#    z 0.048220 0.000000 3.742040 
# 
# 
# High freq. dielectric constant tensor:
#      x y z
#    x 1.768030 0.000000 0.005630 
#    y 0.000000 1.745350 0.000000 
#    z 0.005630 0.000000 1.779340 
# 
# From -- ./inp_files/147752.got.cif
#   From: 2010.06.25/outbox.cif.g09.slc.cpg/sg12_74_cif.got.tgz:147752.got - 2010.06.28 00:19:55.
