data_PCOD8108418
_publ_section_title
;
Structure prediction by ZEFSAII (Michael W. Deem and Ramdas Pophale) SiO2 
 PCOD8108418
Probable space group: C 2/M
;
_chemical_formula_sum "Si O2"
_cell_formula_units_Z 48
_cell_length_a 14.558116
_cell_length_b 8.653534
_cell_length_c 18.288132
_cell_angle_alpha 90.000000
_cell_angle_beta 94.824533
_cell_angle_gamma 90.000000
_cell_volume 2295.760415
_symmetry_space_group_name_H-M "C 2/M"
_symmetry_group_IT_number 12
_symmetry_cell_setting 'monoclinic'
loop_
_space_group_symop_operation_xyz
x,y,z
-x,y,-z
-x,-y,-z
x,-y,z
1/2+x,1/2+y,z
1/2-x,1/2+y,-z
1/2-x,1/2-y,-z
1/2+x,1/2-y,z
loop_
_atom_site_type_symbol
_atom_site_label
_atom_site_fract_x
_atom_site_fract_y
_atom_site_fract_z
Si Si1 0.395211 0.820348 0.508389
Si Si2 0.605092 0.318660 0.135453
Si Si3 0.571687 0.180642 0.828266
Si Si4 0.735602 0.321698 0.385531
Si Si5 0.149163 0.681997 0.990862
Si Si6 0.736122 0.320332 0.765987
O O1 0.500000 0.765195 0.500000
O O2 0.353167 0.722407 0.572055
O O3 0.331849 0.789568 0.433387
O O4 0.393411 0.000000 0.530242
O O5 0.589818 0.500000 0.134506
O O6 0.533391 0.237123 0.185860
O O7 0.706526 0.277941 0.171085
O O8 0.589863 0.254690 0.052600
O O9 0.604013 0.227784 0.911351
O O10 0.630264 0.271299 0.771252
O O11 0.579297 0.000000 0.812636
O O12 0.727190 0.500000 0.362310
O O13 0.733542 0.216779 0.313921
O O14 0.152437 0.500000 0.002253
O O15 0.250000 0.750000 0.000000
O O16 0.750798 0.500000 0.782593
#
# Coordination Sequence:
#
# PCOD8108418 Si02
#       6
#     8   8   8   8   8   8
#     4   9  19  38  64  92 122 159 199 240 292 355
#     4  12  25  41  62  89 121 159 206 258 311 369
#     4  11  24  42  63  89 121 159 205 255 310 371
#     4  10  21  38  61  90 125 159 198 248 298 355
#     4  11  22  38  63  89 119 158 204 256 310 366
#     4  12  25  42  63  87 123 165 207 254 307 365
#
# _framework density 20.908104999999999
#
# number of rings (size 3 to 8) (size 9 to 14) (size 15 to 20)
#    0.000    1.167    1.667    5.000    0.000    6.333 
#    0.000    5.000    0.000    0.000    0.000    0.000 
#    0.000    0.000    0.000    0.000    0.000    0.000 
#
# Total GULP energy -297754.484446 kJ/mol
# GULP energy per Si atom -12406.436852 kJ/mol
# Density = 2.086052 g / cm^3
# Si number density = 20.908105 Si / 1000 Ang^3
#
#
#
# Elastic Constant Matrix: (Units=GPa)
#
#
# Indices 1 2 3 4 5 6 
#
# 1 108.3807 22.4348 16.4253 0.0000 -21.8326 0.0000
# 2 22.4348 97.2739 35.9576 0.0000 -6.3082 0.0000
# 3 16.4253 35.9576 77.3399 0.0000 -16.2274 0.0000
# 4 0.0000 0.0000 0.0000 36.7313 0.0000 -6.5144
# 5 -21.8326 -6.3082 -16.2274 0.0000 24.8905 0.0000
# 6 0.0000 0.0000 0.0000 -6.5144 0.0000 36.8663
#
#
#
# Elastic Compliance Matrix: (Units=1/GPa)
#
#
# Indices 1 2 3 4 5 6 
#
# 1 0.011623 -0.002290 0.000711 0.000000 0.010078 0.000000
# 2 -0.002290 0.012876 -0.006067 0.000000 -0.002700 0.000000
# 3 0.000711 -0.006067 0.017849 0.000000 0.010723 0.000000
# 4 0.000000 0.000000 0.000000 0.028106 0.000000 0.004966
# 5 0.010078 -0.002700 0.010723 0.000000 0.055322 0.000000
# 6 0.000000 0.000000 0.000000 0.004966 0.000000 0.028003
#
#
# Mechanical properties :
#
#
# Convention : Reuss Voigt Hill
#
# Bulk Modulus (GPa) = 36.95919 48.06998 42.51459
# Shear Modulus (GPa) = 28.07577 33.57607 30.82592
#
# Velocity S-wave (km/s) = 3.66842 4.01170 3.84390
# Velocity P-wave (km/s) = 5.97147 6.67078 6.33079
#
# Compressibility (1/GPa) = 0.02705687
#
# Stress axis : x y z
#
# Youngs Moduli (GPa) = 86.03465 77.66507 56.02430
#
# Poissons Ratio (x) = 0.17784 -0.03982
# Poissons Ratio (y) = 0.19701 0.33988
# Poissons Ratio (z) = -0.06115 0.47117
#
# Static dielectric constant tensor:
#      x y z
#    x 3.919860 0.000000 -0.068140 
#    y 0.000000 3.737090 0.000000 
#    z -0.068140 0.000000 3.715320 
# 
# 
# High freq. dielectric constant tensor:
#      x y z
#    x 1.829380 0.000000 -0.011680 
#    y 0.000000 1.825260 0.000000 
#    z -0.011680 0.000000 1.810040 
# 
# From -- ./inp_files/267713.got.cif
#   From: 2010.06.25/outbox.cif.g09.slc.cpg/sg12_134_cif.got.tgz:267713.got - 2010.06.28 00:19:55.
