data_PCOD8108142
_publ_section_title
;
Structure prediction by ZEFSAII (Michael W. Deem and Ramdas Pophale) SiO2 
 PCOD8108142
Probable space group: C 2/M
;
_chemical_formula_sum "Si O2"
_cell_formula_units_Z 64
_cell_length_a 18.527832
_cell_length_b 8.950883
_cell_length_c 29.496400
_cell_angle_alpha 90.000000
_cell_angle_beta 39.934977
_cell_angle_gamma 90.000000
_cell_volume 3140.067206
_symmetry_space_group_name_H-M "C 2/M"
_symmetry_group_IT_number 12
_symmetry_cell_setting 'monoclinic'
loop_
_space_group_symop_operation_xyz
x,y,z
-x,y,-z
-x,-y,-z
x,-y,z
1/2+x,1/2+y,z
1/2-x,1/2+y,-z
1/2-x,1/2-y,-z
1/2+x,1/2-y,z
loop_
_atom_site_type_symbol
_atom_site_label
_atom_site_fract_x
_atom_site_fract_y
_atom_site_fract_z
Si Si1 0.539778 0.823720 0.299028
Si Si2 0.633273 0.672259 0.067877
Si Si3 0.588335 0.168179 0.841843
Si Si4 0.785739 0.323806 0.436365
Si Si5 0.851742 0.172165 0.837031
Si Si6 0.704986 0.822603 0.299204
Si Si7 0.370107 0.674177 0.572341
Si Si8 0.615710 0.832331 0.930794
O O1 0.412550 0.769392 0.366864
O O2 0.574180 0.762427 0.233749
O O3 0.618472 0.764152 0.302138
O O4 0.548201 0.000000 0.293013
O O5 0.641023 0.500000 0.049344
O O6 0.531910 0.754597 0.091530
O O7 0.597663 0.687850 0.137564
O O8 0.750000 0.750000 0.000000
O O9 0.670266 0.258515 0.769110
O O10 0.644155 0.166725 0.864126
O O11 0.572408 0.000000 0.830607
O O12 0.777971 0.500000 0.446028
O O13 0.750000 0.250000 0.500000
O O14 0.704925 0.271587 0.434174
O O15 0.725232 0.242197 0.900751
O O16 0.845772 0.000000 0.823895
O O17 0.663559 0.768266 0.367726
O O18 0.712463 0.000000 0.295525
O O19 0.500000 0.707579 0.500000
O O20 0.349215 0.500000 0.592474
O O21 0.604504 0.000000 0.956083
O O22 0.500000 0.746001 0.000000
#
# Coordination Sequence:
#
# PCOD8108142 Si02
#       8
#     8   8   8   8   8   8   8   8
#     4  10  22  39  59  86 123 159 196 248 305 355
#     4  11  24  41  61  88 122 159 204 254 308 369
#     4  11  22  38  62  87 119 161 201 251 309 361
#     4  10  22  40  62  91 122 158 199 243 297 357
#     4  10  21  38  60  86 116 156 205 248 292 356
#     4  11  23  39  60  88 124 160 201 251 302 362
#     4  10  22  40  63  92 124 159 204 251 297 359
#     4   9  17  33  58  85 111 146 197 248 295 349
#
# _framework density 20.381729
#
# number of rings (size 3 to 8) (size 9 to 14) (size 15 to 20)
#    0.000    1.750    1.250    2.625    1.750    4.750 
#    0.000    0.000    0.000    1.875    0.000    0.000 
#    0.000    0.000    0.000    0.000    0.000    0.000 
#
# Total GULP energy -396795.162228 kJ/mol
# GULP energy per Si atom -12399.848820 kJ/mol
# Density = 2.033534 g / cm^3
# Si number density = 20.381729 Si / 1000 Ang^3
#
#
#
# Elastic Constant Matrix: (Units=GPa)
#
#
# Indices 1 2 3 4 5 6 
#
# 1 88.9370 26.6098 27.9806 -0.0003 -9.5738 -0.0015
# 2 26.6098 64.4554 34.0749 -0.0002 -4.1802 -0.0029
# 3 27.9806 34.0749 119.1621 0.0002 -11.5978 0.0000
# 4 -0.0003 -0.0002 0.0002 36.5302 0.0001 3.5435
# 5 -9.5738 -4.1802 -11.5978 0.0001 41.0553 0.0000
# 6 -0.0015 -0.0029 0.0000 3.5435 0.0000 24.3143
#
#
#
# Elastic Compliance Matrix: (Units=1/GPa)
#
#
# Indices 1 2 3 4 5 6 
#
# 1 0.013340 -0.004503 -0.001632 0.000000 0.002191 0.000000
# 2 -0.004503 0.019804 -0.004639 0.000000 -0.000344 0.000002
# 3 -0.001632 -0.004639 0.010302 0.000000 0.002057 -0.000001
# 4 0.000000 0.000000 0.000000 0.027767 0.000000 -0.004047
# 5 0.002191 -0.000344 0.002057 0.000000 0.025415 0.000000
# 6 0.000000 0.000002 -0.000001 -0.004047 0.000000 0.041718
#
#
# Mechanical properties :
#
#
# Convention : Reuss Voigt Hill
#
# Bulk Modulus (GPa) = 45.66430 49.98726 47.82578
# Shear Modulus (GPa) = 29.90569 32.63922 31.27245
#
# Velocity S-wave (km/s) = 3.83466 4.00609 3.92131
# Velocity P-wave (km/s) = 6.48532 6.78064 6.63462
#
# Compressibility (1/GPa) = 0.02189895
#
# Stress axis : x y z
#
# Youngs Moduli (GPa) = 74.96048 50.49548 97.06965
#
# Poissons Ratio (x) = 0.22737 0.15838
# Poissons Ratio (y) = 0.33753 0.45032
# Poissons Ratio (z) = 0.12230 0.23426
#
# Static dielectric constant tensor:
#      x y z
#    x 3.922720 0.000000 -0.244340 
#    y 0.000000 3.529780 0.000000 
#    z -0.244340 0.000000 3.873940 
# 
# 
# High freq. dielectric constant tensor:
#      x y z
#    x 1.808300 0.000000 -0.005600 
#    y 0.000000 1.777000 0.000000 
#    z -0.005600 0.000000 1.809020 
# 
# From -- ./inp_files/378224.got.cif
#   From: 2010.06.25/outbox.cif.g09.slc.cpg/sg12_190_cif.got.tgz:378224.got - 2010.06.28 00:19:55.
