data_PCOD8108161
_publ_section_title
;
Structure prediction by ZEFSAII (Michael W. Deem and Ramdas Pophale) SiO2 
 PCOD8108161
Probable space group: C 2/M
;
_chemical_formula_sum "Si O2"
_cell_formula_units_Z 56
_cell_length_a 17.979900
_cell_length_b 14.340124
_cell_length_c 10.502355
_cell_angle_alpha 90.000000
_cell_angle_beta 107.243488
_cell_angle_gamma 90.000000
_cell_volume 2586.155520
_symmetry_space_group_name_H-M "C 2/M"
_symmetry_group_IT_number 12
_symmetry_cell_setting 'monoclinic'
loop_
_space_group_symop_operation_xyz
x,y,z
-x,y,-z
-x,-y,-z
x,-y,z
1/2+x,1/2+y,z
1/2-x,1/2+y,-z
1/2-x,1/2-y,-z
1/2+x,1/2-y,z
loop_
_atom_site_type_symbol
_atom_site_label
_atom_site_fract_x
_atom_site_fract_y
_atom_site_fract_z
Si Si1 0.916096 0.109466 0.001300
Si Si2 0.153544 0.605128 0.091370
Si Si3 0.043949 0.731511 0.400423
Si Si4 0.911088 0.390638 0.212654
Si Si5 0.646630 0.719238 0.248032
Si Si6 0.679935 0.784266 0.638887
Si Si7 0.669059 0.606110 0.790598
O O1 0.853427 0.152466 0.873451
O O2 0.911353 0.000000 0.982894
O O3 0.894128 0.137627 0.134547
O O4 0.000000 0.148559 0.000000
O O5 0.132945 0.500000 0.124717
O O6 0.133073 0.673894 0.196385
O O7 0.245114 0.613221 0.103527
O O8 0.101923 0.632825 0.942506
O O9 0.076583 0.805155 0.312113
O O10 0.123881 0.684467 0.494491
O O11 0.000000 0.778578 0.500000
O O12 0.989895 0.655442 0.305888
O O13 0.917205 0.500000 0.238870
O O14 0.836397 0.350990 0.249365
O O15 0.730400 0.706096 0.357887
O O16 0.660502 0.676730 0.668556
O O17 0.652691 0.500000 0.735893
#
# Coordination Sequence:
#
# PCOD8108161 Si02
#       7
#     8   8   8   8   8   8   8
#     4  10  22  35  54  86 118 147 186 237 297 352
#     4   9  19  35  60  94 120 146 186 236 297 361
#     4  10  24  39  56  80 118 159 199 238 284 343
#     4  10  21  38  61  91 125 156 188 236 301 360
#     4  11  22  37  62  85 117 155 196 245 293 342
#     4  10  21  38  60  87 115 158 202 238 281 345
#     4   9  18  36  61  88 120 150 186 239 296 349
#
# _framework density 21.653763000000001
#
# number of rings (size 3 to 8) (size 9 to 14) (size 15 to 20)
#    0.000    2.143    0.000    2.143    6.000    7.143 
#    0.000    2.143    0.000    9.429    0.000    0.000 
#    0.000    0.000    0.000    0.000    0.000    0.000 
#
# Total GULP energy -347057.746994 kJ/mol
# GULP energy per Si atom -12394.919535 kJ/mol
# Density = 2.160448 g / cm^3
# Si number density = 21.653763 Si / 1000 Ang^3
#
#
#
# Elastic Constant Matrix: (Units=GPa)
#
#
# Indices 1 2 3 4 5 6 
#
# 1 116.4249 26.9538 26.8829 0.0000 -2.8994 0.0000
# 2 26.9538 26.0162 17.9707 0.0000 8.8900 0.0000
# 3 26.8829 17.9707 74.7880 0.0000 19.5066 0.0000
# 4 0.0000 0.0000 0.0000 19.2539 0.0000 4.5588
# 5 -2.8994 8.8900 19.5066 0.0000 36.1831 0.0000
# 6 0.0000 0.0000 0.0000 4.5588 0.0000 26.4741
#
#
#
# Elastic Compliance Matrix: (Units=1/GPa)
#
#
# Indices 1 2 3 4 5 6 
#
# 1 0.012339 -0.012750 -0.002847 0.000000 0.005656 0.000000
# 2 -0.012750 0.060501 -0.006762 0.000000 -0.012241 0.000000
# 3 -0.002847 -0.006762 0.018205 0.000000 -0.008381 0.000000
# 4 0.000000 0.000000 0.000000 0.054145 0.000000 -0.009324
# 5 0.005656 -0.012241 -0.008381 0.000000 0.035617 0.000000
# 6 0.000000 0.000000 0.000000 -0.009324 0.000000 0.039378
#
#
# Mechanical properties :
#
#
# Convention : Reuss Voigt Hill
#
# Bulk Modulus (GPa) = 21.58538 40.09376 30.83957
# Shear Modulus (GPa) = 17.83508 26.07699 21.95604
#
# Velocity S-wave (km/s) = 2.87304 3.47402 3.18773
# Velocity P-wave (km/s) = 4.58213 5.88624 5.27464
#
# Compressibility (1/GPa) = 0.04632765
#
# Stress axis : x y z
#
# Youngs Moduli (GPa) = 81.04185 16.52865 54.92891
#
# Poissons Ratio (x) = 0.21074 0.15638
# Poissons Ratio (y) = 1.03330 0.37142
# Poissons Ratio (z) = 0.23072 0.11176
#
# Static dielectric constant tensor:
#      x y z
#    x 4.177580 0.000000 0.062290 
#    y 0.000000 3.733290 0.000000 
#    z 0.062290 0.000000 3.882830 
# 
# 
# High freq. dielectric constant tensor:
#      x y z
#    x 1.862690 0.000000 0.006480 
#    y 0.000000 1.826680 0.000000 
#    z 0.006480 0.000000 1.847270 
# 
# From -- ./inp_files/156155.got.cif
#   From: 2010.06.25/outbox.cif.g09.slc.cpg/sg12_79_cif.got.tgz:156155.got - 2010.06.28 00:19:55.
