data_PCOD8108842
_publ_section_title
;
Structure prediction by ZEFSAII (Michael W. Deem and Ramdas Pophale) SiO2 
 PCOD8108842
Probable space group: C 2/M
;
_chemical_formula_sum "Si O2"
_cell_formula_units_Z 56
_cell_length_a 21.826519
_cell_length_b 9.460770
_cell_length_c 14.333600
_cell_angle_alpha 90.000000
_cell_angle_beta 109.340482
_cell_angle_gamma 90.000000
_cell_volume 2792.795110
_symmetry_space_group_name_H-M "C 2/M"
_symmetry_group_IT_number 12
_symmetry_cell_setting 'monoclinic'
loop_
_space_group_symop_operation_xyz
x,y,z
-x,y,-z
-x,-y,-z
x,-y,z
1/2+x,1/2+y,z
1/2-x,1/2+y,-z
1/2-x,1/2-y,-z
1/2+x,1/2-y,z
loop_
_atom_site_type_symbol
_atom_site_label
_atom_site_fract_x
_atom_site_fract_y
_atom_site_fract_z
Si Si1 0.496472 0.158263 0.748683
Si Si2 0.176457 0.162929 0.071668
Si Si3 0.563175 0.157141 0.087216
Si Si4 0.796192 0.166615 0.451315
Si Si5 0.774930 0.158093 0.230437
Si Si6 0.052813 0.166021 0.448296
Si Si7 0.615602 0.343483 0.848574
O O1 0.445559 0.152292 0.806532
O O2 0.466908 0.254431 0.654465
O O3 0.562068 0.223149 0.823542
O O4 0.510546 0.000000 0.718191
O O5 0.116629 0.226612 0.097087
O O6 0.240263 0.237358 0.142045
O O7 0.182167 0.000000 0.100276
O O8 0.167796 0.188085 0.956738
O O9 0.583342 0.000000 0.061712
O O10 0.500000 0.208318 0.000000
O O11 0.750000 0.250000 0.500000
O O12 0.771145 0.207652 0.335582
O O13 0.872528 0.209754 0.492631
O O14 0.788636 0.000000 0.467083
O O15 0.849692 0.157468 0.234657
O O16 0.745380 0.000000 0.206478
O O17 0.000000 0.211190 0.500000
O O18 0.047672 0.000000 0.427427
O O19 0.584773 0.500000 0.849498
#
# Coordination Sequence:
#
# PCOD8108842 Si02
#       7
#     8   8   8   8   8   8   8
#     4  11  23  37  61  92 121 156 199 248 300 351
#     4  11  23  36  58  91 121 153 198 249 294 346
#     4  10  21  39  58  81 119 163 198 237 295 361
#     4  10  23  42  64  89 118 158 204 253 305 362
#     4  10  22  41  63  84 116 161 200 238 296 365
#     4  10  22  43  68  91 120 160 206 254 310 372
#     4  10  21  39  61  88 122 159 198 241 294 358
#
# _framework density 20.051597000000001
#
# number of rings (size 3 to 8) (size 9 to 14) (size 15 to 20)
#    0.000    1.714    1.429    2.143    2.000    6.286 
#    0.000    1.429    0.000    0.000    0.000    0.000 
#    0.000    0.000    0.000    0.000    0.000    0.000 
#
# Total GULP energy -347153.678023 kJ/mol
# GULP energy per Si atom -12398.345644 kJ/mol
# Density = 2.000596 g / cm^3
# Si number density = 20.051597 Si / 1000 Ang^3
#
#
#
# Elastic Constant Matrix: (Units=GPa)
#
#
# Indices 1 2 3 4 5 6 
#
# 1 98.9142 40.1771 34.9113 0.0000 -6.0835 0.0000
# 2 40.1771 78.5835 43.3415 0.0000 0.9125 0.0000
# 3 34.9113 43.3415 96.0878 0.0000 -6.3875 0.0000
# 4 0.0000 0.0000 0.0000 30.9912 0.0000 -6.5905
# 5 -6.0835 0.9125 -6.3875 0.0000 34.1060 0.0000
# 6 0.0000 0.0000 0.0000 -6.5905 0.0000 19.8504
#
#
#
# Elastic Compliance Matrix: (Units=1/GPa)
#
#
# Indices 1 2 3 4 5 6 
#
# 1 0.013286 -0.005634 -0.002145 0.000000 0.002119 0.000000
# 2 -0.005634 0.019452 -0.006915 0.000000 -0.002820 0.000000
# 3 -0.002145 -0.006915 0.014472 0.000000 0.002513 0.000000
# 4 0.000000 0.000000 0.000000 0.034718 0.000000 0.011527
# 5 0.002119 -0.002820 0.002513 0.000000 0.030244 0.000000
# 6 0.000000 0.000000 0.000000 0.011527 0.000000 0.054204
#
#
# Mechanical properties :
#
#
# Convention : Reuss Voigt Hill
#
# Bulk Modulus (GPa) = 56.10707 56.71616 56.41161
# Shear Modulus (GPa) = 24.78867 27.33323 26.06095
#
# Velocity S-wave (km/s) = 3.51984 3.69608 3.60904
# Velocity P-wave (km/s) = 6.67541 6.82358 6.74990
#
# Compressibility (1/GPa) = 0.01782307
#
# Stress axis : x y z
#
# Youngs Moduli (GPa) = 75.26966 51.40784 69.09711
#
# Poissons Ratio (x) = 0.28964 0.14820
# Poissons Ratio (y) = 0.42408 0.47778
# Poissons Ratio (z) = 0.16144 0.35547
#
# Static dielectric constant tensor:
#      x y z
#    x 3.681350 0.000000 -0.021300 
#    y 0.000000 3.700830 0.000000 
#    z -0.021300 0.000000 3.688450 
# 
# 
# High freq. dielectric constant tensor:
#      x y z
#    x 1.780270 0.000000 -0.004730 
#    y 0.000000 1.783010 0.000000 
#    z -0.004730 0.000000 1.790070 
# 
# From -- ./inp_files/237855.got.cif
#   From: 2010.06.25/outbox.cif.g09.slc.cpg/sg12_119_cif.got.tgz:237855.got - 2010.06.28 00:19:55.
