data_PCOD8108336
_publ_section_title
;
Structure prediction by ZEFSAII (Michael W. Deem and Ramdas Pophale) SiO2 
 PCOD8108336
Probable space group: C 2/M
;
_chemical_formula_sum "Si O2"
_cell_formula_units_Z 48
_cell_length_a 16.344373
_cell_length_b 28.353073
_cell_length_c 6.660093
_cell_angle_alpha 90.000000
_cell_angle_beta 125.757570
_cell_angle_gamma 90.000000
_cell_volume 2504.583396
_symmetry_space_group_name_H-M "C 2/M"
_symmetry_group_IT_number 12
_symmetry_cell_setting 'monoclinic'
loop_
_space_group_symop_operation_xyz
x,y,z
-x,y,-z
-x,-y,-z
x,-y,z
1/2+x,1/2+y,z
1/2-x,1/2+y,-z
1/2-x,1/2-y,-z
1/2+x,1/2-y,z
loop_
_atom_site_type_symbol
_atom_site_label
_atom_site_fract_x
_atom_site_fract_y
_atom_site_fract_z
Si Si1 0.740247 0.885534 0.412939
Si Si2 0.247130 0.446425 0.029725
Si Si3 0.757065 0.281064 0.708165
Si Si4 0.114070 0.380748 0.593915
Si Si5 0.614052 0.781182 0.744429
Si Si6 0.615496 0.446640 0.120251
O O1 0.734659 0.918553 0.214933
O O2 0.772160 0.833873 0.390560
O O3 0.633045 0.883010 0.379830
O O4 0.824956 0.906269 0.679076
O O5 0.220185 0.500000 0.040014
O O6 0.166004 0.426675 0.758204
O O7 0.357244 0.442237 0.079117
O O8 0.750000 0.250000 0.500000
O O9 0.671454 0.263309 0.736049
O O10 0.865979 0.278980 0.983587
O O11 0.161374 0.331209 0.739621
O O12 0.000000 0.382355 0.500000
O O13 0.500000 0.778147 0.500000
O O14 0.644042 0.500000 0.233420
O O15 0.500000 0.436485 0.000000
#
# Coordination Sequence:
#
# PCOD8108336 Si02
#       6
#     8   8   8   8   8   8
#     4  11  21  38  60  88 120 157 199 253 305 357
#     4  10  21  38  61  88 119 155 195 247 305 359
#     4  11  22  40  62  89 123 159 202 259 304 363
#     4  10  21  39  60  84 118 160 201 246 297 364
#     4  10  22  41  61  87 122 162 203 247 309 371
#     4   9  20  39  61  87 120 159 201 245 301 372
#
# _framework density 19.164864000000001
#
# number of rings (size 3 to 8) (size 9 to 14) (size 15 to 20)
#    0.000    1.833    3.333    0.500    0.000    3.000 
#    6.000    3.333    0.000    0.000    0.000    0.000 
#    0.000    0.000    0.000    0.000    0.000    0.000 
#
# Total GULP energy -297365.893821 kJ/mol
# GULP energy per Si atom -12390.245576 kJ/mol
# Density = 1.912124 g / cm^3
# Si number density = 19.164864 Si / 1000 Ang^3
#
#
#
# Elastic Constant Matrix: (Units=GPa)
#
#
# Indices 1 2 3 4 5 6 
#
# 1 123.9700 62.8261 47.0983 0.0000 -12.4779 0.0000
# 2 62.8261 155.1506 59.7908 0.0000 -13.1865 0.0000
# 3 47.0983 59.7908 119.9755 0.0000 -14.7634 0.0000
# 4 0.0000 0.0000 0.0000 38.9377 0.0000 -8.9251
# 5 -12.4779 -13.1865 -14.7634 0.0000 32.8473 0.0000
# 6 0.0000 0.0000 0.0000 -8.9251 0.0000 28.7687
#
#
#
# Elastic Compliance Matrix: (Units=1/GPa)
#
#
# Indices 1 2 3 4 5 6 
#
# 1 0.010827 -0.003320 -0.002386 0.000000 0.001708 0.000000
# 2 -0.003320 0.009066 -0.003093 0.000000 0.000988 0.000000
# 3 -0.002386 -0.003093 0.011166 0.000000 0.002871 0.000000
# 4 0.000000 0.000000 0.000000 0.027648 0.000000 0.008577
# 5 0.001708 0.000988 0.002871 0.000000 0.032780 0.000000
# 6 0.000000 0.000000 0.000000 0.008577 0.000000 0.037421
#
#
# Mechanical properties :
#
#
# Convention : Reuss Voigt Hill
#
# Bulk Modulus (GPa) = 74.28402 82.05849 78.17126
# Shear Modulus (GPa) = 33.11424 35.40282 34.25853
#
# Velocity S-wave (km/s) = 4.16127 4.30266 4.23255
# Velocity P-wave (km/s) = 7.86974 8.22155 8.04757
#
# Compressibility (1/GPa) = 0.01346185
#
# Stress axis : x y z
#
# Youngs Moduli (GPa) = 92.36022 110.30689 89.55469
#
# Poissons Ratio (x) = 0.36619 0.21366
# Poissons Ratio (y) = 0.30661 0.27700
# Poissons Ratio (z) = 0.22035 0.34119
#
# Static dielectric constant tensor:
#      x y z
#    x 3.459370 0.000000 -0.184890 
#    y 0.000000 5.216160 0.000000 
#    z -0.184890 0.000000 3.556180 
# 
# 
# High freq. dielectric constant tensor:
#      x y z
#    x 1.739630 0.000000 -0.022280 
#    y 0.000000 1.765160 0.000000 
#    z -0.022280 0.000000 1.736710 
# 
# From -- ./inp_files/12793.got.cif
#   From: 2010.06.25/outbox.cif.g09.slc.cpg/sg12_7_cif.got.tgz:12793.got - 2010.06.28 00:19:55.
