data_PCOD8108713
_publ_section_title
;
Structure prediction by ZEFSAII (Michael W. Deem and Ramdas Pophale) SiO2 
 PCOD8108713
Probable space group: C 2/M
;
_chemical_formula_sum "Si O2"
_cell_formula_units_Z 56
_cell_length_a 21.948250
_cell_length_b 9.059691
_cell_length_c 14.595946
_cell_angle_alpha 90.000000
_cell_angle_beta 69.066185
_cell_angle_gamma 90.000000
_cell_volume 2710.750281
_symmetry_space_group_name_H-M "C 2/M"
_symmetry_group_IT_number 12
_symmetry_cell_setting 'monoclinic'
loop_
_space_group_symop_operation_xyz
x,y,z
-x,y,-z
-x,-y,-z
x,-y,z
1/2+x,1/2+y,z
1/2-x,1/2+y,-z
1/2-x,1/2-y,-z
1/2+x,1/2-y,z
loop_
_atom_site_type_symbol
_atom_site_label
_atom_site_fract_x
_atom_site_fract_y
_atom_site_fract_z
Si Si1 0.202332 0.326147 0.953121
Si Si2 0.389280 0.667305 0.634381
Si Si3 0.761101 0.666367 0.269101
Si Si4 0.052738 0.326478 0.044434
Si Si5 0.453767 0.165342 0.746822
Si Si6 0.080579 0.667421 0.556225
Si Si7 0.805379 0.827040 0.412329
O O1 0.203627 0.500000 0.972144
O O2 0.232296 0.284567 0.838940
O O3 0.250000 0.250000 0.000000
O O4 0.127263 0.266217 0.995080
O O5 0.415011 0.500000 0.611713
O O6 0.312759 0.675609 0.655683
O O7 0.400463 0.725022 0.732018
O O8 0.427975 0.772462 0.542606
O O9 0.788036 0.500000 0.266978
O O10 0.803780 0.775692 0.307802
O O11 0.054583 0.500000 0.025878
O O12 0.027766 0.284996 0.160049
O O13 0.000000 0.257570 0.000000
O O14 0.514305 0.170540 0.646853
O O15 0.424273 0.000000 0.767082
O O16 0.108457 0.500000 0.537310
O O17 0.125903 0.781582 0.584158
O O18 0.750000 0.750000 0.500000
O O19 0.795810 0.000000 0.424282
#
# Coordination Sequence:
#
# PCOD8108713 Si02
#       7
#     8   8   8   8   8   8   8
#     4  10  21  38  64  92 122 159 204 259 310 364
#     4  11  22  37  58  85 121 159 195 243 299 361
#     4  10  22  38  59  88 120 159 200 243 302 359
#     4   9  19  37  62  90 118 155 207 259 307 357
#     4  10  22  38  60  87 116 155 201 249 299 353
#     4  11  23  38  59  86 119 157 199 246 294 355
#     4  12  24  39  60  87 119 157 197 244 298 357
#
# _framework density 20.658487999999998
#
# number of rings (size 3 to 8) (size 9 to 14) (size 15 to 20)
#    0.000    1.571    1.429    3.429    2.000    4.000 
#    0.000    0.000    0.000    0.857    0.000    0.000 
#    0.000    0.000    0.000    0.000    0.000    0.000 
#
# Total GULP energy -347174.673294 kJ/mol
# GULP energy per Si atom -12399.095475 kJ/mol
# Density = 2.061147 g / cm^3
# Si number density = 20.658488 Si / 1000 Ang^3
#
#
#
# Elastic Constant Matrix: (Units=GPa)
#
#
# Indices 1 2 3 4 5 6 
#
# 1 105.6034 35.7987 39.9921 0.0000 21.6970 0.0000
# 2 35.7987 104.0383 49.1490 0.0000 16.3578 0.0000
# 3 39.9921 49.1490 127.3143 0.0000 19.3926 0.0000
# 4 0.0000 0.0000 0.0000 25.6137 0.0000 9.8523
# 5 21.6970 16.3578 19.3926 0.0000 39.1169 0.0000
# 6 0.0000 0.0000 0.0000 9.8523 0.0000 31.5889
#
#
#
# Elastic Compliance Matrix: (Units=1/GPa)
#
#
# Indices 1 2 3 4 5 6 
#
# 1 0.012047 -0.002403 -0.002155 0.000000 -0.004609 0.000000
# 2 -0.002403 0.012544 -0.003777 0.000000 -0.002040 0.000000
# 3 -0.002155 -0.003777 0.010348 0.000000 -0.002356 0.000000
# 4 0.000000 0.000000 0.000000 0.044364 0.000000 -0.013837
# 5 -0.004609 -0.002040 -0.002356 0.000000 0.030142 0.000000
# 6 0.000000 0.000000 0.000000 -0.013837 0.000000 0.035972
#
#
# Mechanical properties :
#
#
# Convention : Reuss Voigt Hill
#
# Bulk Modulus (GPa) = 54.73317 65.20395 59.96856
# Shear Modulus (GPa) = 29.73091 33.39831 31.56461
#
# Velocity S-wave (km/s) = 3.79774 4.02517 3.91311
# Velocity P-wave (km/s) = 6.76626 7.29616 7.03620
#
# Compressibility (1/GPa) = 0.01827046
#
# Stress axis : x y z
#
# Youngs Moduli (GPa) = 83.00965 79.72169 96.63473
#
# Poissons Ratio (x) = 0.19155 0.20820
# Poissons Ratio (y) = 0.19945 0.36498
# Poissons Ratio (z) = 0.17885 0.30110
#
# Static dielectric constant tensor:
#      x y z
#    x 4.230720 0.000000 0.127140 
#    y 0.000000 4.532250 0.000000 
#    z 0.127140 0.000000 3.905160 
# 
# 
# High freq. dielectric constant tensor:
#      x y z
#    x 1.810880 0.000000 0.010120 
#    y 0.000000 1.786870 0.000000 
#    z 0.010120 0.000000 1.820310 
# 
# From -- ./inp_files/237376.got.cif
#   From: 2010.06.25/outbox.cif.g09.slc.cpg/sg12_119_cif.got.tgz:237376.got - 2010.06.28 00:19:55.
