data_PCOD8108609
_publ_section_title
;
Structure prediction by ZEFSAII (Michael W. Deem and Ramdas Pophale) SiO2 
 PCOD8108609
Probable space group: C 2/M
;
_chemical_formula_sum "Si O2"
_cell_formula_units_Z 64
_cell_length_a 30.689582
_cell_length_b 8.953360
_cell_length_c 14.091792
_cell_angle_alpha 90.000000
_cell_angle_beta 56.620225
_cell_angle_gamma 90.000000
_cell_volume 3233.341901
_symmetry_space_group_name_H-M "C 2/M"
_symmetry_group_IT_number 12
_symmetry_cell_setting 'monoclinic'
loop_
_space_group_symop_operation_xyz
x,y,z
-x,y,-z
-x,-y,-z
x,-y,z
1/2+x,1/2+y,z
1/2-x,1/2+y,-z
1/2-x,1/2-y,-z
1/2+x,1/2-y,z
loop_
_atom_site_type_symbol
_atom_site_label
_atom_site_fract_x
_atom_site_fract_y
_atom_site_fract_z
Si Si1 0.416053 0.174980 0.492583
Si Si2 0.350934 0.175356 0.084942
Si Si3 0.306013 0.824109 0.935785
Si Si4 0.039555 0.826778 0.034592
Si Si5 0.609209 0.327584 0.283159
Si Si6 0.508761 0.329996 0.281338
Si Si7 0.707322 0.674322 0.678551
Si Si8 0.678626 0.826388 0.527583
O O1 0.413695 0.265981 0.592025
O O2 0.469545 0.214647 0.376258
O O3 0.368110 0.223934 0.484048
O O4 0.414837 0.000000 0.516799
O O5 0.309018 0.248214 0.204868
O O6 0.349096 0.000000 0.102170
O O7 0.335120 0.221103 0.997662
O O8 0.408492 0.231443 0.039675
O O9 0.339283 0.762914 0.807593
O O10 0.299563 0.000000 0.932263
O O11 0.250000 0.750000 0.000000
O O12 0.010939 0.792741 0.167680
O O13 0.055200 0.000000 0.007818
O O14 0.000000 0.777601 0.000000
O O15 0.624332 0.500000 0.277521
O O16 0.566111 0.304716 0.254076
O O17 0.489971 0.500000 0.322202
O O18 0.696791 0.500000 0.700156
O O19 0.673392 0.735109 0.631271
O O20 0.767908 0.713019 0.590237
O O21 0.675726 0.000000 0.557265
#
# Coordination Sequence:
#
# PCOD8108609 Si02
#       8
#     8   8   8   8   8   8   8   8
#     4  11  24  39  61  91 123 158 202 254 308 367
#     4  11  24  41  63  94 128 162 204 253 309 369
#     4  11  25  43  65  94 127 165 208 254 310 370
#     4  10  22  41  65  93 125 164 209 252 304 370
#     4  11  23  42  65  89 121 160 204 255 308 363
#     4  10  22  41  62  88 123 160 202 253 306 364
#     4  10  21  38  63  87 119 163 203 246 300 359
#     4   9  21  41  59  87 122 157 199 251 305 357
#
# _framework density 19.793762000000001
#
# number of rings (size 3 to 8) (size 9 to 14) (size 15 to 20)
#    0.000    1.625    1.250    2.250    3.500    6.250 
#    0.000    0.000    0.000    0.000    0.000    0.000 
#    0.000    0.000    0.000    0.000    0.000    0.000 
#
# Total GULP energy -397029.297068 kJ/mol
# GULP energy per Si atom -12407.165533 kJ/mol
# Density = 1.974871 g / cm^3
# Si number density = 19.793762 Si / 1000 Ang^3
#
#
#
# Elastic Constant Matrix: (Units=GPa)
#
#
# Indices 1 2 3 4 5 6 
#
# 1 79.8591 43.4162 31.6914 0.0000 -5.2572 0.0000
# 2 43.4162 83.5414 44.7405 0.0000 -0.3027 0.0000
# 3 31.6914 44.7405 108.3515 0.0000 -1.3196 0.0000
# 4 0.0000 0.0000 0.0000 39.7441 0.0000 -3.4431
# 5 -5.2572 -0.3027 -1.3196 0.0000 26.8325 0.0000
# 6 0.0000 0.0000 0.0000 -3.4431 0.0000 31.9582
#
#
#
# Elastic Compliance Matrix: (Units=1/GPa)
#
#
# Indices 1 2 3 4 5 6 
#
# 1 0.018010 -0.008407 -0.001755 0.000000 0.003347 0.000000
# 2 -0.008407 0.019294 -0.005529 0.000000 -0.001701 0.000000
# 3 -0.001755 -0.005529 0.012028 0.000000 0.000185 0.000000
# 4 0.000000 0.000000 0.000000 0.025398 0.000000 0.002736
# 5 0.003347 -0.001701 0.000185 0.000000 0.037914 0.000000
# 6 0.000000 0.000000 0.000000 0.002736 0.000000 0.031586
#
#
# Mechanical properties :
#
#
# Convention : Reuss Voigt Hill
#
# Bulk Modulus (GPa) = 55.71331 56.82756 56.27044
# Shear Modulus (GPa) = 27.53381 29.83389 28.68385
#
# Velocity S-wave (km/s) = 3.73370 3.88653 3.81088
# Velocity P-wave (km/s) = 6.84072 6.99373 6.91765
#
# Compressibility (1/GPa) = 0.01794903
#
# Stress axis : x y z
#
# Youngs Moduli (GPa) = 55.52542 51.82927 83.14128
#
# Poissons Ratio (x) = 0.43575 0.14593
# Poissons Ratio (y) = 0.46683 0.45965
# Poissons Ratio (z) = 0.09746 0.28654
#
# Static dielectric constant tensor:
#      x y z
#    x 3.776750 0.000000 0.140530 
#    y 0.000000 3.613070 0.000000 
#    z 0.140530 0.000000 3.662170 
# 
# 
# High freq. dielectric constant tensor:
#      x y z
#    x 1.778060 0.000000 0.002590 
#    y 0.000000 1.777010 0.000000 
#    z 0.002590 0.000000 1.782470 
# 
# From -- ./inp_files/249713.got.cif
#   From: 2010.06.25/outbox.cif.g09.slc.cpg/sg12_125_cif.got.tgz:249713.got - 2010.06.28 00:19:55.
