data_PCOD8108228
_publ_section_title
;
Structure prediction by ZEFSAII (Michael W. Deem and Ramdas Pophale) SiO2 
 PCOD8108228
Probable space group: C 2/M
;
_chemical_formula_sum "Si O2"
_cell_formula_units_Z 64
_cell_length_a 18.354991
_cell_length_b 13.814385
_cell_length_c 17.449345
_cell_angle_alpha 90.000000
_cell_angle_beta 138.400624
_cell_angle_gamma 90.000000
_cell_volume 2937.509967
_symmetry_space_group_name_H-M "C 2/M"
_symmetry_group_IT_number 12
_symmetry_cell_setting 'monoclinic'
loop_
_space_group_symop_operation_xyz
x,y,z
-x,y,-z
-x,-y,-z
x,-y,z
1/2+x,1/2+y,z
1/2-x,1/2+y,-z
1/2-x,1/2-y,-z
1/2+x,1/2-y,z
loop_
_atom_site_type_symbol
_atom_site_label
_atom_site_fract_x
_atom_site_fract_y
_atom_site_fract_z
Si Si1 0.602453 0.386467 0.944746
Si Si2 0.114010 0.284275 0.063992
Si Si3 0.234975 0.740715 0.684768
Si Si4 0.777707 0.885611 0.448966
Si Si5 0.175596 0.614366 0.963859
Si Si6 0.033031 0.613693 0.293837
Si Si7 0.068708 0.393886 0.629439
Si Si8 0.624199 0.611850 0.312941
O O1 0.605602 0.500000 0.968609
O O2 0.500396 0.362213 0.808290
O O3 0.593947 0.325197 0.016413
O O4 0.713463 0.350122 0.990510
O O5 0.176780 0.290953 0.192776
O O6 0.176424 0.349288 0.051182
O O7 0.000000 0.331951 0.000000
O O8 0.176865 0.825006 0.588165
O O9 0.156710 0.688754 0.684387
O O10 0.286914 0.661571 0.670457
O O11 0.652435 0.845379 0.363824
O O12 0.854481 0.859887 0.581733
O O13 0.780373 0.000000 0.433223
O O14 0.174715 0.500000 0.962239
O O15 0.066353 0.656436 0.836056
O O16 0.038829 0.500000 0.287587
O O17 0.010052 0.641331 0.363947
O O18 0.120963 0.500000 0.692116
O O19 0.000000 0.407678 0.500000
O O20 0.648956 0.500000 0.320771
#
# Coordination Sequence:
#
# PCOD8108228 Si02
#       8
#     8   8   8   8   8   8   8   8
#     4  10  22  41  63  88 121 162 205 248 301 366
#     4  12  24  39  58  91 129 157 197 253 309 363
#     4  12  23  38  59  94 125 158 198 249 310 364
#     4  10  22  41  65  91 120 161 210 251 296 359
#     4  10  22  41  63  87 117 163 212 249 296 356
#     4   9  18  36  62  87 115 155 204 257 302 351
#     4  10  21  38  60  90 125 153 191 251 315 364
#     4  10  21  39  63  89 121 159 203 252 301 364
#
# _framework density 21.787158999999999
#
# number of rings (size 3 to 8) (size 9 to 14) (size 15 to 20)
#    0.000    1.625    1.250    3.375    0.000    5.000 
#    2.250    0.000    0.000    0.375    0.000    0.000 
#    0.000    0.000    0.000    0.000    0.000    0.000 
#
# Total GULP energy -396771.584440 kJ/mol
# GULP energy per Si atom -12399.112014 kJ/mol
# Density = 2.173757 g / cm^3
# Si number density = 21.787159 Si / 1000 Ang^3
#
#
#
# Elastic Constant Matrix: (Units=GPa)
#
#
# Indices 1 2 3 4 5 6 
#
# 1 63.1315 22.5081 -3.3769 0.0000 -10.1252 0.0000
# 2 22.5081 25.8747 13.0897 0.0000 -4.2739 0.0000
# 3 -3.3769 13.0897 85.1579 0.0000 -21.0914 0.0000
# 4 0.0000 0.0000 0.0000 23.2519 0.0000 -9.7271
# 5 -10.1252 -4.2739 -21.0914 0.0000 38.3057 0.0000
# 6 0.0000 0.0000 0.0000 -9.7271 0.0000 33.8735
#
#
#
# Elastic Compliance Matrix: (Units=1/GPa)
#
#
# Indices 1 2 3 4 5 6 
#
# 1 0.026476 -0.025203 0.006902 0.000000 0.007987 0.000000
# 2 -0.025203 0.065955 -0.012696 0.000000 -0.006294 0.000000
# 3 0.006902 -0.012696 0.016291 0.000000 0.009378 0.000000
# 4 0.000000 0.000000 0.000000 0.048879 0.000000 0.014036
# 5 0.007987 -0.006294 0.009378 0.000000 0.032678 0.000000
# 6 0.000000 0.000000 0.000000 0.014036 0.000000 0.033552
#
#
# Mechanical properties :
#
#
# Convention : Reuss Voigt Hill
#
# Bulk Modulus (GPa) = 21.40125 26.51179 23.95652
# Shear Modulus (GPa) = 16.58914 28.54910 22.56912
#
# Velocity S-wave (km/s) = 2.76237 3.62382 3.22202
# Velocity P-wave (km/s) = 4.47420 5.45017 4.98612
#
# Compressibility (1/GPa) = 0.04672625
#
# Stress axis : x y z
#
# Youngs Moduli (GPa) = 37.77036 15.16178 61.38463
#
# Poissons Ratio (x) = 0.38213 -0.42368
# Poissons Ratio (y) = 0.95194 0.77936
# Poissons Ratio (z) = -0.26069 0.19250
#
# Static dielectric constant tensor:
#      x y z
#    x 2.254540 0.000000 -0.589480 
#    y 0.000000 3.928360 0.000000 
#    z -0.589480 0.000000 3.830160 
# 
# 
# High freq. dielectric constant tensor:
#      x y z
#    x 1.848580 0.000000 -0.005420 
#    y 0.000000 1.858010 0.000000 
#    z -0.005420 0.000000 1.861660 
# 
# From -- ./inp_files/278194.got.cif
#   From: 2010.06.25/outbox.cif.g09.slc.cpg/sg12_140_cif.got.tgz:278194.got - 2010.06.28 00:19:55.
