data_PCOD8108201
_publ_section_title
;
Structure prediction by ZEFSAII (Michael W. Deem and Ramdas Pophale) SiO2 
 PCOD8108201
Probable space group: C 2/M
;
_chemical_formula_sum "Si O2"
_cell_formula_units_Z 48
_cell_length_a 23.324593
_cell_length_b 8.893997
_cell_length_c 18.138217
_cell_angle_alpha 90.000000
_cell_angle_beta 141.283065
_cell_angle_gamma 90.000000
_cell_volume 2353.501195
_symmetry_space_group_name_H-M "C 2/M"
_symmetry_group_IT_number 12
_symmetry_cell_setting 'monoclinic'
loop_
_space_group_symop_operation_xyz
x,y,z
-x,y,-z
-x,-y,-z
x,-y,z
1/2+x,1/2+y,z
1/2-x,1/2+y,-z
1/2-x,1/2-y,-z
1/2+x,1/2-y,z
loop_
_atom_site_type_symbol
_atom_site_label
_atom_site_fract_x
_atom_site_fract_y
_atom_site_fract_z
Si Si1 0.169131 0.831585 0.500265
Si Si2 0.165160 0.827745 0.274360
Si Si3 0.102122 0.170024 0.598618
Si Si4 0.827391 0.321887 0.026605
Si Si5 0.725614 0.677544 0.176773
Si Si6 0.483450 0.674916 0.763580
O O1 0.265308 0.743290 0.595681
O O2 0.132418 0.827756 0.545536
O O3 0.090566 0.762703 0.369349
O O4 0.189545 0.000000 0.493325
O O5 0.175191 0.764126 0.201179
O O6 0.061580 0.804936 0.199971
O O7 0.193716 0.000000 0.299161
O O8 0.167516 0.276299 0.713011
O O9 0.000000 0.236300 0.500000
O O10 0.105340 0.000000 0.634087
O O11 0.816719 0.500000 0.018096
O O12 0.926703 0.274812 0.156406
O O13 0.750000 0.250000 0.000000
O O14 0.821791 0.262460 0.937868
O O15 0.715878 0.500000 0.154544
O O16 0.507950 0.500000 0.773738
#
# Coordination Sequence:
#
# PCOD8108201 Si02
#       6
#     8   8   8   8   8   8
#     4   9  18  32  54  86 122 157 194 240 293 348
#     4   9  19  36  60  89 123 158 195 242 294 346
#     4   9  18  32  53  83 116 155 198 243 297 349
#     4  12  27  45  63  85 114 153 197 247 298 354
#     4  10  21  39  60  85 117 155 197 245 295 346
#     4  10  21  38  60  88 121 161 201 240 292 351
#
# _framework density 20.395146
#
# number of rings (size 3 to 8) (size 9 to 14) (size 15 to 20)
#    0.000    2.167    0.000    2.500    2.333    3.000 
#    0.000    3.333    0.000    0.000    0.000    0.000 
#    0.000    0.000    0.000    0.000    0.000    0.000 
#
# Total GULP energy -297587.929546 kJ/mol
# GULP energy per Si atom -12399.497064 kJ/mol
# Density = 2.034873 g / cm^3
# Si number density = 20.395146 Si / 1000 Ang^3
#
#
#
# Elastic Constant Matrix: (Units=GPa)
#
#
# Indices 1 2 3 4 5 6 
#
# 1 62.8938 37.5467 50.9137 0.0000 10.1046 0.0000
# 2 37.5467 92.9986 47.1358 0.0000 4.2471 0.0000
# 3 50.9137 47.1358 107.6352 0.0000 2.3734 0.0000
# 4 0.0000 0.0000 0.0000 39.5666 0.0000 2.6539
# 5 10.1046 4.2471 2.3734 0.0000 36.1083 0.0000
# 6 0.0000 0.0000 0.0000 2.6539 0.0000 25.1724
#
#
#
# Elastic Compliance Matrix: (Units=1/GPa)
#
#
# Indices 1 2 3 4 5 6 
#
# 1 0.029695 -0.005954 -0.011288 0.000000 -0.006868 0.000000
# 2 -0.005954 0.015069 -0.003786 0.000000 0.000143 0.000000
# 3 -0.011288 -0.003786 0.016232 0.000000 0.002537 0.000000
# 4 0.000000 0.000000 0.000000 0.025454 0.000000 -0.002684
# 5 -0.006868 0.000143 0.002537 0.000000 0.029433 0.000000
# 6 0.000000 0.000000 0.000000 -0.002684 0.000000 0.040009
#
#
# Mechanical properties :
#
#
# Convention : Reuss Voigt Hill
#
# Bulk Modulus (GPa) = 52.79550 59.41334 56.10442
# Shear Modulus (GPa) = 24.47854 28.69821 26.58837
#
# Velocity S-wave (km/s) = 3.46817 3.75522 3.61454
# Velocity P-wave (km/s) = 6.47920 6.92795 6.70733
#
# Compressibility (1/GPa) = 0.01894101
#
# Stress axis : x y z
#
# Youngs Moduli (GPa) = 33.67535 66.36112 61.60755
#
# Poissons Ratio (x) = 0.39514 0.69540
# Poissons Ratio (y) = 0.20052 0.23323
# Poissons Ratio (z) = 0.38011 0.25122
#
# Static dielectric constant tensor:
#      x y z
#    x 3.823430 0.000000 -0.036480 
#    y 0.000000 3.716430 0.000000 
#    z -0.036480 0.000000 3.745620 
# 
# 
# High freq. dielectric constant tensor:
#      x y z
#    x 1.807110 0.000000 -0.001640 
#    y 0.000000 1.782860 0.000000 
#    z -0.001640 0.000000 1.795630 
# 
# From -- ./inp_files/327305.got.cif
#   From: 2010.06.25/outbox.cif.g09.slc.cpg/sg12_164_cif.got.tgz:327305.got - 2010.06.28 00:19:55.
