data_PCOD8108387
_publ_section_title
;
Structure prediction by ZEFSAII (Michael W. Deem and Ramdas Pophale) SiO2 
 PCOD8108387
Probable space group: C 2/M
;
_chemical_formula_sum "Si O2"
_cell_formula_units_Z 56
_cell_length_a 15.237665
_cell_length_b 8.832231
_cell_length_c 22.222360
_cell_angle_alpha 90.000000
_cell_angle_beta 69.613563
_cell_angle_gamma 90.000000
_cell_volume 2803.415760
_symmetry_space_group_name_H-M "C 2/M"
_symmetry_group_IT_number 12
_symmetry_cell_setting 'monoclinic'
loop_
_space_group_symop_operation_xyz
x,y,z
-x,y,-z
-x,-y,-z
x,-y,z
1/2+x,1/2+y,z
1/2-x,1/2+y,-z
1/2-x,1/2-y,-z
1/2+x,1/2-y,z
loop_
_atom_site_type_symbol
_atom_site_label
_atom_site_fract_x
_atom_site_fract_y
_atom_site_fract_z
Si Si1 0.149453 0.824051 0.711414
Si Si2 0.710594 0.175850 0.917806
Si Si3 0.076380 0.176274 0.859150
Si Si4 0.617952 0.824124 0.066744
Si Si5 0.835806 0.173385 0.632385
Si Si6 0.157151 0.321896 0.496121
Si Si7 0.463118 0.326581 0.378314
O O1 0.092345 0.789823 0.785294
O O2 0.245813 0.732108 0.689587
O O3 0.085475 0.768744 0.671165
O O4 0.174527 0.000000 0.699728
O O5 0.667831 0.270717 0.873345
O O6 0.816740 0.230721 0.903134
O O7 0.712155 0.000000 0.900186
O O8 0.648414 0.208278 0.991316
O O9 0.988254 0.272058 0.902029
O O10 0.057985 0.000000 0.875809
O O11 0.627007 0.000000 0.080566
O O12 0.857299 0.269767 0.568269
O O13 0.924984 0.190120 0.655299
O O14 0.819587 0.000000 0.617238
O O15 0.167317 0.500000 0.494824
O O16 0.250000 0.250000 0.500000
O O17 0.069498 0.272839 0.557453
O O18 0.434847 0.500000 0.397897
#
# Coordination Sequence:
#
# PCOD8108387 Si02
#       7
#     8   8   8   8   8   8   8
#     4  10  23  42  60  82 117 160 199 243 289 342
#     4  10  21  38  61  89 121 157 198 247 302 355
#     4  11  23  38  59  88 122 161 202 244 297 355
#     4  10  21  38  61  90 121 155 198 249 301 355
#     4  11  23  39  62  90 117 153 195 240 297 353
#     4  12  23  37  61  90 119 151 191 242 297 351
#     4  10  22  41  62  85 117 153 192 240 294 351
#
# _framework density 19.975631
#
# number of rings (size 3 to 8) (size 9 to 14) (size 15 to 20)
#    0.000    1.429    1.429    3.857    0.000    8.571 
#    0.000    1.429    0.000    0.000    0.000    0.000 
#    0.000    0.000    0.000    0.000    0.000    0.000 
#
# Total GULP energy -347369.945809 kJ/mol
# GULP energy per Si atom -12406.069493 kJ/mol
# Density = 1.993017 g / cm^3
# Si number density = 19.975631 Si / 1000 Ang^3
#
#
#
# Elastic Constant Matrix: (Units=GPa)
#
#
# Indices 1 2 3 4 5 6 
#
# 1 97.0500 27.4874 20.7583 0.0000 -7.6720 0.0000
# 2 27.4874 93.9935 36.0661 0.0000 -3.9888 0.0000
# 3 20.7583 36.0661 48.9000 0.0000 5.8412 0.0000
# 4 0.0000 0.0000 0.0000 31.0394 0.0000 -3.8256
# 5 -7.6720 -3.9888 5.8412 0.0000 19.3043 0.0000
# 6 0.0000 0.0000 0.0000 -3.8256 0.0000 36.8783
#
#
#
# Elastic Compliance Matrix: (Units=1/GPa)
#
#
# Indices 1 2 3 4 5 6 
#
# 1 0.012228 -0.001469 -0.004826 0.000000 0.006017 0.000000
# 2 -0.001469 0.015877 -0.011836 0.000000 0.006278 0.000000
# 3 -0.004826 -0.011836 0.032940 0.000000 -0.014331 0.000000
# 4 0.000000 0.000000 0.000000 0.032634 0.000000 0.003385
# 5 0.006017 0.006278 -0.014331 0.000000 0.059827 0.000000
# 6 0.000000 0.000000 0.000000 0.003385 0.000000 0.027467
#
#
# Mechanical properties :
#
#
# Convention : Reuss Voigt Hill
#
# Bulk Modulus (GPa) = 40.35119 45.39637 42.87378
# Shear Modulus (GPa) = 22.17328 27.81984 24.99656
#
# Velocity S-wave (km/s) = 3.33531 3.73592 3.54128
# Velocity P-wave (km/s) = 5.92253 6.43309 6.18309
#
# Compressibility (1/GPa) = 0.02478241
#
# Stress axis : x y z
#
# Youngs Moduli (GPa) = 81.78041 62.98556 30.35792
#
# Poissons Ratio (x) = 0.09251 0.14651
# Poissons Ratio (y) = 0.12011 0.35932
# Poissons Ratio (z) = 0.39469 0.74551
#
# Static dielectric constant tensor:
#      x y z
#    x 3.779800 0.000000 0.047890 
#    y 0.000000 3.735040 0.000000 
#    z 0.047890 0.000000 3.565320 
# 
# 
# High freq. dielectric constant tensor:
#      x y z
#    x 1.793540 0.000000 -0.000930 
#    y 0.000000 1.787160 0.000000 
#    z -0.000930 0.000000 1.768410 
# 
# From -- ./inp_files/338515.got.cif
#   From: 2010.06.25/outbox.cif.g09.slc.cpg/sg12_170_cif.got.tgz:338515.got - 2010.06.28 00:19:55.
