data_PCOD8108882
_publ_section_title
;
Structure prediction by ZEFSAII (Michael W. Deem and Ramdas Pophale) SiO2 
 PCOD8108882
Probable space group: C 2/M
;
_chemical_formula_sum "Si O2"
_cell_formula_units_Z 64
_cell_length_a 30.110641
_cell_length_b 9.091343
_cell_length_c 18.679953
_cell_angle_alpha 90.000000
_cell_angle_beta 141.611905
_cell_angle_gamma 90.000000
_cell_volume 3175.447114
_symmetry_space_group_name_H-M "C 2/M"
_symmetry_group_IT_number 12
_symmetry_cell_setting 'monoclinic'
loop_
_space_group_symop_operation_xyz
x,y,z
-x,y,-z
-x,-y,-z
x,-y,z
1/2+x,1/2+y,z
1/2-x,1/2+y,-z
1/2-x,1/2-y,-z
1/2+x,1/2-y,z
loop_
_atom_site_type_symbol
_atom_site_label
_atom_site_fract_x
_atom_site_fract_y
_atom_site_fract_z
Si Si1 0.843574 0.834668 0.391823
Si Si2 0.872060 0.171018 0.019801
Si Si3 0.359136 0.172310 0.677172
Si Si4 0.495731 0.664765 0.413157
Si Si5 0.274701 0.170946 0.430217
Si Si6 0.290104 0.830274 0.194802
Si Si7 0.116940 0.669157 0.817741
Si Si8 0.502670 0.673899 0.086188
O O1 0.925222 0.835968 0.520209
O O2 0.800840 0.720158 0.386031
O O3 0.838028 0.777217 0.303468
O O4 0.811977 0.000000 0.357566
O O5 0.792220 0.210467 0.893850
O O6 0.880476 0.000000 0.044890
O O7 0.885957 0.245434 0.112509
O O8 0.928249 0.221768 0.029943
O O9 0.336851 0.204064 0.566743
O O10 0.296914 0.237786 0.647339
O O11 0.433799 0.248886 0.790063
O O12 0.366347 0.000000 0.701589
O O13 0.500000 0.716785 0.500000
O O14 0.462229 0.500000 0.365517
O O15 0.450901 0.783785 0.314089
O O16 0.254222 0.000000 0.403508
O O17 0.311320 0.800508 0.138542
O O18 0.306084 0.000000 0.234286
O O19 0.109533 0.500000 0.828117
O O20 0.515210 0.500000 0.106209
O O21 0.500000 0.726110 0.000000
#
# Coordination Sequence:
#
# PCOD8108882 Si02
#       8
#     8   8   8   8   8   8   8   8
#     4  11  23  37  60  91 122 159 204 249 298 361
#     4  10  23  42  63  87 119 162 207 247 303 374
#     4  10  22  41  64  92 122 155 200 250 304 358
#     4  10  21  39  59  84 121 163 201 241 298 361
#     4  10  22  40  63  90 124 161 196 244 303 365
#     4  10  22  40  61  88 122 162 207 255 307 360
#     4  11  23  38  61  91 122 157 205 261 307 355
#     4  10  23  42  64  90 120 160 205 249 305 370
#
# _framework density 20.154641999999999
#
# number of rings (size 3 to 8) (size 9 to 14) (size 15 to 20)
#    0.000    1.750    1.250    1.875    3.500    4.500 
#    0.000    0.000    0.000    0.000    0.000    0.000 
#    0.000    0.000    0.000    0.000    0.000    0.000 
#
# Total GULP energy -396851.699165 kJ/mol
# GULP energy per Si atom -12401.615599 kJ/mol
# Density = 2.010877 g / cm^3
# Si number density = 20.154642 Si / 1000 Ang^3
#
#
#
# Elastic Constant Matrix: (Units=GPa)
#
#
# Indices 1 2 3 4 5 6 
#
# 1 122.7517 36.6214 43.3818 0.0000 1.3393 0.0000
# 2 36.6214 31.2717 34.5987 0.0000 7.8640 0.0000
# 3 43.3818 34.5987 81.6271 0.0000 13.2603 0.0000
# 4 0.0000 0.0000 0.0000 29.5848 0.0000 3.9895
# 5 1.3393 7.8640 13.2603 0.0000 30.3415 0.0000
# 6 0.0000 0.0000 0.0000 3.9895 0.0000 28.8213
#
#
#
# Elastic Compliance Matrix: (Units=1/GPa)
#
#
# Indices 1 2 3 4 5 6 
#
# 1 0.012940 -0.014720 -0.001254 0.000000 0.003792 0.000000
# 2 -0.014720 0.077616 -0.023588 0.000000 -0.009158 0.000000
# 3 -0.001254 -0.023588 0.023588 0.000000 -0.004140 0.000000
# 4 0.000000 0.000000 0.000000 0.034444 0.000000 -0.004768
# 5 0.003792 -0.009158 -0.004140 0.000000 0.036974 0.000000
# 6 0.000000 0.000000 0.000000 -0.004768 0.000000 0.035357
#
#
# Mechanical properties :
#
#
# Convention : Reuss Voigt Hill
#
# Bulk Modulus (GPa) = 28.55447 51.65050 40.10248
# Shear Modulus (GPa) = 16.04034 25.81942 20.92988
#
# Velocity S-wave (km/s) = 2.82417 3.58308 3.22602
# Velocity P-wave (km/s) = 4.98327 6.54222 5.81522
#
# Compressibility (1/GPa) = 0.03502078
#
# Stress axis : x y z
#
# Youngs Moduli (GPa) = 77.28157 12.88393 42.39492
#
# Poissons Ratio (x) = 0.18965 0.05316
# Poissons Ratio (y) = 1.13756 1.00001
# Poissons Ratio (z) = 0.09690 0.30390
#
# Static dielectric constant tensor:
#      x y z
#    x 3.818300 0.000000 0.053520 
#    y 0.000000 3.629660 0.000000 
#    z 0.053520 0.000000 3.648430 
# 
# 
# High freq. dielectric constant tensor:
#      x y z
#    x 1.795650 0.000000 0.002680 
#    y 0.000000 1.788370 0.000000 
#    z 0.002680 0.000000 1.783150 
# 
# From -- ./inp_files/295835.got.cif
#   From: 2010.06.25/outbox.cif.g09.slc.cpg/sg12_148_cif.got.tgz:295835.got - 2010.06.28 00:19:55.
