data_PCOD8108243
_publ_section_title
;
Structure prediction by ZEFSAII (Michael W. Deem and Ramdas Pophale) SiO2 
 PCOD8108243
Probable space group: C 2/M
;
_chemical_formula_sum "Si O2"
_cell_formula_units_Z 44
_cell_length_a 13.068159
_cell_length_b 13.447221
_cell_length_c 15.948946
_cell_angle_alpha 90.000000
_cell_angle_beta 126.031492
_cell_angle_gamma 90.000000
_cell_volume 2266.538261
_symmetry_space_group_name_H-M "C 2/M"
_symmetry_group_IT_number 12
_symmetry_cell_setting 'monoclinic'
loop_
_space_group_symop_operation_xyz
x,y,z
-x,y,-z
-x,-y,-z
x,-y,z
1/2+x,1/2+y,z
1/2-x,1/2+y,-z
1/2-x,1/2-y,-z
1/2+x,1/2-y,z
loop_
_atom_site_type_symbol
_atom_site_label
_atom_site_fract_x
_atom_site_fract_y
_atom_site_fract_z
Si Si1 0.500000 0.212035 0.000000
Si Si2 0.510597 0.115605 0.827709
Si Si3 0.234605 0.262722 0.895132
Si Si4 0.811020 0.889011 0.574694
Si Si5 0.608344 0.385278 0.715065
Si Si6 0.245879 0.306527 0.368144
O O1 0.474145 0.141616 0.067038
O O2 0.624551 0.281538 0.075470
O O3 0.635969 0.146636 0.834562
O O4 0.393057 0.175285 0.734392
O O5 0.487244 0.000000 0.804895
O O6 0.178794 0.161696 0.828724
O O7 0.250000 0.250000 0.000000
O O8 0.740451 0.809370 0.599497
O O9 0.768931 0.877040 0.458478
O O10 0.960073 0.872397 0.654363
O O11 0.773703 0.000000 0.586373
O O12 0.650258 0.500000 0.729075
O O13 0.648479 0.328187 0.650195
#
# Coordination Sequence:
#
# PCOD8108243 Si02
#       6
#     4   8   8   8   8   8
#     4  10  21  38  61  78 114 152 195 242 293 348
#     4  11  21  36  59  87 115 149 195 244 293 343
#     4  10  22  37  55  86 118 149 189 243 292 343
#     4  10  22  39  60  88 122 156 190 236 292 347
#     4  11  21  38  63  87 115 155 201 239 285 344
#     4  11  21  36  64  90 119 149 197 242 286 341
#
# _framework density 19.412865
#
# number of rings (size 3 to 8) (size 9 to 14) (size 15 to 20)
#    0.000    1.455    3.636    2.455    0.000    4.364 
#    0.000    1.364    0.000    3.273    0.000    0.000 
#    0.000    0.000    0.000    0.000    0.000    0.000 
#
# Total GULP energy -272759.181866 kJ/mol
# GULP energy per Si atom -12398.144630 kJ/mol
# Density = 1.936868 g / cm^3
# Si number density = 19.412865 Si / 1000 Ang^3
#
#
#
# Elastic Constant Matrix: (Units=GPa)
#
#
# Indices 1 2 3 4 5 6 
#
# 1 64.9309 35.1502 8.3373 0.0000 -2.4763 0.0000
# 2 35.1502 102.7632 26.2877 0.0000 -19.7109 0.0000
# 3 8.3373 26.2877 90.2192 0.0000 -8.3246 0.0000
# 4 0.0000 0.0000 0.0000 11.4983 0.0000 9.9240
# 5 -2.4763 -19.7109 -8.3246 0.0000 30.9216 0.0000
# 6 0.0000 0.0000 0.0000 9.9240 0.0000 21.9143
#
#
#
# Elastic Compliance Matrix: (Units=1/GPa)
#
#
# Indices 1 2 3 4 5 6 
#
# 1 0.019144 -0.007133 0.000032 0.000000 -0.003005 0.000000
# 2 -0.007133 0.014395 -0.002811 0.000000 0.007848 0.000000
# 3 0.000032 -0.002811 0.012034 0.000000 0.001450 0.000000
# 4 0.000000 0.000000 0.000000 0.142772 0.000000 -0.064655
# 5 -0.003005 0.007848 0.001450 0.000000 0.037493 0.000000
# 6 0.000000 0.000000 0.000000 -0.064655 0.000000 0.074912
#
#
# Mechanical properties :
#
#
# Convention : Reuss Voigt Hill
#
# Bulk Modulus (GPa) = 38.83609 44.16263 41.49936
# Shear Modulus (GPa) = 15.19037 25.40937 20.29987
#
# Velocity S-wave (km/s) = 2.80034 3.62179 3.23722
# Velocity P-wave (km/s) = 5.52310 6.34731 5.94949
#
# Compressibility (1/GPa) = 0.02574925
#
# Stress axis : x y z
#
# Youngs Moduli (GPa) = 52.23700 69.46713 83.09723
#
# Poissons Ratio (x) = 0.49548 -0.00265
# Poissons Ratio (y) = 0.37259 0.23360
# Poissons Ratio (z) = -0.00167 0.19528
#
# Static dielectric constant tensor:
#      x y z
#    x 3.697600 0.000000 0.281250 
#    y 0.000000 3.562610 0.000000 
#    z 0.281250 0.000000 3.715800 
# 
# 
# High freq. dielectric constant tensor:
#      x y z
#    x 1.752440 0.000000 0.013960 
#    y 0.000000 1.739630 0.000000 
#    z 0.013960 0.000000 1.774450 
# 
# From -- ./inp_files/204625.got.cif
#   From: 2010.06.25/outbox.cif.g09.slc.cpg/sg12_103_cif.got.tgz:204625.got - 2010.06.28 00:19:55.
