data_PCOD8108000
_publ_section_title
;
Structure prediction by ZEFSAII (Michael W. Deem and Ramdas Pophale) SiO2 
 PCOD8108000
Probable space group: C 2/M
;
_chemical_formula_sum "Si O2"
_cell_formula_units_Z 40
_cell_length_a 13.818759
_cell_length_b 17.822114
_cell_length_c 13.531120
_cell_angle_alpha 90.000000
_cell_angle_beta 143.805382
_cell_angle_gamma 90.000000
_cell_volume 1967.903832
_symmetry_space_group_name_H-M "C 2/M"
_symmetry_group_IT_number 12
_symmetry_cell_setting 'monoclinic'
loop_
_space_group_symop_operation_xyz
x,y,z
-x,y,-z
-x,-y,-z
x,-y,z
1/2+x,1/2+y,z
1/2-x,1/2+y,-z
1/2-x,1/2-y,-z
1/2+x,1/2-y,z
loop_
_atom_site_type_symbol
_atom_site_label
_atom_site_fract_x
_atom_site_fract_y
_atom_site_fract_z
Si Si1 0.279483 0.326751 0.703521
Si Si2 0.292172 0.086534 0.157328
Si Si3 0.893752 0.189841 0.122192
Si Si4 0.170813 0.585156 0.435620
Si Si5 0.407823 0.317272 0.515383
O O1 0.257616 0.357543 0.795450
O O2 0.460205 0.291660 0.835144
O O3 0.254410 0.396969 0.609373
O O4 0.144498 0.265096 0.564091
O O5 0.478919 0.100762 0.282642
O O6 0.259757 0.000000 0.159477
O O7 0.182637 0.109272 0.972414
O O8 0.963758 0.187557 0.289839
O O9 0.750000 0.250000 0.000000
O O10 0.209901 0.500000 0.440523
O O11 0.246472 0.636774 0.412165
O O12 0.500000 0.357529 0.500000
#
# Coordination Sequence:
#
# PCOD8108000 Si02
#       5
#     8   8   8   8   8
#     4  11  21  37  62  89 118 152 197 244 297 359
#     4  11  23  39  62  93 124 151 187 247 315 358
#     4  11  22  37  58  86 123 157 192 241 293 353
#     4  10  21  38  59  84 118 157 196 240 292 355
#     4  11  23  39  61  84 114 159 208 245 280 345
#
# _framework density 20.326198000000002
#
# number of rings (size 3 to 8) (size 9 to 14) (size 15 to 20)
#    0.000    1.200    0.000    9.000    0.000    6.800 
#    0.000    3.000    0.000    2.400    0.000    0.000 
#    0.000    0.000    0.000    0.000    0.000    0.000 
#
# Total GULP energy -247995.510363 kJ/mol
# GULP energy per Si atom -12399.775518 kJ/mol
# Density = 2.027993 g / cm^3
# Si number density = 20.326198 Si / 1000 Ang^3
#
#
#
# Elastic Constant Matrix: (Units=GPa)
#
#
# Indices 1 2 3 4 5 6 
#
# 1 145.0450 68.3119 63.9863 0.0000 5.2032 0.0000
# 2 68.3119 100.3140 61.3411 0.0000 -4.7136 0.0000
# 3 63.9863 61.3411 125.5369 0.0000 7.0921 0.0000
# 4 0.0000 0.0000 0.0000 34.2855 0.0000 0.4482
# 5 5.2032 -4.7136 7.0921 0.0000 29.3777 0.0000
# 6 0.0000 0.0000 0.0000 0.4482 0.0000 29.6068
#
#
#
# Elastic Compliance Matrix: (Units=1/GPa)
#
#
# Indices 1 2 3 4 5 6 
#
# 1 0.010908 -0.006011 -0.002493 0.000000 -0.002295 0.000000
# 2 -0.006011 0.018012 -0.006043 0.000000 0.005414 0.000000
# 3 -0.002493 -0.006043 0.012388 0.000000 -0.003519 0.000000
# 4 0.000000 0.000000 0.000000 0.029173 0.000000 -0.000442
# 5 -0.002295 0.005414 -0.003519 0.000000 0.036164 0.000000
# 6 0.000000 0.000000 0.000000 -0.000442 0.000000 0.033783
#
#
# Mechanical properties :
#
#
# Convention : Reuss Voigt Hill
#
# Bulk Modulus (GPa) = 81.87782 84.24161 83.05971
# Shear Modulus (GPa) = 28.80321 30.47109 29.63715
#
# Velocity S-wave (km/s) = 3.76845 3.87603 3.82262
# Velocity P-wave (km/s) = 7.70093 7.84642 7.77402
#
# Compressibility (1/GPa) = 0.01221332
#
# Stress axis : x y z
#
# Youngs Moduli (GPa) = 91.67967 55.51859 80.72449
#
# Poissons Ratio (x) = 0.33375 0.20121
# Poissons Ratio (y) = 0.55113 0.48782
# Poissons Ratio (z) = 0.22852 0.33550
#
# Static dielectric constant tensor:
#      x y z
#    x 3.894380 0.000000 0.156330 
#    y 0.000000 3.748660 0.000000 
#    z 0.156330 0.000000 3.845900 
# 
# 
# High freq. dielectric constant tensor:
#      x y z
#    x 1.800860 0.000000 0.017140 
#    y 0.000000 1.784080 0.000000 
#    z 0.017140 0.000000 1.805080 
# 
# From -- ./inp_files/61375.got.cif
#   From: 2010.06.25/outbox.cif.g09.slc.cpg/sg12_31_cif.got.tgz:61375.got - 2010.06.28 00:19:55.
