data_PCOD8108822
_publ_section_title
;
Structure prediction by ZEFSAII (Michael W. Deem and Ramdas Pophale) SiO2 
 PCOD8108822
Probable space group: C 2/M
;
_chemical_formula_sum "Si O2"
_cell_formula_units_Z 64
_cell_length_a 21.162991
_cell_length_b 19.611572
_cell_length_c 9.189839
_cell_angle_alpha 90.000000
_cell_angle_beta 61.842419
_cell_angle_gamma 90.000000
_cell_volume 3362.753846
_symmetry_space_group_name_H-M "C 2/M"
_symmetry_group_IT_number 12
_symmetry_cell_setting 'monoclinic'
loop_
_space_group_symop_operation_xyz
x,y,z
-x,y,-z
-x,-y,-z
x,-y,z
1/2+x,1/2+y,z
1/2-x,1/2+y,-z
1/2-x,1/2-y,-z
1/2+x,1/2-y,z
loop_
_atom_site_type_symbol
_atom_site_label
_atom_site_fract_x
_atom_site_fract_y
_atom_site_fract_z
Si Si1 0.995778 0.209216 0.672301
Si Si2 0.290293 0.422241 0.660775
Si Si3 0.836447 0.577309 0.013361
Si Si4 0.361015 0.240803 0.335336
Si Si5 0.227287 0.075553 0.882871
Si Si6 0.251821 0.852705 0.564265
Si Si7 0.430248 0.801994 0.978220
Si Si8 0.403149 0.420243 0.759841
O O1 0.939616 0.253810 0.827226
O O2 0.971574 0.129258 0.710000
O O3 0.000000 0.232995 0.500000
O O4 0.072125 0.223397 0.660413
O O5 0.288500 0.500000 0.714092
O O6 0.278846 0.414561 0.501404
O O7 0.366189 0.396227 0.646188
O O8 0.221037 0.389001 0.812879
O O9 0.859621 0.500000 0.029268
O O10 0.799844 0.578865 0.896070
O O11 0.906196 0.624794 0.942191
O O12 0.334873 0.169044 0.439567
O O13 0.296365 0.290731 0.432810
O O14 0.372888 0.231339 0.150018
O O15 0.238973 0.130019 0.744527
O O16 0.219214 0.000000 0.824852
O O17 0.155784 0.092652 0.051083
O O18 0.500000 0.814433 0.000000
O O19 0.428612 0.500000 0.730557
#
# Coordination Sequence:
#
# PCOD8108822 Si02
#       8
#     8   8   8   8   8   8   8   8
#     4  11  23  38  57  80 115 150 193 235 281 329
#     4   9  17  32  57  83 110 141 183 232 279 335
#     4   9  18  35  56  80 107 140 184 229 282 338
#     4  10  23  36  51  82 111 152 187 227 277 335
#     4   9  19  34  57  86 112 142 180 231 288 337
#     4  11  19  34  56  80 117 140 187 233 273 332
#     4  10  21  39  56  76 112 150 184 231 286 338
#     4   9  19  38  59  84 116 151 190 233 283 342
#
# _framework density 19.032021
#
# number of rings (size 3 to 8) (size 9 to 14) (size 15 to 20)
#    0.000    2.250    1.250    3.375    1.750    0.500 
#    0.000    3.125    0.000    5.250    0.000    0.000 
#    0.000    0.000    0.000    0.000    0.000    0.000 
#
# Total GULP energy -396467.817428 kJ/mol
# GULP energy per Si atom -12389.619295 kJ/mol
# Density = 1.898870 g / cm^3
# Si number density = 19.032021 Si / 1000 Ang^3
#
#
#
# Elastic Constant Matrix: (Units=GPa)
#
#
# Indices 1 2 3 4 5 6 
#
# 1 75.7653 53.6298 32.3784 0.0000 1.8709 0.0000
# 2 53.6298 80.1166 26.4084 0.0000 2.8645 0.0000
# 3 32.3784 26.4084 90.8476 0.0000 14.3114 0.0000
# 4 0.0000 0.0000 0.0000 12.9166 0.0000 -15.4448
# 5 1.8709 2.8645 14.3114 0.0000 25.2128 0.0000
# 6 0.0000 0.0000 0.0000 -15.4448 0.0000 22.2454
#
#
#
# Elastic Compliance Matrix: (Units=1/GPa)
#
#
# Indices 1 2 3 4 5 6 
#
# 1 0.027045 -0.016457 -0.005308 0.000000 0.002876 0.000000
# 2 -0.016457 0.023833 -0.000910 0.000000 -0.000970 0.000000
# 3 -0.005308 -0.000910 0.014370 0.000000 -0.007660 0.000000
# 4 0.000000 0.000000 0.000000 0.455910 0.000000 0.316534
# 5 0.002876 -0.000970 -0.007660 0.000000 0.043907 0.000000
# 6 0.000000 0.000000 0.000000 0.316534 0.000000 0.264720
#
#
# Mechanical properties :
#
#
# Convention : Reuss Voigt Hill
#
# Bulk Modulus (GPa) = 50.25543 52.39587 51.32565
# Shear Modulus (GPa) = 5.67043 21.02916 13.34979
#
# Velocity S-wave (km/s) = 1.72797 3.32766 2.65134
# Velocity P-wave (km/s) = 5.51763 6.50804 6.03319
#
# Compressibility (1/GPa) = 0.01989835
#
# Stress axis : x y z
#
# Youngs Moduli (GPa) = 36.97542 41.95928 69.58766
#
# Poissons Ratio (x) = 0.69052 0.36938
# Poissons Ratio (y) = 0.60850 0.06331
# Poissons Ratio (z) = 0.19627 0.03817
#
# Static dielectric constant tensor:
#      x y z
#    x 3.429290 0.000000 -0.049680 
#    y 0.000000 3.436850 0.000000 
#    z -0.049680 0.000000 3.501750 
# 
# 
# High freq. dielectric constant tensor:
#      x y z
#    x 1.729130 0.000000 0.001000 
#    y 0.000000 1.733430 0.000000 
#    z 0.001000 0.000000 1.743090 
# 
# From -- ./inp_files/89601.got.cif
#   From: 2010.06.25/outbox.cif.g09.slc.cpg/sg12_45_cif.got.tgz:89601.got - 2010.06.28 00:19:55.
