data_PCOD8108513
_publ_section_title
;
Structure prediction by ZEFSAII (Michael W. Deem and Ramdas Pophale) SiO2 
 PCOD8108513
Probable space group: C 2/M
;
_chemical_formula_sum "Si O2"
_cell_formula_units_Z 48
_cell_length_a 20.972896
_cell_length_b 12.902236
_cell_length_c 10.830492
_cell_angle_alpha 90.000000
_cell_angle_beta 50.669393
_cell_angle_gamma 90.000000
_cell_volume 2266.902661
_symmetry_space_group_name_H-M "C 2/M"
_symmetry_group_IT_number 12
_symmetry_cell_setting 'monoclinic'
loop_
_space_group_symop_operation_xyz
x,y,z
-x,y,-z
-x,-y,-z
x,-y,z
1/2+x,1/2+y,z
1/2-x,1/2+y,-z
1/2-x,1/2-y,-z
1/2+x,1/2-y,z
loop_
_atom_site_type_symbol
_atom_site_label
_atom_site_fract_x
_atom_site_fract_y
_atom_site_fract_z
Si Si1 0.136587 0.806495 0.538317
Si Si2 0.326340 0.885836 0.929884
Si Si3 0.808413 0.618887 0.391926
Si Si4 0.537444 0.619092 0.161919
Si Si5 0.584385 0.806592 0.956806
Si Si6 0.845754 0.817012 0.766893
O O1 0.156186 0.684354 0.535829
O O2 0.209607 0.875553 0.506776
O O3 0.124367 0.829921 0.409351
O O4 0.054440 0.837400 0.711214
O O5 0.334205 0.804822 0.809184
O O6 0.332364 0.000000 0.864028
O O7 0.400231 0.871190 0.937082
O O8 0.240524 0.874427 0.107852
O O9 0.837507 0.500000 0.367682
O O10 0.840937 0.674582 0.228060
O O11 0.536756 0.500000 0.121472
O O12 0.585963 0.630940 0.230543
O O13 0.580783 0.684780 0.999111
O O14 0.500000 0.846930 0.000000
#
# Coordination Sequence:
#
# PCOD8108513 Si02
#       6
#     8   8   8   8   8   8
#     4  11  23  43  62  94 129 158 209 257 305 375
#     4  10  21  38  62  89 120 163 206 254 311 363
#     4  11  24  42  66  91 125 170 206 251 312 365
#     4  11  24  41  65  94 124 163 204 257 318 363
#     4  11  22  42  62  94 122 160 210 257 295 373
#     4  10  22  39  61  90 125 157 208 259 301 374
#
# _framework density 21.174265999999999
#
# number of rings (size 3 to 8) (size 9 to 14) (size 15 to 20)
#    0.000    1.333    3.333    2.000    0.000    5.000 
#    0.000    0.833    0.000    3.000    0.000    0.000 
#    0.000    0.000    0.000    0.000    0.000    0.000 
#
# Total GULP energy -297673.089052 kJ/mol
# GULP energy per Si atom -12403.045377 kJ/mol
# Density = 2.112607 g / cm^3
# Si number density = 21.174266 Si / 1000 Ang^3
#
#
#
# Elastic Constant Matrix: (Units=GPa)
#
#
# Indices 1 2 3 4 5 6 
#
# 1 92.6792 28.1532 5.9541 0.0000 -18.1845 0.0000
# 2 28.1532 154.8247 22.7704 0.0000 -14.3877 0.0000
# 3 5.9541 22.7704 48.0855 0.0000 -9.5406 0.0000
# 4 0.0000 0.0000 0.0000 16.4419 0.0000 1.2774
# 5 -18.1845 -14.3877 -9.5406 0.0000 27.1788 0.0000
# 6 0.0000 0.0000 0.0000 1.2774 0.0000 16.5377
#
#
#
# Elastic Compliance Matrix: (Units=1/GPa)
#
#
# Indices 1 2 3 4 5 6 
#
# 1 0.012818 -0.001710 0.000800 0.000000 0.007952 0.000000
# 2 -0.001710 0.007361 -0.002932 0.000000 0.001724 0.000000
# 3 0.000800 -0.002932 0.023522 0.000000 0.007240 0.000000
# 4 0.000000 0.000000 0.000000 0.061187 0.000000 -0.004726
# 5 0.007952 0.001724 0.007240 0.000000 0.045568 0.000000
# 6 0.000000 0.000000 0.000000 -0.004726 0.000000 0.060833
#
#
# Mechanical properties :
#
#
# Convention : Reuss Voigt Hill
#
# Bulk Modulus (GPa) = 27.76357 45.48276 36.62316
# Shear Modulus (GPa) = 21.64698 27.94579 24.79639
#
# Velocity S-wave (km/s) = 3.20085 3.63685 3.42579
# Velocity P-wave (km/s) = 5.17697 6.25798 5.74297
#
# Compressibility (1/GPa) = 0.03601842
#
# Stress axis : x y z
#
# Youngs Moduli (GPa) = 78.01475 135.84747 42.51301
#
# Poissons Ratio (x) = 0.23223 -0.03402
# Poissons Ratio (y) = 0.13337 0.12465
# Poissons Ratio (z) = -0.06242 0.39832
#
# Static dielectric constant tensor:
#      x y z
#    x 3.951530 0.000000 -0.110220 
#    y 0.000000 3.794940 0.000000 
#    z -0.110220 0.000000 3.628270 
# 
# 
# High freq. dielectric constant tensor:
#      x y z
#    x 1.842270 0.000000 -0.008760 
#    y 0.000000 1.827380 0.000000 
#    z -0.008760 0.000000 1.815180 
# 
# From -- ./inp_files/165201.got.cif
#   From: 2010.06.25/outbox.cif.g09.slc.cpg/sg12_83_cif.got.tgz:165201.got - 2010.06.28 00:19:55.
