data_PCOD8108376
_publ_section_title
;
Structure prediction by ZEFSAII (Michael W. Deem and Ramdas Pophale) SiO2 
 PCOD8108376
Probable space group: C 2/M
;
_chemical_formula_sum "Si O2"
_cell_formula_units_Z 56
_cell_length_a 16.184344
_cell_length_b 17.549822
_cell_length_c 21.019989
_cell_angle_alpha 90.000000
_cell_angle_beta 153.387722
_cell_angle_gamma 90.000000
_cell_volume 2674.425524
_symmetry_space_group_name_H-M "C 2/M"
_symmetry_group_IT_number 12
_symmetry_cell_setting 'monoclinic'
loop_
_space_group_symop_operation_xyz
x,y,z
-x,y,-z
-x,-y,-z
x,-y,z
1/2+x,1/2+y,z
1/2-x,1/2+y,-z
1/2-x,1/2-y,-z
1/2+x,1/2-y,z
loop_
_atom_site_type_symbol
_atom_site_label
_atom_site_fract_x
_atom_site_fract_y
_atom_site_fract_z
Si Si1 0.102812 0.848838 0.134184
Si Si2 0.248632 0.699603 0.382589
Si Si3 0.116582 0.913537 0.775943
Si Si4 0.033679 0.585728 0.590851
Si Si5 0.163748 0.198109 0.697785
Si Si6 0.086059 0.192468 0.871639
Si Si7 0.806587 0.585106 0.549248
O O1 0.249090 0.915431 0.247239
O O2 0.213007 0.770286 0.199619
O O3 0.959855 0.848647 0.093801
O O4 0.000000 0.871276 0.000000
O O5 0.448203 0.724010 0.548603
O O6 0.274598 0.667737 0.329007
O O7 0.164520 0.631847 0.366506
O O8 0.101068 0.768145 0.283636
O O9 0.205944 0.868140 0.777982
O O10 0.158839 0.868904 0.870542
O O11 0.900707 0.917249 0.616820
O O12 0.197284 0.000000 0.834754
O O13 0.956390 0.500000 0.531160
O O14 0.000000 0.629658 0.500000
O O15 0.924601 0.624873 0.573996
O O16 0.250000 0.250000 0.000000
O O17 0.879924 0.500000 0.613904
#
# Coordination Sequence:
#
# PCOD8108376 Si02
#       7
#     8   8   8   8   8   8   8
#     4  11  24  38  61  88 122 161 199 254 307 364
#     4   9  20  36  60  88 118 158 200 254 304 359
#     4  10  21  38  61  89 119 160 201 247 306 367
#     4  10  22  38  59  87 122 161 204 249 297 365
#     4   9  20  37  60  91 119 152 205 252 305 360
#     4  11  24  39  59  87 121 158 203 252 306 361
#     4   9  19  34  58  89 119 153 198 250 303 354
#
# _framework density 20.939077000000001
#
# number of rings (size 3 to 8) (size 9 to 14) (size 15 to 20)
#    0.000    2.143    0.000    1.714   10.000    3.714 
#    0.000    3.571    0.000    8.143    0.000    0.000 
#    0.000    0.000    0.000    0.000    0.000    0.000 
#
# Total GULP energy -347140.015262 kJ/mol
# GULP energy per Si atom -12397.857688 kJ/mol
# Density = 2.089142 g / cm^3
# Si number density = 20.939077 Si / 1000 Ang^3
#
#
#
# Elastic Constant Matrix: (Units=GPa)
#
#
# Indices 1 2 3 4 5 6 
#
# 1 143.9545 40.0900 25.0148 0.0053 -15.2674 -0.0014
# 2 40.0900 71.8030 6.1844 0.0296 -13.6323 0.0088
# 3 25.0148 6.1844 64.2335 0.0880 -15.9992 0.0221
# 4 0.0053 0.0296 0.0880 29.4864 0.0149 -2.1815
# 5 -15.2674 -13.6323 -15.9992 0.0149 33.9047 -0.0012
# 6 -0.0014 0.0088 0.0221 -2.1815 -0.0012 26.9788
#
#
#
# Elastic Compliance Matrix: (Units=1/GPa)
#
#
# Indices 1 2 3 4 5 6 
#
# 1 0.008770 -0.004500 -0.002775 0.000011 0.000830 0.000005
# 2 -0.004500 0.017387 0.001490 -0.000025 0.005668 -0.000009
# 3 -0.002775 0.001490 0.018520 -0.000062 0.008089 -0.000020
# 4 0.000011 -0.000025 -0.000062 0.034118 -0.000049 0.002759
# 5 0.000830 0.005668 0.008089 -0.000049 0.035964 -0.000011
# 6 0.000005 -0.000009 -0.000020 0.002759 -0.000011 0.037289
#
#
# Mechanical properties :
#
#
# Convention : Reuss Voigt Hill
#
# Bulk Modulus (GPa) = 30.20468 46.95215 38.57841
# Shear Modulus (GPa) = 28.62769 31.98741 30.30755
#
# Velocity S-wave (km/s) = 3.70156 3.91275 3.80862
# Velocity P-wave (km/s) = 5.72059 6.54864 6.14857
#
# Compressibility (1/GPa) = 0.03310746
#
# Stress axis : x y z
#
# Youngs Moduli (GPa) = 114.02280 57.51338 53.99439
#
# Poissons Ratio (x) = 0.25881 0.14986
# Poissons Ratio (y) = 0.51310 -0.08046
# Poissons Ratio (z) = 0.31646 -0.08571
#
# Static dielectric constant tensor:
#      x y z
#    x 4.141850 0.000010 0.020890 
#    y 0.000010 3.777220 -0.000140 
#    z 0.020890 -0.000140 3.593510 
# 
# 
# High freq. dielectric constant tensor:
#      x y z
#    x 1.840980 0.000000 -0.002410 
#    y 0.000000 1.805360 -0.000010 
#    z -0.002410 -0.000010 1.799840 
# 
# From -- ./inp_files/311742.got.cif
#   From: 2010.06.25/outbox.cif.g09.slc.cpg/sg12_156_cif.got.tgz:311742.got - 2010.06.28 00:19:55.
