data_PCOD8108779
_publ_section_title
;
Structure prediction by ZEFSAII (Michael W. Deem and Ramdas Pophale) SiO2 
 PCOD8108779
Probable space group: C 2/M
;
_chemical_formula_sum "Si O2"
_cell_formula_units_Z 56
_cell_length_a 25.305209
_cell_length_b 13.498059
_cell_length_c 8.813715
_cell_angle_alpha 90.000000
_cell_angle_beta 64.595893
_cell_angle_gamma 90.000000
_cell_volume 2719.408488
_symmetry_space_group_name_H-M "C 2/M"
_symmetry_group_IT_number 12
_symmetry_cell_setting 'monoclinic'
loop_
_space_group_symop_operation_xyz
x,y,z
-x,y,-z
-x,-y,-z
x,-y,z
1/2+x,1/2+y,z
1/2-x,1/2+y,-z
1/2-x,1/2-y,-z
1/2+x,1/2-y,z
loop_
_atom_site_type_symbol
_atom_site_label
_atom_site_fract_x
_atom_site_fract_y
_atom_site_fract_z
Si Si1 0.986951 0.263754 0.355292
Si Si2 0.192762 0.276764 0.480757
Si Si3 0.892498 0.282969 0.939622
Si Si4 0.673751 0.390580 0.071137
Si Si5 0.197307 0.613045 0.162461
Si Si6 0.403786 0.884648 0.243151
Si Si7 0.612597 0.614647 0.469577
O O1 0.951655 0.340057 0.296461
O O2 0.952057 0.161665 0.434870
O O3 0.000000 0.317102 0.500000
O O4 0.048194 0.238458 0.202246
O O5 0.250000 0.250000 0.500000
O O6 0.204360 0.315002 0.297066
O O7 0.160377 0.364154 0.611712
O O8 0.154330 0.176589 0.529887
O O9 0.850334 0.188449 0.021426
O O10 0.858999 0.357468 0.867173
O O11 0.909446 0.337300 0.071603
O O12 0.661760 0.500000 0.020689
O O13 0.639073 0.373360 0.269457
O O14 0.743433 0.375535 0.010466
O O15 0.188638 0.500000 0.227128
O O16 0.415580 0.000000 0.213221
O O17 0.610367 0.500000 0.522493
#
# Coordination Sequence:
#
# PCOD8108779 Si02
#       7
#     8   8   8   8   8   8   8
#     4  11  23  43  65  93 124 168 214 267 320 373
#     4  11  23  41  63  94 132 171 209 264 316 382
#     4  12  22  41  66  92 130 166 216 265 319 377
#     4  10  21  38  65  97 129 166 212 262 317 380
#     4  11  23  39  63  95 130 169 213 262 320 383
#     4  11  26  43  63  93 128 169 214 264 320 381
#     4  10  22  41  65  96 127 166 217 263 318 380
#
# _framework density 20.592714000000001
#
# number of rings (size 3 to 8) (size 9 to 14) (size 15 to 20)
#    0.000    1.143    2.857    3.429    2.000    4.000 
#    0.000    4.286    0.000    4.286    0.000    0.000 
#    0.000    0.000    0.000    0.000    0.000    0.000 
#
# Total GULP energy -347174.216006 kJ/mol
# GULP energy per Si atom -12399.079143 kJ/mol
# Density = 2.054584 g / cm^3
# Si number density = 20.592714 Si / 1000 Ang^3
#
#
#
# Elastic Constant Matrix: (Units=GPa)
#
#
# Indices 1 2 3 4 5 6 
#
# 1 149.4543 62.6325 52.5080 0.0000 3.9471 0.0000
# 2 62.6325 155.7470 43.1870 0.0000 2.7014 0.0000
# 3 52.5080 43.1870 102.7123 0.0000 -4.4318 0.0000
# 4 0.0000 0.0000 0.0000 27.6184 0.0000 -4.9830
# 5 3.9471 2.7014 -4.4318 0.0000 47.0869 0.0000
# 6 0.0000 0.0000 0.0000 -4.9830 0.0000 16.8377
#
#
#
# Elastic Compliance Matrix: (Units=1/GPa)
#
#
# Indices 1 2 3 4 5 6 
#
# 1 0.009078 -0.002645 -0.003570 0.000000 -0.000945 0.000000
# 2 -0.002645 0.008062 -0.002057 0.000000 -0.000434 0.000000
# 3 -0.003570 -0.002057 0.012494 0.000000 0.001593 0.000000
# 4 0.000000 0.000000 0.000000 0.038250 0.000000 0.011320
# 5 -0.000945 -0.000434 0.001593 0.000000 0.021491 0.000000
# 6 0.000000 0.000000 0.000000 0.011320 0.000000 0.062741
#
#
# Mechanical properties :
#
#
# Convention : Reuss Voigt Hill
#
# Bulk Modulus (GPa) = 76.37814 80.50762 78.44288
# Shear Modulus (GPa) = 28.89782 34.94766 31.92274
#
# Velocity S-wave (km/s) = 3.75013 4.12404 3.94152
# Velocity P-wave (km/s) = 7.47808 7.86492 7.67394
#
# Compressibility (1/GPa) = 0.01309275
#
# Stress axis : x y z
#
# Youngs Moduli (GPa) = 110.15095 124.03938 80.03601
#
# Poissons Ratio (x) = 0.32803 0.28572
# Poissons Ratio (y) = 0.29130 0.16460
# Poissons Ratio (z) = 0.39323 0.25510
#
# Static dielectric constant tensor:
#      x y z
#    x 3.731620 0.000000 0.030560 
#    y 0.000000 3.905800 0.000000 
#    z 0.030560 0.000000 3.356970 
# 
# 
# High freq. dielectric constant tensor:
#      x y z
#    x 1.812120 0.000000 -0.013180 
#    y 0.000000 1.810430 0.000000 
#    z -0.013180 0.000000 1.805730 
# 
# From -- ./inp_files/96771.got.cif
#   From: 2010.06.25/outbox.cif.g09.slc.cpg/sg12_49_cif.got.tgz:96771.got - 2010.06.28 00:19:55.
