data_PCOD8108028
_publ_section_title
;
Structure prediction by ZEFSAII (Michael W. Deem and Ramdas Pophale) SiO2 
 PCOD8108028
Probable space group: C 2/M
;
_chemical_formula_sum "Si O2"
_cell_formula_units_Z 56
_cell_length_a 27.956559
_cell_length_b 8.943385
_cell_length_c 19.136848
_cell_angle_alpha 90.000000
_cell_angle_beta 35.473537
_cell_angle_gamma 90.000000
_cell_volume 2776.698578
_symmetry_space_group_name_H-M "C 2/M"
_symmetry_group_IT_number 12
_symmetry_cell_setting 'monoclinic'
loop_
_space_group_symop_operation_xyz
x,y,z
-x,y,-z
-x,-y,-z
x,-y,z
1/2+x,1/2+y,z
1/2-x,1/2+y,-z
1/2-x,1/2-y,-z
1/2+x,1/2-y,z
loop_
_atom_site_type_symbol
_atom_site_label
_atom_site_fract_x
_atom_site_fract_y
_atom_site_fract_z
Si Si1 0.761696 0.670767 0.690818
Si Si2 0.056392 0.671916 0.497226
Si Si3 0.286827 0.824424 0.387485
Si Si4 0.452343 0.669988 0.207801
Si Si5 0.012788 0.172145 0.289181
Si Si6 0.173983 0.324149 0.053597
Si Si7 0.864921 0.173947 0.041026
O O1 0.752776 0.500000 0.676305
O O2 0.846105 0.690311 0.635219
O O3 0.764557 0.774060 0.619116
O O4 0.683460 0.716234 0.831156
O O5 0.034512 0.500000 0.540648
O O6 0.000000 0.728138 0.500000
O O7 0.041017 0.775396 0.581976
O O8 0.250000 0.750000 0.500000
O O9 0.382017 0.778928 0.262895
O O10 0.278691 0.000000 0.405814
O O11 0.426249 0.500000 0.222301
O O12 0.460342 0.694317 0.281254
O O13 0.537802 0.708972 0.066441
O O14 0.093434 0.273426 0.191035
O O15 0.039004 0.000000 0.266531
O O16 0.182207 0.500000 0.047942
O O17 0.250000 0.250000 0.000000
O O18 0.172700 0.273795 0.975077
O O19 0.852942 0.000000 0.035049
#
# Coordination Sequence:
#
# PCOD8108028 Si02
#       7
#     8   8   8   8   8   8   8
#     4  10  22  41  63  88 123 161 200 245 301 363
#     4  10  22  38  58  87 119 158 200 245 302 362
#     4  12  25  40  62  90 120 156 204 252 303 359
#     4   9  19  38  62  88 121 156 197 245 299 359
#     4  10  21  38  59  86 116 153 199 247 299 357
#     4  11  22  36  58  86 118 157 200 250 300 354
#     4   9  20  39  62  89 121 160 201 244 296 363
#
# _framework density 20.167836000000001
#
# number of rings (size 3 to 8) (size 9 to 14) (size 15 to 20)
#    0.000    1.857    0.000    4.714    2.000    7.143 
#    0.000    2.857    0.000    0.000    0.000    0.000 
#    0.000    0.000    0.000    0.000    0.000    0.000 
#
# Total GULP energy -347288.641509 kJ/mol
# GULP energy per Si atom -12403.165768 kJ/mol
# Density = 2.012193 g / cm^3
# Si number density = 20.167836 Si / 1000 Ang^3
#
#
#
# Elastic Constant Matrix: (Units=GPa)
#
#
# Indices 1 2 3 4 5 6 
#
# 1 92.6142 43.1981 54.4314 -0.0068 -14.1565 0.0055
# 2 43.1981 116.9681 42.1335 -0.0013 -4.8271 -0.0017
# 3 54.4314 42.1335 112.8819 -0.0025 6.8542 -0.0069
# 4 -0.0068 -0.0013 -0.0025 29.9616 -0.0101 0.1616
# 5 -14.1565 -4.8271 6.8542 -0.0101 30.9319 0.0058
# 6 0.0055 -0.0017 -0.0069 0.1616 0.0058 34.6504
#
#
#
# Elastic Compliance Matrix: (Units=1/GPa)
#
#
# Indices 1 2 3 4 5 6 
#
# 1 0.018912 -0.003547 -0.008400 0.000007 0.009963 -0.000007
# 2 -0.003547 0.010720 -0.002325 0.000000 0.000565 0.000001
# 3 -0.008400 -0.002325 0.014224 -0.000003 -0.007359 0.000005
# 4 0.000007 0.000000 -0.000003 0.033377 0.000015 -0.000156
# 5 0.009963 0.000565 -0.007359 0.000015 0.038608 -0.000010
# 6 -0.000007 0.000001 0.000005 -0.000156 -0.000010 0.028860
#
#
# Mechanical properties :
#
#
# Convention : Reuss Voigt Hill
#
# Bulk Modulus (GPa) = 65.31299 66.88780 66.10040
# Shear Modulus (GPa) = 28.03467 31.28885 29.66176
#
# Velocity S-wave (km/s) = 3.73241 3.94308 3.83919
# Velocity P-wave (km/s) = 7.14349 7.34630 7.24561
#
# Compressibility (1/GPa) = 0.01531089
#
# Stress axis : x y z
#
# Youngs Moduli (GPa) = 52.87646 93.28091 70.30340
#
# Poissons Ratio (x) = 0.33091 0.59056
# Poissons Ratio (y) = 0.18758 0.16346
# Poissons Ratio (z) = 0.44417 0.21689
#
# Static dielectric constant tensor:
#      x y z
#    x 3.449590 0.000000 -0.027730 
#    y 0.000000 3.620680 0.000010 
#    z -0.027730 0.000010 3.636840 
# 
# 
# High freq. dielectric constant tensor:
#      x y z
#    x 1.784190 0.000000 -0.009270 
#    y 0.000000 1.781920 0.000000 
#    z -0.009270 0.000000 1.796980 
# 
# From -- ./inp_files/329476.got.cif
#   From: 2010.06.25/outbox.cif.g09.slc.cpg/sg12_165_cif.got.tgz:329476.got - 2010.06.28 00:19:55.
