data_PCOD8108053
_publ_section_title
;
Structure prediction by ZEFSAII (Michael W. Deem and Ramdas Pophale) SiO2 
 PCOD8108053
Probable space group: C 2/M
;
_chemical_formula_sum "Si O2"
_cell_formula_units_Z 56
_cell_length_a 21.726943
_cell_length_b 8.857365
_cell_length_c 14.702282
_cell_angle_alpha 90.000000
_cell_angle_beta 112.495088
_cell_angle_gamma 90.000000
_cell_volume 2614.078839
_symmetry_space_group_name_H-M "C 2/M"
_symmetry_group_IT_number 12
_symmetry_cell_setting 'monoclinic'
loop_
_space_group_symop_operation_xyz
x,y,z
-x,y,-z
-x,-y,-z
x,-y,z
1/2+x,1/2+y,z
1/2-x,1/2+y,-z
1/2-x,1/2-y,-z
1/2+x,1/2-y,z
loop_
_atom_site_type_symbol
_atom_site_label
_atom_site_fract_x
_atom_site_fract_y
_atom_site_fract_z
Si Si1 0.418738 0.326919 0.257748
Si Si2 0.260895 0.834107 0.414699
Si Si3 0.922920 0.677492 0.955727
Si Si4 0.135243 0.824293 0.251264
Si Si5 0.089961 0.332221 0.564381
Si Si6 0.822999 0.176554 0.044645
Si Si7 0.451296 0.174294 0.655760
O O1 0.440331 0.500000 0.257145
O O2 0.407787 0.295004 0.357819
O O3 0.352656 0.292057 0.161973
O O4 0.478599 0.218991 0.257911
O O5 0.250000 0.750000 0.500000
O O6 0.213610 0.779650 0.304401
O O7 0.337046 0.833076 0.434224
O O8 0.234223 0.000000 0.420914
O O9 0.918253 0.500000 0.971258
O O10 0.895725 0.716507 0.841409
O O11 0.876271 0.759382 0.003051
O O12 0.000000 0.732365 0.000000
O O13 0.104010 0.781672 0.331679
O O14 0.122631 0.000000 0.219706
O O15 0.072637 0.500000 0.594385
O O16 0.041794 0.295570 0.450343
O O17 0.814464 0.000000 0.019776
O O18 0.750000 0.250000 0.000000
O O19 0.433926 0.000000 0.665137
#
# Coordination Sequence:
#
# PCOD8108053 Si02
#       7
#     8   8   8   8   8   8   8
#     4  11  25  42  63  92 124 161 206 260 316 372
#     4  10  21  38  59  88 124 164 205 250 306 366
#     4  11  25  45  70  99 130 170 218 269 327 390
#     4  11  23  38  63  96 128 165 206 256 315 372
#     4  10  22  39  60  89 126 167 209 250 301 370
#     4  11  26  47  69  96 130 170 218 274 331 388
#     4  11  22  39  63  92 127 169 209 253 305 368
#
# _framework density 21.422459
#
# number of rings (size 3 to 8) (size 9 to 14) (size 15 to 20)
#    0.000    1.286    1.429    3.429    2.000    9.714 
#    0.000    0.000    0.000    0.000    0.000    0.000 
#    0.000    0.000    0.000    0.000    0.000    0.000 
#
# Total GULP energy -347111.343969 kJ/mol
# GULP energy per Si atom -12396.833713 kJ/mol
# Density = 2.137370 g / cm^3
# Si number density = 21.422459 Si / 1000 Ang^3
#
#
#
# Elastic Constant Matrix: (Units=GPa)
#
#
# Indices 1 2 3 4 5 6 
#
# 1 77.9463 42.4063 35.0829 0.0000 11.7592 0.0000
# 2 42.4063 79.3628 47.4067 0.0000 10.7377 0.0000
# 3 35.0829 47.4067 119.7811 0.0000 19.9333 0.0000
# 4 0.0000 0.0000 0.0000 36.5374 0.0000 -3.4078
# 5 11.7592 10.7377 19.9333 0.0000 40.4653 0.0000
# 6 0.0000 0.0000 0.0000 -3.4078 0.0000 36.1928
#
#
#
# Elastic Compliance Matrix: (Units=1/GPa)
#
#
# Indices 1 2 3 4 5 6 
#
# 1 0.018629 -0.008659 -0.001645 0.000000 -0.002305 0.000000
# 2 -0.008659 0.020586 -0.005578 0.000000 -0.000198 0.000000
# 3 -0.001645 -0.005578 0.011669 0.000000 -0.003790 0.000000
# 4 0.000000 0.000000 0.000000 0.027612 0.000000 0.002600
# 5 -0.002305 -0.000198 -0.003790 0.000000 0.027302 0.000000
# 6 0.000000 0.000000 0.000000 0.002600 0.000000 0.027875
#
#
# Mechanical properties :
#
#
# Convention : Reuss Voigt Hill
#
# Bulk Modulus (GPa) = 52.30689 58.54243 55.42466
# Shear Modulus (GPa) = 29.10177 32.78538 30.94358
#
# Velocity S-wave (km/s) = 3.68974 3.91630 3.80471
# Velocity P-wave (km/s) = 6.52856 6.91642 6.72529
#
# Compressibility (1/GPa) = 0.01911794
#
# Stress axis : x y z
#
# Youngs Moduli (GPa) = 53.68062 48.57602 85.69735
#
# Poissons Ratio (x) = 0.42063 0.14101
# Poissons Ratio (y) = 0.46483 0.47805
# Poissons Ratio (z) = 0.08833 0.27098
#
# Static dielectric constant tensor:
#      x y z
#    x 3.723290 0.000000 0.265710 
#    y 0.000000 3.979880 0.000000 
#    z 0.265710 0.000000 4.025290 
# 
# 
# High freq. dielectric constant tensor:
#      x y z
#    x 1.853330 0.000000 0.016220 
#    y 0.000000 1.840360 0.000000 
#    z 0.016220 0.000000 1.850420 
# 
# From -- ./inp_files/239014.got.cif
#   From: 2010.06.25/outbox.cif.g09.slc.cpg/sg12_120_cif.got.tgz:239014.got - 2010.06.28 00:19:55.
