data_PCOD8108799
_publ_section_title
;
Structure prediction by ZEFSAII (Michael W. Deem and Ramdas Pophale) SiO2 
 PCOD8108799
Probable space group: C 2/M
;
_chemical_formula_sum "Si O2"
_cell_formula_units_Z 40
_cell_length_a 18.659130
_cell_length_b 14.657434
_cell_length_c 16.984857
_cell_angle_alpha 90.000000
_cell_angle_beta 24.618916
_cell_angle_gamma 90.000000
_cell_volume 1935.132199
_symmetry_space_group_name_H-M "C 2/M"
_symmetry_group_IT_number 12
_symmetry_cell_setting 'monoclinic'
loop_
_space_group_symop_operation_xyz
x,y,z
-x,y,-z
-x,-y,-z
x,-y,z
1/2+x,1/2+y,z
1/2-x,1/2+y,-z
1/2-x,1/2-y,-z
1/2+x,1/2-y,z
loop_
_atom_site_type_symbol
_atom_site_label
_atom_site_fract_x
_atom_site_fract_y
_atom_site_fract_z
Si Si1 0.884019 0.186250 0.452255
Si Si2 0.982222 0.000000 0.292732
Si Si3 0.363676 0.000000 0.905913
Si Si4 0.000000 0.233935 0.500000
Si Si5 0.001306 0.300925 0.800999
Si Si6 0.346642 0.500000 0.031122
Si Si7 0.649724 0.304519 0.908359
O O1 0.004455 0.254300 0.280016
O O2 0.688311 0.221107 0.650700
O O3 0.960242 0.173298 0.463236
O O4 0.874597 0.087202 0.424242
O O5 0.176145 0.000000 0.135842
O O6 0.990121 0.000000 0.190361
O O7 0.464673 0.908944 0.831103
O O8 0.330654 0.000000 0.844138
O O9 0.165747 0.294419 0.316376
O O10 0.863600 0.251568 0.995908
O O11 0.364235 0.412067 0.067022
O O12 0.500000 0.269130 0.000000
#
# Coordination Sequence:
#
# PCOD8108799 Si02
#       7
#     8   4   4   4   8   4   8
#     4  11  23  41  67  98 134 178 229 282 336 408
#     4  10  21  39  64  97 122 180 224 272 329 404
#     4  10  21  38  66  98 120 182 223 283 320 402
#     4  12  26  40  70 100 138 184 222 284 344 396
#     4  11  22  43  67  96 136 178 234 275 336 408
#     4  10  23  41  69  99 136 182 224 280 338 404
#     4  12  24  46  66 103 141 180 225 280 342 403
#
# _framework density 20.670421999999999
#
# number of rings (size 3 to 8) (size 9 to 14) (size 15 to 20)
#    0.600    0.400    4.000    3.300    0.000    3.200 
#    0.000    2.500    0.000    0.000    0.000    0.000 
#    0.000    0.000    0.000    0.000    0.000    0.000 
#
# Total GULP energy -247951.961297 kJ/mol
# GULP energy per Si atom -12397.598065 kJ/mol
# Density = 2.062338 g / cm^3
# Si number density = 20.670422 Si / 1000 Ang^3
#
#
#
# Elastic Constant Matrix: (Units=GPa)
#
#
# Indices 1 2 3 4 5 6 
#
# 1 68.8104 -5.3557 31.4921 -0.0051 -5.4813 0.0011
# 2 -5.3557 123.4849 36.2599 -0.0014 4.3503 0.0000
# 3 31.4921 36.2599 127.3870 -0.0048 4.9093 0.0013
# 4 -0.0051 -0.0014 -0.0048 31.4855 0.0009 -1.8250
# 5 -5.4813 4.3503 4.9093 0.0009 19.4804 0.0030
# 6 0.0011 0.0000 0.0013 -1.8250 0.0030 36.9398
#
#
#
# Elastic Compliance Matrix: (Units=1/GPa)
#
#
# Indices 1 2 3 4 5 6 
#
# 1 0.017503 0.002065 -0.005137 0.000002 0.005758 -0.000001
# 2 0.002065 0.009116 -0.003079 0.000000 -0.000679 0.000000
# 3 -0.005137 -0.003079 0.010124 0.000001 -0.003309 0.000000
# 4 0.000002 0.000000 0.000001 0.031852 -0.000001 0.001574
# 5 0.005758 -0.000679 -0.003309 -0.000001 0.053939 -0.000005
# 6 -0.000001 0.000000 0.000000 0.001574 -0.000005 0.027149
#
#
# Mechanical properties :
#
#
# Convention : Reuss Voigt Hill
#
# Bulk Modulus (GPa) = 40.91568 49.38612 45.15090
# Shear Modulus (GPa) = 29.38906 34.73355 32.06131
#
# Velocity S-wave (km/s) = 3.77476 4.10365 3.94264
# Velocity P-wave (km/s) = 6.23183 6.81156 6.52813
#
# Compressibility (1/GPa) = 0.02444051
#
# Stress axis : x y z
#
# Youngs Moduli (GPa) = 57.13345 109.70072 98.77650
#
# Poissons Ratio (x) = -0.22648 0.50737
# Poissons Ratio (y) = -0.11795 0.30413
# Poissons Ratio (z) = 0.29347 0.33776
#
# Static dielectric constant tensor:
#      x y z
#    x 3.653700 -0.000010 0.071340 
#    y -0.000010 3.440130 0.000020 
#    z 0.071340 0.000020 3.797120 
# 
# 
# High freq. dielectric constant tensor:
#      x y z
#    x 1.804920 0.000000 -0.002330 
#    y 0.000000 1.801750 0.000000 
#    z -0.002330 0.000000 1.814230 
# 
# From -- ./inp_files/225601.got.cif
#   From: 2010.06.25/outbox.cif.g09.slc.cpg/sg12_113_cif.got.tgz:225601.got - 2010.06.28 00:19:55.
