data_PCOD8108554
_publ_section_title
;
Structure prediction by ZEFSAII (Michael W. Deem and Ramdas Pophale) SiO2 
 PCOD8108554
Probable space group: C 2/M
;
_chemical_formula_sum "Si O2"
_cell_formula_units_Z 48
_cell_length_a 19.042331
_cell_length_b 8.829618
_cell_length_c 27.386024
_cell_angle_alpha 90.000000
_cell_angle_beta 30.196780
_cell_angle_gamma 90.000000
_cell_volume 2315.977189
_symmetry_space_group_name_H-M "C 2/M"
_symmetry_group_IT_number 12
_symmetry_cell_setting 'monoclinic'
loop_
_space_group_symop_operation_xyz
x,y,z
-x,y,-z
-x,-y,-z
x,-y,z
1/2+x,1/2+y,z
1/2-x,1/2+y,-z
1/2-x,1/2-y,-z
1/2+x,1/2-y,z
loop_
_atom_site_type_symbol
_atom_site_label
_atom_site_fract_x
_atom_site_fract_y
_atom_site_fract_z
Si Si1 0.587948 0.177237 0.210889
Si Si2 0.071842 0.322803 0.405825
Si Si3 0.101541 0.178775 0.102014
Si Si4 0.654656 0.827701 0.788699
Si Si5 0.900974 0.678952 0.414298
Si Si6 0.656898 0.827795 0.899090
O O1 0.543569 0.267269 0.189298
O O2 0.491022 0.232001 0.313636
O O3 0.747988 0.216734 0.126444
O O4 0.574012 0.000000 0.209281
O O5 0.101168 0.500000 0.381912
O O6 0.219984 0.239147 0.318618
O O7 0.000000 0.283741 0.500000
O O8 0.975084 0.263573 0.419475
O O9 0.987064 0.232321 0.131756
O O10 0.116929 0.000000 0.091406
O O11 0.250000 0.250000 0.000000
O O12 0.702983 0.817391 0.815456
O O13 0.625621 0.000000 0.790058
O O14 0.885238 0.500000 0.424993
O O15 0.750000 0.750000 0.500000
O O16 0.672067 0.000000 0.909725
O O17 0.500000 0.770274 0.000000
#
# Coordination Sequence:
#
# PCOD8108554 Si02
#       6
#     8   8   8   8   8   8
#     4  11  23  41  64  93 128 165 210 261 314 378
#     4  10  22  42  65  92 126 168 215 262 318 378
#     4  12  26  44  66  93 129 170 214 262 316 377
#     4  11  23  40  64  95 130 166 209 261 318 379
#     4  10  23  41  63  93 128 165 210 262 317 378
#     4  10  21  38  62  91 123 162 205 253 310 375
#
# _framework density 20.725591999999999
#
# number of rings (size 3 to 8) (size 9 to 14) (size 15 to 20)
#    0.000    1.333    1.667    3.500    2.333    4.667 
#    0.000    0.000    0.000    0.000    0.000    0.000 
#    0.000    0.000    0.000    0.000    0.000    0.000 
#
# Total GULP energy -297743.309010 kJ/mol
# GULP energy per Si atom -12405.971209 kJ/mol
# Density = 2.067842 g / cm^3
# Si number density = 20.725592 Si / 1000 Ang^3
#
#
#
# Elastic Constant Matrix: (Units=GPa)
#
#
# Indices 1 2 3 4 5 6 
#
# 1 74.7325 26.7016 19.6136 -0.0002 -0.8605 0.0002
# 2 26.7016 91.5379 35.6585 0.0000 -1.4557 0.0002
# 3 19.6136 35.6585 111.3652 -0.0014 -5.8483 -0.0001
# 4 -0.0002 0.0000 -0.0014 37.5969 -0.0002 -5.5542
# 5 -0.8605 -1.4557 -5.8483 -0.0002 39.2173 0.0001
# 6 0.0002 0.0002 -0.0001 -5.5542 0.0001 35.2035
#
#
#
# Elastic Compliance Matrix: (Units=1/GPa)
#
#
# Indices 1 2 3 4 5 6 
#
# 1 0.015135 -0.003857 -0.001432 0.000000 -0.000025 0.000000
# 2 -0.003857 0.013465 -0.003639 0.000000 -0.000127 0.000000
# 3 -0.001432 -0.003639 0.010470 0.000000 0.001395 0.000000
# 4 0.000000 0.000000 0.000000 0.027233 0.000000 0.004297
# 5 -0.000025 -0.000127 0.001395 0.000000 0.025702 0.000000
# 6 0.000000 0.000000 0.000000 0.004297 0.000000 0.029084
#
#
# Mechanical properties :
#
#
# Convention : Reuss Voigt Hill
#
# Bulk Modulus (GPa) = 47.13869 49.06479 48.10174
# Shear Modulus (GPa) = 34.24293 35.44768 34.84530
#
# Velocity S-wave (km/s) = 4.06914 4.14010 4.10478
# Velocity P-wave (km/s) = 6.69857 6.82487 6.76201
#
# Compressibility (1/GPa) = 0.02121400
#
# Stress axis : x y z
#
# Youngs Moduli (GPa) = 66.07298 74.26600 95.51122
#
# Poissons Ratio (x) = 0.28648 0.13674
# Poissons Ratio (y) = 0.25488 0.34754
# Poissons Ratio (z) = 0.09460 0.27024
#
# Static dielectric constant tensor:
#      x y z
#    x 3.907900 0.000000 0.120750 
#    y 0.000000 3.684680 0.000000 
#    z 0.120750 0.000000 3.763540 
# 
# 
# High freq. dielectric constant tensor:
#      x y z
#    x 1.820050 0.000000 0.002770 
#    y 0.000000 1.806640 0.000000 
#    z 0.002770 0.000000 1.820570 
# 
# From -- ./inp_files/244885.got.cif
#   From: 2010.06.25/outbox.cif.g09.slc.cpg/sg12_123_cif.got.tgz:244885.got - 2010.06.28 00:19:55.
