data_PCOD8108398
_publ_section_title
;
Structure prediction by ZEFSAII (Michael W. Deem and Ramdas Pophale) SiO2 
 PCOD8108398
Probable space group: C 2/M
;
_chemical_formula_sum "Si O2"
_cell_formula_units_Z 64
_cell_length_a 20.025707
_cell_length_b 8.860912
_cell_length_c 33.006362
_cell_angle_alpha 90.000000
_cell_angle_beta 146.412354
_cell_angle_gamma 90.000000
_cell_volume 3240.078165
_symmetry_space_group_name_H-M "C 2/M"
_symmetry_group_IT_number 12
_symmetry_cell_setting 'monoclinic'
loop_
_space_group_symop_operation_xyz
x,y,z
-x,y,-z
-x,-y,-z
x,-y,z
1/2+x,1/2+y,z
1/2-x,1/2+y,-z
1/2-x,1/2-y,-z
1/2+x,1/2-y,z
loop_
_atom_site_type_symbol
_atom_site_label
_atom_site_fract_x
_atom_site_fract_y
_atom_site_fract_z
Si Si1 0.926002 0.822732 0.343376
Si Si2 0.772340 0.323475 0.968461
Si Si3 0.495377 0.672431 0.043539
Si Si4 0.836707 0.826208 0.657859
Si Si5 0.596310 0.825625 0.582925
Si Si6 0.844180 0.322286 0.577747
Si Si7 0.768226 0.326784 0.203306
Si Si8 0.390343 0.323872 0.188059
O O1 0.933540 0.776458 0.393753
O O2 0.801363 0.770167 0.259869
O O3 0.024807 0.740594 0.365921
O O4 0.944349 0.000000 0.349107
O O5 0.762941 0.500000 0.969486
O O6 0.672824 0.268681 0.885349
O O7 0.750000 0.250000 0.000000
O O8 0.905694 0.280078 0.022000
O O9 0.448622 0.500000 0.021901
O O10 0.625588 0.689573 0.128859
O O11 0.500000 0.729599 0.000000
O O12 0.732765 0.791436 0.637955
O O13 0.810481 0.720532 0.606416
O O14 0.966698 0.790393 0.743380
O O15 0.829454 0.000000 0.639887
O O16 0.500000 0.780956 0.500000
O O17 0.580574 0.000000 0.587246
O O18 0.840703 0.500000 0.570597
O O19 0.750000 0.250000 0.500000
O O20 0.807010 0.500000 0.228940
O O21 0.833682 0.267697 0.196280
O O22 0.365372 0.500000 0.183367
#
# Coordination Sequence:
#
# PCOD8108398 Si02
#       8
#     8   8   8   8   8   8   8   8
#     4  12  25  41  62  91 128 164 206 256 306 366
#     4  11  24  40  61  91 128 170 211 258 312 373
#     4  10  21  39  63  91 122 161 210 261 314 372
#     4  10  21  39  63  90 122 162 206 256 315 375
#     4  10  22  41  64  90 124 166 209 255 311 372
#     4  12  24  39  62  92 124 160 206 255 307 366
#     4  11  22  38  64  93 123 161 206 261 316 370
#     4  10  21  38  61  89 124 163 205 256 315 375
#
# _framework density 19.752609
#
# number of rings (size 3 to 8) (size 9 to 14) (size 15 to 20)
#    0.000    1.250    2.500    3.750    0.000    4.500 
#    0.000    2.500    0.000    0.000    0.000    0.000 
#    0.000    0.000    0.000    0.000    0.000    0.000 
#
# Total GULP energy -396966.968756 kJ/mol
# GULP energy per Si atom -12405.217774 kJ/mol
# Density = 1.970765 g / cm^3
# Si number density = 19.752609 Si / 1000 Ang^3
#
#
#
# Elastic Constant Matrix: (Units=GPa)
#
#
# Indices 1 2 3 4 5 6 
#
# 1 83.7771 34.6350 35.1836 0.0000 -7.1727 0.0000
# 2 34.6350 104.2467 42.0875 0.0002 -9.5428 0.0000
# 3 35.1836 42.0875 108.6004 0.0000 -7.5397 0.0000
# 4 0.0000 0.0002 0.0000 29.3842 0.0000 -8.3369
# 5 -7.1727 -9.5428 -7.5397 0.0000 35.9495 -0.0001
# 6 0.0000 0.0000 0.0000 -8.3369 -0.0001 31.6566
#
#
#
# Elastic Compliance Matrix: (Units=1/GPa)
#
#
# Indices 1 2 3 4 5 6 
#
# 1 0.014908 -0.003459 -0.003396 0.000000 0.001344 0.000000
# 2 -0.003459 0.012337 -0.003532 0.000000 0.001844 0.000000
# 3 -0.003396 -0.003532 0.011736 0.000000 0.000846 0.000000
# 4 0.000000 0.000000 0.000000 0.036780 0.000000 0.009686
# 5 0.001344 0.001844 0.000846 0.000000 0.028752 0.000000
# 6 0.000000 0.000000 0.000000 0.009686 0.000000 0.034140
#
#
# Mechanical properties :
#
#
# Convention : Reuss Voigt Hill
#
# Bulk Modulus (GPa) = 54.92716 57.82627 56.37672
# Shear Modulus (GPa) = 30.21235 31.71260 30.96247
#
# Velocity S-wave (km/s) = 3.91517 4.01120 3.96348
# Velocity P-wave (km/s) = 6.95025 7.12684 7.03910
#
# Compressibility (1/GPa) = 0.01820593
#
# Stress axis : x y z
#
# Youngs Moduli (GPa) = 67.07972 81.05866 85.20806
#
# Poissons Ratio (x) = 0.28037 0.28936
# Poissons Ratio (y) = 0.23202 0.30099
# Poissons Ratio (z) = 0.22780 0.28634
#
# Static dielectric constant tensor:
#      x y z
#    x 3.469360 0.000000 0.004750 
#    y 0.000000 3.629420 0.000000 
#    z 0.004750 0.000000 3.858530 
# 
# 
# High freq. dielectric constant tensor:
#      x y z
#    x 1.767390 0.000000 0.002150 
#    y 0.000000 1.770710 0.000000 
#    z 0.002150 0.000000 1.788700 
# 
# From -- ./inp_files/378526.got.cif
#   From: 2010.06.25/outbox.cif.g09.slc.cpg/sg12_190_cif.got.tgz:378526.got - 2010.06.28 00:19:55.
