data_PCOD8108522
_publ_section_title
;
Structure prediction by ZEFSAII (Michael W. Deem and Ramdas Pophale) SiO2 
 PCOD8108522
Probable space group: C 2/M
;
_chemical_formula_sum "Si O2"
_cell_formula_units_Z 56
_cell_length_a 27.438932
_cell_length_b 8.809295
_cell_length_c 12.621788
_cell_angle_alpha 90.000000
_cell_angle_beta 66.793098
_cell_angle_gamma 90.000000
_cell_volume 2804.053375
_symmetry_space_group_name_H-M "C 2/M"
_symmetry_group_IT_number 12
_symmetry_cell_setting 'monoclinic'
loop_
_space_group_symop_operation_xyz
x,y,z
-x,y,-z
-x,-y,-z
x,-y,z
1/2+x,1/2+y,z
1/2-x,1/2+y,-z
1/2-x,1/2-y,-z
1/2+x,1/2-y,z
loop_
_atom_site_type_symbol
_atom_site_label
_atom_site_fract_x
_atom_site_fract_y
_atom_site_fract_z
Si Si1 0.442479 0.819122 0.516970
Si Si2 0.939926 0.823502 0.077079
Si Si3 0.855556 0.321037 0.753565
Si Si4 0.143403 0.321901 0.008218
Si Si5 0.713115 0.172206 0.616415
Si Si6 0.762335 0.819923 0.186056
Si Si7 0.908380 0.672114 0.316660
O O1 0.500000 0.755742 0.500000
O O2 0.398437 0.750926 0.635347
O O3 0.430950 0.764226 0.407832
O O4 0.441045 0.000000 0.524329
O O5 0.929368 0.780792 0.207187
O O6 0.928117 0.000000 0.070094
O O7 0.902250 0.730565 0.031659
O O8 0.000000 0.780407 0.000000
O O9 0.853243 0.500000 0.739971
O O10 0.873282 0.279831 0.857734
O O11 0.797034 0.255081 0.779182
O O12 0.151602 0.500000 0.985702
O O13 0.199699 0.242999 0.938216
O O14 0.750000 0.250000 0.500000
O O15 0.714110 0.265610 0.723282
O O16 0.654581 0.175920 0.619573
O O17 0.731835 0.000000 0.620965
O O18 0.763229 0.000000 0.180960
O O19 0.928030 0.500000 0.278020
#
# Coordination Sequence:
#
# PCOD8108522 Si02
#       7
#     8   8   8   8   8   8   8
#     4   9  18  34  58  88 118 150 194 245 297 349
#     4  11  25  42  61  87 121 161 201 245 304 363
#     4   9  20  36  56  87 123 159 197 246 301 356
#     4  11  22  38  62  91 121 154 202 250 297 360
#     4  11  22  36  57  87 121 159 204 249 297 359
#     4  11  21  37  59  85 123 161 196 245 305 361
#     4  10  21  38  62  90 119 153 197 248 296 354
#
# _framework density 19.971088999999999
#
# number of rings (size 3 to 8) (size 9 to 14) (size 15 to 20)
#    0.000    1.714    1.429    3.000    2.000    4.000 
#    0.000    2.143    0.000    2.143    0.000    0.000 
#    0.000    0.000    0.000    0.000    0.000    0.000 
#
# Total GULP energy -347291.768553 kJ/mol
# GULP energy per Si atom -12403.277448 kJ/mol
# Density = 1.992563 g / cm^3
# Si number density = 19.971089 Si / 1000 Ang^3
#
#
#
# Elastic Constant Matrix: (Units=GPa)
#
#
# Indices 1 2 3 4 5 6 
#
# 1 136.8823 31.1495 62.7979 0.0000 5.1698 0.0000
# 2 31.1495 62.6014 28.9710 0.0000 -3.9535 0.0000
# 3 62.7979 28.9710 108.7521 0.0000 6.9074 0.0000
# 4 0.0000 0.0000 0.0000 18.7339 0.0000 -6.1655
# 5 5.1698 -3.9535 6.9074 0.0000 39.7354 0.0000
# 6 0.0000 0.0000 0.0000 -6.1655 0.0000 12.4629
#
#
#
# Elastic Compliance Matrix: (Units=1/GPa)
#
#
# Indices 1 2 3 4 5 6 
#
# 1 0.010347 -0.002795 -0.005185 0.000000 -0.000723 0.000000
# 2 -0.002795 0.019263 -0.003703 0.000000 0.002924 0.000000
# 3 -0.005185 -0.003703 0.013303 0.000000 -0.002006 0.000000
# 4 0.000000 0.000000 0.000000 0.063760 0.000000 0.031543
# 5 -0.000723 0.002924 -0.002006 0.000000 0.025900 0.000000
# 6 0.000000 0.000000 0.000000 0.031543 0.000000 0.095843
#
#
# Mechanical properties :
#
#
# Convention : Reuss Voigt Hill
#
# Bulk Modulus (GPa) = 51.15654 61.56365 56.36009
# Shear Modulus (GPa) = 19.35744 26.54094 22.94919
#
# Velocity S-wave (km/s) = 3.11669 3.64946 3.39355
# Velocity P-wave (km/s) = 6.21471 6.97505 6.60583
#
# Compressibility (1/GPa) = 0.01954784
#
# Stress axis : x y z
#
# Youngs Moduli (GPa) = 96.64238 51.91184 75.17109
#
# Poissons Ratio (x) = 0.14510 0.38973
# Poissons Ratio (y) = 0.27012 0.27839
# Poissons Ratio (z) = 0.50104 0.19225
#
# Static dielectric constant tensor:
#      x y z
#    x 4.057760 0.000000 0.239390 
#    y 0.000000 3.440020 0.000000 
#    z 0.239390 0.000000 4.032690 
# 
# 
# High freq. dielectric constant tensor:
#      x y z
#    x 1.790350 0.000000 0.000390 
#    y 0.000000 1.753300 0.000000 
#    z 0.000390 0.000000 1.794320 
# 
# From -- ./inp_files/180751.got.cif
#   From: 2010.06.25/outbox.cif.g09.slc.cpg/sg12_91_cif.got.tgz:180751.got - 2010.06.28 00:19:55.
