data_PCOD8108610
_publ_section_title
;
Structure prediction by ZEFSAII (Michael W. Deem and Ramdas Pophale) SiO2 
 PCOD8108610
Probable space group: C 2/M
;
_chemical_formula_sum "Si O2"
_cell_formula_units_Z 32
_cell_length_a 14.300372
_cell_length_b 26.506097
_cell_length_c 9.492348
_cell_angle_alpha 90.000000
_cell_angle_beta 151.403738
_cell_angle_gamma 90.000000
_cell_volume 1722.149456
_symmetry_space_group_name_H-M "C 2/M"
_symmetry_group_IT_number 12
_symmetry_cell_setting 'monoclinic'
loop_
_space_group_symop_operation_xyz
x,y,z
-x,y,-z
-x,-y,-z
x,-y,z
1/2+x,1/2+y,z
1/2-x,1/2+y,-z
1/2-x,1/2-y,-z
1/2+x,1/2-y,z
loop_
_atom_site_type_symbol
_atom_site_label
_atom_site_fract_x
_atom_site_fract_y
_atom_site_fract_z
Si Si1 0.364394 0.390969 0.691125
Si Si2 0.610974 0.443531 0.792238
Si Si3 0.138551 0.300749 0.316197
Si Si4 0.517009 0.123901 0.686298
O O1 0.464201 0.433271 0.727643
O O2 0.309797 0.342723 0.519908
O O3 0.161649 0.411506 0.493037
O O4 0.500000 0.373301 0.000000
O O5 0.500000 0.439071 0.500000
O O6 0.694244 0.500000 0.923745
O O7 0.782012 0.403099 0.012584
O O8 0.250000 0.250000 0.500000
O O9 0.999576 0.321210 0.259745
O O10 0.000000 0.292805 0.000000
O O11 0.500000 0.134023 0.500000
#
# Coordination Sequence:
#
# PCOD8108610 Si02
#       4
#     8   8   8   8
#     4  10  21  40  62  86 127 156 200 252 296 349
#     4  11  23  39  61  91 122 159 203 246 300 359
#     4  10  21  38  63  88 120 156 198 247 296 356
#     4  10  22  41  62  88 123 159 201 247 297 359
#
# _framework density 18.581430000000001
#
# number of rings (size 3 to 8) (size 9 to 14) (size 15 to 20)
#    1.500    0.250    2.500    2.250    0.000    2.000 
#    0.000    8.750    0.000    0.000    0.000    0.000 
#    0.000    0.000    0.000    0.000    0.000    0.000 
#
# Total GULP energy -198215.639490 kJ/mol
# GULP energy per Si atom -12388.477468 kJ/mol
# Density = 1.853914 g / cm^3
# Si number density = 18.581430 Si / 1000 Ang^3
#
#
#
# Elastic Constant Matrix: (Units=GPa)
#
#
# Indices 1 2 3 4 5 6 
#
# 1 132.7480 52.6781 52.5100 0.0000 5.2135 0.0000
# 2 52.6781 114.2288 57.1978 0.0000 -10.2329 0.0000
# 3 52.5100 57.1978 128.8008 0.0000 -17.8511 0.0000
# 4 0.0000 0.0000 0.0000 36.8759 0.0000 5.8623
# 5 5.2135 -10.2329 -17.8511 0.0000 26.5168 0.0000
# 6 0.0000 0.0000 0.0000 5.8623 0.0000 30.4094
#
#
#
# Elastic Compliance Matrix: (Units=1/GPa)
#
#
# Indices 1 2 3 4 5 6 
#
# 1 0.010603 -0.003657 -0.003511 0.000000 -0.005859 0.000000
# 2 -0.003657 0.012547 -0.003651 0.000000 0.003103 0.000000
# 3 -0.003511 -0.003651 0.011820 0.000000 0.007238 0.000000
# 4 0.000000 0.000000 0.000000 0.027975 0.000000 -0.005393
# 5 -0.005859 0.003103 0.007238 0.000000 0.044934 0.000000
# 6 0.000000 0.000000 0.000000 -0.005393 0.000000 0.033924
#
#
# Mechanical properties :
#
#
# Convention : Reuss Voigt Hill
#
# Bulk Modulus (GPa) = 75.00417 77.83882 76.42150
# Shear Modulus (GPa) = 29.78237 32.98655 31.38446
#
# Velocity S-wave (km/s) = 4.00785 4.21793 4.11423
# Velocity P-wave (km/s) = 7.86574 8.10573 7.98664
#
# Compressibility (1/GPa) = 0.01333259
#
# Stress axis : x y z
#
# Youngs Moduli (GPa) = 94.31289 79.70179 84.60374
#
# Poissons Ratio (x) = 0.29144 0.29704
# Poissons Ratio (y) = 0.34486 0.30889
# Poissons Ratio (z) = 0.33113 0.29099
#
# Static dielectric constant tensor:
#      x y z
#    x 3.462300 0.000000 0.020920 
#    y 0.000000 3.241450 0.000000 
#    z 0.020920 0.000000 3.500920 
# 
# 
# High freq. dielectric constant tensor:
#      x y z
#    x 1.720930 0.000000 -0.003870 
#    y 0.000000 1.699020 0.000000 
#    z -0.003870 0.000000 1.739130 
# 
# From -- ./inp_files/40881.got.cif
#   From: 2010.06.25/outbox.cif.g09.slc.cpg/sg12_21_cif.got.tgz:40881.got - 2010.06.28 00:19:55.
