data_PCOD8108225
_publ_section_title
;
Structure prediction by ZEFSAII (Michael W. Deem and Ramdas Pophale) SiO2 
 PCOD8108225
Probable space group: C 2/M
;
_chemical_formula_sum "Si O2"
_cell_formula_units_Z 64
_cell_length_a 14.501624
_cell_length_b 8.421737
_cell_length_c 33.914136
_cell_angle_alpha 90.000000
_cell_angle_beta 48.796011
_cell_angle_gamma 90.000000
_cell_volume 3116.233511
_symmetry_space_group_name_H-M "C 2/M"
_symmetry_group_IT_number 12
_symmetry_cell_setting 'monoclinic'
loop_
_space_group_symop_operation_xyz
x,y,z
-x,y,-z
-x,-y,-z
x,-y,z
1/2+x,1/2+y,z
1/2-x,1/2+y,-z
1/2-x,1/2-y,-z
1/2+x,1/2-y,z
loop_
_atom_site_type_symbol
_atom_site_label
_atom_site_fract_x
_atom_site_fract_y
_atom_site_fract_z
Si Si1 0.178491 0.317618 0.758657
Si Si2 0.315359 0.185116 0.943186
Si Si3 0.596951 0.813601 0.505625
Si Si4 0.737402 0.186322 0.886889
Si Si5 0.419896 0.314347 0.134709
Si Si6 0.466703 0.316901 0.768949
Si Si7 0.877424 0.183808 0.417562
Si Si8 0.932627 0.318542 0.694104
O O1 0.144923 0.500000 0.760434
O O2 0.157629 0.274869 0.810115
O O3 0.096032 0.208532 0.753932
O O4 0.321047 0.287990 0.709216
O O5 0.229133 0.216717 0.929932
O O6 0.436913 0.285312 0.900218
O O7 0.345214 0.000000 0.939581
O O8 0.250000 0.250000 0.000000
O O9 0.500000 0.754944 0.500000
O O10 0.734438 0.770674 0.453342
O O11 0.569688 0.724254 0.554141
O O12 0.582603 0.000000 0.517443
O O13 0.618761 0.240779 0.896101
O O14 0.859563 0.235873 0.828825
O O15 0.732596 0.000000 0.897009
O O16 0.391006 0.500000 0.145279
O O17 0.452220 0.500000 0.760974
O O18 0.461959 0.212263 0.731362
O O19 0.946867 0.284209 0.365125
O O20 0.899012 0.000000 0.402844
O O21 0.893850 0.500000 0.700051
#
# Coordination Sequence:
#
# PCOD8108225 Si02
#       8
#     8   8   8   8   8   8   8   8
#     4  12  24  40  63  92 124 163 210 257 312 374
#     4  12  26  45  68  95 128 164 207 261 316 374
#     4   9  19  38  64  90 120 163 210 256 313 377
#     4  11  23  41  67  95 125 163 207 256 309 373
#     4  12  24  41  66  95 126 163 207 253 310 374
#     4  11  23  40  64  92 125 164 209 256 310 373
#     4  10  21  38  60  89 126 163 206 262 316 371
#     4  12  25  41  62  90 129 170 213 263 316 371
#
# _framework density 20.537614000000001
#
# number of rings (size 3 to 8) (size 9 to 14) (size 15 to 20)
#    0.000    0.875    2.500    5.625    0.000    3.250 
#    0.000    6.250    0.000    0.000    0.000    0.000 
#    0.000    0.000    0.000    0.000    0.000    0.000 
#
# Total GULP energy -397065.082784 kJ/mol
# GULP energy per Si atom -12408.283837 kJ/mol
# Density = 2.049087 g / cm^3
# Si number density = 20.537614 Si / 1000 Ang^3
#
#
#
# Elastic Constant Matrix: (Units=GPa)
#
#
# Indices 1 2 3 4 5 6 
#
# 1 91.6799 12.7846 5.0472 0.0005 10.4996 0.0005
# 2 12.7846 87.0265 35.4681 0.0014 2.7615 0.0007
# 3 5.0472 35.4681 77.0612 0.0005 4.0707 0.0005
# 4 0.0005 0.0014 0.0005 33.8505 0.0004 3.0520
# 5 10.4996 2.7615 4.0707 0.0004 24.5398 0.0004
# 6 0.0005 0.0007 0.0005 3.0520 0.0004 35.7552
#
#
#
# Elastic Compliance Matrix: (Units=1/GPa)
#
#
# Indices 1 2 3 4 5 6 
#
# 1 0.011682 -0.001668 0.000259 0.000000 -0.004853 0.000000
# 2 -0.001668 0.014388 -0.006522 0.000000 0.000176 0.000000
# 3 0.000259 -0.006522 0.016070 0.000000 -0.002042 0.000000
# 4 0.000000 0.000000 0.000000 0.029771 0.000000 -0.002541
# 5 -0.004853 0.000176 -0.002042 0.000000 0.043146 0.000000
# 6 0.000000 0.000000 0.000000 -0.002541 0.000000 0.028185
#
#
# Mechanical properties :
#
#
# Convention : Reuss Voigt Hill
#
# Bulk Modulus (GPa) = 38.05580 40.26305 39.15942
# Shear Modulus (GPa) = 29.78629 32.32696 31.05662
#
# Velocity S-wave (km/s) = 3.81245 3.97172 3.89290
# Velocity P-wave (km/s) = 6.16033 6.37807 6.27015
#
# Compressibility (1/GPa) = 0.02627720
#
# Stress axis : x y z
#
# Youngs Moduli (GPa) = 85.60446 69.50046 62.22905
#
# Poissons Ratio (x) = 0.11590 -0.01610
# Poissons Ratio (y) = 0.14275 0.40589
# Poissons Ratio (z) = -0.02215 0.45332
#
# Static dielectric constant tensor:
#      x y z
#    x 3.812460 0.000000 -0.084090 
#    y 0.000000 3.943400 0.000000 
#    z -0.084090 0.000000 4.054650 
# 
# 
# High freq. dielectric constant tensor:
#      x y z
#    x 1.812650 0.000000 0.003540 
#    y 0.000000 1.812240 0.000000 
#    z 0.003540 0.000000 1.796700 
# 
# From -- ./inp_files/375414.got.cif
#   From: 2010.06.25/outbox.cif.g09.slc.cpg/sg12_188_cif.got.tgz:375414.got - 2010.06.28 00:19:55.
