data_PCOD8108265
_publ_section_title
;
Structure prediction by ZEFSAII (Michael W. Deem and Ramdas Pophale) SiO2 
 PCOD8108265
Probable space group: C 2/M
;
_chemical_formula_sum "Si O2"
_cell_formula_units_Z 40
_cell_length_a 22.888208
_cell_length_b 8.782824
_cell_length_c 10.106171
_cell_angle_alpha 90.000000
_cell_angle_beta 90.636577
_cell_angle_gamma 90.000000
_cell_volume 2031.448462
_symmetry_space_group_name_H-M "C 2/M"
_symmetry_group_IT_number 12
_symmetry_cell_setting 'monoclinic'
loop_
_space_group_symop_operation_xyz
x,y,z
-x,y,-z
-x,-y,-z
x,-y,z
1/2+x,1/2+y,z
1/2-x,1/2+y,-z
1/2-x,1/2-y,-z
1/2+x,1/2-y,z
loop_
_atom_site_type_symbol
_atom_site_label
_atom_site_fract_x
_atom_site_fract_y
_atom_site_fract_z
Si Si1 0.624723 0.176062 0.750099
Si Si2 0.251798 0.677180 0.855525
Si Si3 0.366742 0.820543 0.772582
Si Si4 0.432559 0.675723 0.011316
Si Si5 0.935213 0.320870 0.521030
O O1 0.692689 0.210460 0.774065
O O2 0.586057 0.283520 0.841318
O O3 0.607730 0.219887 0.600468
O O4 0.609787 0.000000 0.779910
O O5 0.263012 0.500000 0.876431
O O6 0.302848 0.746367 0.766674
O O7 0.250000 0.750000 0.000000
O O8 0.405900 0.753654 0.653504
O O9 0.358876 0.000000 0.760142
O O10 0.396774 0.781769 0.911687
O O11 0.418929 0.500000 0.980005
O O12 0.500000 0.714492 0.000000
O O13 0.942132 0.500000 0.539459
O O14 0.000000 0.249650 0.500000
#
# Coordination Sequence:
#
# PCOD8108265 Si02
#       5
#     8   8   8   8   8
#     4  10  21  38  61  86 113 154 200 242 291 349
#     4  11  22  37  59  87 121 155 198 248 293 346
#     4  11  22  37  61  88 116 156 198 242 297 351
#     4  11  23  37  56  85 118 152 195 247 297 348
#     4   9  19  37  60  87 118 151 195 247 293 348
#
# _framework density 19.690384000000002
#
# number of rings (size 3 to 8) (size 9 to 14) (size 15 to 20)
#    0.000    1.600    2.000    3.000    0.000    4.800 
#    0.000    2.000    0.000    5.400    0.000    0.000 
#    0.000    0.000    0.000    0.000    0.000    0.000 
#
# Total GULP energy -248081.207011 kJ/mol
# GULP energy per Si atom -12404.060351 kJ/mol
# Density = 1.964557 g / cm^3
# Si number density = 19.690384 Si / 1000 Ang^3
#
#
#
# Elastic Constant Matrix: (Units=GPa)
#
#
# Indices 1 2 3 4 5 6 
#
# 1 133.2806 40.1062 34.4338 0.0000 -10.2772 0.0000
# 2 40.1062 58.4336 11.4211 0.0000 -4.5463 0.0000
# 3 34.4338 11.4211 83.7450 0.0000 -7.9942 0.0000
# 4 0.0000 0.0000 0.0000 20.0483 0.0000 -6.4978
# 5 -10.2772 -4.5463 -7.9942 0.0000 44.1024 0.0000
# 6 0.0000 0.0000 0.0000 -6.4978 0.0000 25.2166
#
#
#
# Elastic Compliance Matrix: (Units=1/GPa)
#
#
# Indices 1 2 3 4 5 6 
#
# 1 0.010359 -0.006379 -0.003279 0.000000 0.001162 0.000000
# 2 -0.006379 0.021596 -0.000256 0.000000 0.000693 0.000000
# 3 -0.003279 -0.000256 0.013482 0.000000 0.001653 0.000000
# 4 0.000000 0.000000 0.000000 0.054425 0.000000 0.014024
# 5 0.001162 0.000693 0.001653 0.000000 0.023316 0.000000
# 6 0.000000 0.000000 0.000000 0.014024 0.000000 0.043270
#
#
# Mechanical properties :
#
#
# Convention : Reuss Voigt Hill
#
# Bulk Modulus (GPa) = 39.04813 49.70905 44.37859
# Shear Modulus (GPa) = 25.66583 30.50666 28.08624
#
# Velocity S-wave (km/s) = 3.61428 3.94041 3.78086
# Velocity P-wave (km/s) = 6.10667 6.78252 6.45345
#
# Compressibility (1/GPa) = 0.02560942
#
# Stress axis : x y z
#
# Youngs Moduli (GPa) = 96.53364 46.30578 74.17391
#
# Poissons Ratio (x) = 0.29537 0.24318
# Poissons Ratio (y) = 0.61577 0.01901
# Poissons Ratio (z) = 0.31649 0.01186
#
# Static dielectric constant tensor:
#      x y z
#    x 3.913890 0.000000 -0.057140 
#    y 0.000000 3.420900 0.000000 
#    z -0.057140 0.000000 3.704930 
# 
# 
# High freq. dielectric constant tensor:
#      x y z
#    x 1.786240 0.000000 -0.002030 
#    y 0.000000 1.750770 0.000000 
#    z -0.002030 0.000000 1.768360 
# 
# From -- ./inp_files/92920.got.cif
#   From: 2010.06.25/outbox.cif.g09.slc.cpg/sg12_47_cif.got.tgz:92920.got - 2010.06.28 00:19:55.
