data_PCOD8108959
_publ_section_title
;
Structure prediction by ZEFSAII (Michael W. Deem and Ramdas Pophale) SiO2 
 PCOD8108959
Probable space group: C 2/M
;
_chemical_formula_sum "Si O2"
_cell_formula_units_Z 44
_cell_length_a 21.748030
_cell_length_b 14.318666
_cell_length_c 16.817810
_cell_angle_alpha 90.000000
_cell_angle_beta 21.945052
_cell_angle_gamma 90.000000
_cell_volume 1957.199271
_symmetry_space_group_name_H-M "C 2/M"
_symmetry_group_IT_number 12
_symmetry_cell_setting 'monoclinic'
loop_
_space_group_symop_operation_xyz
x,y,z
-x,y,-z
-x,-y,-z
x,-y,z
1/2+x,1/2+y,z
1/2-x,1/2+y,-z
1/2-x,1/2-y,-z
1/2+x,1/2-y,z
loop_
_atom_site_type_symbol
_atom_site_label
_atom_site_fract_x
_atom_site_fract_y
_atom_site_fract_z
Si Si1 0.184603 0.894782 0.965670
Si Si2 0.000000 0.255973 0.000000
Si Si3 0.541810 0.825591 0.262173
Si Si4 0.247044 0.604238 0.296484
Si Si5 0.644205 0.327746 0.583000
Si Si6 0.017152 0.604404 0.843528
O O1 0.274967 0.825742 0.920199
O O2 0.260672 0.877109 0.788162
O O3 0.215700 0.000000 0.957283
O O4 0.988140 0.875939 0.199565
O O5 0.856337 0.186967 0.203921
O O6 0.057621 0.321834 0.003767
O O7 0.433092 0.892678 0.448956
O O8 0.462076 0.721569 0.359714
O O9 0.543540 0.864621 0.170432
O O10 0.320081 0.500000 0.225214
O O11 0.750000 0.250000 0.500000
O O12 0.782432 0.400008 0.386884
O O13 0.951701 0.500000 0.940068
#
# Coordination Sequence:
#
# PCOD8108959 Si02
#       6
#     8   4   8   8   8   8
#     4  11  23  39  63  94 126 162 202 251 313 377
#     4  12  24  42  60  90 124 164 220 258 312 362
#     4  11  22  41  63  93 126 164 203 254 314 375
#     4  11  23  38  61  93 129 163 202 255 314 376
#     4  10  21  39  60  90 124 160 208 248 306 367
#     4  11  23  41  65  90 123 165 211 263 308 364
#
# _framework density 22.481103000000001
#
# number of rings (size 3 to 8) (size 9 to 14) (size 15 to 20)
#    0.000    1.091    1.818    6.000    2.545    1.455 
#    0.000    0.000    0.000    0.000    0.000    5.091 
#    0.000    0.000    0.000    0.000    0.000    0.000 
#
# Total GULP energy -272710.910421 kJ/mol
# GULP energy per Si atom -12395.950474 kJ/mol
# Density = 2.242994 g / cm^3
# Si number density = 22.481103 Si / 1000 Ang^3
#
#
#
# Elastic Constant Matrix: (Units=GPa)
#
#
# Indices 1 2 3 4 5 6 
#
# 1 90.9639 29.0822 20.9809 -0.0009 9.0758 0.0006
# 2 29.0822 86.0668 -4.0042 -0.0019 9.3869 0.0009
# 3 20.9809 -4.0042 73.1117 -0.0018 6.8157 0.0010
# 4 -0.0009 -0.0019 -0.0018 29.1643 0.0011 -2.0604
# 5 9.0758 9.3869 6.8157 0.0011 36.6302 -0.0006
# 6 0.0006 0.0009 0.0010 -2.0604 -0.0006 26.0765
#
#
#
# Elastic Compliance Matrix: (Units=1/GPa)
#
#
# Indices 1 2 3 4 5 6 
#
# 1 0.013530 -0.004602 -0.004002 0.000000 -0.001428 0.000000
# 2 -0.004602 0.013585 0.002323 0.000001 -0.002773 0.000000
# 3 -0.004002 0.002323 0.015180 0.000001 -0.002428 -0.000001
# 4 0.000000 0.000001 0.000001 0.034481 -0.000001 0.002725
# 5 -0.001428 -0.002773 -0.002428 -0.000001 0.028816 0.000001
# 6 0.000000 0.000000 -0.000001 0.002725 0.000001 0.038564
#
#
# Mechanical properties :
#
#
# Convention : Reuss Voigt Hill
#
# Bulk Modulus (GPa) = 33.63264 38.02892 35.83078
# Shear Modulus (GPa) = 30.00689 31.97976 30.99332
#
# Velocity S-wave (km/s) = 3.65740 3.77572 3.71703
# Velocity P-wave (km/s) = 5.72960 5.99673 5.86469
#
# Compressibility (1/GPa) = 0.02973302
#
# Stress axis : x y z
#
# Youngs Moduli (GPa) = 73.90817 73.61303 65.87752
#
# Poissons Ratio (x) = 0.33879 0.26362
# Poissons Ratio (y) = 0.34015 -0.15305
# Poissons Ratio (z) = 0.29576 -0.17102
#
# Static dielectric constant tensor:
#      x y z
#    x 3.879270 -0.000010 -0.113100 
#    y -0.000010 4.329960 0.000010 
#    z -0.113100 0.000010 4.268100 
# 
# 
# High freq. dielectric constant tensor:
#      x y z
#    x 1.870060 0.000000 0.003670 
#    y 0.000000 1.891280 0.000000 
#    z 0.003670 0.000000 1.880680 
# 
# From -- ./inp_files/289993.got.cif
#   From: 2010.06.25/outbox.cif.g09.slc.cpg/sg12_145_cif.got.tgz:289993.got - 2010.06.28 00:19:55.
