data_PCOD8108658
_publ_section_title
;
Structure prediction by ZEFSAII (Michael W. Deem and Ramdas Pophale) SiO2 
 PCOD8108658
Probable space group: C 2/M
;
_chemical_formula_sum "Si O2"
_cell_formula_units_Z 56
_cell_length_a 14.925978
_cell_length_b 18.500522
_cell_length_c 19.505496
_cell_angle_alpha 90.000000
_cell_angle_beta 30.476041
_cell_angle_gamma 90.000000
_cell_volume 2731.770426
_symmetry_space_group_name_H-M "C 2/M"
_symmetry_group_IT_number 12
_symmetry_cell_setting 'monoclinic'
loop_
_space_group_symop_operation_xyz
x,y,z
-x,y,-z
-x,-y,-z
x,-y,z
1/2+x,1/2+y,z
1/2-x,1/2+y,-z
1/2-x,1/2-y,-z
1/2+x,1/2-y,z
loop_
_atom_site_type_symbol
_atom_site_label
_atom_site_fract_x
_atom_site_fract_y
_atom_site_fract_z
Si Si1 0.145968 0.421645 0.462720
Si Si2 0.327163 0.915493 0.922358
Si Si3 0.669325 0.766431 0.480747
Si Si4 0.415030 0.797892 0.201895
Si Si5 0.540193 0.420195 0.225548
Si Si6 0.145859 0.199636 0.959944
Si Si7 0.647816 0.307412 0.263298
O O1 0.128556 0.500000 0.513033
O O2 0.106644 0.349847 0.530787
O O3 0.355356 0.411336 0.304571
O O4 0.000000 0.422797 0.500000
O O5 0.506946 0.870149 0.814990
O O6 0.222800 0.878757 0.928577
O O7 0.367573 0.000000 0.879792
O O8 0.207314 0.905552 0.067978
O O9 0.750000 0.750000 0.500000
O O10 0.797350 0.747616 0.333190
O O11 0.491229 0.721184 0.588961
O O12 0.315887 0.827700 0.199139
O O13 0.567245 0.742199 0.077625
O O14 0.551329 0.500000 0.248551
O O15 0.554625 0.371755 0.283759
O O16 0.303813 0.247098 0.824704
O O17 0.000000 0.183250 0.000000
#
# Coordination Sequence:
#
# PCOD8108658 Si02
#       7
#     8   8   8   8   8   8   8
#     4  10  21  39  62  91 125 161 206 258 312 374
#     4  11  23  39  63  93 127 165 208 260 316 372
#     4  12  23  39  64  94 127 165 210 261 313 374
#     4  11  23  40  64  92 128 163 211 261 310 370
#     4  10  21  38  63  93 124 165 213 260 312 376
#     4  10  22  40  65  91 122 162 204 256 315 375
#     4  11  22  40  63  95 124 165 210 258 312 373
#
# _framework density 20.499525999999999
#
# number of rings (size 3 to 8) (size 9 to 14) (size 15 to 20)
#    0.000    1.286    2.857    3.429    0.000    2.000 
#    0.000    5.000    0.000    2.571    0.000    0.000 
#    0.000    0.000    0.000    0.000    0.000    0.000 
#
# Total GULP energy -346886.207693 kJ/mol
# GULP energy per Si atom -12388.793132 kJ/mol
# Density = 2.045287 g / cm^3
# Si number density = 20.499526 Si / 1000 Ang^3
#
#
#
# Elastic Constant Matrix: (Units=GPa)
#
#
# Indices 1 2 3 4 5 6 
#
# 1 98.5923 68.4845 28.7620 0.0064 -12.0403 -0.0040
# 2 68.4845 178.2909 42.8833 0.0249 -7.5274 -0.0032
# 3 28.7620 42.8833 88.2886 0.0148 1.5629 0.0061
# 4 0.0064 0.0249 0.0148 23.4464 0.0035 1.4721
# 5 -12.0403 -7.5274 1.5629 0.0035 34.0753 -0.0013
# 6 -0.0040 -0.0032 0.0061 1.4721 -0.0013 19.4569
#
#
#
# Elastic Compliance Matrix: (Units=1/GPa)
#
#
# Indices 1 2 3 4 5 6 
#
# 1 0.014801 -0.004900 -0.002517 0.000002 0.004263 0.000003
# 2 -0.004900 0.008055 -0.002319 -0.000006 0.000154 0.000001
# 3 -0.002517 -0.002319 0.013309 -0.000005 -0.002012 -0.000005
# 4 0.000002 -0.000006 -0.000005 0.042854 -0.000005 -0.003242
# 5 0.004263 0.000154 -0.002012 -0.000005 0.030979 0.000004
# 6 0.000003 0.000001 -0.000005 -0.003242 0.000004 0.051641
#
#
# Mechanical properties :
#
#
# Convention : Reuss Voigt Hill
#
# Bulk Modulus (GPa) = 59.90706 71.71460 65.81083
# Shear Modulus (GPa) = 26.78429 30.39855 28.59142
#
# Velocity S-wave (km/s) = 3.61859 3.85501 3.73867
# Velocity P-wave (km/s) = 6.83710 7.40772 7.12812
#
# Compressibility (1/GPa) = 0.01669252
#
# Stress axis : x y z
#
# Youngs Moduli (GPa) = 67.56113 124.14205 75.13950
#
# Poissons Ratio (x) = 0.60830 0.18915
# Poissons Ratio (y) = 0.33105 0.17425
# Poissons Ratio (z) = 0.17007 0.28789
#
# Static dielectric constant tensor:
#      x y z
#    x 3.619060 0.000060 -0.288600 
#    y 0.000060 3.529120 -0.000960 
#    z -0.288600 -0.000960 4.130080 
# 
# 
# High freq. dielectric constant tensor:
#      x y z
#    x 1.799640 0.000000 -0.024160 
#    y 0.000000 1.807770 0.000010 
#    z -0.024160 0.000010 1.799480 
# 
# From -- ./inp_files/311676.got.cif
#   From: 2010.06.25/outbox.cif.g09.slc.cpg/sg12_156_cif.got.tgz:311676.got - 2010.06.28 00:19:55.
