data_PCOD8108023
_publ_section_title
;
Structure prediction by ZEFSAII (Michael W. Deem and Ramdas Pophale) SiO2 
 PCOD8108023
Probable space group: C 2/M
;
_chemical_formula_sum "Si O2"
_cell_formula_units_Z 56
_cell_length_a 21.956972
_cell_length_b 8.874729
_cell_length_c 14.610037
_cell_angle_alpha 90.000000
_cell_angle_beta 111.070992
_cell_angle_gamma 90.000000
_cell_volume 2656.584645
_symmetry_space_group_name_H-M "C 2/M"
_symmetry_group_IT_number 12
_symmetry_cell_setting 'monoclinic'
loop_
_space_group_symop_operation_xyz
x,y,z
-x,y,-z
-x,-y,-z
x,-y,z
1/2+x,1/2+y,z
1/2-x,1/2+y,-z
1/2-x,1/2-y,-z
1/2+x,1/2-y,z
loop_
_atom_site_type_symbol
_atom_site_label
_atom_site_fract_x
_atom_site_fract_y
_atom_site_fract_z
Si Si1 0.873359 0.674502 0.844625
Si Si2 0.758425 0.324373 0.248504
Si Si3 0.200067 0.822087 0.544988
Si Si4 0.940071 0.667936 0.064666
Si Si5 0.949136 0.176799 0.547591
Si Si6 0.697278 0.833682 0.914228
Si Si7 0.960864 0.174173 0.759578
O O1 0.852167 0.500000 0.834166
O O2 0.812025 0.780574 0.831447
O O3 0.900853 0.722201 0.760263
O O4 0.931112 0.704162 0.951354
O O5 0.760751 0.500000 0.279063
O O6 0.773986 0.217554 0.341244
O O7 0.809459 0.280138 0.195307
O O8 0.250000 0.750000 0.500000
O O9 0.125278 0.759302 0.497519
O O10 0.201053 0.000000 0.529271
O O11 0.971397 0.500000 0.093878
O O12 0.869528 0.671317 0.069699
O O13 0.978869 0.794139 0.140847
O O14 0.977631 0.215117 0.663642
O O15 0.000000 0.247552 0.500000
O O16 0.945284 0.000000 0.527362
O O17 0.726058 0.000000 0.922388
O O18 0.750000 0.750000 0.000000
O O19 0.940489 0.000000 0.756444
#
# Coordination Sequence:
#
# PCOD8108023 Si02
#       7
#     8   8   8   8   8   8   8
#     4  11  22  39  62  87 122 164 203 244 298 368
#     4  11  23  38  61  92 126 158 199 254 309 365
#     4  11  23  41  68  94 124 163 208 262 318 378
#     4  10  22  39  58  85 122 162 201 242 298 365
#     4   9  21  42  63  87 119 158 205 256 307 362
#     4  10  21  38  59  85 121 160 200 251 302 360
#     4  11  23  38  62  90 118 154 200 254 306 360
#
# _framework density 21.079698
#
# number of rings (size 3 to 8) (size 9 to 14) (size 15 to 20)
#    0.000    1.571    1.429    3.000    2.000    5.143 
#    0.000    2.143    0.000    3.429    0.000    0.000 
#    0.000    0.000    0.000    0.000    0.000    0.000 
#
# Total GULP energy -347082.948547 kJ/mol
# GULP energy per Si atom -12395.819591 kJ/mol
# Density = 2.103172 g / cm^3
# Si number density = 21.079698 Si / 1000 Ang^3
#
#
#
# Elastic Constant Matrix: (Units=GPa)
#
#
# Indices 1 2 3 4 5 6 
#
# 1 86.3009 26.6028 38.5727 0.0000 -18.0325 0.0000
# 2 26.6028 52.4327 32.0496 0.0000 -7.3849 0.0000
# 3 38.5727 32.0496 109.4445 0.0000 -18.7781 0.0000
# 4 0.0000 0.0000 0.0000 32.0765 0.0000 0.3253
# 5 -18.0325 -7.3849 -18.7781 0.0000 42.5491 0.0000
# 6 0.0000 0.0000 0.0000 0.3253 0.0000 28.6318
#
#
#
# Elastic Compliance Matrix: (Units=1/GPa)
#
#
# Indices 1 2 3 4 5 6 
#
# 1 0.015547 -0.005342 -0.003185 0.000000 0.004256 0.000000
# 2 -0.005342 0.025115 -0.005531 0.000000 -0.000346 0.000000
# 3 -0.003185 -0.005531 0.012424 0.000000 0.003173 0.000000
# 4 0.000000 0.000000 0.000000 0.031179 0.000000 -0.000354
# 5 0.004256 -0.000346 0.003173 0.000000 0.026646 0.000000
# 6 0.000000 0.000000 0.000000 -0.000354 0.000000 0.034930
#
#
# Mechanical properties :
#
#
# Convention : Reuss Voigt Hill
#
# Bulk Modulus (GPa) = 40.04899 49.18092 44.61495
# Shear Modulus (GPa) = 27.43041 30.71502 29.07272
#
# Velocity S-wave (km/s) = 3.61123 3.82133 3.71776
# Velocity P-wave (km/s) = 6.03556 6.54612 6.29602
#
# Compressibility (1/GPa) = 0.02496942
#
# Stress axis : x y z
#
# Youngs Moduli (GPa) = 64.32202 39.81751 80.49133
#
# Poissons Ratio (x) = 0.21270 0.25635
# Poissons Ratio (y) = 0.34360 0.44522
# Poissons Ratio (z) = 0.20485 0.22024
#
# Static dielectric constant tensor:
#      x y z
#    x 3.878130 0.000000 -0.250090 
#    y 0.000000 3.709330 0.000000 
#    z -0.250090 0.000000 3.869470 
# 
# 
# High freq. dielectric constant tensor:
#      x y z
#    x 1.843230 0.000000 -0.014990 
#    y 0.000000 1.807820 0.000000 
#    z -0.014990 0.000000 1.831200 
# 
# From -- ./inp_files/239036.got.cif
#   From: 2010.06.25/outbox.cif.g09.slc.cpg/sg12_120_cif.got.tgz:239036.got - 2010.06.28 00:19:55.
