data_PCOD8108277
_publ_section_title
;
Structure prediction by ZEFSAII (Michael W. Deem and Ramdas Pophale) SiO2 
 PCOD8108277
Probable space group: C 2/M
;
_chemical_formula_sum "Si O2"
_cell_formula_units_Z 52
_cell_length_a 17.945170
_cell_length_b 28.994790
_cell_length_c 5.249582
_cell_angle_alpha 90.000000
_cell_angle_beta 72.436248
_cell_angle_gamma 90.000000
_cell_volume 2604.108721
_symmetry_space_group_name_H-M "C 2/M"
_symmetry_group_IT_number 12
_symmetry_cell_setting 'monoclinic'
loop_
_space_group_symop_operation_xyz
x,y,z
-x,y,-z
-x,-y,-z
x,-y,z
1/2+x,1/2+y,z
1/2-x,1/2+y,-z
1/2-x,1/2-y,-z
1/2+x,1/2-y,z
loop_
_atom_site_type_symbol
_atom_site_label
_atom_site_fract_x
_atom_site_fract_y
_atom_site_fract_z
Si Si1 0.895223 0.448974 0.713216
Si Si2 0.500000 0.086067 0.000000
Si Si3 0.724438 0.448253 0.023464
Si Si4 0.949972 0.277923 0.299898
Si Si5 0.806785 0.895118 0.462882
Si Si6 0.949379 0.826131 0.298777
Si Si7 0.136500 0.367214 0.641227
O O1 0.892482 0.500000 0.583166
O O2 0.818125 0.446057 0.975459
O O3 0.888177 0.405993 0.535045
O O4 0.978458 0.446275 0.780064
O O5 0.576438 0.119115 0.926367
O O6 0.695948 0.500000 0.000900
O O7 0.699175 0.418851 0.804464
O O8 0.679531 0.431292 0.323118
O O9 0.916995 0.226060 0.305875
O O10 0.879690 0.314129 0.416113
O O11 0.000000 0.281591 0.500000
O O12 0.000000 0.290900 0.000000
O O13 0.875505 0.858788 0.388535
O O14 0.727000 0.868559 0.618155
O O15 0.000000 0.832591 0.500000
O O16 0.000000 0.839575 0.000000
#
# Coordination Sequence:
#
# PCOD8108277 Si02
#       7
#     8   4   8   8   8   8   8
#     4  10  22  35  51  79 118 164 211 246 280 337
#     4  12  19  34  52  78 118 162 202 248 283 332
#     4  10  21  39  61  88 124 163 197 241 297 352
#     4  10  21  38  61  86 121 160 199 240 300 356
#     4  11  22  39  64  91 121 154 204 245 295 358
#     4  10  22  42  67  93 116 152 192 250 313 367
#     4  11  23  35  56  83 122 161 204 244 295 337
#
# _framework density 19.968444999999999
#
# number of rings (size 3 to 8) (size 9 to 14) (size 15 to 20)
#    0.000    1.538    2.308    3.000    0.000    3.077 
#    0.000    0.000    0.000   17.538    0.000    0.000 
#    0.000    0.000    0.000    0.000    0.000    0.000 
#
# Total GULP energy -322192.251371 kJ/mol
# GULP energy per Si atom -12392.009668 kJ/mol
# Density = 1.992300 g / cm^3
# Si number density = 19.968445 Si / 1000 Ang^3
#
#
#
# Elastic Constant Matrix: (Units=GPa)
#
#
# Indices 1 2 3 4 5 6 
#
# 1 98.6503 74.0803 40.9697 0.0000 -8.3191 0.0000
# 2 74.0803 133.5699 30.8828 0.0000 -17.7816 0.0000
# 3 40.9697 30.8828 84.8390 0.0000 4.7441 0.0000
# 4 0.0000 0.0000 0.0000 29.7036 0.0000 2.0300
# 5 -8.3191 -17.7816 4.7441 0.0000 30.8736 0.0000
# 6 0.0000 0.0000 0.0000 2.0300 0.0000 36.3966
#
#
#
# Elastic Compliance Matrix: (Units=1/GPa)
#
#
# Indices 1 2 3 4 5 6 
#
# 1 0.019921 -0.009500 -0.006210 0.000000 0.000851 0.000000
# 2 -0.009500 0.013630 -0.000676 0.000000 0.005394 0.000000
# 3 -0.006210 -0.000676 0.015278 0.000000 -0.004410 0.000000
# 4 0.000000 0.000000 0.000000 0.033795 0.000000 -0.001885
# 5 0.000851 0.005394 -0.004410 0.000000 0.036404 0.000000
# 6 0.000000 0.000000 0.000000 -0.001885 0.000000 0.027580
#
#
# Mechanical properties :
#
#
# Convention : Reuss Voigt Hill
#
# Bulk Modulus (GPa) = 62.26922 67.65832 64.96377
# Shear Modulus (GPa) = 27.06646 30.80319 28.93482
#
# Velocity S-wave (km/s) = 3.68565 3.93185 3.81074
# Velocity P-wave (km/s) = 7.02592 7.38707 7.20875
#
# Compressibility (1/GPa) = 0.01605930
#
# Stress axis : x y z
#
# Youngs Moduli (GPa) = 50.19814 73.36943 65.45235
#
# Poissons Ratio (x) = 0.69698 0.40644
# Poissons Ratio (y) = 0.47686 0.04422
# Poissons Ratio (z) = 0.31171 0.04957
#
# Static dielectric constant tensor:
#      x y z
#    x 3.408390 0.000000 -0.112800 
#    y 0.000000 3.823270 0.000000 
#    z -0.112800 0.000000 3.650580 
# 
# 
# High freq. dielectric constant tensor:
#      x y z
#    x 1.754100 0.000000 0.006510 
#    y 0.000000 1.789000 0.000000 
#    z 0.006510 0.000000 1.784640 
# 
# From -- ./inp_files/13095.got.cif
#   From: 2010.06.25/outbox.cif.g09.slc.cpg/sg12_7_cif.got.tgz:13095.got - 2010.06.28 00:19:55.
