data_PCOD8108381
_publ_section_title
;
Structure prediction by ZEFSAII (Michael W. Deem and Ramdas Pophale) SiO2 
 PCOD8108381
Probable space group: C 2/M
;
_chemical_formula_sum "Si O2"
_cell_formula_units_Z 56
_cell_length_a 18.652953
_cell_length_b 13.426896
_cell_length_c 11.544416
_cell_angle_alpha 90.000000
_cell_angle_beta 63.811400
_cell_angle_gamma 90.000000
_cell_volume 2594.509204
_symmetry_space_group_name_H-M "C 2/M"
_symmetry_group_IT_number 12
_symmetry_cell_setting 'monoclinic'
loop_
_space_group_symop_operation_xyz
x,y,z
-x,y,-z
-x,-y,-z
x,-y,z
1/2+x,1/2+y,z
1/2-x,1/2+y,-z
1/2-x,1/2-y,-z
1/2+x,1/2-y,z
loop_
_atom_site_type_symbol
_atom_site_label
_atom_site_fract_x
_atom_site_fract_y
_atom_site_fract_z
Si Si1 0.872702 0.390848 0.641112
Si Si2 0.352441 0.385394 0.822147
Si Si3 0.209775 0.314692 0.778764
Si Si4 0.209417 0.890191 0.876098
Si Si5 0.634439 0.117761 0.612177
Si Si6 0.573146 0.888374 0.021081
Si Si7 0.469514 0.777182 0.735232
O O1 0.910848 0.500000 0.604094
O O2 0.804040 0.389676 0.786878
O O3 0.837940 0.360531 0.539284
O O4 0.944993 0.319708 0.627093
O O5 0.361121 0.500000 0.780890
O O6 0.300263 0.327238 0.761471
O O7 0.442859 0.339280 0.758124
O O8 0.308397 0.372201 0.976383
O O9 0.175699 0.201852 0.823809
O O10 0.205402 0.346396 0.646838
O O11 0.153638 0.390127 0.888885
O O12 0.174743 0.000000 0.863371
O O13 0.560446 0.191653 0.695393
O O14 0.614155 0.000000 0.645808
O O15 0.586658 0.825749 0.126896
O O16 0.550962 0.000000 0.073907
O O17 0.500000 0.841650 0.000000
#
# Coordination Sequence:
#
# PCOD8108381 Si02
#       7
#     8   8   8   8   8   8   8
#     4  10  21  38  61  89 120 157 202 247 297 355
#     4  11  23  39  62  91 122 159 201 245 299 364
#     4  12  21  39  60  89 125 156 195 250 308 354
#     4  10  21  39  61  90 122 156 202 246 296 361
#     4  11  24  39  62  92 122 158 201 251 303 354
#     4  11  21  33  57  93 125 153 189 248 315 362
#     4  12  21  38  60  88 123 158 197 247 301 356
#
# _framework density 21.584043000000001
#
# number of rings (size 3 to 8) (size 9 to 14) (size 15 to 20)
#    0.000    1.000    4.286    4.286    0.000    2.857 
#    0.000    0.714    0.000    4.286    0.000    0.000 
#    0.000    0.000    0.000    0.000    0.000    0.000 
#
# Total GULP energy -347003.418544 kJ/mol
# GULP energy per Si atom -12392.979234 kJ/mol
# Density = 2.153492 g / cm^3
# Si number density = 21.584043 Si / 1000 Ang^3
#
#
#
# Elastic Constant Matrix: (Units=GPa)
#
#
# Indices 1 2 3 4 5 6 
#
# 1 68.0112 37.9650 16.8262 0.0000 10.2790 0.0000
# 2 37.9650 133.3489 28.0349 0.0000 16.3968 0.0000
# 3 16.8262 28.0349 60.6417 0.0000 19.3489 0.0000
# 4 0.0000 0.0000 0.0000 20.7641 0.0000 4.3348
# 5 10.2790 16.3968 19.3489 0.0000 32.0922 0.0000
# 6 0.0000 0.0000 0.0000 4.3348 0.0000 28.9791
#
#
#
# Elastic Compliance Matrix: (Units=1/GPa)
#
#
# Indices 1 2 3 4 5 6 
#
# 1 0.018047 -0.004392 -0.002289 0.000000 -0.002156 0.000000
# 2 -0.004392 0.009526 -0.002577 0.000000 -0.001907 0.000000
# 3 -0.002289 -0.002577 0.021870 0.000000 -0.011136 0.000000
# 4 0.000000 0.000000 0.000000 0.049712 0.000000 -0.007436
# 5 -0.002156 -0.001907 -0.011136 0.000000 0.039539 0.000000
# 6 0.000000 0.000000 0.000000 -0.007436 0.000000 0.035620
#
#
# Mechanical properties :
#
#
# Convention : Reuss Voigt Hill
#
# Bulk Modulus (GPa) = 32.33386 47.51711 39.92548
# Shear Modulus (GPa) = 24.61370 28.31212 26.46291
#
# Velocity S-wave (km/s) = 3.38059 3.62569 3.50528
# Velocity P-wave (km/s) = 5.50008 6.29208 5.90936
#
# Compressibility (1/GPa) = 0.03092733
#
# Stress axis : x y z
#
# Youngs Moduli (GPa) = 55.41016 104.97967 45.72498
#
# Poissons Ratio (x) = 0.46104 0.10467
# Poissons Ratio (y) = 0.24334 0.11782
# Poissons Ratio (z) = 0.12685 0.27051
#
# Static dielectric constant tensor:
#      x y z
#    x 3.630720 0.000000 0.212010 
#    y 0.000000 4.099500 0.000000 
#    z 0.212010 0.000000 3.864270 
# 
# 
# High freq. dielectric constant tensor:
#      x y z
#    x 1.816500 0.000000 0.017010 
#    y 0.000000 1.848340 0.000000 
#    z 0.017010 0.000000 1.844120 
# 
# From -- ./inp_files/155994.got.cif
#   From: 2010.06.25/outbox.cif.g09.slc.cpg/sg12_78_cif.got.tgz:155994.got - 2010.06.28 00:19:55.
