data_PCOD8108950
_publ_section_title
;
Structure prediction by ZEFSAII (Michael W. Deem and Ramdas Pophale) SiO2 
 PCOD8108950
Probable space group: C 2/M
;
_chemical_formula_sum "Si O2"
_cell_formula_units_Z 48
_cell_length_a 9.217967
_cell_length_b 20.557275
_cell_length_c 13.747585
_cell_angle_alpha 90.000000
_cell_angle_beta 67.150685
_cell_angle_gamma 90.000000
_cell_volume 2400.690883
_symmetry_space_group_name_H-M "C 2/M"
_symmetry_group_IT_number 12
_symmetry_cell_setting 'monoclinic'
loop_
_space_group_symop_operation_xyz
x,y,z
-x,y,-z
-x,-y,-z
x,-y,z
1/2+x,1/2+y,z
1/2-x,1/2+y,-z
1/2-x,1/2-y,-z
1/2+x,1/2-y,z
loop_
_atom_site_type_symbol
_atom_site_label
_atom_site_fract_x
_atom_site_fract_y
_atom_site_fract_z
Si Si1 0.648193 0.146367 0.891988
Si Si2 0.850366 0.428596 0.604247
Si Si3 0.624181 0.749694 0.252704
Si Si4 0.655877 0.427015 0.005647
Si Si5 0.713180 0.294217 0.604221
Si Si6 0.078390 0.388802 0.199743
O O1 0.730997 0.209800 0.828283
O O2 0.585162 0.101781 0.818120
O O3 0.500000 0.164479 0.000000
O O4 0.784868 0.109376 0.914132
O O5 0.764413 0.500000 0.628920
O O6 0.737788 0.372557 0.587710
O O7 0.925245 0.412982 0.689842
O O8 0.000000 0.434382 0.500000
O O9 0.459664 0.711952 0.304680
O O10 0.658168 0.770267 0.353559
O O11 0.609815 0.811475 0.185899
O O12 0.613941 0.500000 0.048929
O O13 0.786741 0.428729 0.888692
O O14 0.500000 0.393368 0.000000
O O15 0.750000 0.250000 0.500000
#
# Coordination Sequence:
#
# PCOD8108950 Si02
#       6
#     8   8   8   8   8   8
#     4  10  23  39  59  88 124 161 204 255 310 366
#     4  10  22  39  64  94 125 164 209 258 315 375
#     4  11  22  38  61  94 122 162 206 257 316 365
#     4  10  23  39  60  87 118 164 209 253 312 374
#     4  11  22  40  65  93 126 163 211 261 311 374
#     4  10  21  39  60  87 123 159 208 255 307 371
#
# _framework density 19.994243999999998
#
# number of rings (size 3 to 8) (size 9 to 14) (size 15 to 20)
#    0.000    1.667    1.667    3.000    4.667    7.000 
#    0.000    0.000    0.000    2.000    0.000    0.000 
#    0.000    0.000    0.000    0.000    0.000    0.000 
#
# Total GULP energy -297415.751704 kJ/mol
# GULP energy per Si atom -12392.322988 kJ/mol
# Density = 1.994874 g / cm^3
# Si number density = 19.994244 Si / 1000 Ang^3
#
#
#
# Elastic Constant Matrix: (Units=GPa)
#
#
# Indices 1 2 3 4 5 6 
#
# 1 107.6930 40.3090 10.6829 0.0000 12.8714 0.0000
# 2 40.3090 129.0478 27.3915 0.0000 1.1265 0.0000
# 3 10.6829 27.3915 62.1451 0.0000 15.9540 0.0000
# 4 0.0000 0.0000 0.0000 22.1064 0.0000 -4.4573
# 5 12.8714 1.1265 15.9540 0.0000 35.9085 0.0000
# 6 0.0000 0.0000 0.0000 -4.4573 0.0000 24.2763
#
#
#
# Elastic Compliance Matrix: (Units=1/GPa)
#
#
# Indices 1 2 3 4 5 6 
#
# 1 0.011049 -0.003574 0.000749 0.000000 -0.004181 0.000000
# 2 -0.003574 0.009786 -0.004457 0.000000 0.002954 0.000000
# 3 0.000749 -0.004457 0.020273 0.000000 -0.009136 0.000000
# 4 0.000000 0.000000 0.000000 0.046975 0.000000 0.008625
# 5 -0.004181 0.002954 -0.009136 0.000000 0.033314 0.000000
# 6 0.000000 0.000000 0.000000 0.008625 0.000000 0.042776
#
#
# Mechanical properties :
#
#
# Convention : Reuss Voigt Hill
#
# Bulk Modulus (GPa) = 37.67415 50.62808 44.15111
# Shear Modulus (GPa) = 26.65495 31.15842 28.90669
#
# Velocity S-wave (km/s) = 3.65517 3.95190 3.80643
# Velocity P-wave (km/s) = 6.05781 6.79703 6.43804
#
# Compressibility (1/GPa) = 0.02654340
#
# Stress axis : x y z
#
# Youngs Moduli (GPa) = 90.50865 102.19061 49.32784
#
# Poissons Ratio (x) = 0.36519 -0.03696
# Poissons Ratio (y) = 0.32345 0.21987
# Poissons Ratio (z) = -0.06781 0.45549
#
# Static dielectric constant tensor:
#      x y z
#    x 3.844360 0.000000 0.248270 
#    y 0.000000 3.976470 0.000000 
#    z 0.248270 0.000000 3.606760 
# 
# 
# High freq. dielectric constant tensor:
#      x y z
#    x 1.782980 0.000000 0.010880 
#    y 0.000000 1.777700 0.000000 
#    z 0.010880 0.000000 1.784230 
# 
# From -- ./inp_files/196929.got.cif
#   From: 2010.06.25/outbox.cif.g09.slc.cpg/sg12_99_cif.got.tgz:196929.got - 2010.06.28 00:19:55.
