data_PCOD8108925
_publ_section_title
;
Structure prediction by ZEFSAII (Michael W. Deem and Ramdas Pophale) SiO2 
 PCOD8108925
Probable space group: C 2/M
;
_chemical_formula_sum "Si O2"
_cell_formula_units_Z 40
_cell_length_a 25.352127
_cell_length_b 14.037737
_cell_length_c 6.445468
_cell_angle_alpha 90.000000
_cell_angle_beta 62.489290
_cell_angle_gamma 90.000000
_cell_volume 2034.476203
_symmetry_space_group_name_H-M "C 2/M"
_symmetry_group_IT_number 12
_symmetry_cell_setting 'monoclinic'
loop_
_space_group_symop_operation_xyz
x,y,z
-x,y,-z
-x,-y,-z
x,-y,z
1/2+x,1/2+y,z
1/2-x,1/2+y,-z
1/2-x,1/2-y,-z
1/2+x,1/2-y,z
loop_
_atom_site_type_symbol
_atom_site_label
_atom_site_fract_x
_atom_site_fract_y
_atom_site_fract_z
Si Si1 0.433677 0.723233 0.602970
Si Si2 0.637846 0.232524 0.653132
Si Si3 0.776485 0.658951 0.845184
Si Si4 0.346873 0.394501 0.048901
Si Si5 0.114570 0.607587 0.078401
O O1 0.500000 0.680828 0.500000
O O2 0.417178 0.737444 0.392773
O O3 0.432390 0.826357 0.715752
O O4 0.386999 0.651959 0.795577
O O5 0.692931 0.193517 0.422008
O O6 0.654620 0.327482 0.747794
O O7 0.619954 0.146152 0.835445
O O8 0.721086 0.590150 0.901145
O O9 0.822387 0.608364 0.916642
O O10 0.750000 0.750000 0.000000
O O11 0.371888 0.500000 0.056870
O O12 0.090294 0.500000 0.114232
#
# Coordination Sequence:
#
# PCOD8108925 Si02
#       5
#     8   8   8   8   8
#     4  10  23  43  61  79 116 157 194 243 291 334
#     4  10  21  39  60  83 119 151 193 236 290 340
#     4  11  19  39  59  85 124 154 182 230 290 348
#     4  11  23  37  59  90 118 152 196 234 283 344
#     4  10  22  37  60  91 118 149 191 236 288 348
#
# _framework density 19.661080999999999
#
# number of rings (size 3 to 8) (size 9 to 14) (size 15 to 20)
#    0.000    1.600    6.000    1.200    0.000    8.800 
#    0.000    2.000    0.000    0.000    0.000    0.000 
#    0.000    0.000    0.000    0.000    0.000    0.000 
#
# Total GULP energy -247957.119096 kJ/mol
# GULP energy per Si atom -12397.855955 kJ/mol
# Density = 1.961633 g / cm^3
# Si number density = 19.661081 Si / 1000 Ang^3
#
#
#
# Elastic Constant Matrix: (Units=GPa)
#
#
# Indices 1 2 3 4 5 6 
#
# 1 109.7747 8.1041 48.1240 0.0000 -6.2928 0.0000
# 2 8.1041 117.8668 23.0513 0.0000 9.2235 0.0000
# 3 48.1240 23.0513 99.6567 0.0000 18.3316 0.0000
# 4 0.0000 0.0000 0.0000 5.0326 0.0000 0.2280
# 5 -6.2928 9.2235 18.3316 0.0000 26.8701 0.0000
# 6 0.0000 0.0000 0.0000 0.2280 0.0000 15.3581
#
#
#
# Elastic Compliance Matrix: (Units=1/GPa)
#
#
# Indices 1 2 3 4 5 6 
#
# 1 0.013025 -0.000022 -0.007830 0.000000 0.008400 0.000000
# 2 -0.000022 0.008970 -0.001712 0.000000 -0.001916 0.000000
# 3 -0.007830 -0.001712 0.016513 0.000000 -0.012512 0.000000
# 4 0.000000 0.000000 0.000000 0.198838 0.000000 -0.002953
# 5 0.008400 -0.001916 -0.012512 0.000000 0.048377 0.000000
# 6 0.000000 0.000000 0.000000 -0.002953 0.000000 0.065156
#
#
# Mechanical properties :
#
#
# Convention : Reuss Voigt Hill
#
# Bulk Modulus (GPa) = 51.59537 53.98411 52.78974
# Shear Modulus (GPa) = 13.28137 25.98674 19.63406
#
# Velocity S-wave (km/s) = 2.60189 3.63951 3.16353
# Velocity P-wave (km/s) = 5.94355 6.72148 6.34445
#
# Compressibility (1/GPa) = 0.01938159
#
# Stress axis : x y z
#
# Youngs Moduli (GPa) = 76.77398 111.47765 60.55818
#
# Poissons Ratio (x) = 0.00240 0.47417
# Poissons Ratio (y) = 0.00166 0.10368
# Poissons Ratio (z) = 0.60114 0.19085
#
# Static dielectric constant tensor:
#      x y z
#    x 4.444570 0.000000 -0.400300 
#    y 0.000000 3.495860 0.000000 
#    z -0.400300 0.000000 3.700160 
# 
# 
# High freq. dielectric constant tensor:
#      x y z
#    x 1.757920 0.000000 0.007240 
#    y 0.000000 1.762610 0.000000 
#    z 0.007240 0.000000 1.771620 
# 
# From -- ./inp_files/24043.got.cif
#   From: 2010.06.25/outbox.cif.g09.slc.cpg/sg12_13_cif.got.tgz:24043.got - 2010.06.28 00:19:55.
