data_PCOD8108579
_publ_section_title
;
Structure prediction by ZEFSAII (Michael W. Deem and Ramdas Pophale) SiO2 
 PCOD8108579
Probable space group: C 2/M
;
_chemical_formula_sum "Si O2"
_cell_formula_units_Z 64
_cell_length_a 25.867786
_cell_length_b 14.058052
_cell_length_c 8.712452
_cell_angle_alpha 90.000000
_cell_angle_beta 71.831046
_cell_angle_gamma 90.000000
_cell_volume 3010.321857
_symmetry_space_group_name_H-M "C 2/M"
_symmetry_group_IT_number 12
_symmetry_cell_setting 'monoclinic'
loop_
_space_group_symop_operation_xyz
x,y,z
-x,y,-z
-x,-y,-z
x,-y,z
1/2+x,1/2+y,z
1/2-x,1/2+y,-z
1/2-x,1/2-y,-z
1/2+x,1/2-y,z
loop_
_atom_site_type_symbol
_atom_site_label
_atom_site_fract_x
_atom_site_fract_y
_atom_site_fract_z
Si Si1 0.195308 0.237192 0.458986
Si Si2 0.964347 0.224829 0.667319
Si Si3 0.200813 0.890853 0.161380
Si Si4 0.177538 0.395358 0.984158
Si Si5 0.401409 0.612018 0.947276
Si Si6 0.042966 0.606689 0.679124
Si Si7 0.623092 0.146133 0.345780
Si Si8 0.119251 0.735571 0.798903
O O1 0.250000 0.250000 0.500000
O O2 0.198867 0.154501 0.331518
O O3 0.178984 0.335355 0.387610
O O4 0.148693 0.217158 0.626738
O O5 0.955059 0.142896 0.801280
O O6 0.904359 0.251318 0.661884
O O7 0.000000 0.177820 0.500000
O O8 0.991287 0.324842 0.697741
O O9 0.154593 0.855623 0.085622
O O10 0.189640 0.000000 0.203860
O O11 0.259831 0.871071 0.029298
O O12 0.175412 0.500000 0.908859
O O13 0.139441 0.402120 0.170507
O O14 0.159077 0.317460 0.879482
O O15 0.403323 0.500000 0.981240
O O16 0.407507 0.672958 0.096321
O O17 0.023739 0.500000 0.746478
O O18 0.080019 0.589831 0.492161
O O19 0.075474 0.657131 0.786661
#
# Coordination Sequence:
#
# PCOD8108579 Si02
#       8
#     8   8   8   8   8   8   8   8
#     4  11  21  36  60  88 125 173 201 252 307 368
#     4  10  21  41  68  93 120 160 214 257 312 372
#     4  10  22  39  62  91 122 166 217 256 305 373
#     4  11  21  36  61  95 130 166 207 253 303 376
#     4  11  24  45  67  90 123 161 216 274 311 363
#     4  10  23  42  64  95 132 166 202 255 317 383
#     4  10  21  38  62  92 126 167 210 249 299 370
#     4  11  23  39  62  91 130 168 207 252 324 374
#
# _framework density 21.260183999999999
#
# number of rings (size 3 to 8) (size 9 to 14) (size 15 to 20)
#    0.000    1.500    3.750    0.750    1.750    5.000 
#    0.000    2.500    0.000    0.000    0.000    0.000 
#    0.000    0.000    0.000    0.000    0.000    0.000 
#
# Total GULP energy -396515.461946 kJ/mol
# GULP energy per Si atom -12391.108186 kJ/mol
# Density = 2.121180 g / cm^3
# Si number density = 21.260184 Si / 1000 Ang^3
#
#
#
# Elastic Constant Matrix: (Units=GPa)
#
#
# Indices 1 2 3 4 5 6 
#
# 1 69.9449 22.2897 18.0944 0.0000 0.9821 0.0000
# 2 22.2897 84.4107 43.3799 0.0000 -0.7689 0.0000
# 3 18.0944 43.3799 115.7008 0.0000 -5.0380 0.0000
# 4 0.0000 0.0000 0.0000 21.8258 0.0000 2.7514
# 5 0.9821 -0.7689 -5.0380 0.0000 28.0599 0.0000
# 6 0.0000 0.0000 0.0000 2.7514 0.0000 22.4780
#
#
#
# Elastic Compliance Matrix: (Units=1/GPa)
#
#
# Indices 1 2 3 4 5 6 
#
# 1 0.015747 -0.003569 -0.001162 0.000000 -0.000858 0.000000
# 2 -0.003569 0.015493 -0.005268 0.000000 -0.000396 0.000000
# 3 -0.001162 -0.005268 0.010880 0.000000 0.001850 0.000000
# 4 0.000000 0.000000 0.000000 0.046535 0.000000 -0.005696
# 5 -0.000858 -0.000396 0.001850 0.000000 0.035989 0.000000
# 6 0.000000 0.000000 0.000000 -0.005696 0.000000 0.045185
#
#
# Mechanical properties :
#
#
# Convention : Reuss Voigt Hill
#
# Bulk Modulus (GPa) = 45.20226 48.62049 46.91138
# Shear Modulus (GPa) = 25.35473 26.89221 26.12347
#
# Velocity S-wave (km/s) = 3.45714 3.56041 3.50916
# Velocity P-wave (km/s) = 6.10273 6.31039 6.20743
#
# Compressibility (1/GPa) = 0.02212279
#
# Stress axis : x y z
#
# Youngs Moduli (GPa) = 63.50456 64.54577 91.90876
#
# Poissons Ratio (x) = 0.23035 0.10679
# Poissons Ratio (y) = 0.22664 0.48417
# Poissons Ratio (z) = 0.07379 0.34002
#
# Static dielectric constant tensor:
#      x y z
#    x 4.065170 0.000000 -0.007180 
#    y 0.000000 3.637650 0.000000 
#    z -0.007180 0.000000 3.941650 
# 
# 
# High freq. dielectric constant tensor:
#      x y z
#    x 1.836070 0.000000 -0.003160 
#    y 0.000000 1.821150 0.000000 
#    z -0.003160 0.000000 1.836620 
# 
# From -- ./inp_files/104494.got.cif
#   From: 2010.06.25/outbox.cif.g09.slc.cpg/sg12_53_cif.got.tgz:104494.got - 2010.06.28 00:19:55.
