data_PCOD8108005
_publ_section_title
;
Structure prediction by ZEFSAII (Michael W. Deem and Ramdas Pophale) SiO2 
 PCOD8108005
Probable space group: C 2/M
;
_chemical_formula_sum "Si O2"
_cell_formula_units_Z 56
_cell_length_a 12.316928
_cell_length_b 17.196463
_cell_length_c 13.982795
_cell_angle_alpha 90.000000
_cell_angle_beta 63.544190
_cell_angle_gamma 90.000000
_cell_volume 2651.511696
_symmetry_space_group_name_H-M "C 2/M"
_symmetry_group_IT_number 12
_symmetry_cell_setting 'monoclinic'
loop_
_space_group_symop_operation_xyz
x,y,z
-x,y,-z
-x,-y,-z
x,-y,z
1/2+x,1/2+y,z
1/2-x,1/2+y,-z
1/2-x,1/2-y,-z
1/2+x,1/2-y,z
loop_
_atom_site_type_symbol
_atom_site_label
_atom_site_fract_x
_atom_site_fract_y
_atom_site_fract_z
Si Si1 0.268594 0.650662 0.698178
Si Si2 0.922292 0.907865 0.117708
Si Si3 0.532369 0.089939 0.880975
Si Si4 0.147248 0.410506 0.213318
Si Si5 0.499674 0.410020 0.703777
Si Si6 0.112930 0.311443 0.394453
Si Si7 0.219265 0.158865 0.517990
O O1 0.138600 0.644438 0.799372
O O2 0.361365 0.600673 0.725607
O O3 0.309402 0.739888 0.676685
O O4 0.258048 0.617677 0.593366
O O5 0.784487 0.877922 0.161307
O O6 0.981783 0.881010 0.194538
O O7 0.924274 0.000000 0.108922
O O8 0.000000 0.871521 0.000000
O O9 0.410626 0.102858 0.867580
O O10 0.574685 0.000000 0.861086
O O11 0.500000 0.116747 0.000000
O O12 0.142870 0.500000 0.244916
O O13 0.068995 0.362623 0.322048
O O14 0.537784 0.500000 0.679005
O O15 0.580935 0.357420 0.601797
O O16 0.192658 0.369904 0.431019
O O17 0.000000 0.278979 0.500000
O O18 0.250000 0.250000 0.500000
#
# Coordination Sequence:
#
# PCOD8108005 Si02
#       7
#     8   8   8   8   8   8   8
#     4  11  23  39  60  90 123 163 203 244 307 366
#     4   9  19  36  62  93 122 157 199 250 306 354
#     4  10  23  42  64  88 121 164 205 249 300 361
#     4  10  21  41  65  91 121 157 208 255 297 359
#     4  11  22  37  62  95 125 154 200 255 303 359
#     4  11  22  40  65  89 122 165 201 248 305 365
#     4  10  21  38  59  84 123 162 196 239 301 363
#
# _framework density 21.120027
#
# number of rings (size 3 to 8) (size 9 to 14) (size 15 to 20)
#    0.000    1.714    1.429    3.429    2.000    3.143 
#    0.000    1.429    0.000    0.000    0.000    0.000 
#    0.000    0.000    0.000    0.000    0.000    0.000 
#
# Total GULP energy -347179.888799 kJ/mol
# GULP energy per Si atom -12399.281743 kJ/mol
# Density = 2.107196 g / cm^3
# Si number density = 21.120027 Si / 1000 Ang^3
#
#
#
# Elastic Constant Matrix: (Units=GPa)
#
#
# Indices 1 2 3 4 5 6 
#
# 1 125.8293 31.3459 62.7906 0.0000 15.9882 0.0000
# 2 31.3459 56.7893 48.2424 0.0000 2.7829 0.0000
# 3 62.7906 48.2424 173.0375 0.0000 12.5626 0.0000
# 4 0.0000 0.0000 0.0000 26.5517 0.0000 -1.9305
# 5 15.9882 2.7829 12.5626 0.0000 42.0786 0.0000
# 6 0.0000 0.0000 0.0000 -1.9305 0.0000 29.1077
#
#
#
# Elastic Compliance Matrix: (Units=1/GPa)
#
#
# Indices 1 2 3 4 5 6 
#
# 1 0.010491 -0.003399 -0.002643 0.000000 -0.002972 0.000000
# 2 -0.003399 0.024182 -0.005607 0.000000 0.001366 0.000000
# 3 -0.002643 -0.005607 0.008384 0.000000 -0.001128 0.000000
# 4 0.000000 0.000000 0.000000 0.037845 0.000000 0.002510
# 5 -0.002972 0.001366 -0.001128 0.000000 0.025141 0.000000
# 6 0.000000 0.000000 0.000000 0.002510 0.000000 0.034522
#
#
# Mechanical properties :
#
#
# Convention : Reuss Voigt Hill
#
# Bulk Modulus (GPa) = 50.61820 71.15710 60.88765
# Shear Modulus (GPa) = 29.33425 33.76607 31.55016
#
# Velocity S-wave (km/s) = 3.73088 4.00280 3.86923
# Velocity P-wave (km/s) = 6.52520 7.42483 6.98950
#
# Compressibility (1/GPa) = 0.01975574
#
# Stress axis : x y z
#
# Youngs Moduli (GPa) = 95.32144 41.35315 119.28190
#
# Poissons Ratio (x) = 0.14058 0.31530
# Poissons Ratio (y) = 0.32404 0.66887
# Poissons Ratio (z) = 0.25196 0.23189
#
# Static dielectric constant tensor:
#      x y z
#    x 4.232960 0.000000 0.327320 
#    y 0.000000 3.388780 0.000000 
#    z 0.327320 0.000000 3.996460 
# 
# 
# High freq. dielectric constant tensor:
#      x y z
#    x 1.844490 0.000000 0.012520 
#    y 0.000000 1.794290 0.000000 
#    z 0.012520 0.000000 1.831180 
# 
# From -- ./inp_files/206544.got.cif
#   From: 2010.06.25/outbox.cif.g09.slc.cpg/sg12_104_cif.got.tgz:206544.got - 2010.06.28 00:19:55.
