data_PCOD8108965
_publ_section_title
;
Structure prediction by ZEFSAII (Michael W. Deem and Ramdas Pophale) SiO2 
 PCOD8108965
Probable space group: C 2/M
;
_chemical_formula_sum "Si O2"
_cell_formula_units_Z 56
_cell_length_a 13.578002
_cell_length_b 12.854879
_cell_length_c 17.188941
_cell_angle_alpha 90.000000
_cell_angle_beta 121.398934
_cell_angle_gamma 90.000000
_cell_volume 2560.868550
_symmetry_space_group_name_H-M "C 2/M"
_symmetry_group_IT_number 12
_symmetry_cell_setting 'monoclinic'
loop_
_space_group_symop_operation_xyz
x,y,z
-x,y,-z
-x,-y,-z
x,-y,z
1/2+x,1/2+y,z
1/2-x,1/2+y,-z
1/2-x,1/2-y,-z
1/2+x,1/2-y,z
loop_
_atom_site_type_symbol
_atom_site_label
_atom_site_fract_x
_atom_site_fract_y
_atom_site_fract_z
Si Si1 0.258309 0.882174 0.066134
Si Si2 0.936306 0.809819 0.314049
Si Si3 0.790751 0.381941 0.722056
Si Si4 0.907828 0.250447 0.897568
Si Si5 0.098540 0.807628 0.875132
Si Si6 0.100372 0.381209 0.601551
Si Si7 0.191071 0.785327 0.397494
O O1 0.184832 0.825660 0.102499
O O2 0.374541 0.816015 0.102334
O O3 0.287378 0.000000 0.102062
O O4 0.190297 0.880772 0.956396
O O5 0.850265 0.875163 0.334438
O O6 0.896149 0.838263 0.211493
O O7 0.916527 0.688500 0.328318
O O8 0.071278 0.840465 0.374610
O O9 0.828696 0.500000 0.722592
O O10 0.843125 0.343719 0.826210
O O11 0.838623 0.313138 0.670122
O O12 0.972333 0.177994 0.860413
O O13 0.000000 0.292099 0.000000
O O14 0.089271 0.500000 0.623540
O O15 0.225619 0.364328 0.614001
O O16 0.000000 0.349830 0.500000
O O17 0.250000 0.750000 0.500000
#
# Coordination Sequence:
#
# PCOD8108965 Si02
#       7
#     8   8   8   8   8   8   8
#     4  10  22  41  65  90 124 167 209 256 313 376
#     4  11  22  42  63  89 129 164 204 264 311 369
#     4  11  25  42  63  95 130 167 209 259 318 377
#     4  10  21  41  64  92 131 165 211 263 311 372
#     4  10  21  39  60  93 125 159 211 260 309 367
#     4  10  22  40  65  95 122 155 204 258 312 370
#     4  11  23  43  68  91 125 168 208 261 316 375
#
# _framework density 21.867581000000001
#
# number of rings (size 3 to 8) (size 9 to 14) (size 15 to 20)
#    0.000    1.571    4.286    0.000    0.000    6.286 
#    0.000    0.714    0.000    0.000    0.000    0.000 
#    0.000    0.000    0.000    0.000    0.000    0.000 
#
# Total GULP energy -347101.918832 kJ/mol
# GULP energy per Si atom -12396.497101 kJ/mol
# Density = 2.181781 g / cm^3
# Si number density = 21.867581 Si / 1000 Ang^3
#
#
#
# Elastic Constant Matrix: (Units=GPa)
#
#
# Indices 1 2 3 4 5 6 
#
# 1 79.2145 -17.6956 2.7737 0.0000 3.2775 0.0000
# 2 -17.6956 79.6870 6.8113 0.0000 -3.8874 0.0000
# 3 2.7737 6.8113 74.5348 0.0000 -11.4744 0.0000
# 4 0.0000 0.0000 0.0000 18.1105 0.0000 -2.6205
# 5 3.2775 -3.8874 -11.4744 0.0000 35.8506 0.0000
# 6 0.0000 0.0000 0.0000 -2.6205 0.0000 14.4073
#
#
#
# Elastic Compliance Matrix: (Units=1/GPa)
#
#
# Indices 1 2 3 4 5 6 
#
# 1 0.013376 0.002993 -0.000957 0.000000 -0.001204 0.000000
# 2 0.002993 0.013356 -0.001211 0.000000 0.000787 0.000000
# 3 -0.000957 -0.001211 0.014259 0.000000 0.004520 0.000000
# 4 0.000000 0.000000 0.000000 0.056709 0.000000 0.010315
# 5 -0.001204 0.000787 0.004520 0.000000 0.029536 0.000000
# 6 0.000000 0.000000 0.000000 0.010315 0.000000 0.071285
#
#
# Mechanical properties :
#
#
# Convention : Reuss Voigt Hill
#
# Bulk Modulus (GPa) = 23.45106 24.13501 23.79304
# Shear Modulus (GPa) = 23.68741 29.77681 26.73211
#
# Velocity S-wave (km/s) = 3.29480 3.69411 3.50015
# Velocity P-wave (km/s) = 5.02212 5.40889 5.21909
#
# Compressibility (1/GPa) = 0.04264200
#
# Stress axis : x y z
#
# Youngs Moduli (GPa) = 74.76102 74.87443 70.13301
#
# Poissons Ratio (x) = -0.22412 0.06710
# Poissons Ratio (y) = -0.22378 0.08491
# Poissons Ratio (z) = 0.07153 0.09065
#
# Static dielectric constant tensor:
#      x y z
#    x 4.438720 0.000000 0.124350 
#    y 0.000000 3.490060 0.000000 
#    z 0.124350 0.000000 4.032050 
# 
# 
# High freq. dielectric constant tensor:
#      x y z
#    x 1.881490 0.000000 -0.000510 
#    y 0.000000 1.816160 0.000000 
#    z -0.000510 0.000000 1.862860 
# 
# From -- ./inp_files/269389.got.cif
#   From: 2010.06.25/outbox.cif.g09.slc.cpg/sg12_135_cif.got.tgz:269389.got - 2010.06.28 00:19:55.
