data_PCOD8108374
_publ_section_title
;
Structure prediction by ZEFSAII (Michael W. Deem and Ramdas Pophale) SiO2 
 PCOD8108374
Probable space group: C 2/M
;
_chemical_formula_sum "Si O2"
_cell_formula_units_Z 64
_cell_length_a 28.430766
_cell_length_b 19.622948
_cell_length_c 11.401716
_cell_angle_alpha 90.000000
_cell_angle_beta 150.488266
_cell_angle_gamma 90.000000
_cell_volume 3133.422978
_symmetry_space_group_name_H-M "C 2/M"
_symmetry_group_IT_number 12
_symmetry_cell_setting 'monoclinic'
loop_
_space_group_symop_operation_xyz
x,y,z
-x,y,-z
-x,-y,-z
x,-y,z
1/2+x,1/2+y,z
1/2-x,1/2+y,-z
1/2-x,1/2-y,-z
1/2+x,1/2-y,z
loop_
_atom_site_type_symbol
_atom_site_label
_atom_site_fract_x
_atom_site_fract_y
_atom_site_fract_z
Si Si1 0.349297 0.304339 0.474956
Si Si2 0.606232 0.576421 0.897974
Si Si3 0.999255 0.579095 0.362523
Si Si4 0.611070 0.185592 0.259261
Si Si5 0.971964 0.076130 0.815576
Si Si6 0.863084 0.313412 0.952608
Si Si7 0.823178 0.578483 0.412688
Si Si8 0.506996 0.710433 0.641445
O O1 0.370149 0.255054 0.629757
O O2 0.386327 0.380171 0.578419
O O3 0.238441 0.309751 0.203494
O O4 0.403323 0.280477 0.474736
O O5 0.590218 0.500000 0.809569
O O6 0.717832 0.595675 0.136230
O O7 0.568454 0.577715 0.949042
O O8 0.544182 0.633369 0.695695
O O9 0.972366 0.500000 0.292547
O O10 0.000000 0.601761 0.500000
O O11 0.102694 0.595098 0.530968
O O12 0.919717 0.619909 0.117236
O O13 0.657823 0.187702 0.231932
O O14 0.655614 0.122828 0.426801
O O15 0.500000 0.172640 0.000000
O O16 0.931359 0.000000 0.741167
O O17 0.000000 0.108447 0.000000
O O18 0.919545 0.245721 0.110741
O O19 0.830114 0.500000 0.466861
O O20 0.500000 0.747421 0.500000
#
# Coordination Sequence:
#
# PCOD8108374 Si02
#       8
#     8   8   8   8   8   8   8   8
#     4  11  24  39  60  86 118 155 191 239 291 347
#     4   9  20  38  60  87 116 151 191 232 287 345
#     4  10  22  41  62  85 116 153 195 242 289 340
#     4  12  22  39  60  86 119 156 191 235 291 349
#     4   9  19  35  56  84 118 152 186 229 280 342
#     4  12  25  39  60  87 118 155 195 239 289 347
#     4  10  21  38  61  89 119 152 191 236 289 347
#     4  11  24  41  61  86 116 152 198 246 287 338
#
# _framework density 20.424947
#
# number of rings (size 3 to 8) (size 9 to 14) (size 15 to 20)
#    0.000    1.500    2.500    1.875    3.500    3.000 
#    0.000    0.000    0.000    0.000    0.000    0.000 
#    0.000    0.000    0.000    0.000    0.000    0.000 
#
# Total GULP energy -396776.056437 kJ/mol
# GULP energy per Si atom -12399.251764 kJ/mol
# Density = 2.037846 g / cm^3
# Si number density = 20.424947 Si / 1000 Ang^3
#
#
#
# Elastic Constant Matrix: (Units=GPa)
#
#
# Indices 1 2 3 4 5 6 
#
# 1 137.8687 38.8588 59.3359 0.0000 2.7905 0.0000
# 2 38.8588 90.9050 31.1873 0.0000 3.6736 0.0000
# 3 59.3359 31.1873 86.9686 0.0000 28.0194 0.0000
# 4 0.0000 0.0000 0.0000 18.8337 0.0000 2.8103
# 5 2.7905 3.6736 28.0194 0.0000 42.0680 0.0000
# 6 0.0000 0.0000 0.0000 2.8103 0.0000 22.3169
#
#
#
# Elastic Compliance Matrix: (Units=1/GPa)
#
#
# Indices 1 2 3 4 5 6 
#
# 1 0.011539 -0.002121 -0.008817 0.000000 0.005292 0.000000
# 2 -0.002121 0.013130 -0.003740 0.000000 0.001485 0.000000
# 3 -0.008817 -0.003740 0.023632 0.000000 -0.014829 0.000000
# 4 0.000000 0.000000 0.000000 0.054113 0.000000 -0.006814
# 5 0.005292 0.001485 -0.014829 0.000000 0.033167 0.000000
# 6 0.000000 0.000000 0.000000 -0.006814 0.000000 0.045667
#
#
# Mechanical properties :
#
#
# Convention : Reuss Voigt Hill
#
# Bulk Modulus (GPa) = 52.78215 63.83401 58.30808
# Shear Modulus (GPa) = 23.05004 29.06774 26.05889
#
# Velocity S-wave (km/s) = 3.36300 3.77656 3.57576
# Velocity P-wave (km/s) = 6.40139 7.09488 6.75704
#
# Compressibility (1/GPa) = 0.01894580
#
# Stress axis : x y z
#
# Youngs Moduli (GPa) = 86.66540 76.15977 42.31492
#
# Poissons Ratio (x) = 0.16157 0.37308
# Poissons Ratio (y) = 0.18386 0.15824
# Poissons Ratio (z) = 0.76410 0.28480
#
# Static dielectric constant tensor:
#      x y z
#    x 3.909210 0.000000 0.121080 
#    y 0.000000 3.895250 0.000000 
#    z 0.121080 0.000000 3.520590 
# 
# 
# High freq. dielectric constant tensor:
#      x y z
#    x 1.804350 0.000000 0.011100 
#    y 0.000000 1.812030 0.000000 
#    z 0.011100 0.000000 1.785820 
# 
# From -- ./inp_files/184716.got.cif
#   From: 2010.06.25/outbox.cif.g09.slc.cpg/sg12_93_cif.got.tgz:184716.got - 2010.06.28 00:19:55.
