data_PCOD8108957
_publ_section_title
;
Structure prediction by ZEFSAII (Michael W. Deem and Ramdas Pophale) SiO2 
 PCOD8108957
Probable space group: C 2/M
;
_chemical_formula_sum "Si O2"
_cell_formula_units_Z 56
_cell_length_a 29.942699
_cell_length_b 15.339782
_cell_length_c 5.237237
_cell_angle_alpha 90.000000
_cell_angle_beta 88.303035
_cell_angle_gamma 90.000000
_cell_volume 2404.483767
_symmetry_space_group_name_H-M "C 2/M"
_symmetry_group_IT_number 12
_symmetry_cell_setting 'monoclinic'
loop_
_space_group_symop_operation_xyz
x,y,z
-x,y,-z
-x,-y,-z
x,-y,z
1/2+x,1/2+y,z
1/2-x,1/2+y,-z
1/2-x,1/2-y,-z
1/2+x,1/2-y,z
loop_
_atom_site_type_symbol
_atom_site_label
_atom_site_fract_x
_atom_site_fract_y
_atom_site_fract_z
Si Si1 0.667271 0.342684 0.565808
Si Si2 0.879121 0.097410 0.906403
Si Si3 0.451116 0.730497 0.984247
Si Si4 0.545784 0.902562 0.337505
Si Si5 0.235102 0.601150 0.446400
Si Si6 0.819900 0.400292 0.030707
Si Si7 0.388025 0.187888 0.339393
O O1 0.653371 0.403945 0.332683
O O2 0.720642 0.340403 0.575039
O O3 0.649811 0.244532 0.508671
O O4 0.648003 0.375020 0.838578
O O5 0.920406 0.162269 0.835435
O O6 0.897863 0.000000 0.943417
O O7 0.455061 0.827341 0.870487
O O8 0.500000 0.688073 0.000000
O O9 0.428585 0.745703 0.264394
O O10 0.500000 0.894240 0.500000
O O11 0.591081 0.889908 0.497244
O O12 0.548715 0.000000 0.215705
O O13 0.247814 0.500000 0.395960
O O14 0.212768 0.613859 0.724201
O O15 0.202332 0.634432 0.226056
O O16 0.833101 0.500000 0.993760
O O17 0.866059 0.349506 0.081304
#
# Coordination Sequence:
#
# PCOD8108957 Si02
#       7
#     8   8   8   8   8   8   8
#     4  11  23  40  68  96 132 173 218 271 323 389
#     4  11  23  41  68 101 132 174 221 267 326 388
#     4  11  24  43  65  93 135 170 214 276 327 392
#     4  11  23  41  67  95 126 172 224 272 330 392
#     4  10  21  39  60  89 126 168 217 269 320 383
#     4  10  23  39  60  90 127 170 216 268 325 384
#     4  11  24  41  62  91 132 169 216 274 331 383
#
# _framework density 23.289823999999999
#
# number of rings (size 3 to 8) (size 9 to 14) (size 15 to 20)
#    0.000    1.286    2.857    2.571    2.000    4.000 
#    0.000    0.000    0.000    3.000    0.000    0.000 
#    0.000    0.000    0.000    0.000    0.000    0.000 
#
# Total GULP energy -347154.335286 kJ/mol
# GULP energy per Si atom -12398.369117 kJ/mol
# Density = 2.323682 g / cm^3
# Si number density = 23.289824 Si / 1000 Ang^3
#
#
#
# Elastic Constant Matrix: (Units=GPa)
#
#
# Indices 1 2 3 4 5 6 
#
# 1 103.9821 20.3425 13.2286 0.0000 13.2489 0.0000
# 2 20.3425 87.2293 4.9345 0.0000 0.5904 0.0000
# 3 13.2286 4.9345 92.2088 0.0000 6.1363 0.0000
# 4 0.0000 0.0000 0.0000 16.7070 0.0000 3.7027
# 5 13.2489 0.5904 6.1363 0.0000 31.5698 0.0000
# 6 0.0000 0.0000 0.0000 3.7027 0.0000 35.6748
#
#
#
# Elastic Compliance Matrix: (Units=1/GPa)
#
#
# Indices 1 2 3 4 5 6 
#
# 1 0.010777 -0.002420 -0.001133 0.000000 -0.004257 0.000000
# 2 -0.002420 0.012043 -0.000354 0.000000 0.000859 0.000000
# 3 -0.001133 -0.000354 0.011138 0.000000 -0.001683 0.000000
# 4 0.000000 0.000000 0.000000 0.061264 0.000000 -0.006359
# 5 -0.004257 0.000859 -0.001683 0.000000 0.033773 0.000000
# 6 0.000000 0.000000 0.000000 -0.006359 0.000000 0.028691
#
#
# Mechanical properties :
#
#
# Convention : Reuss Voigt Hill
#
# Bulk Modulus (GPa) = 38.25236 40.04795 39.15015
# Shear Modulus (GPa) = 28.69978 33.11797 30.90887
#
# Velocity S-wave (km/s) = 3.51420 3.77502 3.64695
# Velocity P-wave (km/s) = 5.73815 6.01946 5.88048
#
# Compressibility (1/GPa) = 0.02614218
#
# Stress axis : x y z
#
# Youngs Moduli (GPa) = 92.78869 83.03769 89.77877
#
# Poissons Ratio (x) = 0.20098 0.10175
# Poissons Ratio (y) = 0.22459 0.03182
# Poissons Ratio (z) = 0.10516 0.02943
#
# Static dielectric constant tensor:
#      x y z
#    x 4.506180 0.000000 0.087420 
#    y 0.000000 4.256490 0.000000 
#    z 0.087420 0.000000 4.041380 
# 
# 
# High freq. dielectric constant tensor:
#      x y z
#    x 1.931360 0.000000 0.000420 
#    y 0.000000 1.916010 0.000000 
#    z 0.000420 0.000000 1.917160 
# 
# From -- ./inp_files/31498.got.cif
#   From: 2010.06.25/outbox.cif.g09.slc.cpg/sg12_16_cif.got.tgz:31498.got - 2010.06.28 00:19:55.
