data_PCOD8108816
_publ_section_title
;
Structure prediction by ZEFSAII (Michael W. Deem and Ramdas Pophale) SiO2 
 PCOD8108816
Probable space group: C 2/M
;
_chemical_formula_sum "Si O2"
_cell_formula_units_Z 56
_cell_length_a 14.429004
_cell_length_b 22.515596
_cell_length_c 14.403322
_cell_angle_alpha 90.000000
_cell_angle_beta 31.374385
_cell_angle_gamma 90.000000
_cell_volume 2436.183407
_symmetry_space_group_name_H-M "C 2/M"
_symmetry_group_IT_number 12
_symmetry_cell_setting 'monoclinic'
loop_
_space_group_symop_operation_xyz
x,y,z
-x,y,-z
-x,-y,-z
x,-y,z
1/2+x,1/2+y,z
1/2-x,1/2+y,-z
1/2-x,1/2-y,-z
1/2+x,1/2-y,z
loop_
_atom_site_type_symbol
_atom_site_label
_atom_site_fract_x
_atom_site_fract_y
_atom_site_fract_z
Si Si1 0.014944 0.593406 0.586993
Si Si2 0.281012 0.933410 0.413754
Si Si3 0.512777 0.744657 0.777710
Si Si4 0.638087 0.432752 0.955779
Si Si5 0.435350 0.384839 0.794919
Si Si6 0.404781 0.774731 0.490469
Si Si7 0.941117 0.357213 0.944673
O O1 0.130351 0.556612 0.561308
O O2 0.117971 0.654835 0.479914
O O3 0.000000 0.559933 0.500000
O O4 0.819123 0.605396 0.796711
O O5 0.409399 0.893992 0.239541
O O6 0.093836 0.898328 0.586303
O O7 0.251540 0.000000 0.397203
O O8 0.454629 0.676639 0.836246
O O9 0.478346 0.761251 0.699953
O O10 0.714453 0.755463 0.639061
O O11 0.405022 0.791207 0.933397
O O12 0.684797 0.500000 0.887132
O O13 0.500000 0.405327 0.000000
O O14 0.560812 0.433133 0.126139
O O15 0.249826 0.389766 0.897580
O O16 0.500000 0.747048 0.500000
O O17 0.000000 0.352431 0.000000
#
# Coordination Sequence:
#
# PCOD8108816 Si02
#       7
#     8   8   8   8   8   8   8
#     4  11  21  40  66 101 142 184 226 282 346 422
#     4  12  25  47  74 102 141 187 233 295 357 412
#     4  11  22  45  67 102 142 181 230 284 350 419
#     4  11  24  40  64 102 146 187 234 288 350 426
#     4  12  25  46  73 105 143 181 235 291 354 426
#     4  10  21  38  69 103 138 178 227 281 345 420
#     4  12  29  50  72 104 138 187 245 296 350 417
#
# _framework density 22.986775999999999
#
# number of rings (size 3 to 8) (size 9 to 14) (size 15 to 20)
#    0.000    0.714    4.286    3.000    4.000    4.286 
#    0.000    0.714    0.000    0.000    0.000    0.000 
#    0.000    0.000    0.000    0.000    0.000    0.000 
#
# Total GULP energy -347178.988944 kJ/mol
# GULP energy per Si atom -12399.249605 kJ/mol
# Density = 2.293446 g / cm^3
# Si number density = 22.986776 Si / 1000 Ang^3
#
#
#
# Elastic Constant Matrix: (Units=GPa)
#
#
# Indices 1 2 3 4 5 6 
#
# 1 152.1768 13.7348 45.9457 0.0267 5.5011 -0.0062
# 2 13.7348 92.4228 28.6338 -0.0168 0.1032 -0.0018
# 3 45.9457 28.6338 134.2219 0.1087 -12.8366 -0.0252
# 4 0.0267 -0.0168 0.1087 16.7728 -0.0468 -1.0159
# 5 5.5011 0.1032 -12.8366 -0.0468 38.3850 0.0137
# 6 -0.0062 -0.0018 -0.0252 -1.0159 0.0137 19.3982
#
#
#
# Elastic Compliance Matrix: (Units=1/GPa)
#
#
# Indices 1 2 3 4 5 6 
#
# 1 0.007480 -0.000276 -0.002690 0.000000 -0.001971 0.000000
# 2 -0.000276 0.011625 -0.002464 0.000026 -0.000816 0.000000
# 3 -0.002690 -0.002464 0.009229 -0.000048 0.003479 0.000006
# 4 0.000000 0.000026 -0.000048 0.059810 0.000056 0.003132
# 5 -0.001971 -0.000816 0.003479 0.000056 0.027500 -0.000013
# 6 0.000000 0.000000 0.000006 0.003132 -0.000013 0.051715
#
#
# Mechanical properties :
#
#
# Convention : Reuss Voigt Hill
#
# Bulk Modulus (GPa) = 57.22418 61.71669 59.47044
# Shear Modulus (GPa) = 27.16750 34.27835 30.72293
#
# Velocity S-wave (km/s) = 3.44157 3.86582 3.65985
# Velocity P-wave (km/s) = 6.38287 6.84348 6.61718
#
# Compressibility (1/GPa) = 0.01747513
#
# Stress axis : x y z
#
# Youngs Moduli (GPa) = 133.69671 86.02153 108.34911
#
# Poissons Ratio (x) = 0.02374 0.29146
# Poissons Ratio (y) = 0.03689 0.26692
# Poissons Ratio (z) = 0.35964 0.21192
#
# Static dielectric constant tensor:
#      x y z
#    x 4.234630 -0.000020 -0.073060 
#    y -0.000020 3.948360 0.000050 
#    z -0.073060 0.000050 4.085320 
# 
# 
# High freq. dielectric constant tensor:
#      x y z
#    x 1.907030 0.000000 -0.009970 
#    y 0.000000 1.898120 0.000010 
#    z -0.009970 0.000010 1.908920 
# 
# From -- ./inp_files/218695.got.cif
#   From: 2010.06.25/outbox.cif.g09.slc.cpg/sg12_110_cif.got.tgz:218695.got - 2010.06.28 00:19:55.
