data_PCOD8108080
_publ_section_title
;
Structure prediction by ZEFSAII (Michael W. Deem and Ramdas Pophale) SiO2 
 PCOD8108080
Probable space group: C 2/M
;
_chemical_formula_sum "Si O2"
_cell_formula_units_Z 48
_cell_length_a 30.538436
_cell_length_b 8.373771
_cell_length_c 18.106199
_cell_angle_alpha 90.000000
_cell_angle_beta 31.088214
_cell_angle_gamma 90.000000
_cell_volume 2390.811745
_symmetry_space_group_name_H-M "C 2/M"
_symmetry_group_IT_number 12
_symmetry_cell_setting 'monoclinic'
loop_
_space_group_symop_operation_xyz
x,y,z
-x,y,-z
-x,-y,-z
x,-y,z
1/2+x,1/2+y,z
1/2-x,1/2+y,-z
1/2-x,1/2-y,-z
1/2+x,1/2-y,z
loop_
_atom_site_type_symbol
_atom_site_label
_atom_site_fract_x
_atom_site_fract_y
_atom_site_fract_z
Si Si1 0.871553 0.810212 0.153608
Si Si2 0.037856 0.189704 0.834028
Si Si3 0.705299 0.684759 0.167379
Si Si4 0.054303 0.185267 0.645723
Si Si5 0.302419 0.814164 0.661952
Si Si6 0.118566 0.683784 0.155854
O O1 0.892069 0.751242 0.207601
O O2 0.781001 0.743038 0.258111
O O3 0.870267 0.000000 0.154991
O O4 0.945004 0.746387 0.992593
O O5 0.061052 0.253880 0.719456
O O6 0.034065 0.000000 0.837621
O O7 0.690332 0.500000 0.170718
O O8 0.682479 0.719539 0.284548
O O9 0.642748 0.786822 0.206211
O O10 0.802612 0.732524 0.010284
O O11 0.117176 0.289828 0.506110
O O12 0.959011 0.204300 0.754442
O O13 0.080023 0.000000 0.604070
O O14 0.291137 0.000000 0.696517
O O15 0.092632 0.500000 0.182873
#
# Coordination Sequence:
#
# PCOD8108080 Si02
#       6
#     8   8   8   8   8   8
#     4   8  15  30  53  79 105 137 180 226 269 316
#     4   8  15  30  53  79 105 137 180 226 269 316
#     4  10  21  38  60  84 109 138 176 222 270 322
#     4  11  22  35  53  79 112 148 184 222 268 320
#     4  11  22  35  53  79 112 148 184 222 268 320
#     4  10  21  38  60  84 109 138 176 222 270 322
#
# _framework density 20.076862999999999
#
# number of rings (size 3 to 8) (size 9 to 14) (size 15 to 20)
#    0.000    2.333    0.000    4.000    0.000    4.667 
#    0.000    3.333    0.000    3.000    0.000   11.667 
#    0.000    0.000    0.000    0.000    0.000    0.000 
#
# Total GULP energy -297631.763911 kJ/mol
# GULP energy per Si atom -12401.323496 kJ/mol
# Density = 2.003117 g / cm^3
# Si number density = 20.076863 Si / 1000 Ang^3
#
#
#
# Elastic Constant Matrix: (Units=GPa)
#
#
# Indices 1 2 3 4 5 6 
#
# 1 115.6095 7.0457 53.9536 0.0033 23.8075 -0.0023
# 2 7.0457 32.7737 7.1750 -0.0032 -0.4849 0.0026
# 3 53.9536 7.1750 87.2498 0.0000 25.3265 -0.0005
# 4 0.0033 -0.0032 0.0000 16.7597 -0.0024 0.5120
# 5 23.8075 -0.4849 25.3265 -0.0024 25.7370 0.0027
# 6 -0.0023 0.0026 -0.0005 0.5120 0.0027 16.6956
#
#
#
# Elastic Compliance Matrix: (Units=1/GPa)
#
#
# Indices 1 2 3 4 5 6 
#
# 1 0.012788 -0.001505 -0.006079 -0.000004 -0.005877 0.000003
# 2 -0.001505 0.031599 -0.003142 0.000007 0.005080 -0.000006
# 3 -0.006079 -0.003142 0.019407 -0.000001 -0.013534 0.000003
# 4 -0.000004 0.000007 -0.000001 0.059723 0.000011 -0.001831
# 5 -0.005877 0.005080 -0.013534 0.000011 0.057704 -0.000012
# 6 0.000003 -0.000006 0.000003 -0.001831 -0.000012 0.059952
#
#
# Mechanical properties :
#
#
# Convention : Reuss Voigt Hill
#
# Bulk Modulus (GPa) = 23.61707 41.33129 32.47418
# Shear Modulus (GPa) = 18.06746 23.00238 20.53492
#
# Velocity S-wave (km/s) = 3.00311 3.38851 3.20162
# Velocity P-wave (km/s) = 4.87994 5.99505 5.46600
#
# Compressibility (1/GPa) = 0.04234226
#
# Stress axis : x y z
#
# Youngs Moduli (GPa) = 78.19526 31.64661 51.52723
#
# Poissons Ratio (x) = 0.04764 0.31321
# Poissons Ratio (y) = 0.11772 0.16191
# Poissons Ratio (z) = 0.47531 0.09944
#
# Static dielectric constant tensor:
#      x y z
#    x 3.892980 -0.000010 0.027740 
#    y -0.000010 3.230470 0.000010 
#    z 0.027740 0.000010 3.579450 
# 
# 
# High freq. dielectric constant tensor:
#      x y z
#    x 1.796020 0.000000 0.002880 
#    y 0.000000 1.756450 0.000000 
#    z 0.002880 0.000000 1.776090 
# 
# From -- ./inp_files/260413.got.cif
#   From: 2010.06.25/outbox.cif.g09.slc.cpg/sg12_131_cif.got.tgz:260413.got - 2010.06.28 00:19:55.
