data_PCOD8108362
_publ_section_title
;
Structure prediction by ZEFSAII (Michael W. Deem and Ramdas Pophale) SiO2 
 PCOD8108362
Probable space group: C 2/M
;
_chemical_formula_sum "Si O2"
_cell_formula_units_Z 48
_cell_length_a 18.150060
_cell_length_b 14.799430
_cell_length_c 16.151315
_cell_angle_alpha 90.000000
_cell_angle_beta 33.190186
_cell_angle_gamma 90.000000
_cell_volume 2374.933827
_symmetry_space_group_name_H-M "C 2/M"
_symmetry_group_IT_number 12
_symmetry_cell_setting 'monoclinic'
loop_
_space_group_symop_operation_xyz
x,y,z
-x,y,-z
-x,-y,-z
x,-y,z
1/2+x,1/2+y,z
1/2-x,1/2+y,-z
1/2-x,1/2-y,-z
1/2+x,1/2-y,z
loop_
_atom_site_type_symbol
_atom_site_label
_atom_site_fract_x
_atom_site_fract_y
_atom_site_fract_z
Si Si1 0.958800 0.895310 0.787767
Si Si2 0.981599 0.396606 0.427168
Si Si3 0.848513 0.264425 0.156608
Si Si4 0.388172 0.392891 0.673144
Si Si5 0.275869 0.605256 0.107154
Si Si6 0.219665 0.191628 0.606667
O O1 0.941549 0.854566 0.711587
O O2 0.103079 0.878131 0.692457
O O3 0.938225 0.000000 0.795597
O O4 0.843508 0.859414 0.958723
O O5 0.948514 0.500000 0.475020
O O6 0.856848 0.358869 0.495719
O O7 0.000000 0.348702 0.500000
O O8 0.115755 0.382723 0.246692
O O9 0.750137 0.341161 0.214433
O O10 0.827527 0.166147 0.134537
O O11 0.826142 0.254794 0.275263
O O12 0.000000 0.298747 0.000000
O O13 0.500000 0.367519 0.500000
O O14 0.359047 0.500000 0.700108
O O15 0.312217 0.500000 0.092483
O O16 0.250000 0.250000 0.500000
#
# Coordination Sequence:
#
# PCOD8108362 Si02
#       6
#     8   8   8   8   8   8
#     4  10  22  42  65  91 124 166 210 259 314 377
#     4  10  21  38  61  88 123 167 209 255 314 375
#     4  12  25  41  63  97 129 170 209 260 322 377
#     4  10  24  46  70  90 121 173 222 262 309 370
#     4  10  22  39  64  96 130 165 205 255 321 390
#     4  12  25  37  58  95 128 164 208 263 313 372
#
# _framework density 20.211089000000001
#
# number of rings (size 3 to 8) (size 9 to 14) (size 15 to 20)
#    0.000    1.333    3.333    1.500    4.667    3.333 
#    0.000    0.833    0.000    0.000    0.000    0.000 
#    0.000    0.000    0.000    0.000    0.000    0.000 
#
# Total GULP energy -297617.522240 kJ/mol
# GULP energy per Si atom -12400.730093 kJ/mol
# Density = 2.016509 g / cm^3
# Si number density = 20.211089 Si / 1000 Ang^3
#
#
#
# Elastic Constant Matrix: (Units=GPa)
#
#
# Indices 1 2 3 4 5 6 
#
# 1 162.2746 41.1107 89.9155 0.0000 1.7905 0.0000
# 2 41.1107 54.1050 46.3147 0.0000 -5.1431 0.0000
# 3 89.9155 46.3147 166.2776 0.0001 -4.6846 -0.0001
# 4 0.0000 0.0000 0.0001 25.5343 -0.0001 -7.5272
# 5 1.7905 -5.1431 -4.6846 -0.0001 49.5545 0.0001
# 6 0.0000 0.0000 -0.0001 -7.5272 0.0001 31.0194
#
#
#
# Elastic Compliance Matrix: (Units=1/GPa)
#
#
# Indices 1 2 3 4 5 6 
#
# 1 0.009372 -0.003758 -0.004053 0.000000 -0.001112 0.000000
# 2 -0.003758 0.025953 -0.005131 0.000000 0.002344 0.000000
# 3 -0.004053 -0.005131 0.009649 0.000000 0.000526 0.000000
# 4 0.000000 0.000000 0.000000 0.042180 0.000000 0.010235
# 5 -0.001112 0.002344 0.000526 0.000000 0.020513 0.000000
# 6 0.000000 0.000000 0.000000 0.010235 0.000000 0.034722
#
#
# Mechanical properties :
#
#
# Convention : Reuss Voigt Hill
#
# Bulk Modulus (GPa) = 52.37812 81.92655 67.15234
# Shear Modulus (GPa) = 28.63098 34.90939 31.77019
#
# Velocity S-wave (km/s) = 3.76785 4.16052 3.96904
# Velocity P-wave (km/s) = 6.70080 7.98143 7.36899
#
# Compressibility (1/GPa) = 0.01909194
#
# Stress axis : x y z
#
# Youngs Moduli (GPa) = 106.69782 38.53158 103.63244
#
# Poissons Ratio (x) = 0.14480 0.41999
# Poissons Ratio (y) = 0.40095 0.53171
# Poissons Ratio (z) = 0.43242 0.19769
#
# Static dielectric constant tensor:
#      x y z
#    x 2.504120 0.000000 0.936090 
#    y 0.000000 3.549840 0.000000 
#    z 0.936090 0.000000 3.580640 
# 
# 
# High freq. dielectric constant tensor:
#      x y z
#    x 1.793280 0.000000 0.004070 
#    y 0.000000 1.779640 0.000000 
#    z 0.004070 0.000000 1.808750 
# 
# From -- ./inp_files/278027.got.cif
#   From: 2010.06.25/outbox.cif.g09.slc.cpg/sg12_140_cif.got.tgz:278027.got - 2010.06.28 00:19:55.
