data_PCOD8108850
_publ_section_title
;
Structure prediction by ZEFSAII (Michael W. Deem and Ramdas Pophale) SiO2 
 PCOD8108850
Probable space group: C 2/M
;
_chemical_formula_sum "Si O2"
_cell_formula_units_Z 40
_cell_length_a 24.215472
_cell_length_b 9.613392
_cell_length_c 16.311953
_cell_angle_alpha 90.000000
_cell_angle_beta 147.306616
_cell_angle_gamma 90.000000
_cell_volume 2051.088605
_symmetry_space_group_name_H-M "C 2/M"
_symmetry_group_IT_number 12
_symmetry_cell_setting 'monoclinic'
loop_
_space_group_symop_operation_xyz
x,y,z
-x,y,-z
-x,-y,-z
x,-y,z
1/2+x,1/2+y,z
1/2-x,1/2+y,-z
1/2-x,1/2-y,-z
1/2+x,1/2-y,z
loop_
_atom_site_type_symbol
_atom_site_label
_atom_site_fract_x
_atom_site_fract_y
_atom_site_fract_z
Si Si1 0.230841 0.500000 0.624024
Si Si2 0.120120 0.000000 0.651865
Si Si3 0.716636 0.220572 0.745262
Si Si4 0.072540 0.777908 0.898650
Si Si5 0.156485 0.000000 0.886881
Si Si6 0.455418 0.500000 0.853342
Si Si7 0.485823 0.000000 0.716193
Si Si8 0.136074 0.500000 0.763046
O O1 0.230012 0.638174 0.677924
O O2 0.333173 0.500000 0.698354
O O3 0.136414 0.500000 0.443339
O O4 0.162818 0.866041 0.657652
O O5 0.000000 0.000000 0.500000
O O6 0.158342 0.000000 0.792363
O O7 0.643788 0.136330 0.716415
O O8 0.826544 0.247263 0.922201
O O9 0.021996 0.633540 0.811409
O O10 0.992780 0.862632 0.853609
O O11 0.100800 0.862702 0.851698
O O12 0.274866 0.000000 0.058582
O O13 0.500000 0.500000 0.000000
O O14 0.529026 0.000000 0.677137
#
# Coordination Sequence:
#
# PCOD8108850 Si02
#       8
#     4   4   8   8   4   4   4   4
#     4  11  25  40  65  87 122 159 206 257 304 361
#     4  12  25  32  54  87 139 164 190 239 296 350
#     4  10  21  39  58  92 117 166 210 234 291 373
#     4  10  21  39  69  87 115 156 211 249 301 363
#     4   9  19  38  57  89 115 168 202 235 286 370
#     4  11  20  46  70  84 108 165 206 251 313 368
#     4  12  24  35  58  98 125 150 190 267 303 344
#     4   9  19  36  64  79 124 163 198 236 295 365
#
# _framework density 19.501839
#
# number of rings (size 3 to 8) (size 9 to 14) (size 15 to 20)
#    0.000    1.600    2.000    4.200    5.600    4.800 
#    0.000    1.500    0.000    0.000    0.000    0.000 
#    0.000    0.000    0.000    0.000    0.000    0.000 
#
# Total GULP energy -248099.533004 kJ/mol
# GULP energy per Si atom -12404.976650 kJ/mol
# Density = 1.945745 g / cm^3
# Si number density = 19.501839 Si / 1000 Ang^3
#
#
#
# Elastic Constant Matrix: (Units=GPa)
#
#
# Indices 1 2 3 4 5 6 
#
# 1 79.5571 37.1896 13.6907 0.0000 24.7507 0.0000
# 2 37.1896 150.1703 50.9096 0.0000 16.4246 0.0000
# 3 13.6907 50.9096 83.1059 0.0000 23.0071 0.0000
# 4 0.0000 0.0000 0.0000 -3.9357 0.0000 7.3073
# 5 24.7507 16.4246 23.0071 0.0000 35.1718 0.0000
# 6 0.0000 0.0000 0.0000 7.3073 0.0000 13.9882
#
#
#
# Elastic Compliance Matrix: (Units=1/GPa)
#
#
# Indices 1 2 3 4 5 6 
#
# 1 0.017901 -0.004085 0.003068 0.000000 -0.012697 0.000000
# 2 -0.004085 0.009350 -0.005668 0.000000 0.002216 0.000000
# 3 0.003068 -0.005668 0.018152 0.000000 -0.011386 0.000000
# 4 0.000000 0.000000 0.000000 -0.128982 0.000000 0.067379
# 5 -0.012697 0.002216 -0.011386 0.000000 0.043780 0.000000
# 6 0.000000 0.000000 0.000000 0.067379 0.000000 0.036291
#
#
# Mechanical properties :
#
#
# Convention : Reuss Voigt Hill
#
# Bulk Modulus (GPa) = 31.21745 57.37920 44.29832
# Shear Modulus (GPa) = 243.44872 23.11440 133.28156
#
# Velocity S-wave (km/s) = 11.18502 3.44647 8.27596
# Velocity P-wave (km/s) = 13.52215 6.73230 10.68111
#
# Compressibility (1/GPa) = 0.03203337
#
# Stress axis : x y z
#
# Youngs Moduli (GPa) = 55.86276 106.95319 55.09113
#
# Poissons Ratio (x) = 0.43687 -0.16903
# Poissons Ratio (y) = 0.22818 0.31227
# Poissons Ratio (z) = -0.17140 0.60623
#
# Static dielectric constant tensor:
#      x y z
#    x 3.509710 0.000000 0.065520 
#    y 0.000000 3.396580 0.000000 
#    z 0.065520 0.000000 3.664370 
# 
# 
# High freq. dielectric constant tensor:
#      x y z
#    x 1.744780 0.000000 0.008440 
#    y 0.000000 1.769710 0.000000 
#    z 0.008440 0.000000 1.760040 
# 
# From -- ./inp_files/273999.got.cif
#   From: 2010.06.25/outbox.cif.g09.slc.cpg/sg12_137_cif.got.tgz:273999.got - 2010.06.28 00:19:55.
