data_PCOD8108371
_publ_section_title
;
Structure prediction by ZEFSAII (Michael W. Deem and Ramdas Pophale) SiO2 
 PCOD8108371
Probable space group: C 2/M
;
_chemical_formula_sum "Si O2"
_cell_formula_units_Z 64
_cell_length_a 31.287646
_cell_length_b 8.269996
_cell_length_c 19.802643
_cell_angle_alpha 90.000000
_cell_angle_beta 37.756367
_cell_angle_gamma 90.000000
_cell_volume 3137.395384
_symmetry_space_group_name_H-M "C 2/M"
_symmetry_group_IT_number 12
_symmetry_cell_setting 'monoclinic'
loop_
_space_group_symop_operation_xyz
x,y,z
-x,y,-z
-x,-y,-z
x,-y,z
1/2+x,1/2+y,z
1/2-x,1/2+y,-z
1/2-x,1/2-y,-z
1/2+x,1/2-y,z
loop_
_atom_site_type_symbol
_atom_site_label
_atom_site_fract_x
_atom_site_fract_y
_atom_site_fract_z
Si Si1 0.564017 0.806765 0.873940
Si Si2 0.302885 0.312641 0.988266
Si Si3 0.215276 0.690725 0.727918
Si Si4 0.055315 0.312382 0.732677
Si Si5 0.937612 0.189353 0.624249
Si Si6 0.717667 0.692611 0.216595
Si Si7 0.801027 0.190789 0.492791
Si Si8 0.445351 0.187153 0.764815
O O1 0.636975 0.738661 0.813866
O O2 0.554107 0.737009 0.809982
O O3 0.565915 0.000000 0.869590
O O4 0.500000 0.744239 0.000000
O O5 0.320590 0.500000 0.954698
O O6 0.270109 0.282985 0.101672
O O7 0.250000 0.250000 0.000000
O O8 0.371308 0.206806 0.892699
O O9 0.207834 0.500000 0.737344
O O10 0.252599 0.750815 0.748953
O O11 0.267354 0.747477 0.604681
O O12 0.038541 0.500000 0.761310
O O13 0.128084 0.286366 0.605133
O O14 0.998741 0.234770 0.752483
O O15 0.861706 0.256702 0.695515
O O16 0.951222 0.223700 0.685808
O O17 0.000000 0.264970 0.500000
O O18 0.936622 0.000000 0.613462
O O19 0.721661 0.500000 0.201259
O O20 0.750000 0.250000 0.500000
O O21 0.814140 0.000000 0.472938
O O22 0.461199 0.000000 0.731330
#
# Coordination Sequence:
#
# PCOD8108371 Si02
#       8
#     8   8   8   8   8   8   8   8
#     4   9  17  32  56  83 114 151 193 238 282 339
#     4  12  24  41  64  89 120 157 200 251 302 360
#     4   9  19  34  57  86 115 152 199 239 285 354
#     4  10  22  39  59  89 120 152 200 247 293 352
#     4  10  22  39  60  86 121 160 201 247 295 358
#     4  10  21  38  61  89 118 154 200 247 295 354
#     4  11  21  37  62  88 119 158 199 248 297 350
#     4  11  24  40  62  90 122 160 201 251 303 356
#
# _framework density 20.399086
#
# number of rings (size 3 to 8) (size 9 to 14) (size 15 to 20)
#    0.000    1.750    2.500    1.875    3.500    1.250 
#    0.000    1.250    0.000    0.375    0.000    0.000 
#    0.000    0.000    0.000    0.000    0.000    0.000 
#
# Total GULP energy -396730.231506 kJ/mol
# GULP energy per Si atom -12397.819735 kJ/mol
# Density = 2.035266 g / cm^3
# Si number density = 20.399086 Si / 1000 Ang^3
#
#
#
# Elastic Constant Matrix: (Units=GPa)
#
#
# Indices 1 2 3 4 5 6 
#
# 1 195.7591 0.0545 88.2445 0.0015 2.9300 0.0025
# 2 0.0545 13.7762 -5.3200 -0.0220 5.2662 0.0081
# 3 88.2445 -5.3200 170.1066 -0.0097 4.6196 0.0022
# 4 0.0015 -0.0220 -0.0097 27.3832 0.0054 2.5206
# 5 2.9300 5.2662 4.6196 0.0054 40.8687 0.0003
# 6 0.0025 0.0081 0.0022 2.5206 0.0003 21.7126
#
#
#
# Elastic Compliance Matrix: (Units=1/GPa)
#
#
# Indices 1 2 3 4 5 6 
#
# 1 0.006694 -0.001425 -0.003520 -0.000003 0.000102 0.000000
# 2 -0.001425 0.077875 0.003455 0.000069 -0.010323 -0.000037
# 3 -0.003520 0.003455 0.007842 0.000006 -0.001079 -0.000002
# 4 -0.000003 0.000069 0.000006 0.036913 -0.000014 -0.004285
# 5 0.000102 -0.010323 -0.001079 -0.000014 0.025914 0.000005
# 6 0.000000 -0.000037 -0.000002 -0.004285 0.000005 0.046554
#
#
# Mechanical properties :
#
#
# Convention : Reuss Voigt Hill
#
# Bulk Modulus (GPa) = 11.18170 60.62220 35.90195
# Shear Modulus (GPa) = 21.31460 37.77043 29.54252
#
# Velocity S-wave (km/s) = 3.23597 4.30766 3.80969
# Velocity P-wave (km/s) = 4.41082 7.38403 6.08191
#
# Compressibility (1/GPa) = 0.08943186
#
# Stress axis : x y z
#
# Youngs Moduli (GPa) = 149.39056 12.84108 127.51901
#
# Poissons Ratio (x) = 0.01829 0.44884
# Poissons Ratio (y) = 0.21282 -0.44056
# Poissons Ratio (z) = 0.52583 -0.04436
#
# Static dielectric constant tensor:
#      x y z
#    x 4.011640 -0.000050 -0.036740 
#    y -0.000050 3.318240 0.000040 
#    z -0.036740 0.000040 3.821380 
# 
# 
# High freq. dielectric constant tensor:
#      x y z
#    x 1.814080 0.000000 -0.000490 
#    y 0.000000 1.761250 0.000010 
#    z -0.000490 0.000010 1.811520 
# 
# From -- ./inp_files/295615.got.cif
#   From: 2010.06.25/outbox.cif.g09.slc.cpg/sg12_148_cif.got.tgz:295615.got - 2010.06.28 00:19:55.
