data_PCOD8108386
_publ_section_title
;
Structure prediction by ZEFSAII (Michael W. Deem and Ramdas Pophale) SiO2 
 PCOD8108386
Probable space group: C 2/M
;
_chemical_formula_sum "Si O2"
_cell_formula_units_Z 56
_cell_length_a 18.399688
_cell_length_b 8.994311
_cell_length_c 17.930050
_cell_angle_alpha 90.000000
_cell_angle_beta 68.763229
_cell_angle_gamma 90.000000
_cell_volume 2765.785020
_symmetry_space_group_name_H-M "C 2/M"
_symmetry_group_IT_number 12
_symmetry_cell_setting 'monoclinic'
loop_
_space_group_symop_operation_xyz
x,y,z
-x,y,-z
-x,-y,-z
x,-y,z
1/2+x,1/2+y,z
1/2-x,1/2+y,-z
1/2-x,1/2-y,-z
1/2+x,1/2-y,z
loop_
_atom_site_type_symbol
_atom_site_label
_atom_site_fract_x
_atom_site_fract_y
_atom_site_fract_z
Si Si1 0.427627 0.165946 0.973733
Si Si2 0.922190 0.673269 0.488801
Si Si3 0.280007 0.324667 0.063601
Si Si4 0.785764 0.174270 0.625396
Si Si5 0.978131 0.170907 0.805888
Si Si6 0.323332 0.330038 0.779012
Si Si7 0.108820 0.673211 0.668663
O O1 0.447467 0.242335 0.888669
O O2 0.395080 0.000000 0.968547
O O3 0.500000 0.153631 0.000000
O O4 0.366684 0.263344 0.043583
O O5 0.914535 0.500000 0.508953
O O6 0.844150 0.748909 0.546885
O O7 0.927185 0.705685 0.399057
O O8 0.000000 0.737774 0.500000
O O9 0.281363 0.500000 0.053851
O O10 0.226854 0.280483 0.152455
O O11 0.250000 0.250000 0.000000
O O12 0.810282 0.220257 0.699371
O O13 0.698068 0.228760 0.640513
O O14 0.792990 0.000000 0.609845
O O15 0.059542 0.237601 0.747959
O O16 0.914405 0.187208 0.764105
O O17 0.991178 0.000000 0.823258
O O18 0.295455 0.500000 0.802476
O O19 0.103697 0.500000 0.691072
#
# Coordination Sequence:
#
# PCOD8108386 Si02
#       7
#     8   8   8   8   8   8   8
#     4  11  25  43  64  88 121 164 205 253 313 369
#     4  10  21  38  61  89 121 157 198 246 298 355
#     4  12  24  40  64  92 122 161 207 256 309 365
#     4  10  22  39  61  88 119 157 199 245 300 361
#     4  11  23  39  61  88 119 157 202 253 301 360
#     4  10  22  40  60  86 120 158 202 252 305 362
#     4  10  22  39  59  86 122 160 198 246 304 364
#
# _framework density 20.247415
#
# number of rings (size 3 to 8) (size 9 to 14) (size 15 to 20)
#    0.000    1.429    1.429    3.429    2.000    3.714 
#    0.000    0.000    0.000    0.000    0.000    0.000 
#    0.000    0.000    0.000    0.000    0.000    0.000 
#
# Total GULP energy -347325.352741 kJ/mol
# GULP energy per Si atom -12404.476884 kJ/mol
# Density = 2.020133 g / cm^3
# Si number density = 20.247415 Si / 1000 Ang^3
#
#
#
# Elastic Constant Matrix: (Units=GPa)
#
#
# Indices 1 2 3 4 5 6 
#
# 1 95.7122 28.5970 14.2252 0.0000 -10.1305 0.0000
# 2 28.5970 107.3640 34.5245 0.0000 -13.1739 0.0000
# 3 14.2252 34.5245 57.6792 0.0000 -14.7945 0.0000
# 4 0.0000 0.0000 0.0000 36.8899 0.0000 -8.3849
# 5 -10.1305 -13.1739 -14.7945 0.0000 42.5362 0.0000
# 6 0.0000 0.0000 0.0000 -8.3849 0.0000 30.2453
#
#
#
# Elastic Compliance Matrix: (Units=1/GPa)
#
#
# Indices 1 2 3 4 5 6 
#
# 1 0.011524 -0.002588 -0.000873 0.000000 0.001640 0.000000
# 2 -0.002588 0.012180 -0.006415 0.000000 0.000925 0.000000
# 3 -0.000873 -0.006415 0.022870 0.000000 0.005760 0.000000
# 4 0.000000 0.000000 0.000000 0.028931 0.000000 0.008020
# 5 0.001640 0.000925 0.005760 0.000000 0.026190 0.000000
# 6 0.000000 0.000000 0.000000 0.008020 0.000000 0.035287
#
#
# Mechanical properties :
#
#
# Convention : Reuss Voigt Hill
#
# Bulk Modulus (GPa) = 37.28158 46.16099 41.72129
# Shear Modulus (GPa) = 30.18011 34.16152 32.17082
#
# Velocity S-wave (km/s) = 3.86497 4.11202 3.99041
# Velocity P-wave (km/s) = 6.19438 6.73742 6.47160
#
# Compressibility (1/GPa) = 0.02682290
#
# Stress axis : x y z
#
# Youngs Moduli (GPa) = 86.77223 82.10426 43.72628
#
# Poissons Ratio (x) = 0.21247 0.03816
# Poissons Ratio (y) = 0.22455 0.28050
# Poissons Ratio (z) = 0.07573 0.52669
#
# Static dielectric constant tensor:
#      x y z
#    x 4.096150 0.000000 -0.161010 
#    y 0.000000 3.767910 0.000000 
#    z -0.161010 0.000000 3.703240 
# 
# 
# High freq. dielectric constant tensor:
#      x y z
#    x 1.805660 0.000000 -0.001130 
#    y 0.000000 1.790490 0.000000 
#    z -0.001130 0.000000 1.794220 
# 
# From -- ./inp_files/275129.got.cif
#   From: 2010.06.25/outbox.cif.g09.slc.cpg/sg12_138_cif.got.tgz:275129.got - 2010.06.28 00:19:55.
