data_PCOD8108883
_publ_section_title
;
Structure prediction by ZEFSAII (Michael W. Deem and Ramdas Pophale) SiO2 
 PCOD8108883
Probable space group: C 2/M
;
_chemical_formula_sum "Si O2"
_cell_formula_units_Z 64
_cell_length_a 19.284377
_cell_length_b 8.781115
_cell_length_c 30.702181
_cell_angle_alpha 90.000000
_cell_angle_beta 38.140288
_cell_angle_gamma 90.000000
_cell_volume 3210.880197
_symmetry_space_group_name_H-M "C 2/M"
_symmetry_group_IT_number 12
_symmetry_cell_setting 'monoclinic'
loop_
_space_group_symop_operation_xyz
x,y,z
-x,y,-z
-x,-y,-z
x,-y,z
1/2+x,1/2+y,z
1/2-x,1/2+y,-z
1/2-x,1/2-y,-z
1/2+x,1/2-y,z
loop_
_atom_site_type_symbol
_atom_site_label
_atom_site_fract_x
_atom_site_fract_y
_atom_site_fract_z
Si Si1 0.495589 0.323280 0.210838
Si Si2 0.714217 0.819138 0.563453
Si Si3 0.282221 0.174437 0.286213
Si Si4 0.871536 0.821991 0.941802
Si Si5 0.761765 0.825010 0.206131
Si Si6 0.623222 0.677425 0.441469
Si Si7 0.970614 0.320964 0.063236
Si Si8 0.972719 0.677155 0.717927
O O1 0.461631 0.500000 0.227834
O O2 0.387457 0.214594 0.264362
O O3 0.572269 0.283074 0.131947
O O4 0.557303 0.277517 0.224883
O O5 0.750000 0.750000 0.500000
O O6 0.798586 0.753129 0.558903
O O7 0.587248 0.767746 0.637975
O O8 0.720555 0.000000 0.557253
O O9 0.285563 0.287616 0.244288
O O10 0.173166 0.204679 0.369023
O O11 0.288508 0.000000 0.267144
O O12 0.945094 0.756392 0.944602
O O13 0.859571 0.000000 0.955389
O O14 0.750000 0.750000 0.000000
O O15 0.842025 0.725626 0.135690
O O16 0.631125 0.790627 0.262769
O O17 0.792663 0.000000 0.182526
O O18 0.500000 0.754474 0.500000
O O19 0.612198 0.500000 0.457434
O O20 0.984369 0.500000 0.061839
O O21 0.000000 0.267552 0.000000
O O22 0.980757 0.500000 0.726888
#
# Coordination Sequence:
#
# PCOD8108883 Si02
#       8
#     8   8   8   8   8   8   8   8
#     4  11  23  40  64  92 122 155 204 260 304 357
#     4  10  21  39  59  84 122 159 200 249 304 366
#     4  11  21  38  65  89 119 162 205 250 309 366
#     4  11  25  43  65  94 127 164 205 253 307 362
#     4  11  24  41  62  91 124 159 205 254 305 363
#     4   9  19  36  59  87 119 156 202 252 300 360
#     4  11  25  44  65  91 126 163 204 252 305 366
#     4  10  23  42  62  87 123 166 204 250 310 369
#
# _framework density 19.932231000000002
#
# number of rings (size 3 to 8) (size 9 to 14) (size 15 to 20)
#    0.000    1.500    2.500    1.875    3.500    4.000 
#    0.000    0.000    0.000    1.875    0.000    0.000 
#    0.000    0.000    0.000    0.000    0.000    0.000 
#
# Total GULP energy -396876.822295 kJ/mol
# GULP energy per Si atom -12402.400697 kJ/mol
# Density = 1.988686 g / cm^3
# Si number density = 19.932231 Si / 1000 Ang^3
#
#
#
# Elastic Constant Matrix: (Units=GPa)
#
#
# Indices 1 2 3 4 5 6 
#
# 1 91.5164 25.2658 49.2720 -0.0055 -0.9820 0.0418
# 2 25.2658 51.8472 41.3555 -0.0088 2.0250 0.0056
# 3 49.2720 41.3555 117.9361 -0.0001 -6.7356 -0.0013
# 4 -0.0055 -0.0088 -0.0001 31.1731 -0.0018 3.7814
# 5 -0.9820 2.0250 -6.7356 -0.0018 42.4835 0.0004
# 6 0.0418 0.0056 -0.0013 3.7814 0.0004 26.5801
#
#
#
# Elastic Compliance Matrix: (Units=1/GPa)
#
#
# Indices 1 2 3 4 5 6 
#
# 1 0.014450 -0.003054 -0.004984 0.000004 -0.000311 -0.000023
# 2 -0.003054 0.027754 -0.008614 0.000007 -0.002759 -0.000003
# 3 -0.004984 -0.008614 0.013723 -0.000004 0.002471 0.000011
# 4 0.000004 0.000007 -0.000004 0.032642 0.000000 -0.004644
# 5 -0.000311 -0.002759 0.002471 0.000000 0.024055 0.000001
# 6 -0.000023 -0.000003 0.000011 -0.004644 0.000001 0.038283
#
#
# Mechanical properties :
#
#
# Convention : Reuss Voigt Hill
#
# Bulk Modulus (GPa) = 44.20169 54.78736 49.49453
# Shear Modulus (GPa) = 26.07527 29.74111 27.90819
#
# Velocity S-wave (km/s) = 3.62082 3.86698 3.74592
# Velocity P-wave (km/s) = 6.30116 6.89090 6.60262
#
# Compressibility (1/GPa) = 0.02262357
#
# Stress axis : x y z
#
# Youngs Moduli (GPa) = 69.20336 36.03025 72.87036
#
# Poissons Ratio (x) = 0.11005 0.36317
# Poissons Ratio (y) = 0.21137 0.62770
# Poissons Ratio (z) = 0.34489 0.31036
#
# Static dielectric constant tensor:
#      x y z
#    x 3.743320 0.000010 -0.131990 
#    y 0.000010 3.523810 0.000020 
#    z -0.131990 0.000020 3.780700 
# 
# 
# High freq. dielectric constant tensor:
#      x y z
#    x 1.787710 0.000000 -0.000970 
#    y 0.000000 1.767480 0.000000 
#    z -0.000970 0.000000 1.789040 
# 
# From -- ./inp_files/378103.got.cif
#   From: 2010.06.25/outbox.cif.g09.slc.cpg/sg12_190_cif.got.tgz:378103.got - 2010.06.28 00:19:55.
