data_PCOD8108680
_publ_section_title
;
Structure prediction by ZEFSAII (Michael W. Deem and Ramdas Pophale) SiO2 
 PCOD8108680
Probable space group: C 2/M
;
_chemical_formula_sum "Si O2"
_cell_formula_units_Z 56
_cell_length_a 28.760420
_cell_length_b 7.666215
_cell_length_c 18.413044
_cell_angle_alpha 90.000000
_cell_angle_beta 138.577913
_cell_angle_gamma 90.000000
_cell_volume 2685.950148
_symmetry_space_group_name_H-M "C 2/M"
_symmetry_group_IT_number 12
_symmetry_cell_setting 'monoclinic'
loop_
_space_group_symop_operation_xyz
x,y,z
-x,y,-z
-x,-y,-z
x,-y,z
1/2+x,1/2+y,z
1/2-x,1/2+y,-z
1/2-x,1/2-y,-z
1/2+x,1/2-y,z
loop_
_atom_site_type_symbol
_atom_site_label
_atom_site_fract_x
_atom_site_fract_y
_atom_site_fract_z
Si Si1 0.025639 0.793357 0.953650
Si Si2 0.212765 0.294316 0.879900
Si Si3 0.279767 0.195595 0.674438
Si Si4 0.561212 0.500000 0.482980
Si Si5 0.817343 0.796439 0.872748
Si Si6 0.901526 0.198947 0.714096
Si Si7 0.872733 0.312548 0.525507
Si Si8 0.605931 0.500000 0.700811
O O1 0.973881 0.725790 0.830801
O O2 0.020127 0.000000 0.953151
O O3 0.103037 0.733737 0.020491
O O4 0.000000 0.710687 0.000000
O O5 0.190664 0.500000 0.852144
O O6 0.271463 0.250927 0.888960
O O7 0.145072 0.171648 0.780967
O O8 0.250000 0.250000 0.000000
O O9 0.289725 0.188896 0.772332
O O10 0.343118 0.290417 0.708220
O O11 0.210211 0.300679 0.577349
O O12 0.271834 0.000000 0.635150
O O13 0.585678 0.670790 0.470588
O O14 0.601754 0.500000 0.608071
O O15 0.476875 0.500000 0.377865
O O16 0.814266 0.000000 0.849932
O O17 0.887025 0.313420 0.627515
O O18 0.908389 0.000000 0.696594
O O19 0.896491 0.500000 0.522031
#
# Coordination Sequence:
#
# PCOD8108680 Si02
#       8
#     8   8   8   4   8   8   8   4
#     4   9  17  34  59  87 127 173 220 271 326 396
#     4  11  24  44  73 107 143 182 233 294 360 422
#     4  12  23  37  60  93 133 177 229 282 332 392
#     4  11  26  50  72 108 135 187 225 293 362 428
#     4  10  21  38  63  95 127 177 228 273 337 403
#     4  11  21  38  62  91 135 183 231 280 332 392
#     4  12  25  44  67  97 135 176 232 281 344 411
#     4  11  26  48  80 102 145 174 235 289 360 438
#
# _framework density 20.849232000000001
#
# number of rings (size 3 to 8) (size 9 to 14) (size 15 to 20)
#    0.000    1.143    3.571    3.000    1.000    3.429 
#    0.000    3.571    0.000    0.000    0.000    0.000 
#    0.000    0.000    0.000    0.000    0.000    0.000 
#
# Total GULP energy -347105.103313 kJ/mol
# GULP energy per Si atom -12396.610833 kJ/mol
# Density = 2.080178 g / cm^3
# Si number density = 20.849232 Si / 1000 Ang^3
#
#
#
# Elastic Constant Matrix: (Units=GPa)
#
#
# Indices 1 2 3 4 5 6 
#
# 1 133.7022 37.5360 65.1690 0.0000 4.6354 0.0000
# 2 37.5360 121.2182 49.7469 0.0000 3.8077 -0.0001
# 3 65.1690 49.7469 183.0648 0.0000 0.6517 0.0000
# 4 0.0000 0.0000 0.0000 29.8530 0.0000 12.5857
# 5 4.6354 3.8077 0.6517 0.0000 37.4877 0.0000
# 6 0.0000 -0.0001 0.0000 12.5857 0.0000 50.5717
#
#
#
# Elastic Compliance Matrix: (Units=1/GPa)
#
#
# Indices 1 2 3 4 5 6 
#
# 1 0.009391 -0.001697 -0.002879 0.000000 -0.000939 0.000000
# 2 -0.001697 0.009622 -0.002008 0.000000 -0.000733 0.000000
# 3 -0.002879 -0.002008 0.007031 0.000000 0.000438 0.000000
# 4 0.000000 0.000000 0.000000 0.037424 0.000000 -0.009314
# 5 -0.000939 -0.000733 0.000438 0.000000 0.026858 0.000000
# 6 0.000000 0.000000 0.000000 -0.009314 0.000000 0.022092
#
#
# Mechanical properties :
#
#
# Convention : Reuss Voigt Hill
#
# Bulk Modulus (GPa) = 77.65619 82.54324 80.09971
# Shear Modulus (GPa) = 38.49721 42.61803 40.55762
#
# Velocity S-wave (km/s) = 4.30170 4.52608 4.41532
# Velocity P-wave (km/s) = 7.87403 8.18477 8.03090
#
# Compressibility (1/GPa) = 0.01287727
#
# Stress axis : x y z
#
# Youngs Moduli (GPa) = 106.47951 103.92611 142.21861
#
# Poissons Ratio (x) = 0.17639 0.40940
# Poissons Ratio (y) = 0.18072 0.28557
# Poissons Ratio (z) = 0.30652 0.20868
#
# Static dielectric constant tensor:
#      x y z
#    x 3.712790 0.000000 0.024450 
#    y 0.000000 3.660160 0.000000 
#    z 0.024450 0.000000 4.058290 
# 
# 
# High freq. dielectric constant tensor:
#      x y z
#    x 1.809090 0.000000 -0.002450 
#    y 0.000000 1.818850 0.000000 
#    z -0.002450 0.000000 1.832990 
# 
# From -- ./inp_files/292615.got.cif
#   From: 2010.06.25/outbox.cif.g09.slc.cpg/sg12_147_cif.got.tgz:292615.got - 2010.06.28 00:19:55.
