data_PCOD8108112
_publ_section_title
;
Structure prediction by ZEFSAII (Michael W. Deem and Ramdas Pophale) SiO2 
 PCOD8108112
Probable space group: C 2/M
;
_chemical_formula_sum "Si O2"
_cell_formula_units_Z 56
_cell_length_a 17.822483
_cell_length_b 8.978463
_cell_length_c 25.343336
_cell_angle_alpha 90.000000
_cell_angle_beta 135.722812
_cell_angle_gamma 90.000000
_cell_volume 2831.199439
_symmetry_space_group_name_H-M "C 2/M"
_symmetry_group_IT_number 12
_symmetry_cell_setting 'monoclinic'
loop_
_space_group_symop_operation_xyz
x,y,z
-x,y,-z
-x,-y,-z
x,-y,z
1/2+x,1/2+y,z
1/2-x,1/2+y,-z
1/2-x,1/2-y,-z
1/2+x,1/2-y,z
loop_
_atom_site_type_symbol
_atom_site_label
_atom_site_fract_x
_atom_site_fract_y
_atom_site_fract_z
Si Si1 0.776785 0.326469 0.436049
Si Si2 0.706789 0.173803 0.870532
Si Si3 0.151643 0.823306 0.733713
Si Si4 0.920480 0.328080 0.006787
Si Si5 0.003673 0.671077 0.838946
Si Si6 0.211800 0.825857 0.287080
Si Si7 0.584699 0.324441 0.413348
O O1 0.793351 0.500000 0.454244
O O2 0.770883 0.287736 0.371583
O O3 0.667137 0.272482 0.409307
O O4 0.879228 0.243018 0.512361
O O5 0.690009 0.262842 0.808620
O O6 0.612546 0.212384 0.863707
O O7 0.712294 0.000000 0.860243
O O8 0.816467 0.224579 0.953061
O O9 0.233064 0.768648 0.730494
O O10 0.032460 0.762544 0.660865
O O11 0.154963 0.000000 0.737388
O O12 0.884685 0.500000 0.983918
O O13 0.982424 0.297913 0.092208
O O14 0.000000 0.281844 0.000000
O O15 0.971008 0.500000 0.812305
O O16 0.912010 0.778549 0.770274
O O17 0.218726 0.000000 0.277553
O O18 0.581357 0.500000 0.417789
#
# Coordination Sequence:
#
# PCOD8108112 Si02
#       7
#     8   8   8   8   8   8   8
#     4   9  19  36  57  82 112 145 184 233 285 335
#     4  11  23  38  59  87 116 149 193 238 280 333
#     4  11  23  39  58  81 114 152 191 237 288 340
#     4  10  21  38  60  85 116 154 191 230 281 336
#     4  10  22  39  59  86 118 152 191 233 280 335
#     4  11  23  38  58  85 116 150 190 235 286 341
#     4   9  19  36  58  82 108 146 192 231 276 337
#
# _framework density 19.779602000000001
#
# number of rings (size 3 to 8) (size 9 to 14) (size 15 to 20)
#    0.000    1.857    0.000    3.429    0.000    7.143 
#    0.000    5.714    0.000    0.000    0.000    0.000 
#    0.000    0.000    0.000    0.000    0.000    0.000 
#
# Total GULP energy -347361.991929 kJ/mol
# GULP energy per Si atom -12405.785426 kJ/mol
# Density = 1.973458 g / cm^3
# Si number density = 19.779602 Si / 1000 Ang^3
#
#
#
# Elastic Constant Matrix: (Units=GPa)
#
#
# Indices 1 2 3 4 5 6 
#
# 1 66.1207 15.3003 -8.7765 0.0000 -9.9530 0.0000
# 2 15.3003 49.6348 14.4921 0.0000 -1.1138 0.0000
# 3 -8.7765 14.4921 44.7339 0.0000 -0.7528 0.0000
# 4 0.0000 0.0000 0.0000 37.3152 0.0000 4.2133
# 5 -9.9530 -1.1138 -0.7528 0.0000 35.4882 0.0000
# 6 0.0000 0.0000 0.0000 4.2133 0.0000 23.7426
#
#
#
# Elastic Compliance Matrix: (Units=1/GPa)
#
#
# Indices 1 2 3 4 5 6 
#
# 1 0.018385 -0.007325 0.006065 0.000000 0.005055 0.000000
# 2 -0.007325 0.025181 -0.009619 0.000000 -0.001468 0.000000
# 3 0.006065 -0.009619 0.026694 0.000000 0.001965 0.000000
# 4 0.000000 0.000000 0.000000 0.027347 0.000000 -0.004853
# 5 0.005055 -0.001468 0.001965 0.000000 0.029592 0.000000
# 6 0.000000 0.000000 0.000000 -0.004853 0.000000 0.042979
#
#
# Mechanical properties :
#
#
# Convention : Reuss Voigt Hill
#
# Bulk Modulus (GPa) = 20.61812 22.50234 21.56023
# Shear Modulus (GPa) = 24.02670 28.60745 26.31707
#
# Velocity S-wave (km/s) = 3.48907 3.80716 3.65158
# Velocity P-wave (km/s) = 5.16508 5.54322 5.35748
#
# Compressibility (1/GPa) = 0.04850104
#
# Stress axis : x y z
#
# Youngs Moduli (GPa) = 54.39317 39.71302 37.46208
#
# Poissons Ratio (x) = 0.29088 -0.22720
# Poissons Ratio (y) = 0.39841 0.36036
# Poissons Ratio (z) = -0.32989 0.38201
#
# Static dielectric constant tensor:
#      x y z
#    x 3.681580 0.000000 -0.005720 
#    y 0.000000 3.601960 0.000000 
#    z -0.005720 0.000000 3.696740 
# 
# 
# High freq. dielectric constant tensor:
#      x y z
#    x 1.777690 0.000000 -0.002690 
#    y 0.000000 1.768500 0.000000 
#    z -0.002690 0.000000 1.782850 
# 
# From -- ./inp_files/362892.got.cif
#   From: 2010.06.25/outbox.cif.g09.slc.cpg/sg12_182_cif.got.tgz:362892.got - 2010.06.28 00:19:55.
