data_PCOD8108486
_publ_section_title
;
Structure prediction by ZEFSAII (Michael W. Deem and Ramdas Pophale) SiO2 
 PCOD8108486
Probable space group: C 2/M
;
_chemical_formula_sum "Si O2"
_cell_formula_units_Z 56
_cell_length_a 19.219006
_cell_length_b 8.878821
_cell_length_c 18.446771
_cell_angle_alpha 90.000000
_cell_angle_beta 116.059725
_cell_angle_gamma 90.000000
_cell_volume 2827.780360
_symmetry_space_group_name_H-M "C 2/M"
_symmetry_group_IT_number 12
_symmetry_cell_setting 'monoclinic'
loop_
_space_group_symop_operation_xyz
x,y,z
-x,y,-z
-x,-y,-z
x,-y,z
1/2+x,1/2+y,z
1/2-x,1/2+y,-z
1/2-x,1/2-y,-z
1/2+x,1/2-y,z
loop_
_atom_site_type_symbol
_atom_site_label
_atom_site_fract_x
_atom_site_fract_y
_atom_site_fract_z
Si Si1 0.545767 0.322103 0.854924
Si Si2 0.594511 0.826035 0.733783
Si Si3 0.483309 0.671411 0.573216
Si Si4 0.191751 0.171982 0.527434
Si Si5 0.232466 0.324629 0.691745
Si Si6 0.883918 0.677355 0.817785
Si Si7 0.090683 0.165572 0.028308
O O1 0.530569 0.500000 0.846236
O O2 0.592473 0.270414 0.806025
O O3 0.462759 0.242015 0.820715
O O4 0.599695 0.278936 0.949157
O O5 0.525619 0.777984 0.649245
O O6 0.677667 0.796464 0.735700
O O7 0.582529 0.000000 0.747609
O O8 0.500000 0.730231 0.500000
O O9 0.514111 0.500000 0.595797
O O10 0.392316 0.680702 0.547778
O O11 0.250000 0.250000 0.500000
O O12 0.189361 0.256799 0.602713
O O13 0.216971 0.000000 0.551948
O O14 0.247823 0.500000 0.685559
O O15 0.313834 0.242532 0.739153
O O16 0.885303 0.500000 0.811062
O O17 0.871703 0.720520 0.896941
O O18 0.128704 0.000000 0.056979
O O19 0.000000 0.153038 0.000000
#
# Coordination Sequence:
#
# PCOD8108486 Si02
#       7
#     8   8   8   8   8   8   8
#     4  10  21  38  62  88 119 156 194 237 288 348
#     4  11  24  39  60  88 118 153 197 245 289 341
#     4  10  21  40  63  84 112 154 196 234 287 349
#     4  11  24  41  62  87 117 153 194 243 292 346
#     4  11  24  42  60  83 119 158 195 242 296 347
#     4  11  22  36  60  90 119 153 194 243 292 345
#     4   8  16  34  58  85 116 153 192 234 288 346
#
# _framework density 19.803516999999999
#
# number of rings (size 3 to 8) (size 9 to 14) (size 15 to 20)
#    0.000    1.714    1.429    3.857    2.000    6.286 
#    0.000    0.714    0.000    0.000    0.000    0.000 
#    0.000    0.000    0.000    0.000    0.000    0.000 
#
# Total GULP energy -347270.304129 kJ/mol
# GULP energy per Si atom -12402.510862 kJ/mol
# Density = 1.975844 g / cm^3
# Si number density = 19.803517 Si / 1000 Ang^3
#
#
#
# Elastic Constant Matrix: (Units=GPa)
#
#
# Indices 1 2 3 4 5 6 
#
# 1 63.5228 34.2880 6.9912 0.0000 -11.7159 0.0000
# 2 34.2880 119.6151 26.0970 0.0000 -5.4477 0.0000
# 3 6.9912 26.0970 52.6619 0.0000 -16.0152 0.0000
# 4 0.0000 0.0000 0.0000 32.7499 0.0000 -1.5278
# 5 -11.7159 -5.4477 -16.0152 0.0000 34.3239 0.0000
# 6 0.0000 0.0000 0.0000 -1.5278 0.0000 29.8991
#
#
#
# Elastic Compliance Matrix: (Units=1/GPa)
#
#
# Indices 1 2 3 4 5 6 
#
# 1 0.019971 -0.005933 0.002419 0.000000 0.007004 0.000000
# 2 -0.005933 0.011155 -0.005614 0.000000 -0.002874 0.000000
# 3 0.002419 -0.005614 0.024974 0.000000 0.011587 0.000000
# 4 0.000000 0.000000 0.000000 0.030607 0.000000 0.001564
# 5 0.007004 -0.002874 0.011587 0.000000 0.036475 0.000000
# 6 0.000000 0.000000 0.000000 0.001564 0.000000 0.033526
#
#
# Mechanical properties :
#
#
# Convention : Reuss Voigt Hill
#
# Bulk Modulus (GPa) = 26.42564 41.17246 33.79905
# Shear Modulus (GPa) = 26.65538 30.62282 28.63910
#
# Velocity S-wave (km/s) = 3.67276 3.93661 3.80697
# Velocity P-wave (km/s) = 5.59986 6.44190 6.03558
#
# Compressibility (1/GPa) = 0.03784204
#
# Stress axis : x y z
#
# Youngs Moduli (GPa) = 50.07369 89.64604 40.04155
#
# Poissons Ratio (x) = 0.53191 -0.09686
# Poissons Ratio (y) = 0.29711 0.22481
# Poissons Ratio (z) = -0.12113 0.50331
#
# Static dielectric constant tensor:
#      x y z
#    x 3.454080 0.000000 -0.177820 
#    y 0.000000 3.685050 0.000000 
#    z -0.177820 0.000000 3.873160 
# 
# 
# High freq. dielectric constant tensor:
#      x y z
#    x 1.759630 0.000000 -0.009200 
#    y 0.000000 1.779410 0.000000 
#    z -0.009200 0.000000 1.777520 
# 
# From -- ./inp_files/281651.got.cif
#   From: 2010.06.25/outbox.cif.g09.slc.cpg/sg12_141_cif.got.tgz:281651.got - 2010.06.28 00:19:55.
