data_PCOD8108557
_publ_section_title
;
Structure prediction by ZEFSAII (Michael W. Deem and Ramdas Pophale) SiO2 
 PCOD8108557
Probable space group: C 2/M
;
_chemical_formula_sum "Si O2"
_cell_formula_units_Z 56
_cell_length_a 14.578735
_cell_length_b 8.796462
_cell_length_c 24.848420
_cell_angle_alpha 90.000000
_cell_angle_beta 122.274130
_cell_angle_gamma 90.000000
_cell_volume 2694.274328
_symmetry_space_group_name_H-M "C 2/M"
_symmetry_group_IT_number 12
_symmetry_cell_setting 'monoclinic'
loop_
_space_group_symop_operation_xyz
x,y,z
-x,y,-z
-x,-y,-z
x,-y,z
1/2+x,1/2+y,z
1/2-x,1/2+y,-z
1/2-x,1/2-y,-z
1/2+x,1/2-y,z
loop_
_atom_site_type_symbol
_atom_site_label
_atom_site_fract_x
_atom_site_fract_y
_atom_site_fract_z
Si Si1 0.409341 0.178830 0.312147
Si Si2 0.901358 0.176261 0.007649
Si Si3 0.224849 0.821311 0.573534
Si Si4 0.206379 0.320644 0.288130
Si Si5 0.013865 0.821184 0.769746
Si Si6 0.157209 0.324232 0.901467
Si Si7 0.588918 0.822648 0.448846
O O1 0.297596 0.272353 0.273808
O O2 0.482026 0.231103 0.285035
O O3 0.471667 0.219273 0.387456
O O4 0.387599 0.000000 0.300827
O O5 0.786357 0.203554 0.942553
O O6 0.916159 0.000000 0.027920
O O7 0.902419 0.273823 0.062401
O O8 0.000000 0.230188 0.000000
O O9 0.249621 0.759619 0.640735
O O10 0.322777 0.764904 0.566639
O O11 0.111741 0.756236 0.513699
O O12 0.214948 0.000000 0.572579
O O13 0.185130 0.500000 0.280101
O O14 0.097675 0.232248 0.237292
O O15 0.113936 0.775988 0.838836
O O16 0.014865 0.000000 0.759806
O O17 0.129541 0.500000 0.882855
O O18 0.599834 0.000000 0.461816
#
# Coordination Sequence:
#
# PCOD8108557 Si02
#       7
#     8   8   8   8   8   8   8
#     4  11  23  41  61  86 119 156 201 251 306 366
#     4   9  19  38  64  94 127 161 200 242 287 345
#     4   9  18  34  56  81 111 148 190 245 305 364
#     4  11  23  41  61  86 118 154 201 253 308 367
#     4  12  25  42  63  87 120 164 208 252 301 356
#     4  10  21  38  62  91 125 163 199 246 298 345
#     4   9  18  34  56  81 111 149 191 243 303 365
#
# _framework density 20.784817
#
# number of rings (size 3 to 8) (size 9 to 14) (size 15 to 20)
#    0.000    1.857    1.429    2.571    0.000    4.857 
#    0.000    7.143    0.000    0.000    0.000    0.000 
#    0.000    0.000    0.000    0.000    0.000    0.000 
#
# Total GULP energy -347256.216106 kJ/mol
# GULP energy per Si atom -12402.007718 kJ/mol
# Density = 2.073751 g / cm^3
# Si number density = 20.784817 Si / 1000 Ang^3
#
#
#
# Elastic Constant Matrix: (Units=GPa)
#
#
# Indices 1 2 3 4 5 6 
#
# 1 92.0730 22.2770 18.5050 0.0000 14.0536 0.0000
# 2 22.2770 68.3525 37.1603 0.0000 7.3729 0.0000
# 3 18.5050 37.1603 82.1326 0.0000 11.6881 0.0000
# 4 0.0000 0.0000 0.0000 37.8584 0.0000 0.8946
# 5 14.0536 7.3729 11.6881 0.0000 20.7226 0.0000
# 6 0.0000 0.0000 0.0000 0.8946 0.0000 31.0008
#
#
#
# Elastic Compliance Matrix: (Units=1/GPa)
#
#
# Indices 1 2 3 4 5 6 
#
# 1 0.012830 -0.003164 -0.000414 0.000000 -0.007342 0.000000
# 2 -0.003164 0.020269 -0.008412 0.000000 -0.000321 0.000000
# 3 -0.000414 -0.008412 0.016971 0.000000 -0.006298 0.000000
# 4 0.000000 0.000000 0.000000 0.026432 0.000000 -0.000763
# 5 -0.007342 -0.000321 -0.006298 0.000000 0.056902 0.000000
# 6 0.000000 0.000000 0.000000 -0.000763 0.000000 0.032279
#
#
# Mechanical properties :
#
#
# Convention : Reuss Voigt Hill
#
# Bulk Modulus (GPa) = 38.33005 44.27144 41.30074
# Shear Modulus (GPa) = 25.20641 28.89074 27.04857
#
# Velocity S-wave (km/s) = 3.48621 3.73231 3.61135
# Velocity P-wave (km/s) = 5.88950 6.31820 6.10761
#
# Compressibility (1/GPa) = 0.02608919
#
# Stress axis : x y z
#
# Youngs Moduli (GPa) = 77.93950 49.33577 58.92398
#
# Poissons Ratio (x) = 0.15612 0.02441
# Poissons Ratio (y) = 0.24664 0.49567
# Poissons Ratio (z) = 0.03229 0.41501
#
# Static dielectric constant tensor:
#      x y z
#    x 3.731840 0.000000 0.094430 
#    y 0.000000 3.591100 0.000000 
#    z 0.094430 0.000000 3.740350 
# 
# 
# High freq. dielectric constant tensor:
#      x y z
#    x 1.813350 0.000000 0.008720 
#    y 0.000000 1.809530 0.000000 
#    z 0.008720 0.000000 1.809780 
# 
# From -- ./inp_files/339061.got.cif
#   From: 2010.06.25/outbox.cif.g09.slc.cpg/sg12_170_cif.got.tgz:339061.got - 2010.06.28 00:19:55.
