data_PCOD8108195
_publ_section_title
;
Structure prediction by ZEFSAII (Michael W. Deem and Ramdas Pophale) SiO2 
 PCOD8108195
Probable space group: C 2/M
;
_chemical_formula_sum "Si O2"
_cell_formula_units_Z 64
_cell_length_a 15.407498
_cell_length_b 8.843930
_cell_length_c 23.844046
_cell_angle_alpha 90.000000
_cell_angle_beta 89.589006
_cell_angle_gamma 90.000000
_cell_volume 3248.973688
_symmetry_space_group_name_H-M "C 2/M"
_symmetry_group_IT_number 12
_symmetry_cell_setting 'monoclinic'
loop_
_space_group_symop_operation_xyz
x,y,z
-x,y,-z
-x,-y,-z
x,-y,z
1/2+x,1/2+y,z
1/2-x,1/2+y,-z
1/2-x,1/2-y,-z
1/2+x,1/2-y,z
loop_
_atom_site_type_symbol
_atom_site_label
_atom_site_fract_x
_atom_site_fract_y
_atom_site_fract_z
Si Si1 0.834644 0.825171 0.369213
Si Si2 0.340624 0.678546 0.637125
Si Si3 0.007451 0.176693 0.935982
Si Si4 0.347726 0.174469 0.138605
Si Si5 0.095224 0.322648 0.252522
Si Si6 0.651985 0.672994 0.140903
Si Si7 0.590004 0.325132 0.751443
Si Si8 0.999839 0.820002 0.436935
O O1 0.750946 0.730177 0.388099
O O2 0.851518 0.801161 0.303352
O O3 0.914904 0.761310 0.404881
O O4 0.818014 0.000000 0.383137
O O5 0.344999 0.500000 0.641599
O O6 0.350099 0.745792 0.698783
O O7 0.415879 0.741376 0.596047
O O8 0.086509 0.267232 0.908495
O O9 0.916607 0.217765 0.906737
O O10 0.028794 0.000000 0.930984
O O11 0.000000 0.229242 0.000000
O O12 0.249345 0.195424 0.116634
O O13 0.356413 0.268900 0.195563
O O14 0.368553 0.000000 0.151446
O O15 0.100047 0.500000 0.261299
O O16 0.138588 0.281086 0.193597
O O17 0.996606 0.270140 0.254733
O O18 0.637154 0.500000 0.160181
O O19 0.564241 0.500000 0.759547
O O20 0.000000 0.754959 0.500000
O O21 0.000997 0.000000 0.437269
#
# Coordination Sequence:
#
# PCOD8108195 Si02
#       8
#     8   8   8   8   8   8   8   8
#     4  10  21  38  60  88 119 155 197 241 293 353
#     4  11  22  38  60  88 119 156 195 239 296 351
#     4  10  22  41  63  85 115 161 206 244 292 348
#     4  11  23  38  59  90 120 154 196 244 295 345
#     4  12  23  36  60  91 120 153 194 240 292 352
#     4  10  22  40  61  87 123 158 192 240 295 351
#     4  11  21  37  60  86 119 157 191 235 296 356
#     4   9  19  38  61  83 114 158 202 243 293 352
#
# _framework density 19.698529000000001
#
# number of rings (size 3 to 8) (size 9 to 14) (size 15 to 20)
#    0.000    1.500    2.500    3.000    0.000    5.250 
#    0.000    0.000    0.000    2.625    0.000    0.000 
#    0.000    0.000    0.000    0.000    0.000    0.000 
#
# Total GULP energy -396941.338655 kJ/mol
# GULP energy per Si atom -12404.416833 kJ/mol
# Density = 1.965369 g / cm^3
# Si number density = 19.698529 Si / 1000 Ang^3
#
#
#
# Elastic Constant Matrix: (Units=GPa)
#
#
# Indices 1 2 3 4 5 6 
#
# 1 163.7074 48.0531 65.7922 0.0000 1.7975 0.0000
# 2 48.0531 63.6378 42.3633 0.0000 -3.3898 0.0000
# 3 65.7922 42.3633 139.5405 0.0000 5.1623 0.0000
# 4 0.0000 0.0000 0.0000 6.8842 0.0000 -3.7196
# 5 1.7975 -3.3898 5.1623 0.0000 12.8689 0.0000
# 6 0.0000 0.0000 0.0000 -3.7196 0.0000 32.0232
#
#
#
# Elastic Compliance Matrix: (Units=1/GPa)
#
#
# Indices 1 2 3 4 5 6 
#
# 1 0.008562 -0.004879 -0.002501 0.000000 -0.001478 0.000000
# 2 -0.004879 0.023256 -0.005087 0.000000 0.008848 0.000000
# 3 -0.002501 -0.005087 0.010076 0.000000 -0.005033 0.000000
# 4 0.000000 0.000000 0.000000 0.154986 0.000000 0.018002
# 5 -0.001478 0.008848 -0.005033 0.000000 0.082263 0.000000
# 6 0.000000 0.000000 0.000000 0.018002 0.000000 0.033318
#
#
# Mechanical properties :
#
#
# Convention : Reuss Voigt Hill
#
# Bulk Modulus (GPa) = 58.96350 75.47812 67.22081
# Shear Modulus (GPa) = 14.57520 24.40041 19.48781
#
# Velocity S-wave (km/s) = 2.72309 3.52332 3.14873
# Velocity P-wave (km/s) = 6.31545 7.41293 6.88609
#
# Compressibility (1/GPa) = 0.01695964
#
# Stress axis : x y z
#
# Youngs Moduli (GPa) = 116.79600 42.99984 99.24366
#
# Poissons Ratio (x) = 0.20979 0.24821
# Poissons Ratio (y) = 0.56984 0.50488
# Poissons Ratio (z) = 0.29211 0.21875
#
# Static dielectric constant tensor:
#      x y z
#    x 3.766920 0.000000 0.062930 
#    y 0.000000 3.467120 0.000000 
#    z 0.062930 0.000000 3.640650 
# 
# 
# High freq. dielectric constant tensor:
#      x y z
#    x 1.784390 0.000000 0.002180 
#    y 0.000000 1.755960 0.000000 
#    z 0.002180 0.000000 1.762720 
# 
# From -- ./inp_files/338773.got.cif
#   From: 2010.06.25/outbox.cif.g09.slc.cpg/sg12_170_cif.got.tgz:338773.got - 2010.06.28 00:19:55.
