data_PCOD8108702
_publ_section_title
;
Structure prediction by ZEFSAII (Michael W. Deem and Ramdas Pophale) SiO2 
 PCOD8108702
Probable space group: C 2/M
;
_chemical_formula_sum "Si O2"
_cell_formula_units_Z 36
_cell_length_a 10.985212
_cell_length_b 21.592146
_cell_length_c 13.890520
_cell_angle_alpha 90.000000
_cell_angle_beta 147.056636
_cell_angle_gamma 90.000000
_cell_volume 1791.718383
_symmetry_space_group_name_H-M "C 2/M"
_symmetry_group_IT_number 12
_symmetry_cell_setting 'monoclinic'
loop_
_space_group_symop_operation_xyz
x,y,z
-x,y,-z
-x,-y,-z
x,-y,z
1/2+x,1/2+y,z
1/2-x,1/2+y,-z
1/2-x,1/2-y,-z
1/2+x,1/2-y,z
loop_
_atom_site_type_symbol
_atom_site_label
_atom_site_fract_x
_atom_site_fract_y
_atom_site_fract_z
Si Si1 0.500000 0.341480 0.000000
Si Si2 0.579197 0.628563 0.704236
Si Si3 0.650715 0.128037 0.305502
Si Si4 0.318124 0.429345 0.030573
Si Si5 0.880048 0.738679 0.184839
O O1 0.509710 0.385053 0.912003
O O2 0.280869 0.298101 0.847509
O O3 0.349874 0.602830 0.505302
O O4 0.776243 0.629479 0.756993
O O5 0.654657 0.582532 0.838167
O O6 0.539215 0.697635 0.716123
O O7 0.596264 0.197694 0.303544
O O8 0.434904 0.084207 0.171971
O O9 0.376651 0.500000 0.045939
O O10 0.750000 0.750000 0.000000
#
# Coordination Sequence:
#
# PCOD8108702 Si02
#       5
#     4   8   8   8   8
#     4  10  21  38  64  90 119 158 196 246 296 362
#     4  11  22  38  61  91 122 154 198 247 309 350
#     4  10  23  38  59  91 120 156 200 248 299 362
#     4  11  24  42  62  84 121 165 206 244 289 351
#     4  11  19  36  63  89 123 156 189 244 308 359
#
# _framework density 20.092442999999999
#
# number of rings (size 3 to 8) (size 9 to 14) (size 15 to 20)
#    0.000    1.333    4.444    3.000    0.000    2.667 
#    0.000    5.556    0.000    6.667    0.000    0.000 
#    0.000    0.000    0.000    0.000    0.000    0.000 
#
# Total GULP energy -223237.920265 kJ/mol
# GULP energy per Si atom -12402.106681 kJ/mol
# Density = 2.004671 g / cm^3
# Si number density = 20.092443 Si / 1000 Ang^3
#
#
#
# Elastic Constant Matrix: (Units=GPa)
#
#
# Indices 1 2 3 4 5 6 
#
# 1 99.8246 18.0791 32.3087 0.0004 1.7532 -0.0005
# 2 18.0791 86.8142 18.9472 0.0002 -3.9084 0.0001
# 3 32.3087 18.9472 84.3969 0.0004 -2.7294 -0.0011
# 4 0.0004 0.0002 0.0004 13.9421 0.0003 5.2640
# 5 1.7532 -3.9084 -2.7294 0.0003 25.8216 -0.0007
# 6 -0.0005 0.0001 -0.0011 5.2640 -0.0007 19.5040
#
#
#
# Elastic Compliance Matrix: (Units=1/GPa)
#
#
# Indices 1 2 3 4 5 6 
#
# 1 0.011678 -0.001590 -0.004161 0.000000 -0.001473 0.000000
# 2 -0.001590 0.012391 -0.002116 0.000000 0.001760 0.000000
# 3 -0.004161 -0.002116 0.013963 -0.000001 0.001438 0.000001
# 4 0.000000 0.000000 -0.000001 0.079863 -0.000002 -0.021555
# 5 -0.001473 0.001760 0.001438 -0.000002 0.039246 0.000002
# 6 0.000000 0.000000 0.000001 -0.021555 0.000002 0.057089
#
#
# Mechanical properties :
#
#
# Convention : Reuss Voigt Hill
#
# Bulk Modulus (GPa) = 44.84806 45.52285 45.18546
# Shear Modulus (GPa) = 21.06164 25.30026 23.18095
#
# Velocity S-wave (km/s) = 3.24116 3.55236 3.40032
# Velocity P-wave (km/s) = 6.03126 6.28741 6.16067
#
# Compressibility (1/GPa) = 0.02229751
#
# Stress axis : x y z
#
# Youngs Moduli (GPa) = 85.62914 80.70328 71.61580
#
# Poissons Ratio (x) = 0.12833 0.29802
# Poissons Ratio (y) = 0.13616 0.15155
# Poissons Ratio (z) = 0.35633 0.17078
#
# Static dielectric constant tensor:
#      x y z
#    x 3.939850 0.000000 0.015810 
#    y 0.000000 3.628750 0.000000 
#    z 0.015810 0.000000 3.514340 
# 
# 
# High freq. dielectric constant tensor:
#      x y z
#    x 1.795900 0.000000 0.001330 
#    y 0.000000 1.777170 0.000000 
#    z 0.001330 0.000000 1.772150 
# 
# From -- ./inp_files/207867.got.cif
#   From: 2010.06.25/outbox.cif.g09.slc.cpg/sg12_104_cif.got.tgz:207867.got - 2010.06.28 00:19:55.
