data_PCOD8108786
_publ_section_title
;
Structure prediction by ZEFSAII (Michael W. Deem and Ramdas Pophale) SiO2 
 PCOD8108786
Probable space group: C 2/M
;
_chemical_formula_sum "Si O2"
_cell_formula_units_Z 32
_cell_length_a 30.533588
_cell_length_b 7.613589
_cell_length_c 23.170938
_cell_angle_alpha 90.000000
_cell_angle_beta 163.930178
_cell_angle_gamma 90.000000
_cell_volume 1491.043839
_symmetry_space_group_name_H-M "C 2/M"
_symmetry_group_IT_number 12
_symmetry_cell_setting 'monoclinic'
loop_
_space_group_symop_operation_xyz
x,y,z
-x,y,-z
-x,-y,-z
x,-y,z
1/2+x,1/2+y,z
1/2-x,1/2+y,-z
1/2-x,1/2-y,-z
1/2+x,1/2-y,z
loop_
_atom_site_type_symbol
_atom_site_label
_atom_site_fract_x
_atom_site_fract_y
_atom_site_fract_z
Si Si1 0.813729 0.000000 0.258188
Si Si2 0.480491 0.797246 0.278312
Si Si3 0.521692 0.000000 0.959154
Si Si4 0.287219 0.192971 0.140170
Si Si5 0.193808 0.203969 0.364608
O O1 0.762621 0.825875 0.160441
O O2 0.000000 0.000000 0.500000
O O3 0.710912 0.000000 0.186694
O O4 0.435780 0.750162 0.287806
O O5 0.663626 0.756732 0.499300
O O6 0.439941 0.000000 0.214178
O O7 0.373042 0.682137 0.099990
O O8 0.448854 0.173342 0.836855
O O9 0.500000 0.000000 0.000000
O O10 0.318021 0.000000 0.205458
O O11 0.250000 0.250000 0.500000
O O12 0.140978 0.000000 0.294761
#
# Coordination Sequence:
#
# PCOD8108786 Si02
#       5
#     4   8   4   8   8
#     4  12  28  46  66  90 138 181 228 266 329 417
#     4   9  19  36  64 103 135 162 217 282 340 394
#     4  12  30  48  68 106 143 185 232 281 355 421
#     4  10  21  38  65  99 131 170 220 281 333 389
#     4  11  23  42  71 103 139 181 232 287 342 412
#
# _framework density 21.461473999999999
#
# number of rings (size 3 to 8) (size 9 to 14) (size 15 to 20)
#    0.000    1.500    2.500    1.500    7.000    4.000 
#    0.000    0.000    0.000    0.000    0.000    0.000 
#    0.000    0.000    0.000    0.000    0.000    0.000 
#
# Total GULP energy -198395.462611 kJ/mol
# GULP energy per Si atom -12399.716413 kJ/mol
# Density = 2.141263 g / cm^3
# Si number density = 21.461474 Si / 1000 Ang^3
#
#
#
# Elastic Constant Matrix: (Units=GPa)
#
#
# Indices 1 2 3 4 5 6 
#
# 1 126.2314 47.2816 45.6150 0.0000 14.2344 0.0000
# 2 47.2816 127.4978 36.5761 0.0000 -0.1787 0.0000
# 3 45.6150 36.5761 94.5849 0.0001 23.5317 0.0000
# 4 0.0000 0.0000 0.0001 24.9105 0.0000 7.2943
# 5 14.2344 -0.1787 23.5317 0.0000 38.9694 0.0000
# 6 0.0000 0.0000 0.0000 7.2943 0.0000 13.4611
#
#
#
# Elastic Compliance Matrix: (Units=1/GPa)
#
#
# Indices 1 2 3 4 5 6 
#
# 1 0.010459 -0.002876 -0.003505 0.000000 -0.001717 0.000000
# 2 -0.002876 0.009820 -0.003157 0.000000 0.003002 0.000000
# 3 -0.003505 -0.003157 0.015497 0.000000 -0.008092 0.000000
# 4 0.000000 0.000000 0.000000 0.047715 0.000000 -0.025856
# 5 -0.001717 0.003002 -0.008092 0.000000 0.031189 0.000000
# 6 0.000000 0.000000 0.000000 -0.025856 0.000000 0.088299
#
#
# Mechanical properties :
#
#
# Convention : Reuss Voigt Hill
#
# Bulk Modulus (GPa) = 59.87968 67.47328 63.67648
# Shear Modulus (GPa) = 21.96638 30.05761 26.01200
#
# Velocity S-wave (km/s) = 3.20273 3.74644 3.48520
# Velocity P-wave (km/s) = 6.45277 7.08674 6.77717
#
# Compressibility (1/GPa) = 0.01670016
#
# Stress axis : x y z
#
# Youngs Moduli (GPa) = 95.60912 101.83655 64.52883
#
# Poissons Ratio (x) = 0.29285 0.22617
# Poissons Ratio (y) = 0.27494 0.20374
# Poissons Ratio (z) = 0.33510 0.32153
#
# Static dielectric constant tensor:
#      x y z
#    x 4.025830 0.000000 0.345240 
#    y 0.000000 4.002490 0.000000 
#    z 0.345240 0.000000 3.670360 
# 
# 
# High freq. dielectric constant tensor:
#      x y z
#    x 1.841770 0.000000 0.030330 
#    y 0.000000 1.857090 0.000000 
#    z 0.030330 0.000000 1.817880 
# 
# From -- ./inp_files/327398.got.cif
#   From: 2010.06.25/outbox.cif.g09.slc.cpg/sg12_164_cif.got.tgz:327398.got - 2010.06.28 00:19:55.
