data_PCOD8108167
_publ_section_title
;
Structure prediction by ZEFSAII (Michael W. Deem and Ramdas Pophale) SiO2 
 PCOD8108167
Probable space group: C 2/M
;
_chemical_formula_sum "Si O2"
_cell_formula_units_Z 64
_cell_length_a 26.049236
_cell_length_b 8.347151
_cell_length_c 16.214187
_cell_angle_alpha 90.000000
_cell_angle_beta 65.676815
_cell_angle_gamma 90.000000
_cell_volume 3212.622016
_symmetry_space_group_name_H-M "C 2/M"
_symmetry_group_IT_number 12
_symmetry_cell_setting 'monoclinic'
loop_
_space_group_symop_operation_xyz
x,y,z
-x,y,-z
-x,-y,-z
x,-y,z
1/2+x,1/2+y,z
1/2-x,1/2+y,-z
1/2-x,1/2-y,-z
1/2+x,1/2-y,z
loop_
_atom_site_type_symbol
_atom_site_label
_atom_site_fract_x
_atom_site_fract_y
_atom_site_fract_z
Si Si1 0.782751 0.186842 0.602095
Si Si2 0.451283 0.182119 0.092657
Si Si3 0.946541 0.183209 0.270105
Si Si4 0.927442 0.190557 0.794204
Si Si5 0.114620 0.818117 0.999470
Si Si6 0.329842 0.813349 0.407129
Si Si7 0.831414 0.815878 0.738130
Si Si8 0.729741 0.184605 0.928949
O O1 0.718169 0.248309 0.626609
O O2 0.821987 0.220597 0.497816
O O3 0.813554 0.266013 0.662094
O O4 0.778709 0.000000 0.622741
O O5 0.450257 0.302046 0.169562
O O6 0.398244 0.202650 0.069130
O O7 0.457383 0.000000 0.120486
O O8 0.500000 0.240205 0.000000
O O9 0.893774 0.287462 0.335393
O O10 0.007263 0.240779 0.267014
O O11 0.935211 0.000000 0.301956
O O12 0.886431 0.260797 0.748681
O O13 0.921051 0.000000 0.800991
O O14 0.908116 0.253365 0.897737
O O15 0.180902 0.811134 0.945788
O O16 0.093184 0.000000 0.001938
O O17 0.320014 0.000000 0.430004
O O18 0.777621 0.794690 0.830175
O O19 0.846761 0.000000 0.712281
O O20 0.709508 0.000000 0.947291
O O21 0.750000 0.250000 0.000000
#
# Coordination Sequence:
#
# PCOD8108167 Si02
#       8
#     8   8   8   8   8   8   8   8
#     4   9  19  38  64  86 108 143 185 231 287 346
#     4  11  23  37  54  80 114 152 195 239 285 335
#     4  11  22  37  59  85 113 151 194 234 282 344
#     4   9  18  34  56  80 111 149 192 236 281 331
#     4  11  21  36  54  77 113 154 196 241 286 336
#     4  10  21  38  60  87 118 145 177 231 292 347
#     4   9  18  35  58  83 110 145 191 240 284 332
#     4  11  21  34  54  81 115 154 194 239 288 341
#
# _framework density 19.921423000000001
#
# number of rings (size 3 to 8) (size 9 to 14) (size 15 to 20)
#    0.000    1.875    2.500    1.875    1.750    1.000 
#    0.000    1.875    0.000    3.750    0.000    0.000 
#    0.000    0.000    0.000    0.000    0.000    0.000 
#
# Total GULP energy -396426.923142 kJ/mol
# GULP energy per Si atom -12388.341348 kJ/mol
# Density = 1.987608 g / cm^3
# Si number density = 19.921423 Si / 1000 Ang^3
#
#
#
# Elastic Constant Matrix: (Units=GPa)
#
#
# Indices 1 2 3 4 5 6 
#
# 1 141.0740 12.1378 55.6984 0.0000 5.8796 0.0000
# 2 12.1378 26.3044 13.3254 0.0000 -1.2078 0.0000
# 3 55.6984 13.3254 86.0273 0.0000 13.8409 0.0000
# 4 0.0000 0.0000 0.0000 30.6425 0.0000 -3.4295
# 5 5.8796 -1.2078 13.8409 0.0000 38.9177 0.0000
# 6 0.0000 0.0000 0.0000 -3.4295 0.0000 25.2913
#
#
#
# Elastic Compliance Matrix: (Units=1/GPa)
#
#
# Indices 1 2 3 4 5 6 
#
# 1 0.009586 -0.001293 -0.006117 0.000000 0.000687 0.000000
# 2 -0.001293 0.041956 -0.006261 0.000000 0.003724 0.000000
# 3 -0.006117 -0.006261 0.017434 0.000000 -0.005471 0.000000
# 4 0.000000 0.000000 0.000000 0.033137 0.000000 0.004493
# 5 0.000687 0.003724 -0.005471 0.000000 0.027653 0.000000
# 6 0.000000 0.000000 0.000000 0.004493 0.000000 0.040149
#
#
# Mechanical properties :
#
#
# Convention : Reuss Voigt Hill
#
# Bulk Modulus (GPa) = 24.01828 46.19210 35.10519
# Shear Modulus (GPa) = 23.68159 30.45326 27.06742
#
# Velocity S-wave (km/s) = 3.45157 3.91406 3.69007
# Velocity P-wave (km/s) = 5.28839 6.60787 5.98461
#
# Compressibility (1/GPa) = 0.04163495
#
# Stress axis : x y z
#
# Youngs Moduli (GPa) = 104.31769 23.83464 57.35764
#
# Poissons Ratio (x) = 0.03082 0.35084
# Poissons Ratio (y) = 0.13490 0.35910
# Poissons Ratio (z) = 0.63809 0.14922
#
# Static dielectric constant tensor:
#      x y z
#    x 3.932750 0.000000 0.114440 
#    y 0.000000 3.419220 0.000000 
#    z 0.114440 0.000000 3.313150 
# 
# 
# High freq. dielectric constant tensor:
#      x y z
#    x 1.796140 0.000000 0.005460 
#    y 0.000000 1.749520 0.000000 
#    z 0.005460 0.000000 1.759930 
# 
# From -- ./inp_files/243801.got.cif
#   From: 2010.06.25/outbox.cif.g09.slc.cpg/sg12_122_cif.got.tgz:243801.got - 2010.06.28 00:19:55.
