data_PCOD8108487
_publ_section_title
;
Structure prediction by ZEFSAII (Michael W. Deem and Ramdas Pophale) SiO2 
 PCOD8108487
Probable space group: C 2/M
;
_chemical_formula_sum "Si O2"
_cell_formula_units_Z 52
_cell_length_a 16.798895
_cell_length_b 18.051868
_cell_length_c 8.455396
_cell_angle_alpha 90.000000
_cell_angle_beta 99.523792
_cell_angle_gamma 90.000000
_cell_volume 2528.769780
_symmetry_space_group_name_H-M "C 2/M"
_symmetry_group_IT_number 12
_symmetry_cell_setting 'monoclinic'
loop_
_space_group_symop_operation_xyz
x,y,z
-x,y,-z
-x,-y,-z
x,-y,z
1/2+x,1/2+y,z
1/2-x,1/2+y,-z
1/2-x,1/2-y,-z
1/2+x,1/2-y,z
loop_
_atom_site_type_symbol
_atom_site_label
_atom_site_fract_x
_atom_site_fract_y
_atom_site_fract_z
Si Si1 0.297840 0.798486 0.190330
Si Si2 0.023813 0.721639 0.835104
Si Si3 0.585965 0.916526 0.219448
Si Si4 0.145067 0.082326 0.592321
Si Si5 0.194561 0.418816 0.551745
Si Si6 0.000000 0.192971 0.500000
Si Si7 0.245134 0.644482 0.135279
O O1 0.380161 0.775624 0.130669
O O2 0.321427 0.851682 0.338455
O O3 0.252263 0.723650 0.231829
O O4 0.240810 0.840979 0.046081
O O5 0.990532 0.637355 0.821170
O O6 0.992291 0.761661 0.662928
O O7 0.000000 0.757704 0.000000
O O8 0.620893 0.914604 0.406933
O O9 0.657382 0.891205 0.126498
O O10 0.558216 0.000000 0.166673
O O11 0.219086 0.093826 0.498301
O O12 0.078691 0.142493 0.531640
O O13 0.182716 0.091795 0.780474
O O14 0.107859 0.000000 0.566585
O O15 0.193236 0.500000 0.634311
#
# Coordination Sequence:
#
# PCOD8108487 Si02
#       7
#     8   8   8   8   8   4   8
#     4  11  22  38  61  95 125 165 213 267 326 381
#     4  12  25  43  63 100 133 166 218 265 320 392
#     4  10  22  40  61  88 127 170 208 259 321 385
#     4  10  22  42  64  92 125 166 218 268 327 390
#     4   9  21  38  61  91 125 164 213 267 319 387
#     4  12  25  42  71  92 128 178 210 272 333 382
#     4  10  21  38  62  88 120 164 211 264 316 383
#
# _framework density 20.563358999999998
#
# number of rings (size 3 to 8) (size 9 to 14) (size 15 to 20)
#    0.000    1.538    3.077    2.538    2.154    3.385 
#    0.000    1.923    0.000    0.923    0.000    0.000 
#    0.000    0.000    0.000    0.000    0.000    0.000 
#
# Total GULP energy -322213.009065 kJ/mol
# GULP energy per Si atom -12392.808041 kJ/mol
# Density = 2.051656 g / cm^3
# Si number density = 20.563359 Si / 1000 Ang^3
#
#
#
# Elastic Constant Matrix: (Units=GPa)
#
#
# Indices 1 2 3 4 5 6 
#
# 1 59.4570 20.1872 13.0200 0.0000 7.2420 0.0000
# 2 20.1872 98.9514 36.9130 0.0000 -6.3879 0.0000
# 3 13.0200 36.9130 90.7649 0.0000 -10.8214 0.0000
# 4 0.0000 0.0000 0.0000 22.5231 0.0000 8.0524
# 5 7.2420 -6.3879 -10.8214 0.0000 17.8600 0.0000
# 6 0.0000 0.0000 0.0000 8.0524 0.0000 38.1810
#
#
#
# Elastic Compliance Matrix: (Units=1/GPa)
#
#
# Indices 1 2 3 4 5 6 
#
# 1 0.020047 -0.003819 -0.002645 0.000000 -0.011098 0.000000
# 2 -0.003819 0.012675 -0.004184 0.000000 0.003547 0.000000
# 3 -0.002645 -0.004184 0.014064 0.000000 0.008098 0.000000
# 4 0.000000 0.000000 0.000000 0.048020 0.000000 -0.010127
# 5 -0.011098 0.003547 0.008098 0.000000 0.066666 0.000000
# 6 0.000000 0.000000 0.000000 -0.010127 0.000000 0.028327
#
#
# Mechanical properties :
#
#
# Convention : Reuss Voigt Hill
#
# Bulk Modulus (GPa) = 39.23410 43.26820 41.25115
# Shear Modulus (GPa) = 22.76956 27.64970 25.20963
#
# Velocity S-wave (km/s) = 3.33120 3.67087 3.50515
# Velocity P-wave (km/s) = 5.82382 6.24933 6.04033
#
# Compressibility (1/GPa) = 0.02548803
#
# Stress axis : x y z
#
# Youngs Moduli (GPa) = 49.88364 78.89598 71.10366
#
# Poissons Ratio (x) = 0.30132 0.18810
# Poissons Ratio (y) = 0.19052 0.29750
# Poissons Ratio (z) = 0.13197 0.33010
#
# Static dielectric constant tensor:
#      x y z
#    x 3.579910 0.000000 0.129590 
#    y 0.000000 3.988740 0.000000 
#    z 0.129590 0.000000 3.848920 
# 
# 
# High freq. dielectric constant tensor:
#      x y z
#    x 1.793740 0.000000 0.019790 
#    y 0.000000 1.810490 0.000000 
#    z 0.019790 0.000000 1.804290 
# 
# From -- ./inp_files/75312.got.cif
#   From: 2010.06.25/outbox.cif.g09.slc.cpg/sg12_38_cif.got.tgz:75312.got - 2010.06.28 00:19:55.
