data_PCOD8108357
_publ_section_title
;
Structure prediction by ZEFSAII (Michael W. Deem and Ramdas Pophale) SiO2 
 PCOD8108357
Probable space group: C 2/M
;
_chemical_formula_sum "Si O2"
_cell_formula_units_Z 56
_cell_length_a 9.696062
_cell_length_b 18.198831
_cell_length_c 16.083959
_cell_angle_alpha 90.000000
_cell_angle_beta 69.131009
_cell_angle_gamma 90.000000
_cell_volume 2651.938559
_symmetry_space_group_name_H-M "C 2/M"
_symmetry_group_IT_number 12
_symmetry_cell_setting 'monoclinic'
loop_
_space_group_symop_operation_xyz
x,y,z
-x,y,-z
-x,-y,-z
x,-y,z
1/2+x,1/2+y,z
1/2-x,1/2+y,-z
1/2-x,1/2-y,-z
1/2+x,1/2-y,z
loop_
_atom_site_type_symbol
_atom_site_label
_atom_site_fract_x
_atom_site_fract_y
_atom_site_fract_z
Si Si1 0.848884 0.582879 0.248425
Si Si2 0.029338 0.276102 0.232882
Si Si3 0.172061 0.581368 0.456975
Si Si4 0.655161 0.642999 0.431004
Si Si5 0.768505 0.714216 0.661642
Si Si6 0.882358 0.197599 0.951604
Si Si7 0.661630 0.917059 0.942070
O O1 0.899985 0.500000 0.260831
O O2 0.704779 0.604702 0.333759
O O3 0.803028 0.587721 0.162718
O O4 0.985416 0.638366 0.231733
O O5 0.179386 0.273838 0.254104
O O6 0.039921 0.231241 0.145648
O O7 0.902071 0.235238 0.311779
O O8 0.244992 0.500000 0.433340
O O9 0.221073 0.623806 0.528698
O O10 0.212279 0.629730 0.367976
O O11 0.000000 0.571562 0.500000
O O12 0.500000 0.612926 0.500000
O O13 0.642703 0.730739 0.418858
O O14 0.802525 0.119667 0.955572
O O15 0.750000 0.250000 0.000000
O O16 0.000000 0.189888 0.000000
O O17 0.657894 0.000000 0.976320
O O18 0.500000 0.881181 0.000000
#
# Coordination Sequence:
#
# PCOD8108357 Si02
#       7
#     8   8   8   8   8   8   8
#     4  10  21  38  61  88 122 160 200 250 305 365
#     4  11  23  39  61  90 118 154 204 248 297 364
#     4  11  23  38  57  83 115 152 196 244 296 354
#     4  11  22  38  60  86 116 156 204 248 300 358
#     4  11  22  39  60  82 117 156 199 250 299 353
#     4  12  23  39  64  92 125 161 203 256 311 369
#     4  10  22  42  67  94 125 163 206 252 311 378
#
# _framework density 21.116627999999999
#
# number of rings (size 3 to 8) (size 9 to 14) (size 15 to 20)
#    0.000    1.143    0.000    8.571    0.000    3.143 
#    0.000    2.143    0.000    3.429    0.000    0.000 
#    0.000    0.000    0.000    0.000    0.000    0.000 
#
# Total GULP energy -347152.425012 kJ/mol
# GULP energy per Si atom -12398.300893 kJ/mol
# Density = 2.106857 g / cm^3
# Si number density = 21.116628 Si / 1000 Ang^3
#
#
#
# Elastic Constant Matrix: (Units=GPa)
#
#
# Indices 1 2 3 4 5 6 
#
# 1 112.4229 43.9970 45.8443 0.0000 9.5054 0.0000
# 2 43.9970 140.8367 38.7970 0.0000 7.1235 0.0000
# 3 45.8443 38.7970 114.1519 0.0000 4.4863 0.0000
# 4 0.0000 0.0000 0.0000 33.1288 0.0000 2.5978
# 5 9.5054 7.1235 4.4863 0.0000 35.6307 0.0000
# 6 0.0000 0.0000 0.0000 2.5978 0.0000 28.3541
#
#
#
# Elastic Compliance Matrix: (Units=1/GPa)
#
#
# Indices 1 2 3 4 5 6 
#
# 1 0.011560 -0.002480 -0.003716 0.000000 -0.002120 0.000000
# 2 -0.002480 0.008421 -0.001835 0.000000 -0.000791 0.000000
# 3 -0.003716 -0.001835 0.010877 0.000000 -0.000011 0.000000
# 4 0.000000 0.000000 0.000000 0.030404 0.000000 -0.002786
# 5 -0.002120 -0.000791 -0.000011 0.000000 0.028791 0.000000
# 6 0.000000 0.000000 0.000000 -0.002786 0.000000 0.035523
#
#
# Mechanical properties :
#
#
# Convention : Reuss Voigt Hill
#
# Bulk Modulus (GPa) = 67.59109 69.40978 68.50044
# Shear Modulus (GPa) = 34.11321 35.34092 34.72707
#
# Velocity S-wave (km/s) = 4.02365 4.09541 4.05969
# Velocity P-wave (km/s) = 7.32559 7.43668 7.38135
#
# Compressibility (1/GPa) = 0.01479485
#
# Stress axis : x y z
#
# Youngs Moduli (GPa) = 86.50170 118.75468 91.93872
#
# Poissons Ratio (x) = 0.29456 0.34168
# Poissons Ratio (y) = 0.21456 0.16868
# Poissons Ratio (z) = 0.32148 0.21788
#
# Static dielectric constant tensor:
#      x y z
#    x 3.098110 0.000000 -0.030300 
#    y 0.000000 4.095230 0.000000 
#    z -0.030300 0.000000 3.809760 
# 
# 
# High freq. dielectric constant tensor:
#      x y z
#    x 1.820240 0.000000 0.002840 
#    y 0.000000 1.835560 0.000000 
#    z 0.002840 0.000000 1.832550 
# 
# From -- ./inp_files/257044.got.cif
#   From: 2010.06.25/outbox.cif.g09.slc.cpg/sg12_129_cif.got.tgz:257044.got - 2010.06.28 00:19:55.
