data_PCOD8108469
_publ_section_title
;
Structure prediction by ZEFSAII (Michael W. Deem and Ramdas Pophale) SiO2 
 PCOD8108469
Probable space group: C 2/M
;
_chemical_formula_sum "Si O2"
_cell_formula_units_Z 52
_cell_length_a 19.692630
_cell_length_b 14.299973
_cell_length_c 14.928116
_cell_angle_alpha 90.000000
_cell_angle_beta 36.906085
_cell_angle_gamma 90.000000
_cell_volume 2524.414563
_symmetry_space_group_name_H-M "C 2/M"
_symmetry_group_IT_number 12
_symmetry_cell_setting 'monoclinic'
loop_
_space_group_symop_operation_xyz
x,y,z
-x,y,-z
-x,-y,-z
x,-y,z
1/2+x,1/2+y,z
1/2-x,1/2+y,-z
1/2-x,1/2-y,-z
1/2+x,1/2-y,z
loop_
_atom_site_type_symbol
_atom_site_label
_atom_site_fract_x
_atom_site_fract_y
_atom_site_fract_z
Si Si1 0.500000 0.253851 0.500000
Si Si2 0.522387 0.393327 0.635892
Si Si3 0.924723 0.392058 0.328975
Si Si4 0.980641 0.252104 0.120709
Si Si5 0.173565 0.827417 0.035408
Si Si6 0.613302 0.895223 0.272938
Si Si7 0.324513 0.607135 0.358025
O O1 0.542429 0.321120 0.534333
O O2 0.398562 0.183339 0.636946
O O3 0.529535 0.500000 0.592946
O O4 0.400671 0.379143 0.811042
O O5 0.621566 0.371828 0.601671
O O6 0.930300 0.500000 0.297660
O O7 0.933235 0.338380 0.226980
O O8 0.807254 0.366841 0.501355
O O9 0.026211 0.362375 0.287310
O O10 0.887583 0.169397 0.217569
O O11 0.097693 0.216452 0.037935
O O12 0.000000 0.287454 0.000000
O O13 0.250000 0.750000 0.000000
O O14 0.259352 0.900092 0.898440
O O15 0.582580 0.000000 0.339880
O O16 0.343891 0.500000 0.309860
#
# Coordination Sequence:
#
# PCOD8108469 Si02
#       7
#     4   8   8   8   8   8   8
#     4  12  22  36  56  88 126 142 194 254 290 346
#     4  10  21  38  62  86 115 158 196 241 295 345
#     4  10  21  40  61  83 116 158 197 236 287 358
#     4  11  23  37  62  92 118 150 195 248 299 336
#     4  11  20  42  62  81 118 162 198 238 285 357
#     4  11  23  39  61  86 117 161 199 238 296 352
#     4   9  20  40  62  83 113 155 199 235 288 354
#
# _framework density 20.598835000000001
#
# number of rings (size 3 to 8) (size 9 to 14) (size 15 to 20)
#    0.000    1.538    3.077    2.308    0.000    3.692 
#    0.000    1.538    0.000    0.000    0.000    0.000 
#    0.000    0.000    0.000    0.000    0.000    0.000 
#
# Total GULP energy -322446.323302 kJ/mol
# GULP energy per Si atom -12401.781665 kJ/mol
# Density = 2.055195 g / cm^3
# Si number density = 20.598835 Si / 1000 Ang^3
#
#
#
# Elastic Constant Matrix: (Units=GPa)
#
#
# Indices 1 2 3 4 5 6 
#
# 1 51.6007 24.4309 40.1911 0.0000 -4.0790 0.0000
# 2 24.4309 95.1999 40.2628 0.0000 11.8218 0.0000
# 3 40.1911 40.2628 107.1600 0.0000 -4.0323 0.0000
# 4 0.0000 0.0000 0.0000 30.5925 0.0000 -8.2095
# 5 -4.0790 11.8218 -4.0323 0.0000 37.9244 0.0000
# 6 0.0000 0.0000 0.0000 -8.2095 0.0000 15.0308
#
#
#
# Elastic Compliance Matrix: (Units=1/GPa)
#
#
# Indices 1 2 3 4 5 6 
#
# 1 0.028603 -0.003885 -0.009143 0.000000 0.003315 0.000000
# 2 -0.003885 0.013797 -0.003920 0.000000 -0.005135 0.000000
# 3 -0.009143 -0.003920 0.014300 0.000000 0.001759 0.000000
# 4 0.000000 0.000000 0.000000 0.038302 0.000000 0.020919
# 5 0.003315 -0.005135 0.001759 0.000000 0.028513 0.000000
# 6 0.000000 0.000000 0.000000 0.020919 0.000000 0.077956
#
#
# Mechanical properties :
#
#
# Convention : Reuss Voigt Hill
#
# Bulk Modulus (GPa) = 43.85350 51.52557 47.68954
# Shear Modulus (GPa) = 20.57895 26.64791 23.61343
#
# Velocity S-wave (km/s) = 3.16418 3.60065 3.38945
# Velocity P-wave (km/s) = 5.88939 6.50802 6.20642
#
# Compressibility (1/GPa) = 0.02280320
#
# Stress axis : x y z
#
# Youngs Moduli (GPa) = 34.96198 72.48074 69.92978
#
# Poissons Ratio (x) = 0.28159 0.63938
# Poissons Ratio (y) = 0.13583 0.27412
# Poissons Ratio (z) = 0.31966 0.28412
#
# Static dielectric constant tensor:
#      x y z
#    x 3.673360 0.000000 -0.202430 
#    y 0.000000 3.909500 0.000000 
#    z -0.202430 0.000000 3.904000 
# 
# 
# High freq. dielectric constant tensor:
#      x y z
#    x 1.790800 0.000000 -0.010690 
#    y 0.000000 1.821090 0.000000 
#    z -0.010690 0.000000 1.805840 
# 
# From -- ./inp_files/225631.got.cif
#   From: 2010.06.25/outbox.cif.g09.slc.cpg/sg12_113_cif.got.tgz:225631.got - 2010.06.28 00:19:55.
