data_PCOD8108117
_publ_section_title
;
Structure prediction by ZEFSAII (Michael W. Deem and Ramdas Pophale) SiO2 
 PCOD8108117
Probable space group: C 2/M
;
_chemical_formula_sum "Si O2"
_cell_formula_units_Z 64
_cell_length_a 23.772777
_cell_length_b 8.880033
_cell_length_c 15.175778
_cell_angle_alpha 90.000000
_cell_angle_beta 94.162554
_cell_angle_gamma 90.000000
_cell_volume 3195.202113
_symmetry_space_group_name_H-M "C 2/M"
_symmetry_group_IT_number 12
_symmetry_cell_setting 'monoclinic'
loop_
_space_group_symop_operation_xyz
x,y,z
-x,y,-z
-x,-y,-z
x,-y,z
1/2+x,1/2+y,z
1/2-x,1/2+y,-z
1/2-x,1/2-y,-z
1/2+x,1/2-y,z
loop_
_atom_site_type_symbol
_atom_site_label
_atom_site_fract_x
_atom_site_fract_y
_atom_site_fract_z
Si Si1 0.029377 0.176341 0.094092
Si Si2 0.463563 0.827165 0.243717
Si Si3 0.235312 0.672302 0.197948
Si Si4 0.162672 0.323079 0.525256
Si Si5 0.656246 0.828006 0.855336
Si Si6 0.047445 0.177314 0.575441
Si Si7 0.279947 0.676008 0.626470
Si Si8 0.361080 0.173304 0.947582
O O1 0.094651 0.220847 0.096863
O O2 0.002561 0.265276 0.171255
O O3 0.022427 0.000000 0.110269
O O4 0.000000 0.227166 0.000000
O O5 0.398826 0.810939 0.209602
O O6 0.474788 0.733265 0.332973
O O7 0.479645 0.000000 0.262863
O O8 0.235858 0.500000 0.229178
O O9 0.298326 0.721689 0.184074
O O10 0.208998 0.771394 0.273010
O O11 0.198701 0.695478 0.106177
O O12 0.153488 0.500000 0.517976
O O13 0.106893 0.252027 0.559376
O O14 0.215828 0.281546 0.593130
O O15 0.174548 0.259164 0.429499
O O16 0.678247 0.000000 0.858725
O O17 0.644486 0.771510 0.952762
O O18 0.000000 0.224980 0.500000
O O19 0.056440 0.000000 0.578742
O O20 0.291118 0.500000 0.618754
O O21 0.381554 0.000000 0.946352
#
# Coordination Sequence:
#
# PCOD8108117 Si02
#       8
#     8   8   8   8   8   8   8   8
#     4  11  23  39  62  91 120 153 200 253 301 353
#     4  11  23  40  66  92 118 159 204 248 300 358
#     4  11  23  36  56  87 121 157 198 242 292 351
#     4  10  21  39  64  90 116 151 199 246 295 355
#     4  10  21  38  60  85 117 156 198 243 296 353
#     4  11  25  43  62  88 124 161 198 247 305 360
#     4  10  21  38  61  88 119 155 193 241 300 355
#     4  10  22  40  59  83 118 160 200 242 294 353
#
# _framework density 20.030033
#
# number of rings (size 3 to 8) (size 9 to 14) (size 15 to 20)
#    0.000    1.500    1.250    3.375    0.000    9.500 
#    0.000    0.000    0.000    0.000    0.000    0.000 
#    0.000    0.000    0.000    0.000    0.000    0.000 
#
# Total GULP energy -397017.903843 kJ/mol
# GULP energy per Si atom -12406.809495 kJ/mol
# Density = 1.998444 g / cm^3
# Si number density = 20.030033 Si / 1000 Ang^3
#
#
#
# Elastic Constant Matrix: (Units=GPa)
#
#
# Indices 1 2 3 4 5 6 
#
# 1 41.9707 20.6919 32.8043 0.0000 -17.5368 0.0000
# 2 20.6919 62.8007 39.3340 0.0000 -2.1940 0.0000
# 3 32.8043 39.3340 115.6926 0.0000 -4.8715 0.0000
# 4 0.0000 0.0000 0.0000 33.0274 0.0000 -8.2345
# 5 -17.5368 -2.1940 -4.8715 0.0000 27.3986 0.0000
# 6 0.0000 0.0000 0.0000 -8.2345 0.0000 35.5675
#
#
#
# Elastic Compliance Matrix: (Units=1/GPa)
#
#
# Indices 1 2 3 4 5 6 
#
# 1 0.046836 -0.008738 -0.009145 0.000000 0.027652 0.000000
# 2 -0.008738 0.021866 -0.005157 0.000000 -0.004759 0.000000
# 3 -0.009145 -0.005157 0.012822 0.000000 -0.003987 0.000000
# 4 0.000000 0.000000 0.000000 0.032133 0.000000 0.007439
# 5 0.027652 -0.004759 -0.003987 0.000000 0.053107 0.000000
# 6 0.000000 0.000000 0.000000 0.007439 0.000000 0.029838
#
#
# Mechanical properties :
#
#
# Convention : Reuss Voigt Hill
#
# Bulk Modulus (GPa) = 28.21336 45.12493 36.66915
# Shear Modulus (GPa) = 19.64669 27.70763 23.67716
#
# Velocity S-wave (km/s) = 3.13527 3.72331 3.44187
# Velocity P-wave (km/s) = 5.21753 6.40794 5.84313
#
# Compressibility (1/GPa) = 0.03544420
#
# Stress axis : x y z
#
# Youngs Moduli (GPa) = 21.35130 45.73294 77.99048
#
# Poissons Ratio (x) = 0.39960 0.71322
# Poissons Ratio (y) = 0.18656 0.40220
# Poissons Ratio (z) = 0.19526 0.23584
#
# Static dielectric constant tensor:
#      x y z
#    x 3.556430 0.000000 -0.001760 
#    y 0.000000 3.695270 0.000000 
#    z -0.001760 0.000000 3.774990 
# 
# 
# High freq. dielectric constant tensor:
#      x y z
#    x 1.779330 0.000000 -0.006050 
#    y 0.000000 1.789540 0.000000 
#    z -0.006050 0.000000 1.792950 
# 
# From -- ./inp_files/238700.got.cif
#   From: 2010.06.25/outbox.cif.g09.slc.cpg/sg12_120_cif.got.tgz:238700.got - 2010.06.28 00:19:55.
