data_PCOD8108843
_publ_section_title
;
Structure prediction by ZEFSAII (Michael W. Deem and Ramdas Pophale) SiO2 
 PCOD8108843
Probable space group: C 2/M
;
_chemical_formula_sum "Si O2"
_cell_formula_units_Z 64
_cell_length_a 23.108768
_cell_length_b 9.306398
_cell_length_c 14.896042
_cell_angle_alpha 90.000000
_cell_angle_beta 88.861228
_cell_angle_gamma 90.000000
_cell_volume 3202.901018
_symmetry_space_group_name_H-M "C 2/M"
_symmetry_group_IT_number 12
_symmetry_cell_setting 'monoclinic'
loop_
_space_group_symop_operation_xyz
x,y,z
-x,y,-z
-x,-y,-z
x,-y,z
1/2+x,1/2+y,z
1/2-x,1/2+y,-z
1/2-x,1/2-y,-z
1/2+x,1/2-y,z
loop_
_atom_site_type_symbol
_atom_site_label
_atom_site_fract_x
_atom_site_fract_y
_atom_site_fract_z
Si Si1 0.209465 0.829628 0.073094
Si Si2 0.968142 0.663486 0.132536
Si Si3 0.090493 0.664855 0.055610
Si Si4 0.154673 0.665994 0.408268
Si Si5 0.438624 0.339143 0.298838
Si Si6 0.458255 0.660080 0.582066
Si Si7 0.343480 0.834459 0.391311
Si Si8 0.264020 0.333820 0.724018
O O1 0.144166 0.769576 0.072665
O O2 0.236173 0.797817 0.170435
O O3 0.208526 0.000000 0.052956
O O4 0.250000 0.750000 0.000000
O O5 0.967238 0.500000 0.166275
O O6 0.934796 0.760539 0.204349
O O7 0.035154 0.710943 0.117495
O O8 0.929930 0.679744 0.045411
O O9 0.108769 0.500000 0.075132
O O10 0.156355 0.500000 0.383276
O O11 0.089103 0.717881 0.408893
O O12 0.180941 0.694485 0.507222
O O13 0.187183 0.746939 0.328621
O O14 0.414987 0.500000 0.287498
O O15 0.504982 0.338185 0.327766
O O16 0.399728 0.262087 0.375064
O O17 0.500000 0.701117 0.500000
O O18 0.431389 0.500000 0.567974
O O19 0.297111 0.790107 0.317388
O O20 0.361652 0.000000 0.380832
O O21 0.277483 0.500000 0.706669
#
# Coordination Sequence:
#
# PCOD8108843 Si02
#       8
#     8   8   8   8   8   8   8   8
#     4  11  25  43  64  90 121 159 202 251 303 358
#     4   9  20  39  63  89 120 158 194 240 301 362
#     4   9  20  41  65  88 118 157 198 241 301 363
#     4  11  23  38  63  94 120 153 203 258 299 346
#     4  11  23  36  58  90 121 158 201 245 294 353
#     4  10  21  39  58  81 121 165 196 232 294 358
#     4  10  22  41  62  87 121 161 204 250 301 356
#     4  10  24  44  64  86 119 163 201 241 306 368
#
# _framework density 19.981884999999998
#
# number of rings (size 3 to 8) (size 9 to 14) (size 15 to 20)
#    0.000    1.875    1.250    2.250    3.500    4.250 
#    0.000    1.250    0.000    0.000    0.000    0.000 
#    0.000    0.000    0.000    0.000    0.000    0.000 
#
# Total GULP energy -396816.474966 kJ/mol
# GULP energy per Si atom -12400.514843 kJ/mol
# Density = 1.993641 g / cm^3
# Si number density = 19.981885 Si / 1000 Ang^3
#
#
#
# Elastic Constant Matrix: (Units=GPa)
#
#
# Indices 1 2 3 4 5 6 
#
# 1 81.6060 42.9158 32.2618 0.0000 7.4003 0.0000
# 2 42.9158 80.6387 48.5716 0.0000 -3.1553 0.0000
# 3 32.2618 48.5716 100.2437 0.0000 -7.1177 0.0000
# 4 0.0000 0.0000 0.0000 22.2096 0.0000 2.3462
# 5 7.4003 -3.1553 -7.1177 0.0000 27.4212 0.0000
# 6 0.0000 0.0000 0.0000 2.3462 0.0000 32.7050
#
#
#
# Elastic Compliance Matrix: (Units=1/GPa)
#
#
# Indices 1 2 3 4 5 6 
#
# 1 0.018249 -0.008686 -0.002124 0.000000 -0.006476 0.000000
# 2 -0.008686 0.021647 -0.007488 0.000000 0.002891 0.000000
# 3 -0.002124 -0.007488 0.014535 0.000000 0.003485 0.000000
# 4 0.000000 0.000000 0.000000 0.045369 0.000000 -0.003255
# 5 -0.006476 0.002891 0.003485 0.000000 0.039453 0.000000
# 6 0.000000 0.000000 0.000000 -0.003255 0.000000 0.030810
#
#
# Mechanical properties :
#
#
# Convention : Reuss Voigt Hill
#
# Bulk Modulus (GPa) = 56.07118 56.66520 56.36819
# Shear Modulus (GPa) = 23.51786 25.71645 24.61715
#
# Velocity S-wave (km/s) = 3.43441 3.59135 3.51376
# Velocity P-wave (km/s) = 6.62184 6.75403 6.68826
#
# Compressibility (1/GPa) = 0.01783447
#
# Stress axis : x y z
#
# Youngs Moduli (GPa) = 54.79792 46.19564 68.79949
#
# Poissons Ratio (x) = 0.40125 0.14615
# Poissons Ratio (y) = 0.47597 0.51517
# Poissons Ratio (z) = 0.11641 0.34592
#
# Static dielectric constant tensor:
#      x y z
#    x 3.604080 0.000000 0.052280 
#    y 0.000000 3.652170 0.000000 
#    z 0.052280 0.000000 3.710950 
# 
# 
# High freq. dielectric constant tensor:
#      x y z
#    x 1.775300 0.000000 0.002110 
#    y 0.000000 1.781160 0.000000 
#    z 0.002110 0.000000 1.788700 
# 
# From -- ./inp_files/238596.got.cif
#   From: 2010.06.25/outbox.cif.g09.slc.cpg/sg12_120_cif.got.tgz:238596.got - 2010.06.28 00:19:55.
