data_PCOD8108723
_publ_section_title
;
Structure prediction by ZEFSAII (Michael W. Deem and Ramdas Pophale) SiO2 
 PCOD8108723
Probable space group: C 2/M
;
_chemical_formula_sum "Si O2"
_cell_formula_units_Z 48
_cell_length_a 13.434053
_cell_length_b 28.588077
_cell_length_c 8.629965
_cell_angle_alpha 90.000000
_cell_angle_beta 47.725266
_cell_angle_gamma 90.000000
_cell_volume 2452.394775
_symmetry_space_group_name_H-M "C 2/M"
_symmetry_group_IT_number 12
_symmetry_cell_setting 'monoclinic'
loop_
_space_group_symop_operation_xyz
x,y,z
-x,y,-z
-x,-y,-z
x,-y,z
1/2+x,1/2+y,z
1/2-x,1/2+y,-z
1/2-x,1/2-y,-z
1/2+x,1/2-y,z
loop_
_atom_site_type_symbol
_atom_site_label
_atom_site_fract_x
_atom_site_fract_y
_atom_site_fract_z
Si Si1 0.015013 0.854869 0.299679
Si Si2 0.252508 0.696996 0.554793
Si Si3 0.768621 0.700440 0.056161
Si Si4 0.506499 0.143395 0.675524
Si Si5 0.402405 0.550128 0.746990
Si Si6 0.411210 0.946643 0.941170
O O1 0.149801 0.829542 0.107497
O O2 0.033779 0.908205 0.215816
O O3 0.000000 0.857724 0.500000
O O4 0.892542 0.826449 0.355508
O O5 0.250000 0.750000 0.500000
O O6 0.235892 0.700595 0.754859
O O7 0.149894 0.660622 0.586180
O O8 0.750000 0.750000 0.000000
O O9 0.908834 0.679498 0.859876
O O10 0.500000 0.149554 0.500000
O O11 0.469538 0.089722 0.754359
O O12 0.500000 0.544117 0.500000
O O13 0.400827 0.500000 0.838567
O O14 0.247751 0.562912 0.858571
O O15 0.431805 0.000000 0.859900
O O16 0.500000 0.937859 0.000000
#
# Coordination Sequence:
#
# PCOD8108723 Si02
#       6
#     8   8   8   8   8   8
#     4   9  19  34  56  86 114 148 189 245 307 357
#     4  11  23  40  61  89 121 157 201 256 308 367
#     4  11  21  38  63  87 119 154 201 254 308 369
#     4  12  25  40  58  86 125 169 207 247 302 364
#     4   9  17  32  58  91 121 146 185 244 308 366
#     4  10  21  38  64  94 120 155 206 258 312 371
#
# _framework density 19.572704999999999
#
# number of rings (size 3 to 8) (size 9 to 14) (size 15 to 20)
#    0.000    1.667    1.667    3.500    4.667    1.667 
#    0.000    2.500    0.000    0.000    0.000    2.333 
#    0.000    0.000    0.000    0.000    0.000    0.000 
#
# Total GULP energy -297369.392720 kJ/mol
# GULP energy per Si atom -12390.391363 kJ/mol
# Density = 1.952816 g / cm^3
# Si number density = 19.572705 Si / 1000 Ang^3
#
#
#
# Elastic Constant Matrix: (Units=GPa)
#
#
# Indices 1 2 3 4 5 6 
#
# 1 93.6064 47.6543 31.0638 0.0000 -12.8682 0.0000
# 2 47.6543 169.6388 23.4214 0.0000 -8.8044 0.0000
# 3 31.0638 23.4214 46.3894 0.0000 -4.2208 0.0000
# 4 0.0000 0.0000 0.0000 2507.6377 0.0000 396.3440
# 5 -12.8682 -8.8044 -4.2208 0.0000 33.1012 0.0000
# 6 0.0000 0.0000 0.0000 396.3440 0.0000 100.6607
#
#
#
# Elastic Compliance Matrix: (Units=1/GPa)
#
#
# Indices 1 2 3 4 5 6 
#
# 1 0.015625 -0.002988 -0.008573 0.000000 0.004186 0.000000
# 2 -0.002988 0.006963 -0.001469 0.000000 0.000503 0.000000
# 3 -0.008573 -0.001469 0.028026 0.000000 -0.000150 0.000000
# 4 0.000000 0.000000 0.000000 0.001056 0.000000 -0.004158
# 5 0.004186 0.000503 -0.000150 0.000000 0.031953 0.000000
# 6 0.000000 0.000000 0.000000 -0.004158 0.000000 0.026304
#
#
# Mechanical properties :
#
#
# Convention : Reuss Voigt Hill
#
# Bulk Modulus (GPa) = 40.72847 57.10154 48.91500
# Shear Modulus (GPa) = 34.68092 542.11292 288.39692
#
# Velocity S-wave (km/s) = 4.21396 16.66059 12.15180
# Velocity P-wave (km/s) = 6.67313 19.98344 14.89745
#
# Compressibility (1/GPa) = 0.02455285
#
# Stress axis : x y z
#
# Youngs Moduli (GPa) = 64.00020 143.61094 35.68179
#
# Poissons Ratio (x) = 0.42916 0.30591
# Poissons Ratio (y) = 0.19126 0.05241
# Poissons Ratio (z) = 0.54869 0.21093
#
# Static dielectric constant tensor:
#      x y z
#    x 3.513330 0.000000 -0.299420 
#    y 0.000000 4.266100 0.000000 
#    z -0.299420 0.000000 3.444200 
# 
# 
# High freq. dielectric constant tensor:
#      x y z
#    x 1.744990 0.000000 -0.036170 
#    y 0.000000 1.794630 0.000000 
#    z -0.036170 0.000000 1.752740 
# 
# From -- ./inp_files/67332.got.cif
#   From: 2010.06.25/outbox.cif.g09.slc.cpg/sg12_34_cif.got.tgz:67332.got - 2010.06.28 00:19:55.
