data_PCOD8108282
_publ_section_title
;
Structure prediction by ZEFSAII (Michael W. Deem and Ramdas Pophale) SiO2 
 PCOD8108282
Probable space group: C 2/M
;
_chemical_formula_sum "Si O2"
_cell_formula_units_Z 48
_cell_length_a 30.575754
_cell_length_b 8.781656
_cell_length_c 17.933267
_cell_angle_alpha 90.000000
_cell_angle_beta 31.222245
_cell_angle_gamma 90.000000
_cell_volume 2495.994982
_symmetry_space_group_name_H-M "C 2/M"
_symmetry_group_IT_number 12
_symmetry_cell_setting 'monoclinic'
loop_
_space_group_symop_operation_xyz
x,y,z
-x,y,-z
-x,-y,-z
x,-y,z
1/2+x,1/2+y,z
1/2-x,1/2+y,-z
1/2-x,1/2-y,-z
1/2+x,1/2-y,z
loop_
_atom_site_type_symbol
_atom_site_label
_atom_site_fract_x
_atom_site_fract_y
_atom_site_fract_z
Si Si1 0.246948 0.820073 0.086140
Si Si2 0.587553 0.679945 0.092353
Si Si3 0.169946 0.330089 0.584100
Si Si4 0.592818 0.823349 0.393025
Si Si5 0.999285 0.673337 0.084342
Si Si6 0.563937 0.820235 0.604243
O O1 0.158294 0.780738 0.253784
O O2 0.256864 0.000000 0.065422
O O3 0.250000 0.750000 0.000000
O O4 0.321193 0.752651 0.028364
O O5 0.595089 0.500000 0.087017
O O6 0.556777 0.725611 0.054737
O O7 0.524474 0.738692 0.248755
O O8 0.198715 0.500000 0.524837
O O9 0.250000 0.250000 0.500000
O O10 0.097386 0.321394 0.750931
O O11 0.135429 0.258104 0.556983
O O12 0.500000 0.784266 0.500000
O O13 0.596106 0.781618 0.475344
O O14 0.614934 0.000000 0.346837
O O15 0.033794 0.500000 0.035665
O O16 0.000000 0.741429 0.000000
O O17 0.548181 0.000000 0.639474
#
# Coordination Sequence:
#
# PCOD8108282 Si02
#       6
#     8   8   8   8   8   8
#     4  12  25  41  61  85 116 151 190 234 281 337
#     4  11  22  37  59  86 116 150 192 238 284 337
#     4   9  18  32  51  76 107 143 182 226 275 326
#     4  10  21  38  61  87 114 145 182 228 282 337
#     4   9  19  37  58  80 110 150 193 236 285 336
#     4   9  19  37  58  81 113 150 186 230 284 336
#
# _framework density 19.230809000000001
#
# number of rings (size 3 to 8) (size 9 to 14) (size 15 to 20)
#    0.000    2.000    0.000    5.000    0.000    6.667 
#    0.000    3.333    0.000    0.000    0.000    0.000 
#    0.000    0.000    0.000    0.000    0.000    0.000 
#
# Total GULP energy -297635.168483 kJ/mol
# GULP energy per Si atom -12401.465353 kJ/mol
# Density = 1.918704 g / cm^3
# Si number density = 19.230809 Si / 1000 Ang^3
#
#
#
# Elastic Constant Matrix: (Units=GPa)
#
#
# Indices 1 2 3 4 5 6 
#
# 1 125.0009 48.3521 71.9362 -0.0012 4.0179 0.0009
# 2 48.3521 111.5059 51.3415 -0.0029 -2.2175 0.0033
# 3 71.9362 51.3415 101.6389 -0.0044 2.7546 0.0031
# 4 -0.0012 -0.0029 -0.0044 34.6262 0.0016 -4.6583
# 5 4.0179 -2.2175 2.7546 0.0016 38.3255 -0.0009
# 6 0.0009 0.0033 0.0031 -4.6583 -0.0009 30.9229
#
#
#
# Elastic Compliance Matrix: (Units=1/GPa)
#
#
# Indices 1 2 3 4 5 6 
#
# 1 0.013845 -0.001983 -0.008772 -0.000001 -0.000936 0.000001
# 2 -0.001983 0.012017 -0.004700 0.000000 0.001241 -0.000001
# 3 -0.008772 -0.004700 0.018440 0.000002 -0.000678 -0.000001
# 4 -0.000001 0.000000 0.000002 0.029477 -0.000001 0.004441
# 5 -0.000936 0.001241 -0.000678 -0.000001 0.026311 0.000001
# 6 0.000001 -0.000001 -0.000001 0.004441 0.000001 0.033007
#
#
# Mechanical properties :
#
#
# Convention : Reuss Voigt Hill
#
# Bulk Modulus (GPa) = 74.67586 75.71171 75.19378
# Shear Modulus (GPa) = 29.67846 31.87599 30.77722
#
# Velocity S-wave (km/s) = 3.93272 4.07572 4.00486
# Velocity P-wave (km/s) = 7.71605 7.84883 7.78272
#
# Compressibility (1/GPa) = 0.01339121
#
# Stress axis : x y z
#
# Youngs Moduli (GPa) = 72.22621 83.21576 54.23052
#
# Poissons Ratio (x) = 0.16505 0.47571
# Poissons Ratio (y) = 0.14325 0.25489
# Poissons Ratio (z) = 0.63357 0.39112
#
# Static dielectric constant tensor:
#      x y z
#    x 3.640670 -0.000010 -0.106850 
#    y -0.000010 3.474640 0.000000 
#    z -0.106850 0.000000 3.385630 
# 
# 
# High freq. dielectric constant tensor:
#      x y z
#    x 1.765080 0.000000 0.000980 
#    y 0.000000 1.740100 0.000000 
#    z 0.000980 0.000000 1.745540 
# 
# From -- ./inp_files/295376.got.cif
#   From: 2010.06.25/outbox.cif.g09.slc.cpg/sg12_148_cif.got.tgz:295376.got - 2010.06.28 00:19:55.
