data_PCOD8108016
_publ_section_title
;
Structure prediction by ZEFSAII (Michael W. Deem and Ramdas Pophale) SiO2 
 PCOD8108016
Probable space group: C 2/M
;
_chemical_formula_sum "Si O2"
_cell_formula_units_Z 40
_cell_length_a 9.935560
_cell_length_b 22.658381
_cell_length_c 8.758170
_cell_angle_alpha 90.000000
_cell_angle_beta 80.288377
_cell_angle_gamma 90.000000
_cell_volume 1943.416174
_symmetry_space_group_name_H-M "C 2/M"
_symmetry_group_IT_number 12
_symmetry_cell_setting 'monoclinic'
loop_
_space_group_symop_operation_xyz
x,y,z
-x,y,-z
-x,-y,-z
x,-y,z
1/2+x,1/2+y,z
1/2-x,1/2+y,-z
1/2-x,1/2-y,-z
1/2+x,1/2-y,z
loop_
_atom_site_type_symbol
_atom_site_label
_atom_site_fract_x
_atom_site_fract_y
_atom_site_fract_z
Si Si1 0.207908 0.068094 0.730720
Si Si2 0.105437 0.757947 0.105754
Si Si3 0.448364 0.634334 0.677858
Si Si4 0.451309 0.873702 0.839302
Si Si5 0.807459 0.567121 0.372251
O O1 0.305247 0.094928 0.842555
O O2 0.285794 0.074279 0.556088
O O3 0.067746 0.105020 0.755715
O O4 0.174378 0.000000 0.773628
O O5 0.110425 0.806055 0.237920
O O6 0.059421 0.696044 0.186327
O O7 0.250000 0.750000 0.000000
O O8 0.000000 0.780579 0.000000
O O9 0.500000 0.650995 0.500000
O O10 0.326038 0.587633 0.693687
O O11 0.560689 0.895487 0.696105
O O12 0.500000 0.889215 0.000000
O O13 0.835945 0.500000 0.320984
#
# Coordination Sequence:
#
# PCOD8108016 Si02
#       5
#     8   8   8   8   8
#     4  10  21  38  60  86 117 151 188 235 289 340
#     4  11  23  41  60  81 117 157 191 236 293 341
#     4  10  21  38  62  89 114 148 196 240 281 341
#     4  11  23  38  57  83 115 153 195 235 282 340
#     4  10  21  38  59  85 118 151 185 234 292 342
#
# _framework density 20.582312000000002
#
# number of rings (size 3 to 8) (size 9 to 14) (size 15 to 20)
#    0.000    1.600    0.000    5.400    0.000    7.200 
#    0.000    5.000    0.000    4.800    0.000    0.000 
#    0.000    0.000    0.000    0.000    0.000    0.000 
#
# Total GULP energy -248113.510523 kJ/mol
# GULP energy per Si atom -12405.675526 kJ/mol
# Density = 2.053547 g / cm^3
# Si number density = 20.582312 Si / 1000 Ang^3
#
#
#
# Elastic Constant Matrix: (Units=GPa)
#
#
# Indices 1 2 3 4 5 6 
#
# 1 127.2873 38.3003 35.8746 0.0000 12.9211 0.0000
# 2 38.3003 138.8471 56.4415 0.0000 0.1612 0.0000
# 3 35.8746 56.4415 44.9449 0.0000 7.9964 0.0000
# 4 0.0000 0.0000 0.0000 22.3677 0.0000 7.0116
# 5 12.9211 0.1612 7.9964 0.0000 37.5607 0.0000
# 6 0.0000 0.0000 0.0000 7.0116 0.0000 31.8069
#
#
#
# Elastic Compliance Matrix: (Units=1/GPa)
#
#
# Indices 1 2 3 4 5 6 
#
# 1 0.010299 0.000783 -0.008911 0.000000 -0.001649 0.000000
# 2 0.000783 0.015381 -0.020664 0.000000 0.004064 0.000000
# 3 -0.008911 -0.020664 0.056906 0.000000 -0.008961 0.000000
# 4 0.000000 0.000000 0.000000 0.048026 0.000000 -0.010587
# 5 -0.001649 0.004064 -0.008961 0.000000 0.029081 0.000000
# 6 0.000000 0.000000 0.000000 -0.010587 0.000000 0.033774
#
#
# Mechanical properties :
#
#
# Convention : Reuss Voigt Hill
#
# Bulk Modulus (GPa) = 39.99474 63.59024 51.79249
# Shear Modulus (GPa) = 19.27634 30.37793 24.82714
#
# Velocity S-wave (km/s) = 3.06363 3.84594 3.47686
# Velocity P-wave (km/s) = 5.65581 7.11929 6.42933
#
# Compressibility (1/GPa) = 0.02500329
#
# Stress axis : x y z
#
# Youngs Moduli (GPa) = 97.09213 65.01413 17.57288
#
# Poissons Ratio (x) = -0.05092 0.15659
# Poissons Ratio (y) = -0.07604 0.36312
# Poissons Ratio (z) = 0.86519 1.34344
#
# Static dielectric constant tensor:
#      x y z
#    x 3.902010 0.000000 0.051090 
#    y 0.000000 3.815070 0.000000 
#    z 0.051090 0.000000 3.583070 
# 
# 
# High freq. dielectric constant tensor:
#      x y z
#    x 1.824710 0.000000 0.001970 
#    y 0.000000 1.814140 0.000000 
#    z 0.001970 0.000000 1.793680 
# 
# From -- ./inp_files/39150.got.cif
#   From: 2010.06.25/outbox.cif.g09.slc.cpg/sg12_20_cif.got.tgz:39150.got - 2010.06.28 00:19:55.
