data_PCOD8108247
_publ_section_title
;
Structure prediction by ZEFSAII (Michael W. Deem and Ramdas Pophale) SiO2 
 PCOD8108247
Probable space group: C 2/M
;
_chemical_formula_sum "Si O2"
_cell_formula_units_Z 40
_cell_length_a 16.129169
_cell_length_b 25.805231
_cell_length_c 8.415249
_cell_angle_alpha 90.000000
_cell_angle_beta 143.484799
_cell_angle_gamma 90.000000
_cell_volume 2084.154842
_symmetry_space_group_name_H-M "C 2/M"
_symmetry_group_IT_number 12
_symmetry_cell_setting 'monoclinic'
loop_
_space_group_symop_operation_xyz
x,y,z
-x,y,-z
-x,-y,-z
x,-y,z
1/2+x,1/2+y,z
1/2-x,1/2+y,-z
1/2-x,1/2-y,-z
1/2+x,1/2-y,z
loop_
_atom_site_type_symbol
_atom_site_label
_atom_site_fract_x
_atom_site_fract_y
_atom_site_fract_z
Si Si1 0.853839 0.059924 0.857895
Si Si2 0.827438 0.646790 0.562014
Si Si3 0.615692 0.628545 0.808016
Si Si4 0.380011 0.715924 0.941833
Si Si5 0.145319 0.668620 0.036709
O O1 0.733238 0.091370 0.582388
O O2 0.814033 0.000000 0.786489
O O3 0.863847 0.076838 0.056832
O O4 0.000000 0.072579 0.000000
O O5 0.755092 0.693230 0.354109
O O6 0.989703 0.648231 0.770697
O O7 0.798504 0.653774 0.703348
O O8 0.500000 0.616933 0.500000
O O9 0.564747 0.675685 0.841547
O O10 0.762829 0.641512 0.955376
O O11 0.500000 0.727670 0.000000
O O12 0.342260 0.769661 0.968262
#
# Coordination Sequence:
#
# PCOD8108247 Si02
#       5
#     8   8   8   8   8
#     4  10  22  43  66  85 110 152 195 243 298 345
#     4  10  21  38  61  83 121 156 199 236 285 346
#     4  11  23  37  58  89 120 150 199 243 286 341
#     4  11  21  36  56  83 119 167 193 229 282 346
#     4  11  22  36  56  87 121 158 193 237 285 342
#
# _framework density 19.192433000000001
#
# number of rings (size 3 to 8) (size 9 to 14) (size 15 to 20)
#    0.000    1.400    2.000    6.000    2.800    3.600 
#    0.000    5.000    0.000    0.000    0.000    0.000 
#    0.000    0.000    0.000    0.000    0.000    0.000 
#
# Total GULP energy -248117.558713 kJ/mol
# GULP energy per Si atom -12405.877936 kJ/mol
# Density = 1.914875 g / cm^3
# Si number density = 19.192433 Si / 1000 Ang^3
#
#
#
# Elastic Constant Matrix: (Units=GPa)
#
#
# Indices 1 2 3 4 5 6 
#
# 1 84.9354 34.9942 10.5153 0.0000 8.0887 0.0000
# 2 34.9942 129.3522 56.9706 0.0000 5.1690 0.0000
# 3 10.5153 56.9706 100.2960 0.0000 -5.4052 0.0000
# 4 0.0000 0.0000 0.0000 17.9814 0.0000 -3.3316
# 5 8.0887 5.1690 -5.4052 0.0000 28.2720 0.0000
# 6 0.0000 0.0000 0.0000 -3.3316 0.0000 18.7266
#
#
#
# Elastic Compliance Matrix: (Units=1/GPa)
#
#
# Indices 1 2 3 4 5 6 
#
# 1 0.013560 -0.003796 0.000569 0.000000 -0.003077 0.000000
# 2 -0.003796 0.011637 -0.006334 0.000000 -0.002253 0.000000
# 3 0.000569 -0.006334 0.013703 0.000000 0.003615 0.000000
# 4 0.000000 0.000000 0.000000 0.057509 0.000000 0.010231
# 5 -0.003077 -0.002253 0.003615 0.000000 0.037354 0.000000
# 6 0.000000 0.000000 0.000000 0.010231 0.000000 0.055220
#
#
# Mechanical properties :
#
#
# Convention : Reuss Voigt Hill
#
# Bulk Modulus (GPa) = 50.55877 57.72711 54.14294
# Shear Modulus (GPa) = 23.28843 27.13624 25.21233
#
# Velocity S-wave (km/s) = 3.48719 3.76427 3.62838
# Velocity P-wave (km/s) = 6.52796 7.00259 6.76944
#
# Compressibility (1/GPa) = 0.01977896
#
# Stress axis : x y z
#
# Youngs Moduli (GPa) = 73.74479 85.93009 72.97463
#
# Poissons Ratio (x) = 0.32619 -0.04150
# Poissons Ratio (y) = 0.27994 0.46220
# Poissons Ratio (z) = -0.04194 0.54426
#
# Static dielectric constant tensor:
#      x y z
#    x 3.636140 0.000000 -0.130850 
#    y 0.000000 3.396180 0.000000 
#    z -0.130850 0.000000 3.558910 
# 
# 
# High freq. dielectric constant tensor:
#      x y z
#    x 1.755420 0.000000 -0.003120 
#    y 0.000000 1.734360 0.000000 
#    z -0.003120 0.000000 1.755560 
# 
# From -- ./inp_files/79258.got.cif
#   From: 2010.06.25/outbox.cif.g09.slc.cpg/sg12_40_cif.got.tgz:79258.got - 2010.06.28 00:19:55.
