data_PCOD8108049
_publ_section_title
;
Structure prediction by ZEFSAII (Michael W. Deem and Ramdas Pophale) SiO2 
 PCOD8108049
Probable space group: C 2/M
;
_chemical_formula_sum "Si O2"
_cell_formula_units_Z 64
_cell_length_a 15.350393
_cell_length_b 8.634770
_cell_length_c 33.513244
_cell_angle_alpha 90.000000
_cell_angle_beta 45.451198
_cell_angle_gamma 90.000000
_cell_volume 3165.665134
_symmetry_space_group_name_H-M "C 2/M"
_symmetry_group_IT_number 12
_symmetry_cell_setting 'monoclinic'
loop_
_space_group_symop_operation_xyz
x,y,z
-x,y,-z
-x,-y,-z
x,-y,z
1/2+x,1/2+y,z
1/2-x,1/2+y,-z
1/2-x,1/2-y,-z
1/2+x,1/2-y,z
loop_
_atom_site_type_symbol
_atom_site_label
_atom_site_fract_x
_atom_site_fract_y
_atom_site_fract_z
Si Si1 0.387568 0.680183 0.141494
Si Si2 0.663890 0.681073 0.060959
Si Si3 0.209794 0.322063 0.129752
Si Si4 0.024038 0.180221 0.370243
Si Si5 0.088088 0.815918 0.437461
Si Si6 0.363849 0.818230 0.358520
Si Si7 0.285637 0.821404 0.250633
Si Si8 0.019313 0.819814 0.755258
O O1 0.380487 0.500000 0.156018
O O2 0.526014 0.743592 0.099169
O O3 0.335146 0.706128 0.113887
O O4 0.305500 0.779382 0.198183
O O5 0.664348 0.500000 0.055079
O O6 0.714169 0.721539 0.088427
O O7 0.750000 0.750000 0.000000
O O8 0.196187 0.500000 0.121460
O O9 0.097452 0.277287 0.193887
O O10 0.040751 0.242128 0.409837
O O11 0.146083 0.211888 0.305998
O O12 0.914785 0.279177 0.385998
O O13 0.988747 0.000000 0.381186
O O14 0.225424 0.756075 0.400449
O O15 0.000000 0.747046 0.500000
O O16 0.087784 0.000000 0.438882
O O17 0.446403 0.727117 0.300426
O O18 0.370494 0.000000 0.347272
O O19 0.369157 0.713446 0.251070
O O20 0.319169 0.000000 0.248188
O O21 0.986057 0.000000 0.767515
#
# Coordination Sequence:
#
# PCOD8108049 Si02
#       8
#     8   8   8   8   8   8   8   8
#     4  10  23  41  62  90 124 159 197 245 301 356
#     4  11  24  43  64  89 122 163 207 255 303 351
#     4  11  23  41  65  93 123 159 200 248 301 358
#     4  10  21  38  59  88 121 156 197 244 299 357
#     4   9  19  38  61  83 115 159 203 248 299 355
#     4  11  22  38  60  89 119 156 201 244 298 360
#     4  11  21  36  61  90 121 158 198 241 296 362
#     4  12  23  37  60  90 124 159 194 242 302 359
#
# _framework density 20.216919000000001
#
# number of rings (size 3 to 8) (size 9 to 14) (size 15 to 20)
#    0.000    1.375    2.500    3.375    0.000    5.500 
#    0.000    2.500    0.000    2.625    0.000    0.000 
#    0.000    0.000    0.000    0.000    0.000    0.000 
#
# Total GULP energy -396971.050289 kJ/mol
# GULP energy per Si atom -12405.345322 kJ/mol
# Density = 2.017090 g / cm^3
# Si number density = 20.216919 Si / 1000 Ang^3
#
#
#
# Elastic Constant Matrix: (Units=GPa)
#
#
# Indices 1 2 3 4 5 6 
#
# 1 128.8796 17.0623 48.5066 0.0003 19.2485 0.0042
# 2 17.0623 36.8598 14.4160 0.0016 0.6908 0.0054
# 3 48.5066 14.4160 139.2479 0.0006 13.1277 0.0019
# 4 0.0003 0.0016 0.0006 21.9456 -0.0005 6.1592
# 5 19.2485 0.6908 13.1277 -0.0005 16.8351 0.0008
# 6 0.0042 0.0054 0.0019 6.1592 0.0008 32.9511
#
#
#
# Elastic Compliance Matrix: (Units=1/GPa)
#
#
# Indices 1 2 3 4 5 6 
#
# 1 0.010680 -0.003829 -0.002361 0.000000 -0.010213 0.000000
# 2 -0.003829 0.029670 -0.002197 -0.000001 0.004874 -0.000004
# 3 -0.002361 -0.002197 0.008601 0.000000 -0.003917 0.000000
# 4 0.000000 -0.000001 0.000000 0.048090 0.000002 -0.008989
# 5 -0.010213 0.004874 -0.003917 0.000002 0.073931 -0.000001
# 6 0.000000 -0.000004 0.000000 -0.008989 -0.000001 0.032028
#
#
# Mechanical properties :
#
#
# Convention : Reuss Voigt Hill
#
# Bulk Modulus (GPa) = 31.07889 51.66191 41.37040
# Shear Modulus (GPa) = 21.69191 29.34650 25.51920
#
# Velocity S-wave (km/s) = 3.27916 3.81410 3.55670
# Velocity P-wave (km/s) = 5.45374 6.70863 6.11347
#
# Compressibility (1/GPa) = 0.03217618
#
# Stress axis : x y z
#
# Youngs Moduli (GPa) = 93.63228 33.70371 116.26971
#
# Poissons Ratio (x) = 0.12905 0.27453
# Poissons Ratio (y) = 0.35851 0.25549
# Poissons Ratio (z) = 0.22108 0.07406
#
# Static dielectric constant tensor:
#      x y z
#    x -4.654020 0.000030 0.652090 
#    y 0.000030 3.556350 -0.000010 
#    z 0.652090 -0.000010 3.684530 
# 
# 
# High freq. dielectric constant tensor:
#      x y z
#    x 1.804140 0.000000 0.004450 
#    y 0.000000 1.778210 0.000000 
#    z 0.004450 0.000000 1.786480 
# 
# From -- ./inp_files/375493.got.cif
#   From: 2010.06.25/outbox.cif.g09.slc.cpg/sg12_188_cif.got.tgz:375493.got - 2010.06.28 00:19:55.
