data_PCOD8108602
_publ_section_title
;
Structure prediction by ZEFSAII (Michael W. Deem and Ramdas Pophale) SiO2 
 PCOD8108602
Probable space group: C 2/M
;
_chemical_formula_sum "Si O2"
_cell_formula_units_Z 64
_cell_length_a 25.362573
_cell_length_b 19.095728
_cell_length_c 16.565192
_cell_angle_alpha 90.000000
_cell_angle_beta 21.191783
_cell_angle_gamma 90.000000
_cell_volume 2900.169113
_symmetry_space_group_name_H-M "C 2/M"
_symmetry_group_IT_number 12
_symmetry_cell_setting 'monoclinic'
loop_
_space_group_symop_operation_xyz
x,y,z
-x,y,-z
-x,-y,-z
x,-y,z
1/2+x,1/2+y,z
1/2-x,1/2+y,-z
1/2-x,1/2-y,-z
1/2+x,1/2-y,z
loop_
_atom_site_type_symbol
_atom_site_label
_atom_site_fract_x
_atom_site_fract_y
_atom_site_fract_z
Si Si1 0.172298 0.806212 0.667762
Si Si2 0.916183 0.576878 0.944082
Si Si3 0.365665 0.340358 0.854498
Si Si4 0.207472 0.578416 0.604222
Si Si5 0.331237 0.211146 0.001012
Si Si6 0.656222 0.580295 0.429101
Si Si7 0.173376 0.805595 0.851370
Si Si8 0.173158 0.416908 0.257233
O O1 0.250000 0.750000 0.500000
O O2 0.231688 0.882455 0.560608
O O3 0.217298 0.792560 0.696133
O O4 0.001080 0.809316 0.895230
O O5 0.928650 0.500000 0.883124
O O6 0.937377 0.642690 0.853461
O O7 0.031177 0.580753 0.853166
O O8 0.754582 0.587440 0.209529
O O9 0.416870 0.276670 0.839355
O O10 0.504133 0.383682 0.630022
O O11 0.307009 0.307585 0.855718
O O12 0.246276 0.389151 0.069834
O O13 0.265989 0.500000 0.512931
O O14 0.261221 0.613205 0.610937
O O15 0.277660 0.237292 0.166288
O O16 0.624177 0.500000 0.493654
O O17 0.251443 0.875592 0.775455
O O18 0.202506 0.500000 0.225741
O O19 0.000000 0.401252 0.500000
#
# Coordination Sequence:
#
# PCOD8108602 Si02
#       8
#     8   8   8   8   8   8   8   8
#     4  11  24  41  69  96 132 172 221 273 334 402
#     4  10  22  39  61  92 129 170 213 264 325 388
#     4  10  22  42  64  93 124 171 221 268 329 385
#     4  10  21  38  62  95 131 168 210 259 324 392
#     4  10  22  43  61  88 128 164 216 266 325 385
#     4  10  21  39  66  95 127 168 213 268 324 387
#     4  10  24  45  64  98 132 174 220 274 336 399
#     4  10  22  42  67  96 134 176 221 274 330 399
#
# _framework density 22.067678000000001
#
# number of rings (size 3 to 8) (size 9 to 14) (size 15 to 20)
#    0.000    1.875    0.000    3.000    1.750    7.000 
#   13.500    5.000    0.000    0.000    0.000    0.000 
#    0.000    0.000    0.000    0.000    0.000    0.000 
#
# Total GULP energy -396646.471417 kJ/mol
# GULP energy per Si atom -12395.202232 kJ/mol
# Density = 2.201745 g / cm^3
# Si number density = 22.067678 Si / 1000 Ang^3
#
#
#
# Elastic Constant Matrix: (Units=GPa)
#
#
# Indices 1 2 3 4 5 6 
#
# 1 118.3384 45.6329 22.0889 0.0045 -1.3273 -0.0030
# 2 45.6329 132.1748 29.6791 0.0059 -3.6232 -0.0027
# 3 22.0889 29.6791 97.1655 0.0056 -7.7354 -0.0047
# 4 0.0045 0.0059 0.0056 18.6524 -0.0033 -9.7550
# 5 -1.3273 -3.6232 -7.7354 -0.0033 25.3514 0.0027
# 6 -0.0030 -0.0027 -0.0047 -9.7550 0.0027 35.2568
#
#
#
# Elastic Compliance Matrix: (Units=1/GPa)
#
#
# Indices 1 2 3 4 5 6 
#
# 1 0.009900 -0.003131 -0.001321 -0.000001 -0.000332 0.000000
# 2 -0.003131 0.009117 -0.002032 -0.000002 0.000519 0.000000
# 3 -0.001321 -0.002032 0.011462 -0.000002 0.003138 0.000001
# 4 -0.000001 -0.000002 -0.000002 0.062683 0.000006 0.017343
# 5 -0.000332 0.000519 0.003138 0.000006 0.040460 -0.000001
# 6 0.000000 0.000000 0.000001 0.017343 -0.000001 0.033162
#
#
# Mechanical properties :
#
#
# Convention : Reuss Voigt Hill
#
# Bulk Modulus (GPa) = 57.09938 60.27562 58.68750
# Shear Modulus (GPa) = 26.94131 32.53731 29.73931
#
# Velocity S-wave (km/s) = 3.49786 3.84400 3.67501
# Velocity P-wave (km/s) = 6.49955 6.86113 6.68278
#
# Compressibility (1/GPa) = 0.01751333
#
# Stress axis : x y z
#
# Youngs Moduli (GPa) = 101.00632 109.68507 87.24168
#
# Poissons Ratio (x) = 0.34338 0.11524
# Poissons Ratio (y) = 0.31621 0.17725
# Poissons Ratio (z) = 0.13342 0.22285
#
# Static dielectric constant tensor:
#      x y z
#    x 4.310550 0.000000 0.043650 
#    y 0.000000 4.269400 0.000010 
#    z 0.043650 0.000010 3.834550 
# 
# 
# High freq. dielectric constant tensor:
#      x y z
#    x 1.869570 0.000000 -0.012750 
#    y 0.000000 1.885660 0.000000 
#    z -0.012750 0.000000 1.853850 
# 
# From -- ./inp_files/294133.got.cif
#   From: 2010.06.25/outbox.cif.g09.slc.cpg/sg12_148_cif.got.tgz:294133.got - 2010.06.28 00:19:55.
