data_PCOD8108450
_publ_section_title
;
Structure prediction by ZEFSAII (Michael W. Deem and Ramdas Pophale) SiO2 
 PCOD8108450
Probable space group: C 2/M
;
_chemical_formula_sum "Si O2"
_cell_formula_units_Z 56
_cell_length_a 18.962754
_cell_length_b 19.610029
_cell_length_c 15.356589
_cell_angle_alpha 90.000000
_cell_angle_beta 28.801138
_cell_angle_gamma 90.000000
_cell_volume 2751.155471
_symmetry_space_group_name_H-M "C 2/M"
_symmetry_group_IT_number 12
_symmetry_cell_setting 'monoclinic'
loop_
_space_group_symop_operation_xyz
x,y,z
-x,y,-z
-x,-y,-z
x,-y,z
1/2+x,1/2+y,z
1/2-x,1/2+y,-z
1/2-x,1/2-y,-z
1/2+x,1/2-y,z
loop_
_atom_site_type_symbol
_atom_site_label
_atom_site_fract_x
_atom_site_fract_y
_atom_site_fract_z
Si Si1 0.182925 0.812391 0.519082
Si Si2 0.854590 0.181271 0.101473
Si Si3 0.816454 0.580971 0.033026
Si Si4 0.650572 0.316886 0.093266
Si Si5 0.827903 0.673886 0.175870
Si Si6 0.374780 0.076550 0.378969
Si Si7 0.632486 0.922579 0.414720
O O1 0.250000 0.750000 0.500000
O O2 0.249146 0.824069 0.352890
O O3 0.228886 0.879762 0.521861
O O4 0.010387 0.801530 0.695327
O O5 0.780806 0.256057 0.178909
O O6 0.767890 0.125289 0.249121
O O7 0.872434 0.160528 0.981964
O O8 0.000000 0.189502 0.000000
O O9 0.787689 0.500000 0.061441
O O10 0.716917 0.617209 0.068500
O O11 0.774691 0.610678 0.173340
O O12 0.986289 0.599179 0.829408
O O13 0.750000 0.250000 0.000000
O O14 0.000000 0.666441 0.000000
O O15 0.422246 0.083809 0.427563
O O16 0.329869 0.000000 0.403973
O O17 0.500000 0.896104 0.500000
O O18 0.677099 0.000000 0.343109
#
# Coordination Sequence:
#
# PCOD8108450 Si02
#       7
#     8   8   8   8   8   8   8
#     4  12  24  41  69  95 129 174 228 277 336 397
#     4  11  23  41  64  93 131 172 219 275 329 397
#     4  11  24  44  69  98 137 183 221 277 349 412
#     4  12  25  44  65  95 140 175 222 282 342 405
#     4  11  22  42  67  98 132 169 229 281 331 406
#     4  10  21  40  65  95 130 173 225 275 336 400
#     4  10  21  38  61  93 128 167 219 274 331 400
#
# _framework density 20.355084000000002
#
# number of rings (size 3 to 8) (size 9 to 14) (size 15 to 20)
#    0.000    1.000    2.857    5.143    0.000    5.143 
#    0.000    0.714    0.000    0.000    0.000    0.000 
#    0.000    0.000    0.000    0.000    0.000    0.000 
#
# Total GULP energy -347183.504835 kJ/mol
# GULP energy per Si atom -12399.410887 kJ/mol
# Density = 2.030876 g / cm^3
# Si number density = 20.355084 Si / 1000 Ang^3
#
#
#
# Elastic Constant Matrix: (Units=GPa)
#
#
# Indices 1 2 3 4 5 6 
#
# 1 120.5246 61.3638 45.1119 0.0008 9.2589 0.0078
# 2 61.3638 136.2219 53.2788 0.0059 -5.5460 0.0064
# 3 45.1119 53.2788 111.9499 -0.0032 -1.3700 0.0123
# 4 0.0008 0.0059 -0.0032 8.7028 0.0009 -2.6763
# 5 9.2589 -5.5460 -1.3700 0.0009 38.8533 -0.0069
# 6 0.0078 0.0064 0.0123 -2.6763 -0.0069 38.0921
#
#
#
# Elastic Compliance Matrix: (Units=1/GPa)
#
#
# Indices 1 2 3 4 5 6 
#
# 1 0.011831 -0.004414 -0.002710 0.000001 -0.003545 -0.000001
# 2 -0.004414 0.010717 -0.003292 -0.000008 0.002466 0.000000
# 3 -0.002710 -0.003292 0.011598 0.000006 0.000585 -0.000002
# 4 0.000001 -0.000008 0.000006 0.117443 -0.000002 0.008251
# 5 -0.003545 0.002466 0.000585 -0.000002 0.026955 0.000005
# 6 -0.000001 0.000000 -0.000002 0.008251 0.000005 0.026832
#
#
# Mechanical properties :
#
#
# Convention : Reuss Voigt Hill
#
# Bulk Modulus (GPa) = 75.10284 76.46725 75.78505
# Shear Modulus (GPa) = 21.67817 31.05913 26.36865
#
# Velocity S-wave (km/s) = 3.26697 3.91047 3.60312
# Velocity P-wave (km/s) = 7.15593 7.61822 7.39069
#
# Compressibility (1/GPa) = 0.01331508
#
# Stress axis : x y z
#
# Youngs Moduli (GPa) = 84.52306 93.30932 86.21876
#
# Poissons Ratio (x) = 0.41185 0.23368
# Poissons Ratio (y) = 0.37307 0.28380
# Poissons Ratio (z) = 0.22908 0.30714
#
# Static dielectric constant tensor:
#      x y z
#    x 3.826140 -0.000010 0.004420 
#    y -0.000010 3.850520 0.000010 
#    z 0.004420 0.000010 3.789460 
# 
# 
# High freq. dielectric constant tensor:
#      x y z
#    x 1.809320 0.000000 0.011720 
#    y 0.000000 1.804540 0.000000 
#    z 0.011720 0.000000 1.785980 
# 
# From -- ./inp_files/227568.got.cif
#   From: 2010.06.25/outbox.cif.g09.slc.cpg/sg12_114_cif.got.tgz:227568.got - 2010.06.28 00:19:55.
