data_PCOD8108343
_publ_section_title
;
Structure prediction by ZEFSAII (Michael W. Deem and Ramdas Pophale) SiO2 
 PCOD8108343
Probable space group: C 2/M
;
_chemical_formula_sum "Si O2"
_cell_formula_units_Z 56
_cell_length_a 18.691544
_cell_length_b 8.943644
_cell_length_c 19.087995
_cell_angle_alpha 90.000000
_cell_angle_beta 59.082490
_cell_angle_gamma 90.000000
_cell_volume 2737.541256
_symmetry_space_group_name_H-M "C 2/M"
_symmetry_group_IT_number 12
_symmetry_cell_setting 'monoclinic'
loop_
_space_group_symop_operation_xyz
x,y,z
-x,y,-z
-x,-y,-z
x,-y,z
1/2+x,1/2+y,z
1/2-x,1/2+y,-z
1/2-x,1/2-y,-z
1/2+x,1/2-y,z
loop_
_atom_site_type_symbol
_atom_site_label
_atom_site_fract_x
_atom_site_fract_y
_atom_site_fract_z
Si Si1 0.988751 0.167333 0.580185
Si Si2 0.551482 0.673393 0.689872
Si Si3 0.252212 0.322665 0.155672
Si Si4 0.087799 0.675098 0.991142
Si Si5 0.200656 0.167860 0.318913
Si Si6 0.589760 0.824614 0.152630
Si Si7 0.239487 0.173456 0.579931
O O1 0.895021 0.163513 0.655145
O O2 0.000000 0.253543 0.500000
O O3 0.039827 0.244330 0.617554
O O4 0.025266 0.000000 0.550877
O O5 0.524869 0.500000 0.702226
O O6 0.494410 0.755846 0.774315
O O7 0.647869 0.694874 0.659683
O O8 0.252207 0.500000 0.158965
O O9 0.338486 0.267839 0.080479
O O10 0.249488 0.260464 0.235788
O O11 0.173779 0.264058 0.148460
O O12 0.104933 0.500000 0.971513
O O13 0.089586 0.719737 0.071567
O O14 0.000000 0.721324 0.000000
O O15 0.201041 0.246567 0.394394
O O16 0.237817 0.000000 0.305009
O O17 0.583965 0.000000 0.166440
O O18 0.250000 0.250000 0.500000
O O19 0.262641 0.000000 0.560470
#
# Coordination Sequence:
#
# PCOD8108343 Si02
#       7
#     8   8   8   8   8   8   8
#     4   9  17  33  58  86 114 150 201 249 291 347
#     4  10  21  38  61  88 119 160 206 249 296 361
#     4  11  23  40  62  91 126 160 200 251 304 363
#     4  10  23  42  64  92 122 158 204 249 301 367
#     4  11  22  38  63  89 121 164 204 252 307 362
#     4  10  22  40  62  90 125 160 198 251 307 361
#     4  11  24  41  61  89 125 165 209 257 309 366
#
# _framework density 20.456313000000002
#
# number of rings (size 3 to 8) (size 9 to 14) (size 15 to 20)
#    0.000    1.714    1.429    2.571    2.000    4.857 
#    0.000    0.000    0.000    2.143    0.000    0.000 
#    0.000    0.000    0.000    0.000    0.000    0.000 
#
# Total GULP energy -347192.536438 kJ/mol
# GULP energy per Si atom -12399.733444 kJ/mol
# Density = 2.040975 g / cm^3
# Si number density = 20.456313 Si / 1000 Ang^3
#
#
#
# Elastic Constant Matrix: (Units=GPa)
#
#
# Indices 1 2 3 4 5 6 
#
# 1 73.9913 26.0035 19.0785 0.0000 7.1882 -0.0001
# 2 26.0035 66.9181 38.9771 -0.0002 2.4754 0.0000
# 3 19.0785 38.9771 115.5486 0.0000 7.9995 0.0000
# 4 0.0000 -0.0002 0.0000 36.9493 0.0000 -2.6753
# 5 7.1882 2.4754 7.9995 0.0000 40.0787 0.0000
# 6 -0.0001 0.0000 0.0000 -2.6753 0.0000 25.3877
#
#
#
# Elastic Compliance Matrix: (Units=1/GPa)
#
#
# Indices 1 2 3 4 5 6 
#
# 1 0.015917 -0.005802 -0.000505 0.000000 -0.002396 0.000000
# 2 -0.005802 0.020713 -0.006097 0.000000 0.000978 0.000000
# 3 -0.000505 -0.006097 0.010913 0.000000 -0.001711 0.000000
# 4 0.000000 0.000000 0.000000 0.027272 0.000000 0.002874
# 5 -0.002396 0.000978 -0.001711 0.000000 0.025662 0.000000
# 6 0.000000 0.000000 0.000000 0.002874 0.000000 0.039692
#
#
# Mechanical properties :
#
#
# Convention : Reuss Voigt Hill
#
# Bulk Modulus (GPa) = 43.98513 47.17514 45.58014
# Shear Modulus (GPa) = 28.97611 31.97640 30.47626
#
# Velocity S-wave (km/s) = 3.76771 3.95797 3.86401
# Velocity P-wave (km/s) = 6.36209 6.63316 6.49904
#
# Compressibility (1/GPa) = 0.02273495
#
# Stress axis : x y z
#
# Youngs Moduli (GPa) = 62.82483 48.27815 91.63584
#
# Poissons Ratio (x) = 0.28013 0.04627
# Poissons Ratio (y) = 0.36454 0.55868
# Poissons Ratio (z) = 0.03173 0.29434
#
# Static dielectric constant tensor:
#      x y z
#    x 3.846450 0.000000 0.191460 
#    y 0.000000 3.553520 0.000000 
#    z 0.191460 0.000000 3.837140 
# 
# 
# High freq. dielectric constant tensor:
#      x y z
#    x 1.808870 0.000000 0.005050 
#    y 0.000000 1.779980 0.000000 
#    z 0.005050 0.000000 1.812800 
# 
# From -- ./inp_files/275138.got.cif
#   From: 2010.06.25/outbox.cif.g09.slc.cpg/sg12_138_cif.got.tgz:275138.got - 2010.06.28 00:19:55.
