data_PCOD8108473
_publ_section_title
;
Structure prediction by ZEFSAII (Michael W. Deem and Ramdas Pophale) SiO2 
 PCOD8108473
Probable space group: C 2/M
;
_chemical_formula_sum "Si O2"
_cell_formula_units_Z 56
_cell_length_a 9.307576
_cell_length_b 32.870140
_cell_length_c 20.395999
_cell_angle_alpha 90.000000
_cell_angle_beta 29.296080
_cell_angle_gamma 90.000000
_cell_volume 3053.363902
_symmetry_space_group_name_H-M "C 2/M"
_symmetry_group_IT_number 12
_symmetry_cell_setting 'monoclinic'
loop_
_space_group_symop_operation_xyz
x,y,z
-x,y,-z
-x,-y,-z
x,-y,z
1/2+x,1/2+y,z
1/2-x,1/2+y,-z
1/2-x,1/2-y,-z
1/2+x,1/2-y,z
loop_
_atom_site_type_symbol
_atom_site_label
_atom_site_fract_x
_atom_site_fract_y
_atom_site_fract_z
Si Si1 0.800436 0.778818 0.348216
Si Si2 0.128032 0.107655 0.517646
Si Si3 0.771625 0.654179 0.733302
Si Si4 0.659744 0.546167 0.620390
Si Si5 0.306366 0.603565 0.850455
Si Si6 0.280502 0.665218 0.743697
Si Si7 0.811126 0.704330 0.850104
O O1 0.500000 0.762460 0.500000
O O2 0.710229 0.812072 0.330394
O O3 0.011650 0.797340 0.319340
O O4 0.971563 0.741429 0.248996
O O5 0.458293 0.123384 0.380184
O O6 0.099565 0.069582 0.577204
O O7 0.000000 0.092352 0.500000
O O8 0.929725 0.144539 0.621772
O O9 0.483805 0.626367 0.837619
O O10 0.762260 0.675760 0.807007
O O11 0.551570 0.500000 0.655046
O O12 0.487634 0.565759 0.749856
O O13 0.000000 0.548794 0.500000
O O14 0.236737 0.635412 0.821375
O O15 0.000000 0.586645 0.000000
O O16 0.957317 0.679220 0.850980
O O17 0.500000 0.721071 0.000000
#
# Coordination Sequence:
#
# PCOD8108473 Si02
#       7
#     8   8   8   8   8   8   8
#     4  11  24  37  58  80 111 149 198 250 294 340
#     4  11  20  37  63  91 111 149 192 236 283 339
#     4  11  22  38  61  83 113 149 201 243 287 333
#     4  10  21  38  63  94 124 148 182 231 279 337
#     4  10  21  38  62  87 116 156 190 229 281 341
#     4  10  22  37  58  82 110 146 202 241 283 336
#     4  12  26  39  53  80 117 154 194 245 299 346
#
# _framework density 18.340429
#
# number of rings (size 3 to 8) (size 9 to 14) (size 15 to 20)
#    0.000    1.286    4.286    1.714    2.000    6.286 
#    0.000    0.000    0.000    0.000    0.000    1.000 
#    0.000    0.000    0.000    0.000    0.000    0.000 
#
# Total GULP energy -347279.743377 kJ/mol
# GULP energy per Si atom -12402.847978 kJ/mol
# Density = 1.829869 g / cm^3
# Si number density = 18.340429 Si / 1000 Ang^3
#
#
#
# Elastic Constant Matrix: (Units=GPa)
#
#
# Indices 1 2 3 4 5 6 
#
# 1 107.3408 31.7330 26.8264 0.0085 -9.0034 0.0044
# 2 31.7330 88.7642 39.6538 0.0068 -5.0950 0.0033
# 3 26.8264 39.6538 131.1654 0.0242 -10.5038 0.0136
# 4 0.0085 0.0068 0.0242 29.4968 0.0016 0.6282
# 5 -9.0034 -5.0950 -10.5038 0.0016 23.3646 0.0006
# 6 0.0044 0.0033 0.0136 0.6282 0.0006 16.8150
#
#
#
# Elastic Compliance Matrix: (Units=1/GPa)
#
#
# Indices 1 2 3 4 5 6 
#
# 1 0.010771 -0.003239 -0.000983 -0.000002 0.003002 -0.000001
# 2 -0.003239 0.014027 -0.003561 0.000001 0.000210 0.000001
# 3 -0.000983 -0.003561 0.009138 -0.000006 0.002953 -0.000006
# 4 -0.000002 0.000001 -0.000006 0.033929 -0.000006 -0.001268
# 5 0.003002 0.000210 0.002953 -0.000006 0.045330 -0.000005
# 6 -0.000001 0.000001 -0.000006 -0.001268 -0.000005 0.059518
#
#
# Mechanical properties :
#
#
# Convention : Reuss Voigt Hill
#
# Bulk Modulus (GPa) = 54.44028 58.18853 56.31441
# Shear Modulus (GPa) = 25.71973 29.20576 27.46274
#
# Velocity S-wave (km/s) = 3.74886 3.99485 3.87381
# Velocity P-wave (km/s) = 6.96321 7.28521 7.12603
#
# Compressibility (1/GPa) = 0.01836875
#
# Stress axis : x y z
#
# Youngs Moduli (GPa) = 92.83973 71.29232 109.43103
#
# Poissons Ratio (x) = 0.23092 0.10761
# Poissons Ratio (y) = 0.30072 0.38972
# Poissons Ratio (z) = 0.09129 0.25389
#
# Static dielectric constant tensor:
#      x y z
#    x 3.502780 0.000000 -0.101360 
#    y 0.000000 3.308620 0.000000 
#    z -0.101360 0.000000 3.459670 
# 
# 
# High freq. dielectric constant tensor:
#      x y z
#    x 1.723680 0.000000 -0.006370 
#    y 0.000000 1.696290 0.000000 
#    z -0.006370 0.000000 1.715600 
# 
# From -- ./inp_files/91560.got.cif
#   From: 2010.06.25/outbox.cif.g09.slc.cpg/sg12_46_cif.got.tgz:91560.got - 2010.06.28 00:19:55.
