data_PCOD8108821
_publ_section_title
;
Structure prediction by ZEFSAII (Michael W. Deem and Ramdas Pophale) SiO2 
 PCOD8108821
Probable space group: C 2/M
;
_chemical_formula_sum "Si O2"
_cell_formula_units_Z 44
_cell_length_a 13.688557
_cell_length_b 12.322595
_cell_length_c 16.651158
_cell_angle_alpha 90.000000
_cell_angle_beta 53.015979
_cell_angle_gamma 90.000000
_cell_volume 2243.593355
_symmetry_space_group_name_H-M "C 2/M"
_symmetry_group_IT_number 12
_symmetry_cell_setting 'monoclinic'
loop_
_space_group_symop_operation_xyz
x,y,z
-x,y,-z
-x,-y,-z
x,-y,z
1/2+x,1/2+y,z
1/2-x,1/2+y,-z
1/2-x,1/2-y,-z
1/2+x,1/2-y,z
loop_
_atom_site_type_symbol
_atom_site_label
_atom_site_fract_x
_atom_site_fract_y
_atom_site_fract_z
Si Si1 0.121063 0.215421 0.147434
Si Si2 0.064021 0.320802 0.335619
Si Si3 0.000000 0.172157 0.500000
Si Si4 0.106469 0.000000 0.559699
Si Si5 0.282245 0.000000 0.697171
Si Si6 0.491891 0.500000 0.220824
Si Si7 0.617132 0.000000 0.523626
Si Si8 0.884062 0.629875 0.999673
O O1 0.050294 0.251534 0.262191
O O2 0.099043 0.311439 0.094419
O O3 0.262671 0.185887 0.096829
O O4 0.057510 0.104434 0.150293
O O5 0.086870 0.243858 0.400632
O O6 0.185912 0.394054 0.266256
O O7 0.942247 0.392377 0.409069
O O8 0.089110 0.104322 0.512727
O O9 0.008485 0.000000 0.681559
O O10 0.241495 0.000000 0.525422
O O11 0.383979 0.000000 0.573723
O O12 0.144784 0.000000 0.741571
O O13 0.867409 0.500000 0.995812
O O14 0.000000 0.653219 0.000000
#
# Coordination Sequence:
#
# PCOD8108821 Si02
#       8
#     8   8   4   4   4   4   4   8
#     4  11  24  42  66  94 125 159 207 262 313 375
#     4  11  21  38  60  89 123 164 208 254 295 366
#     4  11  20  37  56  86 126 169 206 241 300 356
#     4  10  23  37  54  85 131 173 203 247 292 354
#     4  10  22  36  60  88 130 166 208 249 306 350
#     4  11  22  40  58  96 128 161 210 259 300 367
#     4  10  21  39  54  87 127 163 213 253 288 349
#     4  10  24  48  69  90 122 158 203 264 328 379
#
# _framework density 19.611398000000001
#
# number of rings (size 3 to 8) (size 9 to 14) (size 15 to 20)
#    0.000    1.455    4.545    0.545    5.091    2.182 
#    0.000    0.455    0.000    0.000    0.000    0.000 
#    0.000    0.000    0.000    0.000    0.000    0.000 
#
# Total GULP energy -272749.274218 kJ/mol
# GULP energy per Si atom -12397.694283 kJ/mol
# Density = 1.956676 g / cm^3
# Si number density = 19.611398 Si / 1000 Ang^3
#
#
#
# Elastic Constant Matrix: (Units=GPa)
#
#
# Indices 1 2 3 4 5 6 
#
# 1 77.5870 35.4713 17.4785 0.0000 -6.1026 0.0000
# 2 35.4713 120.2425 28.0440 0.0000 6.1056 0.0000
# 3 17.4785 28.0440 68.9552 0.0000 0.3240 0.0000
# 4 0.0000 0.0000 0.0000 58.5809 0.0000 46.2921
# 5 -6.1026 6.1056 0.3240 0.0000 28.2744 0.0000
# 6 0.0000 0.0000 0.0000 46.2921 0.0000 78.3430
#
#
#
# Elastic Compliance Matrix: (Units=1/GPa)
#
#
# Indices 1 2 3 4 5 6 
#
# 1 0.015718 -0.004335 -0.002242 0.000000 0.004354 0.000000
# 2 -0.004335 0.010491 -0.003153 0.000000 -0.003165 0.000000
# 3 -0.002242 -0.003153 0.016353 0.000000 0.000010 0.000000
# 4 0.000000 0.000000 0.000000 0.032023 0.000000 -0.018922
# 5 0.004354 -0.003165 0.000010 0.000000 0.036991 0.000000
# 6 0.000000 0.000000 0.000000 -0.018922 0.000000 0.023945
#
#
# Mechanical properties :
#
#
# Convention : Reuss Voigt Hill
#
# Bulk Modulus (GPa) = 43.28506 47.64138 45.46322
# Shear Modulus (GPa) = 30.73478 45.42574 38.08026
#
# Velocity S-wave (km/s) = 3.96307 4.81801 4.41130
# Velocity P-wave (km/s) = 6.56205 7.43615 7.01274
#
# Compressibility (1/GPa) = 0.02310266
#
# Stress axis : x y z
#
# Youngs Moduli (GPa) = 63.62072 95.31528 61.15206
#
# Poissons Ratio (x) = 0.41320 0.13708
# Poissons Ratio (y) = 0.27580 0.19282
# Poissons Ratio (z) = 0.14261 0.30054
#
# Static dielectric constant tensor:
#      x y z
#    x 3.390490 0.000000 0.036390 
#    y 0.000000 3.858650 0.000000 
#    z 0.036390 0.000000 3.555770 
# 
# 
# High freq. dielectric constant tensor:
#      x y z
#    x 1.757740 0.000000 -0.000530 
#    y 0.000000 1.785950 0.000000 
#    z -0.000530 0.000000 1.754490 
# 
# From -- ./inp_files/245592.got.cif
#   From: 2010.06.25/outbox.cif.g09.slc.cpg/sg12_123_cif.got.tgz:245592.got - 2010.06.28 00:19:55.
