data_PCOD8108685
_publ_section_title
;
Structure prediction by ZEFSAII (Michael W. Deem and Ramdas Pophale) SiO2 
 PCOD8108685
Probable space group: C 2/M
;
_chemical_formula_sum "Si O2"
_cell_formula_units_Z 40
_cell_length_a 17.098612
_cell_length_b 25.805718
_cell_length_c 8.714945
_cell_angle_alpha 90.000000
_cell_angle_beta 29.391991
_cell_angle_gamma 90.000000
_cell_volume 1887.252688
_symmetry_space_group_name_H-M "C 2/M"
_symmetry_group_IT_number 12
_symmetry_cell_setting 'monoclinic'
loop_
_space_group_symop_operation_xyz
x,y,z
-x,y,-z
-x,-y,-z
x,-y,z
1/2+x,1/2+y,z
1/2-x,1/2+y,-z
1/2-x,1/2-y,-z
1/2+x,1/2-y,z
loop_
_atom_site_type_symbol
_atom_site_label
_atom_site_fract_x
_atom_site_fract_y
_atom_site_fract_z
Si Si1 0.174879 0.943579 0.406281
Si Si2 0.924959 0.872600 0.973758
Si Si3 0.597778 0.894128 0.179581
Si Si4 0.662312 0.941269 0.558912
Si Si5 0.824214 0.193630 0.875369
O O1 0.311469 0.941362 0.303762
O O2 0.053378 0.896768 0.638222
O O3 0.091169 0.000000 0.550623
O O4 0.261017 0.935809 0.093972
O O5 0.833106 0.828247 0.035101
O O6 0.820449 0.921547 0.203173
O O7 0.000000 0.847121 0.000000
O O8 0.500000 0.906660 0.500000
O O9 0.474512 0.899821 0.249869
O O10 0.687393 0.839065 0.021848
O O11 0.623065 0.000000 0.569727
O O12 0.000000 0.192842 0.500000
O O13 0.750000 0.250000 0.000000
#
# Coordination Sequence:
#
# PCOD8108685 Si02
#       5
#     8   8   8   8   8
#     4  10  21  39  62  93 135 178 211 250 305 372
#     4  10  21  43  68  95 126 166 215 259 309 379
#     4  12  23  39  61  94 130 168 213 258 311 369
#     4  10  21  38  63  95 135 175 210 250 305 372
#     4  12  26  48  69  91 121 161 208 272 332 374
#
# _framework density 21.19483
#
# number of rings (size 3 to 8) (size 9 to 14) (size 15 to 20)
#    0.000    1.200    4.000    2.400    0.000    5.600 
#    0.000    4.000    0.000    0.000    0.000    0.000 
#    0.000    0.000    0.000    0.000    0.000    0.000 
#
# Total GULP energy -247797.598872 kJ/mol
# GULP energy per Si atom -12389.879944 kJ/mol
# Density = 2.114659 g / cm^3
# Si number density = 21.194830 Si / 1000 Ang^3
#
#
#
# Elastic Constant Matrix: (Units=GPa)
#
#
# Indices 1 2 3 4 5 6 
#
# 1 68.8622 77.5362 34.9753 0.0004 -15.5556 -0.0010
# 2 77.5362 141.5015 42.8449 0.0005 -1.3763 -0.0005
# 3 34.9753 42.8449 122.8610 0.0014 18.2544 -0.0018
# 4 0.0004 0.0005 0.0014 29.7356 -0.0005 -11.0471
# 5 -15.5556 -1.3763 18.2544 -0.0005 35.0176 0.0009
# 6 -0.0010 -0.0005 -0.0018 -11.0471 0.0009 33.4915
#
#
#
# Elastic Compliance Matrix: (Units=1/GPa)
#
#
# Indices 1 2 3 4 5 6 
#
# 1 0.061149 -0.029600 -0.011867 0.000001 0.032187 0.000000
# 2 -0.029600 0.022348 0.002663 0.000000 -0.013659 0.000000
# 3 -0.011867 0.002663 0.012310 0.000000 -0.011584 0.000000
# 4 0.000001 0.000000 0.000000 0.038326 0.000001 0.012642
# 5 0.032187 -0.013659 -0.011584 0.000001 0.048357 -0.000001
# 6 0.000000 0.000000 0.000000 0.012642 -0.000001 0.034028
#
#
# Mechanical properties :
#
#
# Convention : Reuss Voigt Hill
#
# Bulk Modulus (GPa) = 54.95505 71.54863 63.25184
# Shear Modulus (GPa) = 16.65591 31.50683 24.08137
#
# Velocity S-wave (km/s) = 2.80634 3.85974 3.37440
# Velocity P-wave (km/s) = 6.04032 7.32764 6.71490
#
# Compressibility (1/GPa) = 0.01819669
#
# Stress axis : x y z
#
# Youngs Moduli (GPa) = 16.35354 44.74746 81.23352
#
# Poissons Ratio (x) = 1.32454 0.96402
# Poissons Ratio (y) = 0.48407 -0.21630
# Poissons Ratio (z) = 0.19407 -0.11915
#
# Static dielectric constant tensor:
#      x y z
#    x 4.050470 0.000000 -0.065180 
#    y 0.000000 3.584660 0.000000 
#    z -0.065180 0.000000 4.041310 
# 
# 
# High freq. dielectric constant tensor:
#      x y z
#    x 1.828020 0.000000 -0.005180 
#    y 0.000000 1.803820 0.000000 
#    z -0.005180 0.000000 1.853900 
# 
# From -- ./inp_files/39149.got.cif
#   From: 2010.06.25/outbox.cif.g09.slc.cpg/sg12_20_cif.got.tgz:39149.got - 2010.06.28 00:19:55.
