data_PCOD8108756
_publ_section_title
;
Structure prediction by ZEFSAII (Michael W. Deem and Ramdas Pophale) SiO2 
 PCOD8108756
Probable space group: C 2/M
;
_chemical_formula_sum "Si O2"
_cell_formula_units_Z 64
_cell_length_a 14.752096
_cell_length_b 29.458937
_cell_length_c 8.319240
_cell_angle_alpha 90.000000
_cell_angle_beta 125.605973
_cell_angle_gamma 90.000000
_cell_volume 2939.452222
_symmetry_space_group_name_H-M "C 2/M"
_symmetry_group_IT_number 12
_symmetry_cell_setting 'monoclinic'
loop_
_space_group_symop_operation_xyz
x,y,z
-x,y,-z
-x,-y,-z
x,-y,z
1/2+x,1/2+y,z
1/2-x,1/2+y,-z
1/2-x,1/2-y,-z
1/2+x,1/2-y,z
loop_
_atom_site_type_symbol
_atom_site_label
_atom_site_fract_x
_atom_site_fract_y
_atom_site_fract_z
Si Si1 0.480240 0.710011 0.665016
Si Si2 0.388476 0.198512 0.489421
Si Si3 0.681469 0.322999 0.053753
Si Si4 0.726748 0.102570 0.076080
Si Si5 0.177769 0.612556 0.395709
Si Si6 0.550258 0.447256 0.725325
Si Si7 0.407048 0.377040 0.758886
Si Si8 0.485628 0.050079 0.175328
O O1 0.500000 0.702051 0.500000
O O2 0.404560 0.754939 0.607552
O O3 0.411456 0.666327 0.647406
O O4 0.598445 0.713842 0.885015
O O5 0.500000 0.190846 0.500000
O O6 0.274935 0.200361 0.263266
O O7 0.378608 0.159709 0.611057
O O8 0.595429 0.357814 0.058760
O O9 0.743298 0.350694 0.979638
O O10 0.703832 0.115171 0.235411
O O11 0.820066 0.064092 0.154121
O O12 0.617853 0.081418 0.881264
O O13 0.286743 0.600697 0.609493
O O14 0.096361 0.571960 0.362365
O O15 0.500000 0.435053 0.500000
O O16 0.533106 0.500000 0.751606
O O17 0.495830 0.416433 0.809566
O O18 0.469857 0.000000 0.232172
O O19 0.500000 0.047614 0.000000
#
# Coordination Sequence:
#
# PCOD8108756 Si02
#       8
#     8   8   8   8   8   8   8   8
#     4  11  23  42  69  94 129 170 226 276 335 407
#     4  10  24  44  64  96 130 169 224 281 335 401
#     4  11  24  41  68  93 132 178 214 277 344 395
#     4  11  20  38  64  95 127 174 219 268 333 393
#     4  10  21  38  65  89 128 170 215 271 327 398
#     4  11  22  37  66 102 133 171 225 277 328 402
#     4  11  22  42  63  94 128 172 217 266 341 392
#     4   9  19  35  58  90 124 164 214 267 320 383
#
# _framework density 21.772763999999999
#
# number of rings (size 3 to 8) (size 9 to 14) (size 15 to 20)
#    0.000    1.500    2.500    2.625    0.000    5.000 
#    0.000   14.375    0.000    7.875    0.000    0.000 
#    0.000    0.000    0.000    0.000    0.000    0.000 
#
# Total GULP energy -396719.871724 kJ/mol
# GULP energy per Si atom -12397.495991 kJ/mol
# Density = 2.172321 g / cm^3
# Si number density = 21.772764 Si / 1000 Ang^3
#
#
#
# Elastic Constant Matrix: (Units=GPa)
#
#
# Indices 1 2 3 4 5 6 
#
# 1 104.7035 41.8699 40.1612 0.0000 15.9766 0.0000
# 2 41.8699 126.9739 54.3995 0.0000 12.1674 0.0000
# 3 40.1612 54.3995 107.4884 0.0000 17.0798 0.0000
# 4 0.0000 0.0000 0.0000 26.8704 0.0000 2.9451
# 5 15.9766 12.1674 17.0798 0.0000 36.8618 0.0000
# 6 0.0000 0.0000 0.0000 2.9451 0.0000 29.3622
#
#
#
# Elastic Compliance Matrix: (Units=1/GPa)
#
#
# Indices 1 2 3 4 5 6 
#
# 1 0.012086 -0.002507 -0.002748 0.000000 -0.003137 0.000000
# 2 -0.002507 0.010613 -0.004372 0.000000 -0.000391 0.000000
# 3 -0.002748 -0.004372 0.013088 0.000000 -0.003430 0.000000
# 4 0.000000 0.000000 0.000000 0.037629 0.000000 -0.003774
# 5 -0.003137 -0.000391 -0.003430 0.000000 0.030206 0.000000
# 6 0.000000 0.000000 0.000000 -0.003774 0.000000 0.034436
#
#
# Mechanical properties :
#
#
# Convention : Reuss Voigt Hill
#
# Bulk Modulus (GPa) = 60.49124 68.00300 64.24712
# Shear Modulus (GPa) = 30.70765 32.13455 31.42110
#
# Velocity S-wave (km/s) = 3.75956 3.84592 3.80299
# Velocity P-wave (km/s) = 6.83294 7.14299 6.98968
#
# Compressibility (1/GPa) = 0.01653132
#
# Stress axis : x y z
#
# Youngs Moduli (GPa) = 82.73775 94.22294 76.40561
#
# Poissons Ratio (x) = 0.23625 0.20999
# Poissons Ratio (y) = 0.20746 0.33407
# Poissons Ratio (z) = 0.22739 0.41198
#
# Static dielectric constant tensor:
#      x y z
#    x 4.183150 0.000000 0.225860 
#    y 0.000000 3.995880 0.000000 
#    z 0.225860 0.000000 4.050570 
# 
# 
# High freq. dielectric constant tensor:
#      x y z
#    x 1.871630 0.000000 0.015430 
#    y 0.000000 1.848540 0.000000 
#    z 0.015430 0.000000 1.857490 
# 
# From -- ./inp_files/68279.got.cif
#   From: 2010.06.25/outbox.cif.g09.slc.cpg/sg12_35_cif.got.tgz:68279.got - 2010.06.28 00:19:55.
