data_PCOD8108170
_publ_section_title
;
Structure prediction by ZEFSAII (Michael W. Deem and Ramdas Pophale) SiO2 
 PCOD8108170
Probable space group: C 2/M
;
_chemical_formula_sum "Si O2"
_cell_formula_units_Z 64
_cell_length_a 27.491242
_cell_length_b 9.198379
_cell_length_c 16.465145
_cell_angle_alpha 90.000000
_cell_angle_beta 126.932278
_cell_angle_gamma 90.000000
_cell_volume 3328.175190
_symmetry_space_group_name_H-M "C 2/M"
_symmetry_group_IT_number 12
_symmetry_cell_setting 'monoclinic'
loop_
_space_group_symop_operation_xyz
x,y,z
-x,y,-z
-x,-y,-z
x,-y,z
1/2+x,1/2+y,z
1/2-x,1/2+y,-z
1/2-x,1/2-y,-z
1/2+x,1/2-y,z
loop_
_atom_site_type_symbol
_atom_site_label
_atom_site_fract_x
_atom_site_fract_y
_atom_site_fract_z
Si Si1 0.231343 0.830891 0.318182
Si Si2 0.635554 0.670332 0.785626
Si Si3 0.428544 0.833913 0.420863
Si Si4 0.880206 0.331656 0.065436
Si Si5 0.504953 0.832833 0.098611
Si Si6 0.112226 0.172275 0.294325
Si Si7 0.265375 0.169904 0.847783
Si Si8 0.860651 0.668417 0.516206
O O1 0.172205 0.775254 0.306635
O O2 0.237888 0.748122 0.240968
O O3 0.289425 0.797828 0.432762
O O4 0.227016 0.000000 0.292696
O O5 0.624636 0.500000 0.781037
O O6 0.594086 0.730013 0.672352
O O7 0.613804 0.741818 0.846725
O O8 0.705881 0.708664 0.840180
O O9 0.500000 0.814714 0.500000
O O10 0.397095 0.785039 0.472642
O O11 0.410667 0.000000 0.382167
O O12 0.871436 0.500000 0.079281
O O13 0.939942 0.304463 0.073005
O O14 0.823163 0.273590 0.956267
O O15 0.553624 0.729164 0.188792
O O16 0.525632 0.000000 0.129614
O O17 0.500000 0.789363 0.000000
O O18 0.112916 0.236043 0.385010
O O19 0.109124 0.000000 0.297311
O O20 0.270663 0.000000 0.834849
O O21 0.872022 0.500000 0.548373
#
# Coordination Sequence:
#
# PCOD8108170 Si02
#       8
#     8   8   8   8   8   8   8   8
#     4  10  21  38  60  87 118 156 196 239 295 350
#     4  11  23  38  59  91 123 152 190 241 300 349
#     4  10  22  40  63  87 116 157 199 239 287 347
#     4  10  22  39  61  86 116 156 200 241 284 346
#     4  10  22  42  65  87 114 155 203 242 284 343
#     4  11  24  38  58  89 123 154 190 243 302 350
#     4  10  21  38  61  89 118 152 196 244 292 343
#     4  10  21  39  61  86 117 155 200 241 283 347
#
# _framework density 19.229758
#
# number of rings (size 3 to 8) (size 9 to 14) (size 15 to 20)
#    0.000    1.750    1.250    2.250    1.750    5.000 
#    0.000    0.000    0.000    0.000    0.000    0.000 
#    0.000    0.000    0.000    0.000    0.000    0.000 
#
# Total GULP energy -396995.798209 kJ/mol
# GULP energy per Si atom -12406.118694 kJ/mol
# Density = 1.918599 g / cm^3
# Si number density = 19.229758 Si / 1000 Ang^3
#
#
#
# Elastic Constant Matrix: (Units=GPa)
#
#
# Indices 1 2 3 4 5 6 
#
# 1 89.4917 39.0026 59.5672 0.0000 -9.5462 0.0000
# 2 39.0026 64.5157 61.5572 0.0000 -12.5502 0.0000
# 3 59.5672 61.5572 123.8558 0.0000 -13.8088 0.0000
# 4 0.0000 0.0000 0.0000 44.8168 0.0000 -3.3859
# 5 -9.5462 -12.5502 -13.8088 0.0000 35.0703 0.0000
# 6 0.0000 0.0000 0.0000 -3.3859 0.0000 30.7415
#
#
#
# Elastic Compliance Matrix: (Units=1/GPa)
#
#
# Indices 1 2 3 4 5 6 
#
# 1 0.017186 -0.004644 -0.005880 0.000000 0.000701 0.000000
# 2 -0.004644 0.031597 -0.012918 0.000000 0.004957 0.000000
# 3 -0.005880 -0.012918 0.017392 0.000000 0.000625 0.000000
# 4 0.000000 0.000000 0.000000 0.022500 0.000000 0.002478
# 5 0.000701 0.004957 0.000625 0.000000 0.030725 0.000000
# 6 0.000000 0.000000 0.000000 0.002478 0.000000 0.032802
#
#
# Mechanical properties :
#
#
# Convention : Reuss Voigt Hill
#
# Bulk Modulus (GPa) = 51.83264 66.45746 59.14505
# Shear Modulus (GPa) = 24.32896 29.97480 27.15188
#
# Velocity S-wave (km/s) = 3.56079 3.95241 3.76170
# Velocity P-wave (km/s) = 6.62710 7.44738 7.04918
#
# Compressibility (1/GPa) = 0.01929286
#
# Stress axis : x y z
#
# Youngs Moduli (GPa) = 58.18587 31.64814 57.49876
#
# Poissons Ratio (x) = 0.14696 0.33806
# Poissons Ratio (y) = 0.27019 0.74278
# Poissons Ratio (z) = 0.34210 0.40884
#
# Static dielectric constant tensor:
#      x y z
#    x 3.729900 0.000000 0.095220 
#    y 0.000000 3.479920 0.000000 
#    z 0.095220 0.000000 3.570730 
# 
# 
# High freq. dielectric constant tensor:
#      x y z
#    x 1.764790 0.000000 0.001200 
#    y 0.000000 1.743130 0.000000 
#    z 0.001200 0.000000 1.758390 
# 
# From -- ./inp_files/249969.got.cif
#   From: 2010.06.25/outbox.cif.g09.slc.cpg/sg12_125_cif.got.tgz:249969.got - 2010.06.28 00:19:55.
