data_PCOD8108804
_publ_section_title
;
Structure prediction by ZEFSAII (Michael W. Deem and Ramdas Pophale) SiO2 
 PCOD8108804
Probable space group: C 2/M
;
_chemical_formula_sum "Si O2"
_cell_formula_units_Z 64
_cell_length_a 22.940685
_cell_length_b 18.750997
_cell_length_c 13.741109
_cell_angle_alpha 90.000000
_cell_angle_beta 33.012241
_cell_angle_gamma 90.000000
_cell_volume 3220.357885
_symmetry_space_group_name_H-M "C 2/M"
_symmetry_group_IT_number 12
_symmetry_cell_setting 'monoclinic'
loop_
_space_group_symop_operation_xyz
x,y,z
-x,y,-z
-x,-y,-z
x,-y,z
1/2+x,1/2+y,z
1/2-x,1/2+y,-z
1/2-x,1/2-y,-z
1/2+x,1/2-y,z
loop_
_atom_site_type_symbol
_atom_site_label
_atom_site_fract_x
_atom_site_fract_y
_atom_site_fract_z
Si Si1 0.405855 0.419712 0.701356
Si Si2 0.300445 0.666682 0.522693
Si Si3 0.622438 0.824659 0.302543
Si Si4 0.168460 0.666134 0.529457
Si Si5 0.933719 0.296198 0.830098
Si Si6 0.774811 0.915253 0.204675
Si Si7 0.730031 0.318141 0.219288
Si Si8 0.532061 0.634149 0.184329
O O1 0.500000 0.390695 0.500000
O O2 0.375551 0.500000 0.715830
O O3 0.305503 0.369807 0.818440
O O4 0.438607 0.418182 0.768379
O O5 0.202809 0.641469 0.590247
O O6 0.300907 0.751987 0.526013
O O7 0.286783 0.642749 0.653705
O O8 0.407203 0.629088 0.329165
O O9 0.500000 0.837511 0.500000
O O10 0.632604 0.816689 0.173116
O O11 0.692465 0.893280 0.234469
O O12 0.666996 0.756907 0.300304
O O13 0.234781 0.618377 0.361321
O O14 0.040995 0.656592 0.692827
O O15 0.957303 0.213167 0.788154
O O16 0.857099 0.307269 0.029822
O O17 0.779160 0.000000 0.208047
O O18 0.893048 0.884655 0.012580
#
# Coordination Sequence:
#
# PCOD8108804 Si02
#       8
#     8   8   8   8   8   8   8   8
#     4  11  22  35  55  89 126 153 190 248 311 372
#     4  10  21  38  67  85 117 155 209 264 298 352
#     4  12  20  37  63  91 125 164 210 248 313 375
#     4  10  22  42  57  90 118 159 210 253 301 355
#     4  11  21  35  65  90 123 156 206 257 301 356
#     4  12  25  41  60  91 133 165 202 258 317 385
#     4  12  20  37  62  93 119 156 200 259 307 362
#     4  11  20  38  60  92 119 163 199 250 315 366
#
# _framework density 19.873567000000001
#
# number of rings (size 3 to 8) (size 9 to 14) (size 15 to 20)
#    0.000    0.875    6.250    2.625    0.000    1.250 
#    0.000    6.875    0.000    0.000    0.000    1.750 
#    0.000    0.000    0.000    0.000    0.000    0.000 
#
# Total GULP energy -396788.746401 kJ/mol
# GULP energy per Si atom -12399.648325 kJ/mol
# Density = 1.982833 g / cm^3
# Si number density = 19.873567 Si / 1000 Ang^3
#
#
#
# Elastic Constant Matrix: (Units=GPa)
#
#
# Indices 1 2 3 4 5 6 
#
# 1 116.9951 26.8381 34.5969 0.0000 -6.1888 0.0000
# 2 26.8381 69.0233 28.9499 0.0000 -0.6927 0.0000
# 3 34.5969 28.9499 120.7928 0.0000 -3.6442 0.0000
# 4 0.0000 0.0000 0.0000 20.0458 0.0000 2.7185
# 5 -6.1888 -0.6927 -3.6442 0.0000 16.8559 0.0000
# 6 0.0000 0.0000 0.0000 2.7185 0.0000 11.2865
#
#
#
# Elastic Compliance Matrix: (Units=1/GPa)
#
#
# Indices 1 2 3 4 5 6 
#
# 1 0.010007 -0.002998 -0.002054 0.000000 0.003107 0.000000
# 2 -0.002998 0.017006 -0.003250 0.000000 -0.001105 0.000000
# 3 -0.002054 -0.003250 0.009682 0.000000 0.001206 0.000000
# 4 0.000000 0.000000 0.000000 0.051570 0.000000 -0.012421
# 5 0.003107 -0.001105 0.001206 0.000000 0.060682 0.000000
# 6 0.000000 0.000000 0.000000 -0.012421 0.000000 0.091594
#
#
# Mechanical properties :
#
#
# Convention : Reuss Voigt Hill
#
# Bulk Modulus (GPa) = 49.77573 54.17567 51.97570
# Shear Modulus (GPa) = 18.95067 24.06604 21.50835
#
# Velocity S-wave (km/s) = 3.09133 3.48366 3.29334
# Velocity P-wave (km/s) = 6.15161 6.59549 6.37741
#
# Compressibility (1/GPa) = 0.02009011
#
# Stress axis : x y z
#
# Youngs Moduli (GPa) = 99.93155 58.80325 103.28198
#
# Poissons Ratio (x) = 0.17631 0.21212
# Poissons Ratio (y) = 0.29963 0.33569
# Poissons Ratio (z) = 0.20524 0.19113
#
# Static dielectric constant tensor:
#      x y z
#    x 3.789060 0.000000 -0.096970 
#    y 0.000000 3.303770 0.000000 
#    z -0.096970 0.000000 3.716240 
# 
# 
# High freq. dielectric constant tensor:
#      x y z
#    x 1.770900 0.000000 0.001520 
#    y 0.000000 1.742840 0.000000 
#    z 0.001520 0.000000 1.784400 
# 
# From -- ./inp_files/241453.got.cif
#   From: 2010.06.25/outbox.cif.g09.slc.cpg/sg12_121_cif.got.tgz:241453.got - 2010.06.28 00:19:55.
