data_PCOD8108773
_publ_section_title
;
Structure prediction by ZEFSAII (Michael W. Deem and Ramdas Pophale) SiO2 
 PCOD8108773
Probable space group: C 2/M
;
_chemical_formula_sum "Si O2"
_cell_formula_units_Z 56
_cell_length_a 24.004001
_cell_length_b 13.730614
_cell_length_c 9.406156
_cell_angle_alpha 90.000000
_cell_angle_beta 121.903182
_cell_angle_gamma 90.000000
_cell_volume 2631.867160
_symmetry_space_group_name_H-M "C 2/M"
_symmetry_group_IT_number 12
_symmetry_cell_setting 'monoclinic'
loop_
_space_group_symop_operation_xyz
x,y,z
-x,y,-z
-x,-y,-z
x,-y,z
1/2+x,1/2+y,z
1/2-x,1/2+y,-z
1/2-x,1/2-y,-z
1/2+x,1/2-y,z
loop_
_atom_site_type_symbol
_atom_site_label
_atom_site_fract_x
_atom_site_fract_y
_atom_site_fract_z
Si Si1 0.847793 0.384862 0.730350
Si Si2 0.946746 0.388919 0.304906
Si Si3 0.784848 0.109032 0.592075
Si Si4 0.473476 0.771901 0.809706
Si Si5 0.154509 0.764953 0.766660
Si Si6 0.903667 0.889383 0.544244
Si Si7 0.799640 0.241126 0.867547
O O1 0.854415 0.500000 0.752036
O O2 0.785551 0.349554 0.552599
O O3 0.910915 0.342279 0.736952
O O4 0.835767 0.342560 0.873335
O O5 0.931365 0.500000 0.241451
O O6 0.880612 0.340048 0.276133
O O7 0.000000 0.383583 0.500000
O O8 0.970659 0.331149 0.197877
O O9 0.833832 0.112540 0.526460
O O10 0.816685 0.167497 0.764163
O O11 0.774436 0.000000 0.633052
O O12 0.457015 0.673001 0.703122
O O13 0.500000 0.742217 0.000000
O O14 0.107228 0.843383 0.626985
O O15 0.221804 0.753387 0.772364
O O16 0.169805 0.801387 0.946830
O O17 0.929884 0.000000 0.563841
#
# Coordination Sequence:
#
# PCOD8108773 Si02
#       7
#     8   8   8   8   8   8   8
#     4  11  22  39  68  99 131 167 209 265 325 380
#     4  11  25  44  65  92 130 174 216 257 310 384
#     4  10  21  38  65  95 125 163 212 267 321 376
#     4  12  25  43  68  95 129 169 217 267 315 377
#     4  11  24  41  63  92 133 173 209 261 324 381
#     4  11  23  44  68  91 126 168 215 270 325 378
#     4  11  22  38  64  97 130 166 211 266 321 382
#
# _framework density 21.277671000000002
#
# number of rings (size 3 to 8) (size 9 to 14) (size 15 to 20)
#    0.000    1.000    4.286    2.571    0.000    4.286 
#    0.000    4.286    0.000    0.000    0.000    0.000 
#    0.000    0.000    0.000    0.000    0.000    0.000 
#
# Total GULP energy -347313.297326 kJ/mol
# GULP energy per Si atom -12404.046333 kJ/mol
# Density = 2.122924 g / cm^3
# Si number density = 21.277671 Si / 1000 Ang^3
#
#
#
# Elastic Constant Matrix: (Units=GPa)
#
#
# Indices 1 2 3 4 5 6 
#
# 1 73.6992 44.6013 5.1183 0.0000 -2.0021 0.0000
# 2 44.6013 137.9844 63.1967 0.0000 -6.8962 0.0000
# 3 5.1183 63.1967 121.3516 0.0000 -12.1353 0.0000
# 4 0.0000 0.0000 0.0000 15.4888 0.0000 -0.1743
# 5 -2.0021 -6.8962 -12.1353 0.0000 30.4522 0.0000
# 6 0.0000 0.0000 0.0000 -0.1743 0.0000 31.5542
#
#
#
# Elastic Compliance Matrix: (Units=1/GPa)
#
#
# Indices 1 2 3 4 5 6 
#
# 1 0.017639 -0.007036 0.002996 0.000000 0.000760 0.000000
# 2 -0.007036 0.012325 -0.006133 0.000000 -0.000116 0.000000
# 3 0.002996 -0.006133 0.011653 0.000000 0.003452 0.000000
# 4 0.000000 0.000000 0.000000 0.064567 0.000000 0.000357
# 5 0.000760 -0.000116 0.003452 0.000000 0.034238 0.000000
# 6 0.000000 0.000000 0.000000 0.000357 0.000000 0.031693
#
#
# Mechanical properties :
#
#
# Convention : Reuss Voigt Hill
#
# Bulk Modulus (GPa) = 47.01136 62.09642 54.55389
# Shear Modulus (GPa) = 25.05624 30.17365 27.61495
#
# Velocity S-wave (km/s) = 3.43532 3.76984 3.60646
# Velocity P-wave (km/s) = 6.15446 6.94234 6.56024
#
# Compressibility (1/GPa) = 0.02127145
#
# Stress axis : x y z
#
# Youngs Moduli (GPa) = 56.69196 81.13850 85.81241
#
# Poissons Ratio (x) = 0.57088 -0.25710
# Poissons Ratio (y) = 0.39887 0.52630
# Poissons Ratio (z) = -0.16986 0.49763
#
# Static dielectric constant tensor:
#      x y z
#    x 3.853530 0.000000 -0.006690 
#    y 0.000000 3.955400 0.000000 
#    z -0.006690 0.000000 3.862810 
# 
# 
# High freq. dielectric constant tensor:
#      x y z
#    x 1.835960 0.000000 -0.001000 
#    y 0.000000 1.830120 0.000000 
#    z -0.001000 0.000000 1.842350 
# 
# From -- ./inp_files/96981.got.cif
#   From: 2010.06.25/outbox.cif.g09.slc.cpg/sg12_49_cif.got.tgz:96981.got - 2010.06.28 00:19:55.
