data_PCOD8108994
_publ_section_title
;
Structure prediction by ZEFSAII (Michael W. Deem and Ramdas Pophale) SiO2 
 PCOD8108994
Probable space group: C 2/M
;
_chemical_formula_sum "Si O2"
_cell_formula_units_Z 64
_cell_length_a 9.633271
_cell_length_b 14.971923
_cell_length_c 22.863253
_cell_angle_alpha 90.000000
_cell_angle_beta 82.594723
_cell_angle_gamma 90.000000
_cell_volume 3270.031019
_symmetry_space_group_name_H-M "C 2/M"
_symmetry_group_IT_number 12
_symmetry_cell_setting 'monoclinic'
loop_
_space_group_symop_operation_xyz
x,y,z
-x,y,-z
-x,-y,-z
x,-y,z
1/2+x,1/2+y,z
1/2-x,1/2+y,-z
1/2-x,1/2-y,-z
1/2+x,1/2-y,z
loop_
_atom_site_type_symbol
_atom_site_label
_atom_site_fract_x
_atom_site_fract_y
_atom_site_fract_z
Si Si1 0.151918 0.401153 0.743822
Si Si2 0.526531 0.353330 0.274584
Si Si3 0.713365 0.761314 0.090207
Si Si4 0.332814 0.894190 0.008379
Si Si5 0.387452 0.274728 0.458468
Si Si6 0.563209 0.742508 0.830309
Si Si7 0.297051 0.403692 0.365720
Si Si8 0.491822 0.824391 0.651185
O O1 0.123302 0.500000 0.770036
O O2 0.317297 0.388366 0.728145
O O3 0.083298 0.333737 0.793366
O O4 0.082018 0.395560 0.683133
O O5 0.486476 0.337333 0.209144
O O6 0.414758 0.420086 0.309456
O O7 0.503383 0.264505 0.312131
O O8 0.732650 0.844526 0.044824
O O9 0.549498 0.754642 0.112392
O O10 0.792586 0.785488 0.146167
O O11 0.770504 0.664456 0.065226
O O12 0.287474 0.000000 0.013607
O O13 0.500000 0.887591 0.000000
O O14 0.500000 0.303227 0.500000
O O15 0.250000 0.250000 0.500000
O O16 0.361651 0.359660 0.419512
O O17 0.439504 0.190639 0.416427
O O18 0.238797 0.500000 0.387778
O O19 0.170148 0.347927 0.345896
#
# Coordination Sequence:
#
# PCOD8108994 Si02
#       8
#     8   8   8   8   8   8   8   8
#     4  11  23  38  60  90 120 155 199 245 295 360
#     4  10  21  39  61  85 118 159 197 235 292 362
#     4  11  22  41  64  92 125 160 202 257 299 350
#     4  10  22  41  66  91 121 166 208 245 301 362
#     4  11  22  40  64  85 110 155 203 240 288 359
#     4  11  22  39  63  89 121 161 200 243 301 355
#     4  11  23  39  59  88 121 151 190 247 299 343
#     4  10  21  39  62  82 117 159 195 232 296 369
#
# _framework density 19.571679
#
# number of rings (size 3 to 8) (size 9 to 14) (size 15 to 20)
#    0.000    1.375    3.750    3.000    3.500    1.250 
#    0.000    4.375    0.000    0.000    0.000    0.000 
#    0.000    0.000    0.000    0.000    0.000    0.000 
#
# Total GULP energy -396725.362780 kJ/mol
# GULP energy per Si atom -12397.667587 kJ/mol
# Density = 1.952713 g / cm^3
# Si number density = 19.571679 Si / 1000 Ang^3
#
#
#
# Elastic Constant Matrix: (Units=GPa)
#
#
# Indices 1 2 3 4 5 6 
#
# 1 94.2594 24.7449 35.2361 0.0000 2.4539 0.0000
# 2 24.7449 70.3823 24.3662 0.0000 -5.2741 0.0000
# 3 35.2361 24.3662 98.5866 0.0000 7.7986 0.0000
# 4 0.0000 0.0000 0.0000 13.8509 0.0000 -4.4294
# 5 2.4539 -5.2741 7.7986 0.0000 46.0763 0.0000
# 6 0.0000 0.0000 0.0000 -4.4294 0.0000 -2.8028
#
#
#
# Elastic Compliance Matrix: (Units=1/GPa)
#
#
# Indices 1 2 3 4 5 6 
#
# 1 0.012883 -0.003257 -0.003766 0.000000 -0.000421 0.000000
# 2 -0.003257 0.016641 -0.003156 0.000000 0.002612 0.000000
# 3 -0.003766 -0.003156 0.012449 0.000000 -0.002268 0.000000
# 4 0.000000 0.000000 0.000000 0.047959 0.000000 -0.075793
# 5 -0.000421 0.002612 -0.002268 0.000000 0.022408 0.000000
# 6 0.000000 0.000000 0.000000 -0.075793 0.000000 -0.237007
#
#
# Mechanical properties :
#
#
# Convention : Reuss Voigt Hill
#
# Bulk Modulus (GPa) = 46.26316 47.99142 47.12729
# Shear Modulus (GPa) = -51.49143 23.35027 -14.07058
#
# Velocity S-wave (km/s) = -5.13481 3.45782 -2.68419
# Velocity P-wave (km/s) = 3.38613 6.36523 3.81118
#
# Compressibility (1/GPa) = 0.02161547
#
# Stress axis : x y z
#
# Youngs Moduli (GPa) = 77.62215 60.09090 80.32946
#
# Poissons Ratio (x) = 0.19572 0.30253
# Poissons Ratio (y) = 0.25282 0.25348
# Poissons Ratio (z) = 0.29234 0.18962
#
# Static dielectric constant tensor:
#      x y z
#    x 3.680870 0.000000 -0.001510 
#    y 0.000000 3.495340 0.000000 
#    z -0.001510 0.000000 3.770770 
# 
# 
# High freq. dielectric constant tensor:
#      x y z
#    x 1.775960 0.000000 0.004610 
#    y 0.000000 1.748880 0.000000 
#    z 0.004610 0.000000 1.768360 
# 
# From -- ./inp_files/332969.got.cif
#   From: 2010.06.25/outbox.cif.g09.slc.cpg/sg12_167_cif.got.tgz:332969.got - 2010.06.28 00:19:55.
