data_PCOD8108251
_publ_section_title
;
Structure prediction by ZEFSAII (Michael W. Deem and Ramdas Pophale) SiO2 
 PCOD8108251
Probable space group: C 2/M
;
_chemical_formula_sum "Si O2"
_cell_formula_units_Z 64
_cell_length_a 30.245056
_cell_length_b 8.943119
_cell_length_c 18.721679
_cell_angle_alpha 90.000000
_cell_angle_beta 140.396460
_cell_angle_gamma 90.000000
_cell_volume 3228.115274
_symmetry_space_group_name_H-M "C 2/M"
_symmetry_group_IT_number 12
_symmetry_cell_setting 'monoclinic'
loop_
_space_group_symop_operation_xyz
x,y,z
-x,y,-z
-x,-y,-z
x,-y,z
1/2+x,1/2+y,z
1/2-x,1/2+y,-z
1/2-x,1/2-y,-z
1/2+x,1/2-y,z
loop_
_atom_site_type_symbol
_atom_site_label
_atom_site_fract_x
_atom_site_fract_y
_atom_site_fract_z
Si Si1 0.605827 0.825013 0.678575
Si Si2 0.226813 0.829772 0.310626
Si Si3 0.360724 0.327988 0.531937
Si Si4 0.759271 0.177750 0.088567
Si Si5 0.837132 0.827874 0.920374
Si Si6 0.542922 0.826257 0.450537
Si Si7 0.391260 0.673785 0.729912
Si Si8 0.521375 0.174896 0.946449
O O1 0.668926 0.728096 0.786259
O O2 0.586934 0.774877 0.574639
O O3 0.538518 0.791803 0.643223
O O4 0.625905 0.000000 0.706360
O O5 0.293302 0.733337 0.409774
O O6 0.213006 0.813659 0.209845
O O7 0.161436 0.770431 0.274577
O O8 0.242099 0.000000 0.351799
O O9 0.365314 0.500000 0.519884
O O10 0.430197 0.255948 0.586346
O O11 0.355536 0.296702 0.609516
O O12 0.694526 0.230674 0.055420
O O13 0.758031 0.000000 0.080144
O O14 0.750000 0.250000 0.000000
O O15 0.843683 0.000000 0.952753
O O16 0.911987 0.767175 0.993313
O O17 0.555304 0.000000 0.455356
O O18 0.411244 0.500000 0.765569
O O19 0.459383 0.775298 0.817667
O O20 0.536493 0.000000 0.956667
O O21 0.500000 0.218099 0.000000
#
# Coordination Sequence:
#
# PCOD8108251 Si02
#       8
#     8   8   8   8   8   8   8   8
#     4   9  19  39  64  88 115 154 201 246 294 356
#     4  10  21  38  61  84 114 158 204 243 295 361
#     4  11  23  35  54  86 123 155 194 246 298 353
#     4  12  26  43  63  90 125 161 200 251 307 363
#     4  11  23  41  67  92 118 160 207 250 301 365
#     4   9  19  37  62  87 116 155 197 240 295 361
#     4  10  22  40  58  82 117 162 204 243 298 361
#     4  11  23  39  62  92 122 154 200 257 307 356
#
# _framework density 19.825809
#
# number of rings (size 3 to 8) (size 9 to 14) (size 15 to 20)
#    0.000    1.625    1.250    4.125    0.000    8.000 
#    0.000    3.750    0.000    0.000    0.000    0.000 
#    0.000    0.000    0.000    0.000    0.000    0.000 
#
# Total GULP energy -396943.578260 kJ/mol
# GULP energy per Si atom -12404.486821 kJ/mol
# Density = 1.978068 g / cm^3
# Si number density = 19.825809 Si / 1000 Ang^3
#
#
#
# Elastic Constant Matrix: (Units=GPa)
#
#
# Indices 1 2 3 4 5 6 
#
# 1 113.0398 56.5912 37.1323 0.0000 -0.6839 0.0000
# 2 56.5912 95.3588 38.6147 0.0000 3.5126 0.0000
# 3 37.1323 38.6147 59.2663 0.0000 13.3557 0.0000
# 4 0.0000 0.0000 0.0000 23.7618 0.0000 -2.7737
# 5 -0.6839 3.5126 13.3557 0.0000 27.8074 0.0000
# 6 0.0000 0.0000 0.0000 -2.7737 0.0000 32.7740
#
#
#
# Elastic Compliance Matrix: (Units=1/GPa)
#
#
# Indices 1 2 3 4 5 6 
#
# 1 0.013697 -0.006045 -0.005485 0.000000 0.003735 0.000000
# 2 -0.006045 0.017137 -0.007689 0.000000 0.001380 0.000000
# 3 -0.005485 -0.007689 0.028181 0.000000 -0.012699 0.000000
# 4 0.000000 0.000000 0.000000 0.042504 0.000000 0.003597
# 5 0.003735 0.001380 -0.012699 0.000000 0.041978 0.000000
# 6 0.000000 0.000000 0.000000 0.003597 0.000000 0.030816
#
#
# Mechanical properties :
#
#
# Convention : Reuss Voigt Hill
#
# Bulk Modulus (GPa) = 48.59724 59.14904 53.87314
# Shear Modulus (GPa) = 22.76763 25.89043 24.32903
#
# Velocity S-wave (km/s) = 3.39246 3.61764 3.50686
# Velocity P-wave (km/s) = 6.31746 6.88105 6.60527
#
# Compressibility (1/GPa) = 0.02057730
#
# Stress axis : x y z
#
# Youngs Moduli (GPa) = 73.00822 58.35321 35.48552
#
# Poissons Ratio (x) = 0.35276 0.19462
# Poissons Ratio (y) = 0.44135 0.27284
# Poissons Ratio (z) = 0.40042 0.44867
#
# Static dielectric constant tensor:
#      x y z
#    x 3.795670 0.000000 -0.028680 
#    y 0.000000 3.582600 0.000000 
#    z -0.028680 0.000000 3.554480 
# 
# 
# High freq. dielectric constant tensor:
#      x y z
#    x 1.786700 0.000000 0.004400 
#    y 0.000000 1.772060 0.000000 
#    z 0.004400 0.000000 1.772940 
# 
# From -- ./inp_files/295784.got.cif
#   From: 2010.06.25/outbox.cif.g09.slc.cpg/sg12_148_cif.got.tgz:295784.got - 2010.06.28 00:19:55.
