data_PCOD8108158
_publ_section_title
;
Structure prediction by ZEFSAII (Michael W. Deem and Ramdas Pophale) SiO2 
 PCOD8108158
Probable space group: C 2/M
;
_chemical_formula_sum "Si O2"
_cell_formula_units_Z 48
_cell_length_a 29.379812
_cell_length_b 8.944094
_cell_length_c 14.585053
_cell_angle_alpha 90.000000
_cell_angle_beta 38.709259
_cell_angle_gamma 90.000000
_cell_volume 2396.787690
_symmetry_space_group_name_H-M "C 2/M"
_symmetry_group_IT_number 12
_symmetry_cell_setting 'monoclinic'
loop_
_space_group_symop_operation_xyz
x,y,z
-x,y,-z
-x,-y,-z
x,-y,z
1/2+x,1/2+y,z
1/2-x,1/2+y,-z
1/2-x,1/2-y,-z
1/2+x,1/2-y,z
loop_
_atom_site_type_symbol
_atom_site_label
_atom_site_fract_x
_atom_site_fract_y
_atom_site_fract_z
Si Si1 0.039293 0.673561 0.531890
Si Si2 0.796149 0.675668 0.006166
Si Si3 0.932327 0.177816 0.047524
Si Si4 0.941032 0.176904 0.824800
Si Si5 0.221151 0.171884 0.635232
Si Si6 0.293740 0.170004 0.706699
O O1 0.023147 0.500000 0.577586
O O2 0.124919 0.704247 0.388521
O O3 0.000000 0.725315 0.500000
O O4 0.013740 0.772900 0.658000
O O5 0.799258 0.500000 0.986305
O O6 0.876601 0.741205 0.872369
O O7 0.750000 0.750000 0.000000
O O8 0.760994 0.716271 0.158718
O O9 0.856305 0.239504 0.208607
O O10 0.931244 0.000000 0.050665
O O11 0.942944 0.233491 0.926682
O O12 0.000000 0.240888 0.000000
O O13 0.931017 0.000000 0.834930
O O14 0.250000 0.250000 0.500000
O O15 0.283158 0.193708 0.614910
O O16 0.209331 0.000000 0.629188
O O17 0.271553 0.000000 0.767919
#
# Coordination Sequence:
#
# PCOD8108158 Si02
#       6
#     8   8   8   8   8   8
#     4  10  22  39  59  85 120 160 199 245 305 364
#     4  12  24  39  63  91 121 156 201 250 303 366
#     4   9  19  37  60  86 118 157 198 246 301 356
#     4  11  22  39  63  89 122 159 203 251 302 360
#     4  10  21  38  60  86 120 156 199 249 304 363
#     4  10  21  40  61  85 123 162 199 251 309 360
#
# _framework density 20.026805
#
# number of rings (size 3 to 8) (size 9 to 14) (size 15 to 20)
#    0.000    1.667    1.667    3.000    2.333    3.000 
#    0.000    0.000    0.000    2.500    0.000    0.000 
#    0.000    0.000    0.000    0.000    0.000    0.000 
#
# Total GULP energy -297675.777115 kJ/mol
# GULP energy per Si atom -12403.157380 kJ/mol
# Density = 1.998122 g / cm^3
# Si number density = 20.026805 Si / 1000 Ang^3
#
#
#
# Elastic Constant Matrix: (Units=GPa)
#
#
# Indices 1 2 3 4 5 6 
#
# 1 101.9989 20.4869 25.2480 0.0000 -5.7794 0.0000
# 2 20.4869 75.0213 26.2907 0.0007 4.1360 -0.0002
# 3 25.2480 26.2907 90.4813 0.0002 9.5771 -0.0001
# 4 0.0000 0.0007 0.0002 37.6407 0.0000 5.1076
# 5 -5.7794 4.1360 9.5771 0.0000 38.9880 0.0000
# 6 0.0000 -0.0002 -0.0001 5.1076 0.0000 24.0983
#
#
#
# Elastic Compliance Matrix: (Units=1/GPa)
#
#
# Indices 1 2 3 4 5 6 
#
# 1 0.011064 -0.002210 -0.002714 0.000000 0.002541 0.000000
# 2 -0.002210 0.015293 -0.003717 0.000000 -0.001037 0.000000
# 3 -0.002714 -0.003717 0.013234 0.000000 -0.003259 0.000000
# 4 0.000000 0.000000 0.000000 0.027354 0.000000 -0.005798
# 5 0.002541 -0.001037 -0.003259 0.000000 0.026936 0.000000
# 6 0.000000 0.000000 0.000000 -0.005798 0.000000 0.042725
#
#
# Mechanical properties :
#
#
# Convention : Reuss Voigt Hill
#
# Bulk Modulus (GPa) = 44.82641 45.72810 45.27726
# Shear Modulus (GPa) = 30.99331 33.17713 32.08522
#
# Velocity S-wave (km/s) = 3.93821 4.07460 4.00698
# Velocity P-wave (km/s) = 6.56591 6.70965 6.63817
#
# Compressibility (1/GPa) = 0.02230828
#
# Stress axis : x y z
#
# Youngs Moduli (GPa) = 90.38519 65.38964 75.56114
#
# Poissons Ratio (x) = 0.14453 0.20507
# Poissons Ratio (y) = 0.19978 0.28087
# Poissons Ratio (z) = 0.24530 0.24306
#
# Static dielectric constant tensor:
#      x y z
#    x 3.941560 0.000000 -0.054820 
#    y 0.000000 3.566760 0.000000 
#    z -0.054820 0.000000 3.766650 
# 
# 
# High freq. dielectric constant tensor:
#      x y z
#    x 1.795350 0.000000 -0.001510 
#    y 0.000000 1.756660 0.000000 
#    z -0.001510 0.000000 1.789210 
# 
# From -- ./inp_files/244595.got.cif
#   From: 2010.06.25/outbox.cif.g09.slc.cpg/sg12_123_cif.got.tgz:244595.got - 2010.06.28 00:19:55.
