data_PCOD8108775
_publ_section_title
;
Structure prediction by ZEFSAII (Michael W. Deem and Ramdas Pophale) SiO2 
 PCOD8108775
Probable space group: C 2/M
;
_chemical_formula_sum "Si O2"
_cell_formula_units_Z 64
_cell_length_a 15.066137
_cell_length_b 8.464165
_cell_length_c 23.361963
_cell_angle_alpha 90.000000
_cell_angle_beta 94.156150
_cell_angle_gamma 90.000000
_cell_volume 2971.336027
_symmetry_space_group_name_H-M "C 2/M"
_symmetry_group_IT_number 12
_symmetry_cell_setting 'monoclinic'
loop_
_space_group_symop_operation_xyz
x,y,z
-x,y,-z
-x,-y,-z
x,-y,z
1/2+x,1/2+y,z
1/2-x,1/2+y,-z
1/2-x,1/2-y,-z
1/2+x,1/2-y,z
loop_
_atom_site_type_symbol
_atom_site_label
_atom_site_fract_x
_atom_site_fract_y
_atom_site_fract_z
Si Si1 0.228168 0.316172 0.560733
Si Si2 0.573317 0.317575 0.625980
Si Si3 0.336831 0.819691 0.760005
Si Si4 0.887352 0.680252 0.636293
Si Si5 0.236223 0.185072 0.062255
Si Si6 0.104429 0.185596 0.859330
Si Si7 0.926096 0.316007 0.882628
Si Si8 0.648670 0.181666 0.743354
O O1 0.207305 0.500000 0.556352
O O2 0.250000 0.250000 0.500000
O O3 0.140057 0.229738 0.578761
O O4 0.310421 0.289437 0.607159
O O5 0.549459 0.500000 0.619394
O O6 0.482363 0.221105 0.613744
O O7 0.618694 0.287006 0.688957
O O8 0.393127 0.792299 0.704865
O O9 0.399768 0.779050 0.816002
O O10 0.253406 0.703257 0.758231
O O11 0.301612 0.000000 0.762190
O O12 0.863174 0.500000 0.620288
O O13 0.300714 0.276461 0.108528
O O14 0.135572 0.219493 0.076672
O O15 0.256670 0.000000 0.065380
O O16 0.250000 0.250000 0.000000
O O17 0.095624 0.267759 0.797295
O O18 0.026552 0.254363 0.896048
O O19 0.094165 0.000000 0.851457
O O20 0.919960 0.500000 0.897539
O O21 0.627179 0.000000 0.728433
#
# Coordination Sequence:
#
# PCOD8108775 Si02
#       8
#     8   8   8   8   8   8   8   8
#     4  12  26  46  69  96 129 171 221 272 327 386
#     4  12  25  43  67  98 135 174 217 267 324 387
#     4  10  21  38  65  96 134 172 211 260 325 390
#     4  11  23  42  68 100 135 172 215 267 326 388
#     4  12  26  46  69  96 129 171 221 272 327 386
#     4  12  25  43  67  98 135 174 217 267 324 387
#     4  11  23  42  68 100 135 172 215 267 326 388
#     4  12  23  38  65  98 134 174 217 264 323 388
#
# _framework density 21.539131000000001
#
# number of rings (size 3 to 8) (size 9 to 14) (size 15 to 20)
#    0.000    0.500    2.500    7.125    0.000    3.000 
#    0.000    5.000    0.000    0.000    0.000    0.000 
#    0.000    0.000    0.000    0.000    0.000    0.000 
#
# Total GULP energy -397095.646167 kJ/mol
# GULP energy per Si atom -12409.238943 kJ/mol
# Density = 2.149011 g / cm^3
# Si number density = 21.539131 Si / 1000 Ang^3
#
#
#
# Elastic Constant Matrix: (Units=GPa)
#
#
# Indices 1 2 3 4 5 6 
#
# 1 102.7525 14.2570 12.4644 0.0000 -30.0905 0.0000
# 2 14.2570 98.2000 27.0783 0.0000 -4.9082 0.0000
# 3 12.4644 27.0783 94.6435 0.0000 -29.5203 0.0000
# 4 0.0000 0.0000 0.0000 33.3275 0.0000 -2.2161
# 5 -30.0905 -4.9082 -29.5203 0.0000 30.8506 0.0000
# 6 0.0000 0.0000 0.0000 -2.2161 0.0000 41.1550
#
#
#
# Elastic Compliance Matrix: (Units=1/GPa)
#
#
# Indices 1 2 3 4 5 6 
#
# 1 0.014949 -0.002491 0.004516 0.000000 0.018506 0.000000
# 2 -0.002491 0.011542 -0.004503 0.000000 -0.004902 0.000000
# 3 0.004516 -0.004503 0.017690 0.000000 0.020615 0.000000
# 4 0.000000 0.000000 0.000000 0.030113 0.000000 0.001621
# 5 0.018506 -0.004902 0.020615 0.000000 0.069411 0.000000
# 6 0.000000 0.000000 0.000000 0.001621 0.000000 0.024386
#
#
# Mechanical properties :
#
#
# Convention : Reuss Voigt Hill
#
# Bulk Modulus (GPa) = 25.49402 44.79950 35.14676
# Shear Modulus (GPa) = 26.86430 37.18637 32.02534
#
# Velocity S-wave (km/s) = 3.53545 4.15957 3.86015
# Velocity P-wave (km/s) = 5.34113 6.62674 6.01836
#
# Compressibility (1/GPa) = 0.03922489
#
# Stress axis : x y z
#
# Youngs Moduli (GPa) = 66.89301 86.64292 56.53007
#
# Poissons Ratio (x) = 0.21580 -0.25529
# Poissons Ratio (y) = 0.16661 0.25456
# Poissons Ratio (z) = -0.30209 0.39017
#
# Static dielectric constant tensor:
#      x y z
#    x 3.948870 0.000000 -0.143220 
#    y 0.000000 3.837710 0.000000 
#    z -0.143220 0.000000 3.847550 
# 
# 
# High freq. dielectric constant tensor:
#      x y z
#    x 1.855940 0.000000 -0.011770 
#    y 0.000000 1.855530 0.000000 
#    z -0.011770 0.000000 1.843060 
# 
# From -- ./inp_files/338837.got.cif
#   From: 2010.06.25/outbox.cif.g09.slc.cpg/sg12_170_cif.got.tgz:338837.got - 2010.06.28 00:19:55.
