data_PCOD8108446
_publ_section_title
;
Structure prediction by ZEFSAII (Michael W. Deem and Ramdas Pophale) SiO2 
 PCOD8108446
Probable space group: C 2/M
;
_chemical_formula_sum "Si O2"
_cell_formula_units_Z 40
_cell_length_a 11.487617
_cell_length_b 18.654970
_cell_length_c 12.142978
_cell_angle_alpha 90.000000
_cell_angle_beta 44.345731
_cell_angle_gamma 90.000000
_cell_volume 1818.939998
_symmetry_space_group_name_H-M "C 2/M"
_symmetry_group_IT_number 12
_symmetry_cell_setting 'monoclinic'
loop_
_space_group_symop_operation_xyz
x,y,z
-x,y,-z
-x,-y,-z
x,-y,z
1/2+x,1/2+y,z
1/2-x,1/2+y,-z
1/2-x,1/2-y,-z
1/2+x,1/2-y,z
loop_
_atom_site_type_symbol
_atom_site_label
_atom_site_fract_x
_atom_site_fract_y
_atom_site_fract_z
Si Si1 0.521813 0.292801 0.363185
Si Si2 0.648524 0.210021 0.970631
Si Si3 0.480443 0.148335 0.744317
Si Si4 0.200773 0.918808 0.557624
Si Si5 0.180028 0.918074 0.828251
O O1 0.500000 0.262089 0.500000
O O2 0.712820 0.315711 0.209672
O O3 0.457048 0.229081 0.327413
O O4 0.415932 0.364879 0.428039
O O5 0.500000 0.250029 0.000000
O O6 0.750000 0.250000 0.000000
O O7 0.553769 0.145062 0.100298
O O8 0.611464 0.089713 0.614593
O O9 0.305331 0.136464 0.801262
O O10 0.185484 0.900617 0.696096
O O11 0.143485 0.000000 0.573497
O O12 0.234547 0.000000 0.814169
O O13 0.000000 0.902778 0.000000
#
# Coordination Sequence:
#
# PCOD8108446 Si02
#       5
#     8   8   8   8   8
#     4  11  23  39  62  89 123 162 209 261 320 380
#     4  10  23  41  63  94 130 166 208 260 317 379
#     4  11  22  38  64  92 124 161 209 264 321 377
#     4  11  23  39  60  88 124 167 215 264 316 377
#     4  10  21  38  61  92 129 168 212 263 320 380
#
# _framework density 21.990829000000002
#
# number of rings (size 3 to 8) (size 9 to 14) (size 15 to 20)
#    0.000    1.400    0.000    5.400    0.000   13.200 
#    0.000    1.000    0.000    4.200    0.000    0.000 
#    0.000    0.000    0.000    0.000    0.000    0.000 
#
# Total GULP energy -247890.232247 kJ/mol
# GULP energy per Si atom -12394.511612 kJ/mol
# Density = 2.194078 g / cm^3
# Si number density = 21.990829 Si / 1000 Ang^3
#
#
#
# Elastic Constant Matrix: (Units=GPa)
#
#
# Indices 1 2 3 4 5 6 
#
# 1 95.6824 15.7912 27.1842 0.0002 -15.3177 0.0006
# 2 15.7912 73.7277 9.7941 0.0013 -0.4166 0.0003
# 3 27.1842 9.7941 172.4391 0.0011 5.4238 0.0019
# 4 0.0002 0.0013 0.0011 19.1787 -0.0009 -5.6798
# 5 -15.3177 -0.4166 5.4238 -0.0009 36.5057 -0.0012
# 6 0.0006 0.0003 0.0019 -5.6798 -0.0012 31.0600
#
#
#
# Elastic Compliance Matrix: (Units=1/GPa)
#
#
# Indices 1 2 3 4 5 6 
#
# 1 0.012263 -0.002334 -0.001971 0.000000 0.005412 0.000000
# 2 -0.002334 0.014113 -0.000410 -0.000001 -0.000757 0.000000
# 3 -0.001971 -0.000410 0.006188 -0.000001 -0.001751 0.000000
# 4 0.000000 -0.000001 -0.000001 0.055127 0.000002 0.010081
# 5 0.005412 -0.000757 -0.001751 0.000002 0.029915 0.000002
# 6 0.000000 0.000000 0.000000 0.010081 0.000002 0.034039
#
#
# Mechanical properties :
#
#
# Convention : Reuss Voigt Hill
#
# Bulk Modulus (GPa) = 43.22458 49.70978 46.46718
# Shear Modulus (GPa) = 29.62321 36.62086 33.12204
#
# Velocity S-wave (km/s) = 3.67423 4.08521 3.88516
# Velocity P-wave (km/s) = 6.13990 6.70118 6.42667
#
# Compressibility (1/GPa) = 0.02313499
#
# Stress axis : x y z
#
# Youngs Moduli (GPa) = 81.54807 70.85415 161.59821
#
# Poissons Ratio (x) = 0.16538 0.31848
# Poissons Ratio (y) = 0.19034 0.06623
# Poissons Ratio (z) = 0.16071 0.02904
#
# Static dielectric constant tensor:
#      x y z
#    x 3.806200 0.000000 0.032710 
#    y 0.000000 3.764070 0.000000 
#    z 0.032710 0.000000 4.764450 
# 
# 
# High freq. dielectric constant tensor:
#      x y z
#    x 1.853190 0.000000 -0.001560 
#    y 0.000000 1.839710 0.000000 
#    z -0.001560 0.000000 1.900660 
# 
# From -- ./inp_files/47153.got.cif
#   From: 2010.06.25/outbox.cif.g09.slc.cpg/sg12_24_cif.got.tgz:47153.got - 2010.06.28 00:19:55.
