data_PCOD8108160
_publ_section_title
;
Structure prediction by ZEFSAII (Michael W. Deem and Ramdas Pophale) SiO2 
 PCOD8108160
Probable space group: C 2/M
;
_chemical_formula_sum "Si O2"
_cell_formula_units_Z 64
_cell_length_a 15.170213
_cell_length_b 16.824287
_cell_length_c 24.977613
_cell_angle_alpha 90.000000
_cell_angle_beta 30.125135
_cell_angle_gamma 90.000000
_cell_volume 3199.543455
_symmetry_space_group_name_H-M "C 2/M"
_symmetry_group_IT_number 12
_symmetry_cell_setting 'monoclinic'
loop_
_space_group_symop_operation_xyz
x,y,z
-x,y,-z
-x,-y,-z
x,-y,z
1/2+x,1/2+y,z
1/2-x,1/2+y,-z
1/2-x,1/2-y,-z
1/2+x,1/2-y,z
loop_
_atom_site_type_symbol
_atom_site_label
_atom_site_fract_x
_atom_site_fract_y
_atom_site_fract_z
Si Si1 0.382446 0.828727 0.186901
Si Si2 0.301653 0.093749 0.590259
Si Si3 0.206661 0.910546 0.892164
Si Si4 0.490811 0.315307 0.812203
Si Si5 0.954514 0.093465 0.582834
Si Si6 0.767581 0.588620 0.983454
Si Si7 0.682138 0.743337 0.199691
Si Si8 0.652813 0.672942 0.568040
O O1 0.428297 0.763604 0.206604
O O2 0.224820 0.876145 0.297113
O O3 0.546631 0.885585 0.089976
O O4 0.345024 0.792106 0.147648
O O5 0.500000 0.121604 0.500000
O O6 0.266728 0.118905 0.547784
O O7 0.154773 0.133916 0.704635
O O8 0.281609 0.000000 0.607604
O O9 0.278552 0.905166 0.914095
O O10 0.302591 0.840109 0.808548
O O11 0.246492 0.000000 0.847868
O O12 0.000000 0.894177 0.000000
O O13 0.339127 0.292851 0.848686
O O14 0.394768 0.360287 0.910476
O O15 0.000000 0.128830 0.500000
O O16 0.113902 0.117970 0.537538
O O17 0.939666 0.000000 0.586790
O O18 0.730372 0.500000 0.022730
O O19 0.516424 0.711551 0.317591
O O20 0.750000 0.750000 0.500000
#
# Coordination Sequence:
#
# PCOD8108160 Si02
#       8
#     8   8   8   8   8   8   8   8
#     4  11  23  39  64  92 124 162 209 254 299 369
#     4  10  23  42  64  89 123 163 204 252 307 366
#     4  10  21  38  60  86 125 162 199 251 304 355
#     4  11  23  39  63  92 123 162 206 253 305 364
#     4  10  23  41  64  92 126 163 201 256 317 367
#     4  11  23  40  62  92 127 162 204 254 308 363
#     4  10  23  39  60  92 118 164 201 251 303 358
#     4  10  23  39  64  90 123 158 205 254 304 362
#
# _framework density 20.002853000000002
#
# number of rings (size 3 to 8) (size 9 to 14) (size 15 to 20)
#    0.000    1.625    1.250    2.250    8.750    0.000 
#    0.000    4.375    0.000    0.000    0.000    0.000 
#    0.000    0.000    0.000    0.000    0.000    0.000 
#
# Total GULP energy -396667.009017 kJ/mol
# GULP energy per Si atom -12395.844032 kJ/mol
# Density = 1.995733 g / cm^3
# Si number density = 20.002853 Si / 1000 Ang^3
#
#
#
# Elastic Constant Matrix: (Units=GPa)
#
#
# Indices 1 2 3 4 5 6 
#
# 1 131.0907 36.9920 30.0534 -0.0023 -8.2040 -0.0001
# 2 36.9920 98.1660 24.2438 0.0000 2.2399 0.0005
# 3 30.0534 24.2438 49.7571 0.0033 -5.5039 0.0082
# 4 -0.0023 0.0000 0.0033 29.9410 -0.0014 -5.6645
# 5 -8.2040 2.2399 -5.5039 -0.0014 26.6819 -0.0048
# 6 -0.0001 0.0005 0.0082 -5.6645 -0.0048 22.8215
#
#
#
# Elastic Compliance Matrix: (Units=1/GPa)
#
#
# Indices 1 2 3 4 5 6 
#
# 1 0.009462 -0.002577 -0.004210 0.000002 0.002257 0.000003
# 2 -0.002577 0.012408 -0.004802 0.000000 -0.002825 0.000001
# 3 -0.004210 -0.004802 0.025462 -0.000005 0.004361 -0.000009
# 4 0.000002 0.000000 -0.000005 0.035045 0.000003 0.008698
# 5 0.002257 -0.002825 0.004361 0.000003 0.039309 0.000007
# 6 0.000003 0.000001 -0.000009 0.008698 0.000007 0.045977
#
#
# Mechanical properties :
#
#
# Convention : Reuss Voigt Hill
#
# Bulk Modulus (GPa) = 41.39858 51.28801 46.34330
# Shear Modulus (GPa) = 25.13920 28.40386 26.77153
#
# Velocity S-wave (km/s) = 3.54896 3.77236 3.66236
# Velocity P-wave (km/s) = 6.12656 6.68359 6.41112
#
# Compressibility (1/GPa) = 0.02415542
#
# Stress axis : x y z
#
# Youngs Moduli (GPa) = 105.68635 80.59080 39.27409
#
# Poissons Ratio (x) = 0.20772 0.16532
# Poissons Ratio (y) = 0.27240 0.18858
# Poissons Ratio (z) = 0.44489 0.38696
#
# Static dielectric constant tensor:
#      x y z
#    x 4.263790 0.000000 -0.106000 
#    y 0.000000 3.805030 0.000010 
#    z -0.106000 0.000010 3.486840 
# 
# 
# High freq. dielectric constant tensor:
#      x y z
#    x 1.796110 0.000000 -0.007350 
#    y 0.000000 1.794360 0.000000 
#    z -0.007350 0.000000 1.773100 
# 
# From -- ./inp_files/340787.got.cif
#   From: 2010.06.25/outbox.cif.g09.slc.cpg/sg12_171_cif.got.tgz:340787.got - 2010.06.28 00:19:55.
