data_PCOD8108515
_publ_section_title
;
Structure prediction by ZEFSAII (Michael W. Deem and Ramdas Pophale) SiO2 
 PCOD8108515
Probable space group: C 2/M
;
_chemical_formula_sum "Si O2"
_cell_formula_units_Z 64
_cell_length_a 24.884265
_cell_length_b 19.842743
_cell_length_c 11.055741
_cell_angle_alpha 90.000000
_cell_angle_beta 145.017419
_cell_angle_gamma 90.000000
_cell_volume 3129.803399
_symmetry_space_group_name_H-M "C 2/M"
_symmetry_group_IT_number 12
_symmetry_cell_setting 'monoclinic'
loop_
_space_group_symop_operation_xyz
x,y,z
-x,y,-z
-x,-y,-z
x,-y,z
1/2+x,1/2+y,z
1/2-x,1/2+y,-z
1/2-x,1/2-y,-z
1/2+x,1/2-y,z
loop_
_atom_site_type_symbol
_atom_site_label
_atom_site_fract_x
_atom_site_fract_y
_atom_site_fract_z
Si Si1 0.169445 0.376900 0.061724
Si Si2 0.600908 0.076243 0.685600
Si Si3 0.137405 0.077231 0.191046
Si Si4 0.970979 0.171969 0.185808
Si Si5 0.295959 0.731298 0.956891
Si Si6 0.814488 0.633154 0.394293
Si Si7 0.002833 0.320149 0.145261
Si Si8 0.864791 0.077690 0.529137
O O1 0.173593 0.298408 0.049661
O O2 0.259286 0.408108 0.291629
O O3 0.158167 0.414124 0.913813
O O4 0.075263 0.377893 0.968955
O O5 0.500000 0.116065 0.500000
O O6 0.664101 0.095974 0.690656
O O7 0.575539 0.000000 0.620858
O O8 0.242210 0.088904 0.337519
O O9 0.132476 0.092036 0.323698
O O10 0.107273 0.000000 0.107681
O O11 0.066921 0.128838 0.997360
O O12 0.999253 0.247547 0.203282
O O13 0.061057 0.128843 0.400113
O O14 0.887231 0.180631 0.132731
O O15 0.224304 0.704056 0.724768
O O16 0.250000 0.750000 0.000000
O O17 0.901130 0.644354 0.641230
O O18 0.000000 0.304456 0.000000
O O19 0.890295 0.000000 0.545752
#
# Coordination Sequence:
#
# PCOD8108515 Si02
#       8
#     8   8   8   8   8   8   8   8
#     4  11  22  39  59  89 120 160 201 248 310 364
#     4  11  22  38  60  82 113 156 206 255 299 363
#     4  10  21  38  62  89 122 164 209 249 296 365
#     4  10  22  38  62  92 120 159 205 244 297 366
#     4  10  21  38  64  90 119 153 200 252 305 356
#     4  11  21  38  61  90 117 156 202 257 309 362
#     4  11  22  37  59  90 124 154 196 255 313 365
#     4  11  22  39  61  89 128 168 202 246 303 363
#
# _framework density 20.448568000000002
#
# number of rings (size 3 to 8) (size 9 to 14) (size 15 to 20)
#    0.000    1.375    2.500    3.750    0.000    1.000 
#    0.000    6.875    0.000    3.750    0.000    0.000 
#    0.000    0.000    0.000    0.000    0.000    0.000 
#
# Total GULP energy -396532.400976 kJ/mol
# GULP energy per Si atom -12391.637530 kJ/mol
# Density = 2.040203 g / cm^3
# Si number density = 20.448568 Si / 1000 Ang^3
#
#
#
# Elastic Constant Matrix: (Units=GPa)
#
#
# Indices 1 2 3 4 5 6 
#
# 1 85.9823 22.9292 18.9779 0.0000 18.4652 0.0000
# 2 22.9292 77.7677 27.8758 0.0000 4.0036 0.0000
# 3 18.9779 27.8758 99.8059 0.0000 17.9387 0.0000
# 4 0.0000 0.0000 0.0000 35.7698 0.0000 1.4805
# 5 18.4652 4.0036 17.9387 0.0000 29.5224 0.0000
# 6 0.0000 0.0000 0.0000 1.4805 0.0000 24.4169
#
#
#
# Elastic Compliance Matrix: (Units=1/GPa)
#
#
# Indices 1 2 3 4 5 6 
#
# 1 0.014489 -0.003771 -0.000185 0.000000 -0.008438 0.000000
# 2 -0.003771 0.015279 -0.004043 0.000000 0.002744 0.000000
# 3 -0.000185 -0.004043 0.012421 0.000000 -0.006883 0.000000
# 4 0.000000 0.000000 0.000000 0.028027 0.000000 -0.001699
# 5 -0.008438 0.002744 -0.006883 0.000000 0.042961 0.000000
# 6 0.000000 0.000000 0.000000 -0.001699 0.000000 0.041058
#
#
# Mechanical properties :
#
#
# Convention : Reuss Voigt Hill
#
# Bulk Modulus (GPa) = 38.18307 44.79131 41.48719
# Shear Modulus (GPa) = 27.93853 30.86004 29.39928
#
# Velocity S-wave (km/s) = 3.70034 3.88900 3.79584
# Velocity P-wave (km/s) = 6.08029 6.48981 6.28839
#
# Compressibility (1/GPa) = 0.02618962
#
# Stress axis : x y z
#
# Youngs Moduli (GPa) = 69.01765 65.45002 80.50782
#
# Poissons Ratio (x) = 0.24683 0.01490
# Poissons Ratio (y) = 0.26028 0.32553
# Poissons Ratio (z) = 0.01277 0.26464
#
# Static dielectric constant tensor:
#      x y z
#    x 3.801080 0.000000 0.266270 
#    y 0.000000 3.781800 0.000000 
#    z 0.266270 0.000000 3.570460 
# 
# 
# High freq. dielectric constant tensor:
#      x y z
#    x 1.800550 0.000000 0.020510 
#    y 0.000000 1.802130 0.000000 
#    z 0.020510 0.000000 1.804280 
# 
# From -- ./inp_files/184742.got.cif
#   From: 2010.06.25/outbox.cif.g09.slc.cpg/sg12_93_cif.got.tgz:184742.got - 2010.06.28 00:19:55.
