data_PCOD8108991
_publ_section_title
;
Structure prediction by ZEFSAII (Michael W. Deem and Ramdas Pophale) SiO2 
 PCOD8108991
Probable space group: C 2/M
;
_chemical_formula_sum "Si O2"
_cell_formula_units_Z 48
_cell_length_a 18.803721
_cell_length_b 8.819344
_cell_length_c 25.547823
_cell_angle_alpha 90.000000
_cell_angle_beta 34.878880
_cell_angle_gamma 90.000000
_cell_volume 2422.764384
_symmetry_space_group_name_H-M "C 2/M"
_symmetry_group_IT_number 12
_symmetry_cell_setting 'monoclinic'
loop_
_space_group_symop_operation_xyz
x,y,z
-x,y,-z
-x,-y,-z
x,-y,z
1/2+x,1/2+y,z
1/2-x,1/2+y,-z
1/2-x,1/2-y,-z
1/2+x,1/2-y,z
loop_
_atom_site_type_symbol
_atom_site_label
_atom_site_fract_x
_atom_site_fract_y
_atom_site_fract_z
Si Si1 0.008094 0.167927 0.933844
Si Si2 0.199974 0.179121 0.583145
Si Si3 0.232991 0.322711 0.954767
Si Si4 0.146471 0.325564 0.407553
Si Si5 0.419656 0.679392 0.754670
Si Si6 0.237541 0.177944 0.249038
O O1 0.139730 0.228083 0.835959
O O2 0.986352 0.000000 0.922150
O O3 0.906165 0.288334 0.978357
O O4 0.000000 0.153853 0.000000
O O5 0.250000 0.250000 0.500000
O O6 0.287150 0.227910 0.578943
O O7 0.059837 0.240877 0.677376
O O8 0.200007 0.000000 0.575920
O O9 0.252568 0.500000 0.947356
O O10 0.332157 0.252995 0.853484
O O11 0.250000 0.250000 0.000000
O O12 0.181125 0.500000 0.374117
O O13 0.191918 0.216310 0.334391
O O14 0.000000 0.304168 0.500000
O O15 0.418411 0.500000 0.759673
O O16 0.366697 0.729429 0.730078
O O17 0.265832 0.000000 0.227147
#
# Coordination Sequence:
#
# PCOD8108991 Si02
#       6
#     8   8   8   8   8   8
#     4  11  23  40  62  89 121 161 205 251 307 367
#     4  10  21  39  61  85 117 156 195 240 297 360
#     4  11  23  40  61  88 124 163 206 253 303 360
#     4  10  22  39  60  89 123 157 195 248 308 363
#     4   9  20  38  59  83 117 159 196 242 304 353
#     4  11  22  38  62  89 118 156 204 254 302 360
#
# _framework density 19.812080000000002
#
# number of rings (size 3 to 8) (size 9 to 14) (size 15 to 20)
#    0.000    1.667    1.667    2.500    2.333    1.667 
#    0.000    2.500    0.000    0.000    0.000    0.000 
#    0.000    0.000    0.000    0.000    0.000    0.000 
#
# Total GULP energy -297631.869309 kJ/mol
# GULP energy per Si atom -12401.327888 kJ/mol
# Density = 1.976699 g / cm^3
# Si number density = 19.812080 Si / 1000 Ang^3
#
#
#
# Elastic Constant Matrix: (Units=GPa)
#
#
# Indices 1 2 3 4 5 6 
#
# 1 158.4393 29.6990 78.5906 -0.0012 1.1106 0.0029
# 2 29.6990 53.6723 33.2707 -0.0049 8.0603 0.0075
# 3 78.5906 33.2707 130.2802 -0.0002 -2.5650 0.0021
# 4 -0.0012 -0.0049 -0.0002 33.2092 0.0006 4.5681
# 5 1.1106 8.0603 -2.5650 0.0006 41.9852 -0.0042
# 6 0.0029 0.0075 0.0021 4.5681 -0.0042 27.0045
#
#
#
# Elastic Compliance Matrix: (Units=1/GPa)
#
#
# Indices 1 2 3 4 5 6 
#
# 1 0.009178 -0.001921 -0.005049 0.000000 -0.000182 0.000000
# 2 -0.001921 0.023462 -0.004927 0.000004 -0.004754 -0.000007
# 3 -0.005049 -0.004927 0.012016 -0.000001 0.001813 0.000001
# 4 0.000000 0.000004 -0.000001 0.030829 -0.000002 -0.005215
# 5 -0.000182 -0.004754 0.001813 -0.000002 0.024846 0.000005
# 6 0.000000 -0.000007 0.000001 -0.005215 0.000005 0.037913
#
#
# Mechanical properties :
#
#
# Convention : Reuss Voigt Hill
#
# Bulk Modulus (GPa) = 47.93433 69.50138 58.71785
# Shear Modulus (GPa) = 29.58721 33.82856 31.70788
#
# Velocity S-wave (km/s) = 3.86864 4.13664 4.00488
# Velocity P-wave (km/s) = 6.64847 7.61395 7.14753
#
# Compressibility (1/GPa) = 0.02086187
#
# Stress axis : x y z
#
# Youngs Moduli (GPa) = 108.96186 42.62132 83.22518
#
# Poissons Ratio (x) = 0.08187 0.42023
# Poissons Ratio (y) = 0.20930 0.41002
# Poissons Ratio (z) = 0.55018 0.20998
#
# Static dielectric constant tensor:
#      x y z
#    x 3.674920 0.000000 -0.074720 
#    y 0.000000 0.947640 0.000000 
#    z -0.074720 0.000000 3.938750 
# 
# 
# High freq. dielectric constant tensor:
#      x y z
#    x 1.785170 0.000000 -0.002100 
#    y 0.000000 1.757620 0.000000 
#    z -0.002100 0.000000 1.786490 
# 
# From -- ./inp_files/365370.got.cif
#   From: 2010.06.25/outbox.cif.g09.slc.cpg/sg12_183_cif.got.tgz:365370.got - 2010.06.28 00:19:55.
