data_PCOD8108644
_publ_section_title
;
Structure prediction by ZEFSAII (Michael W. Deem and Ramdas Pophale) SiO2 
 PCOD8108644
Probable space group: C 2/M
;
_chemical_formula_sum "Si O2"
_cell_formula_units_Z 64
_cell_length_a 15.972616
_cell_length_b 15.991181
_cell_length_c 17.621792
_cell_angle_alpha 90.000000
_cell_angle_beta 135.095353
_cell_angle_gamma 90.000000
_cell_volume 3177.369302
_symmetry_space_group_name_H-M "C 2/M"
_symmetry_group_IT_number 12
_symmetry_cell_setting 'monoclinic'
loop_
_space_group_symop_operation_xyz
x,y,z
-x,y,-z
-x,-y,-z
x,-y,z
1/2+x,1/2+y,z
1/2-x,1/2+y,-z
1/2-x,1/2-y,-z
1/2+x,1/2-y,z
loop_
_atom_site_type_symbol
_atom_site_label
_atom_site_fract_x
_atom_site_fract_y
_atom_site_fract_z
Si Si1 0.732256 0.908720 0.047925
Si Si2 0.957327 0.341721 0.178899
Si Si3 0.800502 0.768126 0.190901
Si Si4 0.642081 0.404731 0.414470
Si Si5 0.516250 0.728417 0.423428
Si Si6 0.500847 0.594217 0.825919
Si Si7 0.079995 0.405973 0.401634
Si Si8 0.929513 0.766766 0.880527
O O1 0.715826 0.839828 0.101969
O O2 0.859473 0.891698 0.092310
O O3 0.730202 0.000000 0.084775
O O4 0.626420 0.905984 0.919333
O O5 0.863345 0.285177 0.165160
O O6 0.046566 0.390853 0.291934
O O7 0.039563 0.291551 0.172210
O O8 0.709850 0.721866 0.189444
O O9 0.901446 0.808392 0.307601
O O10 0.600987 0.500000 0.410886
O O11 0.622030 0.332534 0.464504
O O12 0.571986 0.373451 0.294498
O O13 0.781678 0.404868 0.491944
O O14 0.500000 0.713189 0.500000
O O15 0.526247 0.828434 0.414569
O O16 0.464098 0.500000 0.816213
O O17 0.465738 0.640538 0.879984
O O18 0.032364 0.500000 0.393889
O O19 0.000000 0.736803 0.000000
#
# Coordination Sequence:
#
# PCOD8108644 Si02
#       8
#     8   8   8   8   8   8   8   8
#     4  11  20  38  65  88 118 159 203 251 303 362
#     4  11  22  42  62  88 124 165 209 248 306 373
#     4  11  23  40  60  91 123 165 204 248 312 369
#     4  10  21  41  66  90 122 162 209 256 311 369
#     4  11  24  38  62  93 127 161 204 258 313 372
#     4  10  21  38  63  92 121 160 204 256 312 367
#     4  10  23  42  64  90 121 166 209 253 310 371
#     4  12  23  37  63  91 125 162 204 254 310 372
#
# _framework density 20.142448000000002
#
# number of rings (size 3 to 8) (size 9 to 14) (size 15 to 20)
#    0.000    1.250    3.750    2.625    3.500    0.750 
#    0.000    5.000    0.000    0.000    0.000    0.000 
#    0.000    0.000    0.000    0.000    0.000    0.000 
#
# Total GULP energy -396531.061772 kJ/mol
# GULP energy per Si atom -12391.595680 kJ/mol
# Density = 2.009660 g / cm^3
# Si number density = 20.142448 Si / 1000 Ang^3
#
#
#
# Elastic Constant Matrix: (Units=GPa)
#
#
# Indices 1 2 3 4 5 6 
#
# 1 81.9764 23.3956 10.4839 0.0000 -3.2851 0.0000
# 2 23.3956 84.8203 -0.8370 0.0000 -6.0642 0.0000
# 3 10.4839 -0.8370 70.7719 0.0000 4.5442 0.0000
# 4 0.0000 0.0000 0.0000 25.8886 0.0000 2.8746
# 5 -3.2851 -6.0642 4.5442 0.0000 25.4891 0.0000
# 6 0.0000 0.0000 0.0000 2.8746 0.0000 23.2647
#
#
#
# Elastic Compliance Matrix: (Units=1/GPa)
#
#
# Indices 1 2 3 4 5 6 
#
# 1 0.013571 -0.003674 -0.002134 0.000000 0.001255 0.000000
# 2 -0.003674 0.012989 0.000536 0.000000 0.002521 0.000000
# 3 -0.002134 0.000536 0.014629 0.000000 -0.002756 0.000000
# 4 0.000000 0.000000 0.000000 0.039164 0.000000 -0.004839
# 5 0.001255 0.002521 -0.002756 0.000000 0.040485 0.000000
# 6 0.000000 0.000000 0.000000 -0.004839 0.000000 0.043582
#
#
# Mechanical properties :
#
#
# Convention : Reuss Voigt Hill
#
# Bulk Modulus (GPa) = 32.63374 33.73930 33.18652
# Shear Modulus (GPa) = 27.00083 28.56357 27.78220
#
# Velocity S-wave (km/s) = 3.66525 3.76982 3.71790
# Velocity P-wave (km/s) = 5.84369 5.97792 5.91118
#
# Compressibility (1/GPa) = 0.03064313
#
# Stress axis : x y z
#
# Youngs Moduli (GPa) = 73.68901 76.99029 68.35571
#
# Poissons Ratio (x) = 0.28289 0.14590
# Poissons Ratio (y) = 0.27076 -0.03664
# Poissons Ratio (z) = 0.15728 -0.04127
#
# Static dielectric constant tensor:
#      x y z
#    x 3.531730 0.000000 0.032010 
#    y 0.000000 3.866830 0.000000 
#    z 0.032010 0.000000 4.008250 
# 
# 
# High freq. dielectric constant tensor:
#      x y z
#    x 1.766530 0.000000 0.008820 
#    y 0.000000 1.790360 0.000000 
#    z 0.008820 0.000000 1.801230 
# 
# From -- ./inp_files/270698.got.cif
#   From: 2010.06.25/outbox.cif.g09.slc.cpg/sg12_136_cif.got.tgz:270698.got - 2010.06.28 00:19:55.
