data_PCOD8108997
_publ_section_title
;
Structure prediction by ZEFSAII (Michael W. Deem and Ramdas Pophale) SiO2 
 PCOD8108997
Probable space group: C 2/M
;
_chemical_formula_sum "Si O2"
_cell_formula_units_Z 40
_cell_length_a 9.210268
_cell_length_b 21.274733
_cell_length_c 12.778893
_cell_angle_alpha 90.000000
_cell_angle_beta 137.987083
_cell_angle_gamma 90.000000
_cell_volume 1675.904354
_symmetry_space_group_name_H-M "C 2/M"
_symmetry_group_IT_number 12
_symmetry_cell_setting 'monoclinic'
loop_
_space_group_symop_operation_xyz
x,y,z
-x,y,-z
-x,-y,-z
x,-y,z
1/2+x,1/2+y,z
1/2-x,1/2+y,-z
1/2-x,1/2-y,-z
1/2+x,1/2-y,z
loop_
_atom_site_type_symbol
_atom_site_label
_atom_site_fract_x
_atom_site_fract_y
_atom_site_fract_z
Si Si1 0.230038 0.690240 0.066587
Si Si2 0.497167 0.259565 0.611250
Si Si3 0.660869 0.571449 0.498706
Si Si4 0.088476 0.620532 0.658505
Si Si5 0.022255 0.928551 0.832143
O O1 0.410993 0.694459 0.252833
O O2 0.286838 0.623150 0.041001
O O3 0.250000 0.750000 0.000000
O O4 0.000000 0.688019 0.000000
O O5 0.500000 0.292860 0.500000
O O6 0.635034 0.195062 0.684099
O O7 0.250000 0.250000 0.500000
O O8 0.500000 0.599814 0.500000
O O9 0.711205 0.500000 0.552088
O O10 0.553648 0.579529 0.327871
O O11 0.895831 0.605560 0.637145
O O12 0.317940 0.585415 0.800784
O O13 0.000000 0.596670 0.500000
O O14 0.106055 0.000000 0.897534
#
# Coordination Sequence:
#
# PCOD8108997 Si02
#       5
#     8   8   8   8   8
#     4  12  26  44  66  96 135 173 214 273 338 396
#     4  11  22  39  65  96 128 167 218 268 320 390
#     4   9  17  29  51  89 130 162 202 262 323 375
#     4   9  17  32  56  86 121 163 212 265 322 378
#     4  10  21  39  61  85 120 172 222 261 319 400
#
# _framework density 23.867712000000001
#
# number of rings (size 3 to 8) (size 9 to 14) (size 15 to 20)
#    0.000    1.800    0.000    6.600    0.000    7.600 
#    0.000    0.000    0.000    6.600    0.000    2.800 
#    0.000    0.000    0.000    0.000    0.000    0.000 
#
# Total GULP energy -247857.096239 kJ/mol
# GULP energy per Si atom -12392.854812 kJ/mol
# Density = 2.381339 g / cm^3
# Si number density = 23.867712 Si / 1000 Ang^3
#
#
#
# Elastic Constant Matrix: (Units=GPa)
#
#
# Indices 1 2 3 4 5 6 
#
# 1 153.0092 43.6432 28.3603 0.0000 38.1388 0.0000
# 2 43.6432 192.8313 35.4537 0.0000 22.0625 0.0000
# 3 28.3603 35.4537 55.9021 0.0000 21.8603 0.0000
# 4 0.0000 0.0000 0.0000 32.2538 0.0000 11.5670
# 5 38.1388 22.0625 21.8603 0.0000 42.8530 0.0000
# 6 0.0000 0.0000 0.0000 11.5670 0.0000 35.0549
#
#
#
# Elastic Compliance Matrix: (Units=1/GPa)
#
#
# Indices 1 2 3 4 5 6 
#
# 1 0.008688 -0.000990 -0.001193 0.000000 -0.006613 0.000000
# 2 -0.000990 0.006052 -0.003075 0.000000 -0.000666 0.000000
# 3 -0.001193 -0.003075 0.024247 0.000000 -0.009723 0.000000
# 4 0.000000 0.000000 0.000000 0.035165 0.000000 -0.011603
# 5 -0.006613 -0.000666 -0.009723 0.000000 0.034524 0.000000
# 6 0.000000 0.000000 0.000000 -0.011603 0.000000 0.032355
#
#
# Mechanical properties :
#
#
# Convention : Reuss Voigt Hill
#
# Bulk Modulus (GPa) = 35.12713 68.51744 51.82229
# Shear Modulus (GPa) = 31.04863 41.65137 36.35000
#
# Velocity S-wave (km/s) = 3.61066 4.18196 3.90677
# Velocity P-wave (km/s) = 5.66850 7.21719 6.48921
#
# Compressibility (1/GPa) = 0.02846802
#
# Stress axis : x y z
#
# Youngs Moduli (GPa) = 115.10646 165.24645 41.24304
#
# Poissons Ratio (x) = 0.16363 0.04921
# Poissons Ratio (y) = 0.11398 0.12684
# Poissons Ratio (z) = 0.13735 0.50819
#
# Static dielectric constant tensor:
#      x y z
#    x 4.529530 0.000000 0.142290 
#    y 0.000000 4.802670 0.000000 
#    z 0.142290 0.000000 3.870630 
# 
# 
# High freq. dielectric constant tensor:
#      x y z
#    x 1.956430 0.000000 0.017400 
#    y 0.000000 1.964640 0.000000 
#    z 0.017400 0.000000 1.906290 
# 
# From -- ./inp_files/198673.got.cif
#   From: 2010.06.25/outbox.cif.g09.slc.cpg/sg12_100_cif.got.tgz:198673.got - 2010.06.28 00:19:55.
