data_PCOD8108603
_publ_section_title
;
Structure prediction by ZEFSAII (Michael W. Deem and Ramdas Pophale) SiO2 
 PCOD8108603
Probable space group: C 2/M
;
_chemical_formula_sum "Si O2"
_cell_formula_units_Z 48
_cell_length_a 11.903323
_cell_length_b 18.045206
_cell_length_c 11.614293
_cell_angle_alpha 90.000000
_cell_angle_beta 111.575014
_cell_angle_gamma 90.000000
_cell_volume 2319.937776
_symmetry_space_group_name_H-M "C 2/M"
_symmetry_group_IT_number 12
_symmetry_cell_setting 'monoclinic'
loop_
_space_group_symop_operation_xyz
x,y,z
-x,y,-z
-x,-y,-z
x,-y,z
1/2+x,1/2+y,z
1/2-x,1/2+y,-z
1/2-x,1/2-y,-z
1/2+x,1/2-y,z
loop_
_atom_site_type_symbol
_atom_site_label
_atom_site_fract_x
_atom_site_fract_y
_atom_site_fract_z
Si Si1 0.101313 0.326798 0.743710
Si Si2 0.993723 0.915216 0.368264
Si Si3 0.668873 0.190982 0.397389
Si Si4 0.380589 0.917102 0.028270
Si Si5 0.238355 0.415681 0.601156
Si Si6 0.718244 0.321759 0.806429
O O1 0.179896 0.360829 0.670770
O O2 0.174444 0.259284 0.828766
O O3 0.974797 0.293983 0.646814
O O4 0.082483 0.390133 0.831056
O O5 0.117369 0.907308 0.343539
O O6 0.000000 0.881429 0.500000
O O7 0.896349 0.872365 0.258801
O O8 0.952310 0.000000 0.362662
O O9 0.750000 0.250000 0.500000
O O10 0.692469 0.109203 0.457901
O O11 0.700496 0.188539 0.275727
O O12 0.288815 0.859379 0.937298
O O13 0.323835 0.000000 0.015229
O O14 0.500000 0.920552 0.000000
O O15 0.197748 0.500000 0.608192
#
# Coordination Sequence:
#
# PCOD8108603 Si02
#       6
#     8   8   8   8   8   8
#     4  12  26  43  67  96 137 175 221 279 336 394
#     4  10  21  38  62  95 133 173 218 269 329 400
#     4  12  24  41  64 101 137 174 216 273 335 400
#     4  11  25  47  69  95 130 176 231 279 327 393
#     4  11  24  40  63  98 138 177 219 271 337 400
#     4  12  24  41  71  95 132 172 227 273 333 396
#
# _framework density 20.690208999999999
#
# number of rings (size 3 to 8) (size 9 to 14) (size 15 to 20)
#    0.000    0.667    5.000    3.000    0.000    2.667 
#    0.000    0.833    0.000    3.000    0.000    0.000 
#    0.000    0.000    0.000    0.000    0.000    0.000 
#
# Total GULP energy -297636.519700 kJ/mol
# GULP energy per Si atom -12401.521654 kJ/mol
# Density = 2.064312 g / cm^3
# Si number density = 20.690209 Si / 1000 Ang^3
#
#
#
# Elastic Constant Matrix: (Units=GPa)
#
#
# Indices 1 2 3 4 5 6 
#
# 1 97.3508 51.5126 25.7208 0.0000 3.8600 0.0000
# 2 51.5126 116.9226 34.2415 0.0000 14.6028 0.0000
# 3 25.7208 34.2415 72.5167 0.0000 6.9031 0.0000
# 4 0.0000 0.0000 0.0000 27.9606 0.0000 4.8868
# 5 3.8600 14.6028 6.9031 0.0000 32.3581 0.0000
# 6 0.0000 0.0000 0.0000 4.8868 0.0000 23.4525
#
#
#
# Elastic Compliance Matrix: (Units=1/GPa)
#
#
# Indices 1 2 3 4 5 6 
#
# 1 0.013784 -0.005540 -0.002403 0.000000 0.001369 0.000000
# 2 -0.005540 0.012568 -0.003565 0.000000 -0.004251 0.000000
# 3 -0.002403 -0.003565 0.016480 0.000000 -0.001620 0.000000
# 4 0.000000 0.000000 0.000000 0.037116 0.000000 -0.007734
# 5 0.001369 -0.004251 -0.001620 0.000000 0.033005 0.000000
# 6 0.000000 0.000000 0.000000 -0.007734 0.000000 0.044251
#
#
# Mechanical properties :
#
#
# Convention : Reuss Voigt Hill
#
# Bulk Modulus (GPa) = 50.46518 56.63777 53.55148
# Shear Modulus (GPa) = 26.76273 28.44191 27.60232
#
# Velocity S-wave (km/s) = 3.60042 3.71166 3.65646
# Velocity P-wave (km/s) = 6.45971 6.76773 6.61551
#
# Compressibility (1/GPa) = 0.01981564
#
# Stress axis : x y z
#
# Youngs Moduli (GPa) = 72.54600 79.56498 60.67953
#
# Poissons Ratio (x) = 0.44079 0.14584
# Poissons Ratio (y) = 0.40191 0.21632
# Poissons Ratio (z) = 0.17436 0.28365
#
# Static dielectric constant tensor:
#      x y z
#    x 3.836980 0.000000 0.063900 
#    y 0.000000 4.082380 0.000000 
#    z 0.063900 0.000000 3.795960 
# 
# 
# High freq. dielectric constant tensor:
#      x y z
#    x 1.817940 0.000000 -0.000770 
#    y 0.000000 1.826290 0.000000 
#    z -0.000770 0.000000 1.796190 
# 
# From -- ./inp_files/131738.got.cif
#   From: 2010.06.25/outbox.cif.g09.slc.cpg/sg12_66_cif.got.tgz:131738.got - 2010.06.28 00:19:55.
