data_PCOD8108741
_publ_section_title
;
Structure prediction by ZEFSAII (Michael W. Deem and Ramdas Pophale) SiO2 
 PCOD8108741
Probable space group: C 2/M
;
_chemical_formula_sum "Si O2"
_cell_formula_units_Z 40
_cell_length_a 15.287599
_cell_length_b 21.716922
_cell_length_c 12.395945
_cell_angle_alpha 90.000000
_cell_angle_beta 153.820657
_cell_angle_gamma 90.000000
_cell_volume 1815.663268
_symmetry_space_group_name_H-M "C 2/M"
_symmetry_group_IT_number 12
_symmetry_cell_setting 'monoclinic'
loop_
_space_group_symop_operation_xyz
x,y,z
-x,y,-z
-x,-y,-z
x,-y,z
1/2+x,1/2+y,z
1/2-x,1/2+y,-z
1/2-x,1/2-y,-z
1/2+x,1/2-y,z
loop_
_atom_site_type_symbol
_atom_site_label
_atom_site_fract_x
_atom_site_fract_y
_atom_site_fract_z
Si Si1 0.140461 0.069491 0.053555
Si Si2 0.199127 0.570587 0.173508
Si Si3 0.972321 0.108936 0.300702
Si Si4 0.663005 0.807805 0.760270
Si Si5 0.520265 0.738938 0.263901
O O1 0.316704 0.119970 0.246889
O O2 0.227052 0.000000 0.157721
O O3 0.000000 0.083185 0.000000
O O4 0.021969 0.076867 0.810197
O O5 0.156720 0.500000 0.098894
O O6 0.262785 0.602172 0.131515
O O7 0.363944 0.575210 0.447765
O O8 0.000000 0.602377 0.000000
O O9 0.009742 0.181344 0.333222
O O10 0.500000 0.777509 0.500000
O O11 0.575299 0.798653 0.783675
O O12 0.885059 0.776315 0.007026
O O13 0.750000 0.750000 0.500000
#
# Coordination Sequence:
#
# PCOD8108741 Si02
#       5
#     8   8   8   8   8
#     4  10  22  42  67  95 132 179 222 269 328 391
#     4  10  21  38  64  96 128 168 211 267 337 391
#     4  10  21  40  64  93 131 167 217 276 319 395
#     4  10  24  41  67  95 131 168 223 279 324 391
#     4  10  24  44  65  94 131 174 221 269 337 397
#
# _framework density 22.030517
#
# number of rings (size 3 to 8) (size 9 to 14) (size 15 to 20)
#    0.000    2.000    0.000    2.400    8.400    5.200 
#    0.000    1.000    0.000    0.000    0.000    0.000 
#    0.000    0.000    0.000    0.000    0.000    0.000 
#
# Total GULP energy -247794.153820 kJ/mol
# GULP energy per Si atom -12389.707691 kJ/mol
# Density = 2.198037 g / cm^3
# Si number density = 22.030517 Si / 1000 Ang^3
#
#
#
# Elastic Constant Matrix: (Units=GPa)
#
#
# Indices 1 2 3 4 5 6 
#
# 1 165.8221 65.3560 58.8096 0.0000 11.8841 0.0000
# 2 65.3560 112.8987 30.8390 0.0000 16.7115 0.0000
# 3 58.8096 30.8390 153.6120 0.0002 8.8724 0.0000
# 4 0.0000 0.0000 0.0002 9.9273 0.0001 3.1697
# 5 11.8841 16.7115 8.8724 0.0001 47.8604 0.0000
# 6 0.0000 0.0000 0.0000 3.1697 0.0000 40.6381
#
#
#
# Elastic Compliance Matrix: (Units=1/GPa)
#
#
# Indices 1 2 3 4 5 6 
#
# 1 0.008590 -0.004284 -0.002418 0.000000 -0.000189 0.000000
# 2 -0.004284 0.011941 -0.000584 0.000000 -0.002997 0.000000
# 3 -0.002418 -0.000584 0.007588 0.000000 -0.000602 0.000000
# 4 0.000000 0.000000 0.000000 0.103305 0.000000 -0.008058
# 5 -0.000189 -0.002997 -0.000602 0.000000 0.022099 0.000000
# 6 0.000000 0.000000 0.000000 -0.008058 0.000000 0.025236
#
#
# Mechanical properties :
#
#
# Convention : Reuss Voigt Hill
#
# Bulk Modulus (GPa) = 73.81887 82.48244 78.15066
# Shear Modulus (GPa) = 25.27221 38.17372 31.72296
#
# Velocity S-wave (km/s) = 3.39063 4.16717 3.79879
# Velocity P-wave (km/s) = 6.99348 7.78942 7.40216
#
# Compressibility (1/GPa) = 0.01354667
#
# Stress axis : x y z
#
# Youngs Moduli (GPa) = 116.41238 83.74613 131.79570
#
# Poissons Ratio (x) = 0.35880 0.31864
# Poissons Ratio (y) = 0.49876 0.07695
# Poissons Ratio (z) = 0.28144 0.04890
#
# Static dielectric constant tensor:
#      x y z
#    x 4.145670 0.000000 0.043630 
#    y 0.000000 3.974970 0.000000 
#    z 0.043630 0.000000 4.021770 
# 
# 
# High freq. dielectric constant tensor:
#      x y z
#    x 1.860880 0.000000 -0.001970 
#    y 0.000000 1.867840 0.000000 
#    z -0.001970 0.000000 1.863770 
# 
# From -- ./inp_files/148989.got.cif
#   From: 2010.06.25/outbox.cif.g09.slc.cpg/sg12_75_cif.got.tgz:148989.got - 2010.06.28 00:19:55.
