data_PCOD8108734
_publ_section_title
;
Structure prediction by ZEFSAII (Michael W. Deem and Ramdas Pophale) SiO2 
 PCOD8108734
Probable space group: C 2/M
;
_chemical_formula_sum "Si O2"
_cell_formula_units_Z 48
_cell_length_a 22.234223
_cell_length_b 20.296413
_cell_length_c 11.268605
_cell_angle_alpha 90.000000
_cell_angle_beta 28.330032
_cell_angle_gamma 90.000000
_cell_volume 2413.198597
_symmetry_space_group_name_H-M "C 2/M"
_symmetry_group_IT_number 12
_symmetry_cell_setting 'monoclinic'
loop_
_space_group_symop_operation_xyz
x,y,z
-x,y,-z
-x,-y,-z
x,-y,z
1/2+x,1/2+y,z
1/2-x,1/2+y,-z
1/2-x,1/2-y,-z
1/2+x,1/2-y,z
loop_
_atom_site_type_symbol
_atom_site_label
_atom_site_fract_x
_atom_site_fract_y
_atom_site_fract_z
Si Si1 0.768589 0.695301 0.291205
Si Si2 0.638621 0.247712 0.290399
Si Si3 0.860515 0.822971 0.239261
Si Si4 0.313131 0.928606 0.584076
Si Si5 0.863630 0.598834 0.738902
Si Si6 0.889312 0.424071 0.954626
O O1 0.682315 0.714985 0.331032
O O2 0.865261 0.754593 0.155954
O O3 0.676395 0.687370 0.561415
O O4 0.840227 0.626482 0.140101
O O5 0.500000 0.279196 0.500000
O O6 0.616326 0.171208 0.350665
O O7 0.750000 0.250000 0.000000
O O8 0.765284 0.873597 0.345420
O O9 0.000000 0.853821 0.000000
O O10 0.275656 0.934123 0.790245
O O11 0.461643 0.910888 0.315867
O O12 0.285157 0.000000 0.574487
O O13 0.814572 0.592735 0.959877
O O14 0.000000 0.562434 0.500000
O O15 0.860297 0.500000 0.041549
#
# Coordination Sequence:
#
# PCOD8108734 Si02
#       6
#     8   8   8   8   8   8
#     4  11  25  41  63  90 126 161 210 255 310 376
#     4  11  22  36  64  97 126 159 203 262 318 373
#     4  11  27  41  61  86 123 170 210 255 307 366
#     4  10  21  39  63  92 125 164 210 252 304 369
#     4   9  17  32  59  93 122 152 196 253 314 367
#     4  10  21  38  64  95 126 158 201 261 316 366
#
# _framework density 19.890613999999999
#
# number of rings (size 3 to 8) (size 9 to 14) (size 15 to 20)
#    0.000    1.667    3.333    0.500    7.000    3.000 
#    0.000    1.667    0.000    0.500    0.000    0.000 
#    0.000    0.000    0.000    0.000    0.000    0.000 
#
# Total GULP energy -297339.871410 kJ/mol
# GULP energy per Si atom -12389.161309 kJ/mol
# Density = 1.984534 g / cm^3
# Si number density = 19.890614 Si / 1000 Ang^3
#
#
#
# Elastic Constant Matrix: (Units=GPa)
#
#
# Indices 1 2 3 4 5 6 
#
# 1 128.0728 56.1897 54.2205 -0.0002 0.3351 0.0003
# 2 56.1897 139.3223 38.0924 -0.0001 -0.1896 0.0001
# 3 54.2205 38.0924 87.9057 -0.0006 -6.7999 0.0011
# 4 -0.0002 -0.0001 -0.0006 22.5760 0.0003 3.4598
# 5 0.3351 -0.1896 -6.7999 0.0003 23.7128 -0.0006
# 6 0.0003 0.0001 0.0011 3.4598 -0.0006 5.1711
#
#
#
# Elastic Compliance Matrix: (Units=1/GPa)
#
#
# Indices 1 2 3 4 5 6 
#
# 1 0.011723 -0.003078 -0.006046 0.000000 -0.001924 0.000001
# 2 -0.003078 0.008972 -0.002026 0.000000 -0.000466 0.000000
# 3 -0.006046 -0.002026 0.016351 0.000001 0.004758 -0.000003
# 4 0.000000 0.000000 0.000001 0.049355 -0.000001 -0.033021
# 5 -0.001924 -0.000466 0.004758 -0.000001 0.043559 0.000005
# 6 0.000001 0.000000 -0.000003 -0.033021 0.000005 0.215476
#
#
# Mechanical properties :
#
#
# Convention : Reuss Voigt Hill
#
# Bulk Modulus (GPa) = 67.80833 72.47847 70.14340
# Shear Modulus (GPa) = 13.41742 24.07854 18.74798
#
# Velocity S-wave (km/s) = 2.60005 3.48307 3.07343
# Velocity P-wave (km/s) = 6.57102 7.25902 6.92357
#
# Compressibility (1/GPa) = 0.01474745
#
# Stress axis : x y z
#
# Youngs Moduli (GPa) = 85.30306 111.45799 61.15895
#
# Poissons Ratio (x) = 0.34301 0.36977
# Poissons Ratio (y) = 0.26252 0.12389
# Poissons Ratio (z) = 0.51574 0.22578
#
# Static dielectric constant tensor:
#      x y z
#    x 3.855110 0.000000 0.080380 
#    y 0.000000 3.856620 0.000000 
#    z 0.080380 0.000000 3.486660 
# 
# 
# High freq. dielectric constant tensor:
#      x y z
#    x 1.786840 0.000000 0.007480 
#    y 0.000000 1.783230 0.000000 
#    z 0.007480 0.000000 1.740060 
# 
# From -- ./inp_files/169606.got.cif
#   From: 2010.06.25/outbox.cif.g09.slc.cpg/sg12_85_cif.got.tgz:169606.got - 2010.06.28 00:19:55.
