data_PCOD8108792
_publ_section_title
;
Structure prediction by ZEFSAII (Michael W. Deem and Ramdas Pophale) SiO2 
 PCOD8108792
Probable space group: C 2/M
;
_chemical_formula_sum "Si O2"
_cell_formula_units_Z 48
_cell_length_a 18.370618
_cell_length_b 29.668717
_cell_length_c 9.847986
_cell_angle_alpha 90.000000
_cell_angle_beta 26.562904
_cell_angle_gamma 90.000000
_cell_volume 2400.227464
_symmetry_space_group_name_H-M "C 2/M"
_symmetry_group_IT_number 12
_symmetry_cell_setting 'monoclinic'
loop_
_space_group_symop_operation_xyz
x,y,z
-x,y,-z
-x,-y,-z
x,-y,z
1/2+x,1/2+y,z
1/2-x,1/2+y,-z
1/2-x,1/2-y,-z
1/2+x,1/2-y,z
loop_
_atom_site_type_symbol
_atom_site_label
_atom_site_fract_x
_atom_site_fract_y
_atom_site_fract_z
Si Si1 0.978899 0.603729 0.686419
Si Si2 0.796522 0.737551 0.075229
Si Si3 0.123872 0.551628 0.674347
Si Si4 0.345227 0.632664 0.350301
Si Si5 0.351417 0.355492 0.651405
Si Si6 0.861012 0.309178 0.484356
O O1 0.000000 0.585585 0.500000
O O2 0.031082 0.561325 0.689395
O O3 0.098479 0.646560 0.496490
O O4 0.800362 0.618749 0.030244
O O5 0.673383 0.697885 0.318444
O O6 0.772901 0.780828 0.210223
O O7 0.750000 0.750000 0.000000
O O8 0.980628 0.721904 0.796353
O O9 0.180686 0.500000 0.586909
O O10 0.280906 0.583147 0.420636
O O11 0.000000 0.564585 0.000000
O O12 0.389420 0.629964 0.434521
O O13 0.212012 0.672350 0.537736
O O14 0.500000 0.643241 0.000000
O O15 0.500000 0.368087 0.500000
#
# Coordination Sequence:
#
# PCOD8108792 Si02
#       6
#     8   8   8   8   8   8
#     4  10  21  38  66  94 127 160 210 262 315 375
#     4  11  22  38  61  89 127 170 217 263 315 366
#     4  10  21  43  72  94 122 163 205 258 324 392
#     4  11  26  43  64  95 129 166 215 261 319 381
#     4  11  24  40  62  89 128 173 214 259 317 373
#     4  10  23  39  60  88 127 169 217 262 309 364
#
# _framework density 19.998106
#
# number of rings (size 3 to 8) (size 9 to 14) (size 15 to 20)
#    0.000    1.500    1.667    3.500    9.333    1.333 
#    0.000    0.000    0.000    1.000    0.000    0.000 
#    0.000    0.000    0.000    0.000    0.000    0.000 
#
# Total GULP energy -297575.310820 kJ/mol
# GULP energy per Si atom -12398.971284 kJ/mol
# Density = 1.995259 g / cm^3
# Si number density = 19.998106 Si / 1000 Ang^3
#
#
#
# Elastic Constant Matrix: (Units=GPa)
#
#
# Indices 1 2 3 4 5 6 
#
# 1 163.0053 41.5429 62.6454 0.0024 11.8748 -0.0002
# 2 41.5429 81.8554 37.7513 -0.0001 -4.4292 0.0004
# 3 62.6454 37.7513 96.7223 0.0014 9.3838 -0.0002
# 4 0.0024 -0.0001 0.0014 16.3435 -0.0026 -0.8989
# 5 11.8748 -4.4292 9.3838 -0.0026 37.8576 0.0001
# 6 -0.0002 0.0004 -0.0002 -0.8989 0.0001 21.5801
#
#
#
# Elastic Compliance Matrix: (Units=1/GPa)
#
#
# Indices 1 2 3 4 5 6 
#
# 1 0.008594 -0.002415 -0.004441 -0.000001 -0.001877 0.000000
# 2 -0.002415 0.015981 -0.005050 0.000002 0.003879 0.000000
# 3 -0.004441 -0.005050 0.015481 -0.000001 -0.003035 0.000000
# 4 -0.000001 0.000002 -0.000001 0.061327 0.000005 0.002554
# 5 -0.001877 0.003879 -0.003035 0.000005 0.028210 0.000000
# 6 0.000000 0.000000 0.000000 0.002554 0.000000 0.046445
#
#
# Mechanical properties :
#
#
# Convention : Reuss Voigt Hill
#
# Bulk Modulus (GPa) = 61.56204 69.49581 65.52892
# Shear Modulus (GPa) = 24.35884 28.46581 26.41233
#
# Velocity S-wave (km/s) = 3.49385 3.77692 3.63814
# Velocity P-wave (km/s) = 6.86490 7.33804 7.10541
#
# Compressibility (1/GPa) = 0.01624378
#
# Stress axis : x y z
#
# Youngs Moduli (GPa) = 116.36212 62.57423 64.59541
#
# Poissons Ratio (x) = 0.15110 0.28690
# Poissons Ratio (y) = 0.28098 0.32620
# Poissons Ratio (z) = 0.51682 0.31599
#
# Static dielectric constant tensor:
#      x y z
#    x 3.789020 0.000000 -0.048410 
#    y 0.000000 3.508970 0.000000 
#    z -0.048410 0.000000 3.541670 
# 
# 
# High freq. dielectric constant tensor:
#      x y z
#    x 1.789400 0.000000 0.002290 
#    y 0.000000 1.768060 0.000000 
#    z 0.002290 0.000000 1.780420 
# 
# From -- ./inp_files/80564.got.cif
#   From: 2010.06.25/outbox.cif.g09.slc.cpg/sg12_41_cif.got.tgz:80564.got - 2010.06.28 00:19:55.
