data_PCOD8108405
_publ_section_title
;
Structure prediction by ZEFSAII (Michael W. Deem and Ramdas Pophale) SiO2 
 PCOD8108405
Probable space group: C 2/M
;
_chemical_formula_sum "Si O2"
_cell_formula_units_Z 64
_cell_length_a 19.346404
_cell_length_b 8.976004
_cell_length_c 30.328652
_cell_angle_alpha 90.000000
_cell_angle_beta 38.361155
_cell_angle_gamma 90.000000
_cell_volume 3268.583514
_symmetry_space_group_name_H-M "C 2/M"
_symmetry_group_IT_number 12
_symmetry_cell_setting 'monoclinic'
loop_
_space_group_symop_operation_xyz
x,y,z
-x,y,-z
-x,-y,-z
x,-y,z
1/2+x,1/2+y,z
1/2-x,1/2+y,-z
1/2-x,1/2-y,-z
1/2+x,1/2-y,z
loop_
_atom_site_type_symbol
_atom_site_label
_atom_site_fract_x
_atom_site_fract_y
_atom_site_fract_z
Si Si1 0.781430 0.323131 0.938345
Si Si2 0.374267 0.677139 0.564316
Si Si3 0.772899 0.327857 0.280521
Si Si4 0.275920 0.175172 0.441233
Si Si5 0.480050 0.668012 0.301490
Si Si6 0.721265 0.329131 0.207395
Si Si7 0.510810 0.331342 0.804294
Si Si8 0.626118 0.676066 0.935670
O O1 0.780664 0.500000 0.943664
O O2 0.903326 0.270118 0.863894
O O3 0.693513 0.268986 0.945165
O O4 0.750000 0.250000 0.000000
O O5 0.500000 0.742161 0.500000
O O6 0.378317 0.500000 0.563265
O O7 0.310018 0.734664 0.640190
O O8 0.309591 0.734178 0.553259
O O9 0.802343 0.500000 0.275429
O O10 0.712964 0.306550 0.263860
O O11 0.887007 0.236097 0.219601
O O12 0.250000 0.250000 0.500000
O O13 0.400781 0.218384 0.366151
O O14 0.266597 0.000000 0.451168
O O15 0.467018 0.500000 0.327195
O O16 0.604997 0.726662 0.245547
O O17 0.449702 0.670553 0.265638
O O18 0.743081 0.500000 0.183869
O O19 0.819514 0.235022 0.136451
O O20 0.485637 0.500000 0.832988
O O21 0.627128 0.500000 0.932905
O O22 0.500000 0.737555 0.000000
#
# Coordination Sequence:
#
# PCOD8108405 Si02
#       8
#     8   8   8   8   8   8   8   8
#     4  11  24  41  63  90 122 159 201 247 296 355
#     4   9  19  36  59  84 114 154 196 239 288 346
#     4  10  21  38  61  90 119 152 201 246 292 353
#     4  11  23  38  61  88 118 155 197 246 299 352
#     4  10  21  39  62  87 118 154 198 245 293 349
#     4  10  22  39  62  90 118 155 198 246 292 348
#     4  11  22  39  63  87 120 158 197 248 299 351
#     4  10  23  42  61  85 121 159 194 241 299 356
#
# _framework density 19.580348000000001
#
# number of rings (size 3 to 8) (size 9 to 14) (size 15 to 20)
#    0.000    1.750    2.500    1.125    3.500    2.250 
#    0.000    0.000    0.000    1.875    0.000    0.000 
#    0.000    0.000    0.000    0.000    0.000    0.000 
#
# Total GULP energy -396898.067356 kJ/mol
# GULP energy per Si atom -12403.064605 kJ/mol
# Density = 1.953578 g / cm^3
# Si number density = 19.580348 Si / 1000 Ang^3
#
#
#
# Elastic Constant Matrix: (Units=GPa)
#
#
# Indices 1 2 3 4 5 6 
#
# 1 94.8817 25.5590 50.2793 0.0003 -1.3641 0.0005
# 2 25.5590 48.6900 31.3431 0.0009 2.2486 -0.0006
# 3 50.2793 31.3431 124.8173 -0.0001 -3.6313 -0.0004
# 4 0.0003 0.0009 -0.0001 34.7606 0.0000 3.0924
# 5 -1.3641 2.2486 -3.6313 0.0000 39.6060 0.0004
# 6 0.0005 -0.0006 -0.0004 3.0924 0.0004 24.5370
#
#
#
# Elastic Compliance Matrix: (Units=1/GPa)
#
#
# Indices 1 2 3 4 5 6 
#
# 1 0.014182 -0.004519 -0.004569 0.000000 0.000326 -0.000001
# 2 -0.004519 0.026091 -0.004792 -0.000001 -0.002076 0.000001
# 3 -0.004569 -0.004792 0.011088 0.000000 0.001131 0.000000
# 4 0.000000 -0.000001 0.000000 0.029094 0.000000 -0.003667
# 5 0.000326 -0.002076 0.001131 0.000000 0.025482 0.000000
# 6 -0.000001 0.000001 0.000000 -0.003667 0.000000 0.041217
#
#
# Mechanical properties :
#
#
# Convention : Reuss Voigt Hill
#
# Bulk Modulus (GPa) = 42.36822 53.63909 48.00365
# Shear Modulus (GPa) = 27.35518 30.52789 28.94154
#
# Velocity S-wave (km/s) = 3.74180 3.95284 3.84877
# Velocity P-wave (km/s) = 6.35242 6.94889 6.65734
#
# Compressibility (1/GPa) = 0.02360260
#
# Stress axis : x y z
#
# Youngs Moduli (GPa) = 70.50948 38.32789 90.18497
#
# Poissons Ratio (x) = 0.17320 0.41204
# Poissons Ratio (y) = 0.31862 0.43215
# Poissons Ratio (z) = 0.32214 0.18366
#
# Static dielectric constant tensor:
#      x y z
#    x 4.691200 -0.000260 4.858280 
#    y -0.000260 3.437030 -0.001370 
#    z 4.858280 -0.001370 29.276780 
# 
# 
# High freq. dielectric constant tensor:
#      x y z
#    x 1.773310 0.000000 -0.001420 
#    y 0.000000 1.746080 0.000000 
#    z -0.001420 0.000000 1.770490 
# 
# From -- ./inp_files/378006.got.cif
#   From: 2010.06.25/outbox.cif.g09.slc.cpg/sg12_190_cif.got.tgz:378006.got - 2010.06.28 00:19:55.
