data_PCOD8108036
_publ_section_title
;
Structure prediction by ZEFSAII (Michael W. Deem and Ramdas Pophale) SiO2 
 PCOD8108036
Probable space group: C 2/M
;
_chemical_formula_sum "Si O2"
_cell_formula_units_Z 64
_cell_length_a 15.363589
_cell_length_b 8.823267
_cell_length_c 28.045566
_cell_angle_alpha 90.000000
_cell_angle_beta 58.229761
_cell_angle_gamma 90.000000
_cell_volume 3232.140223
_symmetry_space_group_name_H-M "C 2/M"
_symmetry_group_IT_number 12
_symmetry_cell_setting 'monoclinic'
loop_
_space_group_symop_operation_xyz
x,y,z
-x,y,-z
-x,-y,-z
x,-y,z
1/2+x,1/2+y,z
1/2-x,1/2+y,-z
1/2-x,1/2-y,-z
1/2+x,1/2-y,z
loop_
_atom_site_type_symbol
_atom_site_label
_atom_site_fract_x
_atom_site_fract_y
_atom_site_fract_z
Si Si1 0.798800 0.675535 0.371056
Si Si2 0.290608 0.325145 0.865411
Si Si3 0.015366 0.821159 0.639528
Si Si4 0.994936 0.174261 0.856817
Si Si5 0.846071 0.678232 0.750790
Si Si6 0.337191 0.174715 0.250889
Si Si7 0.932519 0.180409 0.562873
Si Si8 0.923573 0.177883 0.063560
O O1 0.804808 0.500000 0.383614
O O2 0.840605 0.702467 0.306018
O O3 0.683521 0.737689 0.409284
O O4 0.867280 0.771593 0.387784
O O5 0.279842 0.500000 0.853773
O O6 0.373437 0.303634 0.883898
O O7 0.327959 0.231737 0.809421
O O8 0.182040 0.264927 0.914911
O O9 0.949020 0.751673 0.701161
O O10 0.977093 0.757508 0.599765
O O11 0.004738 0.000000 0.644863
O O12 0.053782 0.278776 0.802022
O O13 0.024911 0.225472 0.901329
O O14 0.026821 0.000000 0.838980
O O15 0.860568 0.500000 0.746519
O O16 0.750133 0.721665 0.746180
O O17 0.312591 0.000000 0.246206
O O18 0.000000 0.245893 0.500000
O O19 0.935449 0.000000 0.562500
O O20 0.900715 0.000000 0.068352
O O21 0.000000 0.228750 0.000000
#
# Coordination Sequence:
#
# PCOD8108036 Si02
#       8
#     8   8   8   8   8   8   8   8
#     4  10  21  38  59  87 120 155 195 238 294 354
#     4  11  23  39  61  90 121 154 198 246 292 347
#     4  11  22  38  60  89 119 154 198 242 292 349
#     4  10  22  39  59  87 121 157 193 239 293 348
#     4  12  23  37  60  88 120 156 191 237 300 356
#     4  11  21  36  60  89 119 154 193 238 292 355
#     4   9  19  38  61  83 115 159 201 243 293 348
#     4  10  22  41  62  85 118 161 204 246 295 347
#
# _framework density 19.801121999999999
#
# number of rings (size 3 to 8) (size 9 to 14) (size 15 to 20)
#    0.000    1.500    2.500    3.000    0.000    5.250 
#    0.000    0.000    0.000    2.625    0.000    0.000 
#    0.000    0.000    0.000    0.000    0.000    0.000 
#
# Total GULP energy -396950.262240 kJ/mol
# GULP energy per Si atom -12404.695695 kJ/mol
# Density = 1.975605 g / cm^3
# Si number density = 19.801122 Si / 1000 Ang^3
#
#
#
# Elastic Constant Matrix: (Units=GPa)
#
#
# Indices 1 2 3 4 5 6 
#
# 1 137.3004 41.3043 59.0901 0.0000 -26.6514 0.0000
# 2 41.3043 70.9013 38.8813 0.0001 -6.6571 0.0001
# 3 59.0901 38.8813 135.0152 0.0000 -16.4587 0.0000
# 4 0.0000 0.0001 0.0000 16.8122 0.0000 -2.6366
# 5 -26.6514 -6.6571 -16.4587 0.0000 19.8766 0.0000
# 6 0.0000 0.0001 0.0000 -2.6366 0.0000 30.7890
#
#
#
# Elastic Compliance Matrix: (Units=1/GPa)
#
#
# Indices 1 2 3 4 5 6 
#
# 1 0.012197 -0.004551 -0.002469 0.000000 0.012785 0.000000
# 2 -0.004551 0.018505 -0.003699 0.000000 -0.002967 0.000000
# 3 -0.002469 -0.003699 0.010008 0.000000 0.003738 0.000000
# 4 0.000000 0.000000 0.000000 0.060290 0.000000 0.005163
# 5 0.012785 -0.002967 0.003738 0.000000 0.069555 0.000000
# 6 0.000000 0.000000 0.000000 0.005163 0.000000 0.032921
#
#
# Mechanical properties :
#
#
# Convention : Reuss Voigt Hill
#
# Bulk Modulus (GPa) = 51.88821 69.08536 60.48678
# Shear Modulus (GPa) = 21.61341 27.09163 24.35252
#
# Velocity S-wave (km/s) = 3.30741 3.70291 3.51073
# Velocity P-wave (km/s) = 6.39115 7.29709 6.85909
#
# Compressibility (1/GPa) = 0.01927220
#
# Stress axis : x y z
#
# Youngs Moduli (GPa) = 81.98999 54.03873 99.92063
#
# Poissons Ratio (x) = 0.24593 0.24668
# Poissons Ratio (y) = 0.37313 0.36961
# Poissons Ratio (z) = 0.20241 0.19989
#
# Static dielectric constant tensor:
#      x y z
#    x 3.802050 0.000000 -0.049050 
#    y 0.000000 3.476180 0.000000 
#    z -0.049050 0.000000 3.661930 
# 
# 
# High freq. dielectric constant tensor:
#      x y z
#    x 1.786810 0.000000 -0.005650 
#    y 0.000000 1.760280 0.000000 
#    z -0.005650 0.000000 1.768510 
# 
# From -- ./inp_files/375453.got.cif
#   From: 2010.06.25/outbox.cif.g09.slc.cpg/sg12_188_cif.got.tgz:375453.got - 2010.06.28 00:19:55.
