data_PCOD8108562
_publ_section_title
;
Structure prediction by ZEFSAII (Michael W. Deem and Ramdas Pophale) SiO2 
 PCOD8108562
Probable space group: C 2/M
;
_chemical_formula_sum "Si O2"
_cell_formula_units_Z 64
_cell_length_a 21.521745
_cell_length_b 17.074803
_cell_length_c 12.057665
_cell_angle_alpha 90.000000
_cell_angle_beta 135.424214
_cell_angle_gamma 90.000000
_cell_volume 3109.868224
_symmetry_space_group_name_H-M "C 2/M"
_symmetry_group_IT_number 12
_symmetry_cell_setting 'monoclinic'
loop_
_space_group_symop_operation_xyz
x,y,z
-x,y,-z
-x,-y,-z
x,-y,z
1/2+x,1/2+y,z
1/2-x,1/2+y,-z
1/2-x,1/2-y,-z
1/2+x,1/2-y,z
loop_
_atom_site_type_symbol
_atom_site_label
_atom_site_fract_x
_atom_site_fract_y
_atom_site_fract_z
Si Si1 0.314076 0.091557 0.817450
Si Si2 0.538117 0.676897 0.281234
Si Si3 0.779030 0.171926 0.102195
Si Si4 0.255295 0.331112 0.691582
Si Si5 0.359890 0.410532 0.010570
Si Si6 0.410836 0.254998 0.430317
Si Si7 0.795411 0.912246 0.531968
Si Si8 0.589888 0.219613 0.164023
O O1 0.295664 0.138012 0.908834
O O2 0.230887 0.103685 0.628893
O O3 0.398779 0.128487 0.858244
O O4 0.332766 0.000000 0.864856
O O5 0.439927 0.651893 0.120946
O O6 0.552363 0.686656 0.429243
O O7 0.601703 0.607401 0.319122
O O8 0.574603 0.759040 0.273945
O O9 0.797335 0.103582 0.037169
O O10 0.868917 0.190831 0.281857
O O11 0.750000 0.250000 0.000000
O O12 0.160910 0.308332 0.622227
O O13 0.237392 0.360737 0.543752
O O14 0.320725 0.257033 0.772738
O O15 0.302577 0.396949 0.826825
O O16 0.393985 0.500000 0.054744
O O17 0.500000 0.211093 0.500000
O O18 0.776611 0.000000 0.542647
O O19 0.500000 0.255728 0.000000
#
# Coordination Sequence:
#
# PCOD8108562 Si02
#       8
#     8   8   8   8   8   8   8   8
#     4  11  23  40  63  95 128 167 212 271 333 382
#     4  11  22  37  60  99 127 168 215 263 324 392
#     4  12  23  43  65  90 125 173 222 265 325 390
#     4  11  22  42  63  94 127 178 219 267 316 391
#     4  12  24  39  63  98 138 173 210 270 340 397
#     4  12  23  39  66  91 120 165 230 271 315 379
#     4  10  21  38  62  91 131 169 205 262 329 388
#     4  11  21  38  64  90 127 167 213 263 313 388
#
# _framework density 20.579649
#
# number of rings (size 3 to 8) (size 9 to 14) (size 15 to 20)
#    0.000    0.750    6.250    1.875    0.000    2.250 
#    0.000    2.500    0.000    1.500    0.000    0.000 
#    0.000    0.000    0.000    0.000    0.000    0.000 
#
# Total GULP energy -396569.633897 kJ/mol
# GULP energy per Si atom -12392.801059 kJ/mol
# Density = 2.053281 g / cm^3
# Si number density = 20.579649 Si / 1000 Ang^3
#
#
#
# Elastic Constant Matrix: (Units=GPa)
#
#
# Indices 1 2 3 4 5 6 
#
# 1 104.0567 51.3816 33.6463 0.0000 3.3000 0.0000
# 2 51.3816 111.0026 33.9028 0.0000 -5.6071 0.0000
# 3 33.6463 33.9028 69.0544 0.0000 -5.5767 0.0000
# 4 0.0000 0.0000 0.0000 29.5495 0.0000 -4.0838
# 5 3.3000 -5.6071 -5.5767 0.0000 37.2835 0.0000
# 6 0.0000 0.0000 0.0000 -4.0838 0.0000 26.0552
#
#
#
# Elastic Compliance Matrix: (Units=1/GPa)
#
#
# Indices 1 2 3 4 5 6 
#
# 1 0.013620 -0.005112 -0.004338 0.000000 -0.002623 0.000000
# 2 -0.005112 0.012542 -0.003520 0.000000 0.001812 0.000000
# 3 -0.004338 -0.003520 0.018536 0.000000 0.002627 0.000000
# 4 0.000000 0.000000 0.000000 0.034591 0.000000 0.005422
# 5 -0.002623 0.001812 0.002627 0.000000 0.027719 0.000000
# 6 0.000000 0.000000 0.000000 0.005422 0.000000 0.039230
#
#
# Mechanical properties :
#
#
# Convention : Reuss Voigt Hill
#
# Bulk Modulus (GPa) = 53.31589 57.99722 55.65656
# Shear Modulus (GPa) = 28.02190 29.58984 28.80587
#
# Velocity S-wave (km/s) = 3.69403 3.79597 3.74535
# Velocity P-wave (km/s) = 6.64514 6.88880 6.76806
#
# Compressibility (1/GPa) = 0.01875613
#
# Stress axis : x y z
#
# Youngs Moduli (GPa) = 73.41879 79.73284 53.94991
#
# Poissons Ratio (x) = 0.40761 0.23406
# Poissons Ratio (y) = 0.37533 0.18992
# Poissons Ratio (z) = 0.31853 0.28068
#
# Static dielectric constant tensor:
#      x y z
#    x 3.846750 0.000000 -0.186280 
#    y 0.000000 3.548550 0.000000 
#    z -0.186280 0.000000 3.885460 
# 
# 
# High freq. dielectric constant tensor:
#      x y z
#    x 1.810440 0.000000 -0.012990 
#    y 0.000000 1.782240 0.000000 
#    z -0.012990 0.000000 1.809780 
# 
# From -- ./inp_files/168808.got.cif
#   From: 2010.06.25/outbox.cif.g09.slc.cpg/sg12_85_cif.got.tgz:168808.got - 2010.06.28 00:19:55.
