data_PCOD8108512
_publ_section_title
;
Structure prediction by ZEFSAII (Michael W. Deem and Ramdas Pophale) SiO2 
 PCOD8108512
Probable space group: C 2/M
;
_chemical_formula_sum "Si O2"
_cell_formula_units_Z 44
_cell_length_a 9.220437
_cell_length_b 12.911524
_cell_length_c 16.255196
_cell_angle_alpha 90.000000
_cell_angle_beta 106.379764
_cell_angle_gamma 90.000000
_cell_volume 1856.637456
_symmetry_space_group_name_H-M "C 2/M"
_symmetry_group_IT_number 12
_symmetry_cell_setting 'monoclinic'
loop_
_space_group_symop_operation_xyz
x,y,z
-x,y,-z
-x,-y,-z
x,-y,z
1/2+x,1/2+y,z
1/2-x,1/2+y,-z
1/2-x,1/2-y,-z
1/2+x,1/2-y,z
loop_
_atom_site_type_symbol
_atom_site_label
_atom_site_fract_x
_atom_site_fract_y
_atom_site_fract_z
Si Si1 0.555167 0.120339 0.921763
Si Si2 0.805580 0.199690 0.615927
Si Si3 0.495648 0.384513 0.225345
Si Si4 0.500000 0.237551 0.500000
Si Si5 0.869179 0.117302 0.914086
Si Si6 0.693827 0.879175 0.257182
O O1 0.716177 0.171658 0.922291
O O2 0.441012 0.135735 0.828512
O O3 0.581938 0.000000 0.945736
O O4 0.500000 0.172936 0.000000
O O5 0.870127 0.112212 0.686291
O O6 0.629243 0.172488 0.569296
O O7 0.830754 0.312263 0.663847
O O8 0.904005 0.192928 0.548205
O O9 0.449400 0.500000 0.191162
O O10 0.561156 0.324178 0.155385
O O11 0.345253 0.332870 0.238383
O O12 0.826125 0.000000 0.880851
O O13 0.000000 0.117941 0.000000
O O14 0.712424 0.000000 0.285539
#
# Coordination Sequence:
#
# PCOD8108512 Si02
#       6
#     8   8   8   4   8   8
#     4   9  17  30  52  84 122 160 198 239 284 337
#     4  11  22  44  63  90 116 156 189 250 298 363
#     4  10  21  38  62  89 120 159 199 238 290 352
#     4  10  24  42  66  84 120 152 192 240 316 358
#     4   9  17  30  52  84 122 160 198 239 284 337
#     4  10  21  38  62  89 120 159 199 238 290 352
#
# _framework density 23.698758000000002
#
# number of rings (size 3 to 8) (size 9 to 14) (size 15 to 20)
#    0.000    2.182    1.818    1.091    2.545    4.364 
#    0.000    6.364    0.000    4.364    0.000    0.000 
#    0.000    0.000    0.000    0.000    0.000    0.000 
#
# Total GULP energy -272646.989240 kJ/mol
# GULP energy per Si atom -12393.044965 kJ/mol
# Density = 2.364482 g / cm^3
# Si number density = 23.698758 Si / 1000 Ang^3
#
#
#
# Elastic Constant Matrix: (Units=GPa)
#
#
# Indices 1 2 3 4 5 6 
#
# 1 186.4836 8.1348 66.4156 0.0000 1.9733 0.0000
# 2 8.1348 44.4733 -5.9462 0.0000 -16.7399 0.0000
# 3 66.4156 -5.9462 132.8959 0.0000 -2.8444 0.0000
# 4 0.0000 0.0000 0.0000 16.7040 0.0000 5.7969
# 5 1.9733 -16.7399 -2.8444 0.0000 52.0425 0.0000
# 6 0.0000 0.0000 0.0000 5.7969 0.0000 25.7334
#
#
#
# Elastic Compliance Matrix: (Units=1/GPa)
#
#
# Indices 1 2 3 4 5 6 
#
# 1 0.006701 -0.002112 -0.003468 0.000000 -0.001123 0.000000
# 2 -0.002112 0.026483 0.002427 0.000000 0.008731 0.000000
# 3 -0.003468 0.002427 0.009397 0.000000 0.001426 0.000000
# 4 0.000000 0.000000 0.000000 0.064943 0.000000 -0.014630
# 5 -0.001123 0.008731 0.001426 0.000000 0.022144 0.000000
# 6 0.000000 0.000000 0.000000 -0.014630 0.000000 0.042156
#
#
# Mechanical properties :
#
#
# Convention : Reuss Voigt Hill
#
# Bulk Modulus (GPa) = 27.56636 55.67347 41.61992
# Shear Modulus (GPa) = 26.28533 38.57922 32.43227
#
# Velocity S-wave (km/s) = 3.33399 4.03910 3.70337
# Velocity P-wave (km/s) = 5.14567 6.73020 5.99056
#
# Compressibility (1/GPa) = 0.03627610
#
# Stress axis : x y z
#
# Youngs Moduli (GPa) = 149.22263 37.76052 106.41953
#
# Poissons Ratio (x) = 0.07975 0.36902
# Poissons Ratio (y) = 0.31517 -0.25832
# Poissons Ratio (z) = 0.51745 -0.09166
#
# Static dielectric constant tensor:
#      x y z
#    x 4.657350 0.000000 -0.183850 
#    y 0.000000 4.042930 0.000000 
#    z -0.183850 0.000000 4.362880 
# 
# 
# High freq. dielectric constant tensor:
#      x y z
#    x 1.960280 0.000000 -0.002700 
#    y 0.000000 1.905620 0.000000 
#    z -0.002700 0.000000 1.944510 
# 
# From -- ./inp_files/195567.got.cif
#   From: 2010.06.25/outbox.cif.g09.slc.cpg/sg12_98_cif.got.tgz:195567.got - 2010.06.28 00:19:55.
