data_PCOD8108427
_publ_section_title
;
Structure prediction by ZEFSAII (Michael W. Deem and Ramdas Pophale) SiO2 
 PCOD8108427
Probable space group: C 2/M
;
_chemical_formula_sum "Si O2"
_cell_formula_units_Z 48
_cell_length_a 13.679071
_cell_length_b 18.291483
_cell_length_c 15.364411
_cell_angle_alpha 90.000000
_cell_angle_beta 38.024741
_cell_angle_gamma 90.000000
_cell_volume 2368.118014
_symmetry_space_group_name_H-M "C 2/M"
_symmetry_group_IT_number 12
_symmetry_cell_setting 'monoclinic'
loop_
_space_group_symop_operation_xyz
x,y,z
-x,y,-z
-x,-y,-z
x,-y,z
1/2+x,1/2+y,z
1/2-x,1/2+y,-z
1/2-x,1/2-y,-z
1/2+x,1/2-y,z
loop_
_atom_site_type_symbol
_atom_site_label
_atom_site_fract_x
_atom_site_fract_y
_atom_site_fract_z
Si Si1 0.341101 0.299273 0.161344
Si Si2 0.686235 0.082047 0.378977
Si Si3 0.872011 0.915130 0.732562
Si Si4 0.626273 0.159852 0.772998
Si Si5 0.765025 0.915284 0.516989
Si Si6 0.779165 0.305575 0.056338
O O1 0.253382 0.372179 0.251102
O O2 0.356997 0.248393 0.236393
O O3 0.249613 0.245606 0.160592
O O4 0.500000 0.323254 0.000000
O O5 0.500000 0.085654 0.500000
O O6 0.741972 0.111798 0.433968
O O7 0.750593 0.000000 0.322083
O O8 0.750120 0.885257 0.745588
O O9 0.847056 0.871386 0.841744
O O10 0.054698 0.903919 0.576233
O O11 0.836946 0.000000 0.773446
O O12 0.647512 0.132347 0.659555
O O13 0.445970 0.150546 0.933950
O O14 0.714523 0.000000 0.560035
O O15 0.750000 0.250000 0.000000
#
# Coordination Sequence:
#
# PCOD8108427 Si02
#       6
#     8   8   8   8   8   8
#     4   9  21  39  59  84 115 153 200 247 304 354
#     4  10  23  41  58  83 119 158 205 254 298 358
#     4  10  21  39  63  92 125 160 202 254 310 366
#     4  10  21  38  61  91 124 157 195 249 309 367
#     4  10  22  38  61  93 124 158 201 250 306 369
#     4  10  23  39  60  89 123 161 205 252 297 364
#
# _framework density 20.269259000000002
#
# number of rings (size 3 to 8) (size 9 to 14) (size 15 to 20)
#    0.000    2.167    0.000    2.500    7.000    7.000 
#    0.000    0.833    0.000    0.000    0.000    0.000 
#    0.000    0.000    0.000    0.000    0.000    0.000 
#
# Total GULP energy -297319.394603 kJ/mol
# GULP energy per Si atom -12388.308108 kJ/mol
# Density = 2.022313 g / cm^3
# Si number density = 20.269259 Si / 1000 Ang^3
#
#
#
# Elastic Constant Matrix: (Units=GPa)
#
#
# Indices 1 2 3 4 5 6 
#
# 1 71.3422 31.9614 40.1019 0.0006 4.9866 0.0001
# 2 31.9614 110.4904 76.7985 0.0049 21.2968 -0.0038
# 3 40.1019 76.7985 93.7932 0.0143 23.4553 -0.0033
# 4 0.0006 0.0049 0.0143 27.2403 0.0036 6.2269
# 5 4.9866 21.2968 23.4553 0.0036 26.0093 -0.0031
# 6 0.0001 -0.0038 -0.0033 6.2269 -0.0031 33.4967
#
#
#
# Elastic Compliance Matrix: (Units=1/GPa)
#
#
# Indices 1 2 3 4 5 6 
#
# 1 0.018892 0.000140 -0.009371 0.000004 0.004714 -0.000001
# 2 0.000140 0.021102 -0.016799 0.000005 -0.002156 0.000000
# 3 -0.009371 -0.016799 0.031679 -0.000012 -0.013016 0.000002
# 4 0.000004 0.000005 -0.000012 0.038340 0.000000 -0.007127
# 5 0.004714 -0.002156 -0.013016 0.000000 0.051047 0.000003
# 6 -0.000001 0.000000 0.000002 -0.007127 0.000003 0.031179
#
#
# Mechanical properties :
#
#
# Convention : Reuss Voigt Hill
#
# Bulk Modulus (GPa) = 50.98799 63.70548 57.34673
# Shear Modulus (GPa) = 19.93326 25.80019 22.86673
#
# Velocity S-wave (km/s) = 3.13936 3.57161 3.36244
# Velocity P-wave (km/s) = 6.19280 6.96465 6.59003
#
# Compressibility (1/GPa) = 0.01961246
#
# Stress axis : x y z
#
# Youngs Moduli (GPa) = 52.93187 47.38788 31.56691
#
# Poissons Ratio (x) = -0.00663 0.29581
# Poissons Ratio (y) = -0.00740 0.53031
# Poissons Ratio (z) = 0.49602 0.79609
#
# Static dielectric constant tensor:
#      x y z
#    x 3.973080 0.000010 0.187720 
#    y 0.000010 4.013720 0.000010 
#    z 0.187720 0.000010 3.844980 
# 
# 
# High freq. dielectric constant tensor:
#      x y z
#    x 1.783260 0.000000 0.002400 
#    y 0.000000 1.793190 0.000000 
#    z 0.002400 0.000000 1.790980 
# 
# From -- ./inp_files/271615.got.cif
#   From: 2010.06.25/outbox.cif.g09.slc.cpg/sg12_136_cif.got.tgz:271615.got - 2010.06.28 00:19:55.
