data_PCOD8108412
_publ_section_title
;
Structure prediction by ZEFSAII (Michael W. Deem and Ramdas Pophale) SiO2 
 PCOD8108412
Probable space group: C 2/M
;
_chemical_formula_sum "Si O2"
_cell_formula_units_Z 56
_cell_length_a 19.757694
_cell_length_b 9.053022
_cell_length_c 18.864605
_cell_angle_alpha 90.000000
_cell_angle_beta 120.562474
_cell_angle_gamma 90.000000
_cell_volume 2905.485071
_symmetry_space_group_name_H-M "C 2/M"
_symmetry_group_IT_number 12
_symmetry_cell_setting 'monoclinic'
loop_
_space_group_symop_operation_xyz
x,y,z
-x,y,-z
-x,-y,-z
x,-y,z
1/2+x,1/2+y,z
1/2-x,1/2+y,-z
1/2-x,1/2-y,-z
1/2+x,1/2-y,z
loop_
_atom_site_type_symbol
_atom_site_label
_atom_site_fract_x
_atom_site_fract_y
_atom_site_fract_z
Si Si1 0.671693 0.328642 0.434056
Si Si2 0.452851 0.168094 0.155550
Si Si3 0.513347 0.329837 0.425315
Si Si4 0.882807 0.670218 0.268775
Si Si5 0.312074 0.829081 0.983975
Si Si6 0.885676 0.174340 0.750266
Si Si7 0.722181 0.175074 0.192086
O O1 0.690857 0.500000 0.441437
O O2 0.750000 0.250000 0.500000
O O3 0.603370 0.293318 0.454163
O O4 0.645274 0.272585 0.342662
O O5 0.396495 0.193665 0.192776
O O6 0.523415 0.283093 0.194112
O O7 0.485432 0.000000 0.172610
O O8 0.400635 0.199963 0.058184
O O9 0.500000 0.294908 0.500000
O O10 0.493647 0.500000 0.396213
O O11 0.459158 0.223223 0.351035
O O12 0.866537 0.500000 0.278541
O O13 0.809003 0.765879 0.254699
O O14 0.306087 0.771464 0.900402
O O15 0.290397 0.000000 0.976045
O O16 0.250000 0.750000 0.000000
O O17 0.837394 0.257741 0.783921
O O18 0.877396 0.000000 0.755822
O O19 0.722022 0.000000 0.199740
#
# Coordination Sequence:
#
# PCOD8108412 Si02
#       7
#     8   8   8   8   8   8   8
#     4  10  23  41  61  87 121 158 197 244 300 360
#     4  10  21  39  63  89 120 160 200 245 301 361
#     4  10  22  41  63  90 122 158 201 249 300 361
#     4  11  22  38  63  92 123 159 201 251 299 356
#     4  10  21  38  61  90 123 158 201 251 302 357
#     4  11  24  42  62  88 123 161 203 250 298 359
#     4  11  24  40  62  90 123 164 204 249 303 359
#
# _framework density 19.273892
#
# number of rings (size 3 to 8) (size 9 to 14) (size 15 to 20)
#    0.000    1.571    2.857    1.286    2.000    4.286 
#    0.000    2.857    0.000    0.000    0.000    0.000 
#    0.000    0.000    0.000    0.000    0.000    0.000 
#
# Total GULP energy -347341.526469 kJ/mol
# GULP energy per Si atom -12405.054517 kJ/mol
# Density = 1.923002 g / cm^3
# Si number density = 19.273892 Si / 1000 Ang^3
#
#
#
# Elastic Constant Matrix: (Units=GPa)
#
#
# Indices 1 2 3 4 5 6 
#
# 1 99.7500 50.2757 65.2283 0.0000 -6.9199 0.0000
# 2 50.2757 72.4859 42.2791 0.0000 -2.3212 0.0000
# 3 65.2283 42.2791 109.4638 0.0000 -2.1585 0.0000
# 4 0.0000 0.0000 0.0000 30.9296 0.0000 3.9083
# 5 -6.9199 -2.3212 -2.1585 0.0000 34.8901 0.0000
# 6 0.0000 0.0000 0.0000 3.9083 0.0000 39.9425
#
#
#
# Elastic Compliance Matrix: (Units=1/GPa)
#
#
# Indices 1 2 3 4 5 6 
#
# 1 0.020421 -0.009044 -0.008618 0.000000 0.002915 0.000000
# 2 -0.009044 0.021833 -0.003054 0.000000 -0.000530 0.000000
# 3 -0.008618 -0.003054 0.015432 0.000000 -0.000958 0.000000
# 4 0.000000 0.000000 0.000000 0.032736 0.000000 -0.003203
# 5 0.002915 -0.000530 -0.000958 0.000000 0.029145 0.000000
# 6 0.000000 0.000000 0.000000 -0.003203 0.000000 0.025349
#
#
# Mechanical properties :
#
#
# Convention : Reuss Voigt Hill
#
# Bulk Modulus (GPa) = 61.52498 66.36288 63.94393
# Shear Modulus (GPa) = 26.07341 29.41355 27.74348
#
# Velocity S-wave (km/s) = 3.68201 3.91075 3.79810
# Velocity P-wave (km/s) = 7.07580 7.40933 7.24449
#
# Compressibility (1/GPa) = 0.01625356
#
# Stress axis : x y z
#
# Youngs Moduli (GPa) = 48.96891 45.80249 64.80213
#
# Poissons Ratio (x) = 0.41423 0.55847
# Poissons Ratio (y) = 0.44287 0.19791
# Poissons Ratio (z) = 0.42202 0.13988
#
# Static dielectric constant tensor:
#      x y z
#    x 3.593750 0.000000 -0.051670 
#    y 0.000000 3.516390 0.000000 
#    z -0.051670 0.000000 3.772400 
# 
# 
# High freq. dielectric constant tensor:
#      x y z
#    x 1.755740 0.000000 0.000550 
#    y 0.000000 1.751320 0.000000 
#    z 0.000550 0.000000 1.760060 
# 
# From -- ./inp_files/275605.got.cif
#   From: 2010.06.25/outbox.cif.g09.slc.cpg/sg12_138_cif.got.tgz:275605.got - 2010.06.28 00:19:55.
