data_PCOD8108271
_publ_section_title
;
Structure prediction by ZEFSAII (Michael W. Deem and Ramdas Pophale) SiO2 
 PCOD8108271
Probable space group: C 2/M
;
_chemical_formula_sum "Si O2"
_cell_formula_units_Z 48
_cell_length_a 22.779273
_cell_length_b 8.919918
_cell_length_c 12.553725
_cell_angle_alpha 90.000000
_cell_angle_beta 91.364858
_cell_angle_gamma 90.000000
_cell_volume 2550.058243
_symmetry_space_group_name_H-M "C 2/M"
_symmetry_group_IT_number 12
_symmetry_cell_setting 'monoclinic'
loop_
_space_group_symop_operation_xyz
x,y,z
-x,y,-z
-x,-y,-z
x,-y,z
1/2+x,1/2+y,z
1/2-x,1/2+y,-z
1/2-x,1/2-y,-z
1/2+x,1/2-y,z
loop_
_atom_site_type_symbol
_atom_site_label
_atom_site_fract_x
_atom_site_fract_y
_atom_site_fract_z
Si Si1 0.885674 0.327897 0.220188
Si Si2 0.322563 0.324342 0.406518
Si Si3 0.312477 0.173329 0.009282
Si Si4 0.506654 0.670999 0.879474
Si Si5 0.811593 0.676172 0.624371
Si Si6 0.875245 0.171572 0.822713
O O1 0.890613 0.500000 0.255269
O O2 0.868615 0.230063 0.321143
O O3 0.948446 0.275843 0.180465
O O4 0.835937 0.306250 0.129268
O O5 0.329611 0.500000 0.423804
O O6 0.256870 0.280998 0.367083
O O7 0.338221 0.245132 0.518116
O O8 0.357550 0.254047 0.933015
O O9 0.306968 0.000000 0.976385
O O10 0.250000 0.250000 0.000000
O O11 0.530155 0.500000 0.881964
O O12 0.445222 0.682313 0.814721
O O13 0.500000 0.729544 0.000000
O O14 0.821237 0.500000 0.621838
O O15 0.845657 0.742489 0.725092
O O16 0.853708 0.000000 0.821326
#
# Coordination Sequence:
#
# PCOD8108271 Si02
#       6
#     8   8   8   8   8   8
#     4  11  23  37  57  85 116 150 192 241 288 338
#     4  10  21  38  61  86 116 154 192 234 286 346
#     4  11  23  36  54  83 117 151 188 234 288 343
#     4  10  21  39  60  82 112 155 197 235 285 344
#     4  10  21  38  61  88 118 152 190 236 289 343
#     4  11  22  37  59  85 115 151 193 237 284 342
#
# _framework density 18.8231
#
# number of rings (size 3 to 8) (size 9 to 14) (size 15 to 20)
#    0.000    1.500    1.667    3.500    0.000    8.333 
#    0.000    0.833    0.000    5.000    0.000    0.000 
#    0.000    0.000    0.000    0.000    0.000    0.000 
#
# Total GULP energy -297754.001153 kJ/mol
# GULP energy per Si atom -12406.416715 kJ/mol
# Density = 1.878026 g / cm^3
# Si number density = 18.823100 Si / 1000 Ang^3
#
#
#
# Elastic Constant Matrix: (Units=GPa)
#
#
# Indices 1 2 3 4 5 6 
#
# 1 56.9827 22.3035 7.7814 0.0000 -16.2009 0.0000
# 2 22.3035 87.1161 30.8195 0.0000 -11.9234 0.0000
# 3 7.7814 30.8195 81.0975 0.0000 -16.6691 0.0000
# 4 0.0000 0.0000 0.0000 38.1139 0.0000 -3.9472
# 5 -16.2009 -11.9234 -16.6691 0.0000 24.4420 0.0000
# 6 0.0000 0.0000 0.0000 -3.9472 0.0000 30.2750
#
#
#
# Elastic Compliance Matrix: (Units=1/GPa)
#
#
# Indices 1 2 3 4 5 6 
#
# 1 0.023334 -0.004881 0.002682 0.000000 0.014914 0.000000
# 2 -0.004881 0.014550 -0.004963 0.000000 0.000478 0.000000
# 3 0.002682 -0.004963 0.016082 0.000000 0.010324 0.000000
# 4 0.000000 0.000000 0.000000 0.026596 0.000000 0.003468
# 5 0.014914 0.000478 0.010324 0.000000 0.058073 0.000000
# 6 0.000000 0.000000 0.000000 0.003468 0.000000 0.033483
#
#
# Mechanical properties :
#
#
# Convention : Reuss Voigt Hill
#
# Bulk Modulus (GPa) = 25.22696 38.55610 31.89153
# Shear Modulus (GPa) = 25.04319 29.51897 27.28108
#
# Velocity S-wave (km/s) = 3.65149 3.96439 3.81115
# Velocity P-wave (km/s) = 5.58651 6.44073 6.02877
#
# Compressibility (1/GPa) = 0.03964014
#
# Stress axis : x y z
#
# Youngs Moduli (GPa) = 42.85617 68.72971 62.18302
#
# Poissons Ratio (x) = 0.33550 -0.16675
# Poissons Ratio (y) = 0.20920 0.30860
# Poissons Ratio (z) = -0.11493 0.34109
#
# Static dielectric constant tensor:
#      x y z
#    x 3.371190 0.000000 -0.004890 
#    y 0.000000 3.617950 0.000000 
#    z -0.004890 0.000000 3.421640 
# 
# 
# High freq. dielectric constant tensor:
#      x y z
#    x 1.726760 0.000000 -0.001930 
#    y 0.000000 1.747060 0.000000 
#    z -0.001930 0.000000 1.732870 
# 
# From -- ./inp_files/172104.got.cif
#   From: 2010.06.25/outbox.cif.g09.slc.cpg/sg12_87_cif.got.tgz:172104.got - 2010.06.28 00:19:55.
