data_PCOD8108361
_publ_section_title
;
Structure prediction by ZEFSAII (Michael W. Deem and Ramdas Pophale) SiO2 
 PCOD8108361
Probable space group: C 2/M
;
_chemical_formula_sum "Si O2"
_cell_formula_units_Z 64
_cell_length_a 18.828186
_cell_length_b 17.981807
_cell_length_c 17.306659
_cell_angle_alpha 90.000000
_cell_angle_beta 31.919483
_cell_angle_gamma 90.000000
_cell_volume 3098.036496
_symmetry_space_group_name_H-M "C 2/M"
_symmetry_group_IT_number 12
_symmetry_cell_setting 'monoclinic'
loop_
_space_group_symop_operation_xyz
x,y,z
-x,y,-z
-x,-y,-z
x,-y,z
1/2+x,1/2+y,z
1/2-x,1/2+y,-z
1/2-x,1/2-y,-z
1/2+x,1/2-y,z
loop_
_atom_site_type_symbol
_atom_site_label
_atom_site_fract_x
_atom_site_fract_y
_atom_site_fract_z
Si Si1 0.025346 0.418484 0.886650
Si Si2 0.203016 0.303027 0.355692
Si Si3 0.938557 0.731044 0.223534
Si Si4 0.235541 0.917966 0.099637
Si Si5 0.102402 0.833796 0.347382
Si Si6 0.852980 0.914414 0.115995
Si Si7 0.006108 0.280123 0.329772
Si Si8 0.694880 0.668089 0.985269
O O1 0.098427 0.500000 0.809463
O O2 0.100532 0.346181 0.784025
O O3 0.895029 0.422032 0.952445
O O4 0.000000 0.404177 0.000000
O O5 0.329711 0.289451 0.294496
O O6 0.176514 0.233620 0.323121
O O7 0.237309 0.372425 0.269963
O O8 0.074341 0.324857 0.527997
O O9 0.917713 0.719128 0.333997
O O10 0.090689 0.763037 0.067948
O O11 0.202203 0.893646 0.218667
O O12 0.174594 0.000000 0.139411
O O13 0.183978 0.859084 0.083670
O O14 0.016573 0.802973 0.353983
O O15 0.000000 0.875136 0.500000
O O16 0.837630 0.901692 0.038800
O O17 0.838911 0.000000 0.150116
O O18 0.000000 0.882920 0.000000
O O19 0.155013 0.308454 0.174407
#
# Coordination Sequence:
#
# PCOD8108361 Si02
#       8
#     8   8   8   8   8   8   8   8
#     4  10  22  36  56  89 123 155 197 256 306 354
#     4  11  24  40  63  93 120 163 206 250 311 369
#     4  12  22  38  66  89 122 163 210 245 305 368
#     4  11  22  38  59  89 124 161 204 252 307 362
#     4  10  21  38  61  88 123 158 203 257 299 361
#     4  11  24  42  63  93 127 161 207 262 310 368
#     4  11  22  39  62  91 128 152 206 260 301 359
#     4  12  22  38  65  95 120 164 210 254 302 363
#
# _framework density 20.658246999999999
#
# number of rings (size 3 to 8) (size 9 to 14) (size 15 to 20)
#    0.000    1.000    5.000    2.625    1.750    0.250 
#    0.000    2.500    0.000    0.750    0.000    0.000 
#    0.000    0.000    0.000    0.000    0.000    0.000 
#
# Total GULP energy -396532.768037 kJ/mol
# GULP energy per Si atom -12391.649001 kJ/mol
# Density = 2.061123 g / cm^3
# Si number density = 20.658247 Si / 1000 Ang^3
#
#
#
# Elastic Constant Matrix: (Units=GPa)
#
#
# Indices 1 2 3 4 5 6 
#
# 1 86.7788 16.8535 20.2790 -0.0042 16.3434 0.0021
# 2 16.8535 77.6340 38.0689 -0.0049 7.8577 0.0029
# 3 20.2790 38.0689 118.4874 -0.0052 13.1183 0.0032
# 4 -0.0042 -0.0049 -0.0052 12.5827 0.0023 3.3437
# 5 16.3434 7.8577 13.1183 0.0023 31.6730 -0.0009
# 6 0.0021 0.0029 0.0032 3.3437 -0.0009 25.9473
#
#
#
# Elastic Compliance Matrix: (Units=1/GPa)
#
#
# Indices 1 2 3 4 5 6 
#
# 1 0.013231 -0.001759 -0.001039 0.000005 -0.005960 -0.000002
# 2 -0.001759 0.015627 -0.004602 0.000004 -0.001063 -0.000002
# 3 -0.001039 -0.004602 0.010387 0.000003 -0.002624 -0.000001
# 4 0.000005 0.000004 0.000003 0.082292 -0.000011 -0.010605
# 5 -0.005960 -0.001063 -0.002624 -0.000011 0.035999 0.000004
# 6 -0.000002 -0.000002 -0.000001 -0.010605 0.000004 0.039906
#
#
# Mechanical properties :
#
#
# Convention : Reuss Voigt Hill
#
# Bulk Modulus (GPa) = 40.91130 48.14476 44.52803
# Shear Modulus (GPa) = 22.68699 27.88719 25.28709
#
# Velocity S-wave (km/s) = 3.31751 3.67813 3.50246
# Velocity P-wave (km/s) = 5.87549 6.43382 6.16098
#
# Compressibility (1/GPa) = 0.02444313
#
# Stress axis : x y z
#
# Youngs Moduli (GPa) = 75.58236 63.99113 96.27700
#
# Poissons Ratio (x) = 0.11258 0.10006
# Poissons Ratio (y) = 0.13297 0.44307
# Poissons Ratio (z) = 0.07855 0.29449
#
# Static dielectric constant tensor:
#      x y z
#    x 4.040890 0.000000 0.151790 
#    y 0.000000 3.655300 0.000000 
#    z 0.151790 0.000000 3.797430 
# 
# 
# High freq. dielectric constant tensor:
#      x y z
#    x 1.827850 0.000000 0.011490 
#    y 0.000000 1.786060 0.000000 
#    z 0.011490 0.000000 1.796240 
# 
# From -- ./inp_files/285182.got.cif
#   From: 2010.06.25/outbox.cif.g09.slc.cpg/sg12_143_cif.got.tgz:285182.got - 2010.06.28 00:19:55.
