data_PCOD8108724
_publ_section_title
;
Structure prediction by ZEFSAII (Michael W. Deem and Ramdas Pophale) SiO2 
 PCOD8108724
Probable space group: C 2/M
;
_chemical_formula_sum "Si O2"
_cell_formula_units_Z 48
_cell_length_a 18.114297
_cell_length_b 14.136230
_cell_length_c 13.080222
_cell_angle_alpha 90.000000
_cell_angle_beta 136.200259
_cell_angle_gamma 90.000000
_cell_volume 2318.270424
_symmetry_space_group_name_H-M "C 2/M"
_symmetry_group_IT_number 12
_symmetry_cell_setting 'monoclinic'
loop_
_space_group_symop_operation_xyz
x,y,z
-x,y,-z
-x,-y,-z
x,-y,z
1/2+x,1/2+y,z
1/2-x,1/2+y,-z
1/2-x,1/2-y,-z
1/2+x,1/2-y,z
loop_
_atom_site_type_symbol
_atom_site_label
_atom_site_fract_x
_atom_site_fract_y
_atom_site_fract_z
Si Si1 0.548853 0.296623 0.937520
Si Si2 0.100340 0.109181 0.382500
Si Si3 0.553198 0.893442 0.832567
Si Si4 0.175794 0.394842 0.491741
Si Si5 0.611990 0.256816 0.577290
Si Si6 0.223610 0.304724 0.873219
O O1 0.473260 0.337609 0.773177
O O2 0.572103 0.184879 0.939728
O O3 0.500000 0.312449 0.000000
O O4 0.663899 0.350461 0.052085
O O5 0.224015 0.124286 0.480848
O O6 0.087911 0.151108 0.484333
O O7 0.066405 0.000000 0.351283
O O8 0.431210 0.878599 0.678433
O O9 0.631728 0.880329 0.812484
O O10 0.570301 0.000000 0.892881
O O11 0.181371 0.500000 0.543698
O O12 0.181198 0.322103 0.589284
O O13 0.500000 0.212706 0.500000
O O14 0.680662 0.273295 0.748532
O O15 0.250000 0.250000 0.000000
#
# Coordination Sequence:
#
# PCOD8108724 Si02
#       6
#     8   8   8   8   8   8
#     4  11  23  41  66  94 129 173 206 256 322 382
#     4  11  25  43  64  92 127 170 218 262 311 376
#     4  10  21  40  63  93 127 162 206 260 315 370
#     4  10  21  38  64  94 121 156 207 263 314 365
#     4  12  21  39  67  92 122 162 209 267 313 367
#     4  10  22  40  59  89 127 165 204 249 317 379
#
# _framework density 20.705092
#
# number of rings (size 3 to 8) (size 9 to 14) (size 15 to 20)
#    0.000    1.333    3.333    2.500    2.333    2.667 
#    0.000    3.333    0.000    0.000    0.000    0.000 
#    0.000    0.000    0.000    0.000    0.000    0.000 
#
# Total GULP energy -297420.163346 kJ/mol
# GULP energy per Si atom -12392.506806 kJ/mol
# Density = 2.065797 g / cm^3
# Si number density = 20.705092 Si / 1000 Ang^3
#
#
#
# Elastic Constant Matrix: (Units=GPa)
#
#
# Indices 1 2 3 4 5 6 
#
# 1 87.2826 11.8558 38.0043 0.0000 2.9769 0.0000
# 2 11.8558 89.7560 22.9193 0.0000 -12.6377 0.0000
# 3 38.0043 22.9193 118.2099 0.0000 -1.0444 0.0000
# 4 0.0000 0.0000 0.0000 15.1473 0.0000 7.6698
# 5 2.9769 -12.6377 -1.0444 0.0000 49.1478 0.0000
# 6 0.0000 0.0000 0.0000 7.6698 0.0000 17.5357
#
#
#
# Elastic Compliance Matrix: (Units=1/GPa)
#
#
# Indices 1 2 3 4 5 6 
#
# 1 0.013424 -0.000870 -0.004157 0.000000 -0.001125 0.000000
# 2 -0.000870 0.012227 -0.002063 0.000000 0.003153 0.000000
# 3 -0.004157 -0.002063 0.010195 0.000000 -0.000062 0.000000
# 4 0.000000 0.000000 0.000000 0.084798 0.000000 -0.037089
# 5 -0.001125 0.003153 -0.000062 0.000000 0.021224 0.000000
# 6 0.000000 0.000000 0.000000 -0.037089 0.000000 0.073249
#
#
# Mechanical properties :
#
#
# Convention : Reuss Voigt Hill
#
# Bulk Modulus (GPa) = 46.15547 48.97859 47.56703
# Shear Modulus (GPa) = 21.13990 31.19742 26.16866
#
# Velocity S-wave (km/s) = 3.19878 3.88590 3.55896
# Velocity P-wave (km/s) = 5.99859 6.62120 6.31757
#
# Compressibility (1/GPa) = 0.02166590
#
# Stress axis : x y z
#
# Youngs Moduli (GPa) = 74.49577 81.78641 98.08333
#
# Poissons Ratio (x) = 0.07116 0.40772
# Poissons Ratio (y) = 0.06482 0.20235
# Poissons Ratio (z) = 0.30967 0.16873
#
# Static dielectric constant tensor:
#      x y z
#    x 4.802040 0.000000 0.898320 
#    y 0.000000 3.761560 0.000000 
#    z 0.898320 0.000000 4.404970 
# 
# 
# High freq. dielectric constant tensor:
#      x y z
#    x 1.823550 0.000000 0.018650 
#    y 0.000000 1.787660 0.000000 
#    z 0.018650 0.000000 1.819030 
# 
# From -- ./inp_files/225460.got.cif
#   From: 2010.06.25/outbox.cif.g09.slc.cpg/sg12_113_cif.got.tgz:225460.got - 2010.06.28 00:19:55.
