data_PCOD8108867
_publ_section_title
;
Structure prediction by ZEFSAII (Michael W. Deem and Ramdas Pophale) SiO2 
 PCOD8108867
Probable space group: C 2/M
;
_chemical_formula_sum "Si O2"
_cell_formula_units_Z 48
_cell_length_a 20.151936
_cell_length_b 8.992379
_cell_length_c 17.253262
_cell_angle_alpha 90.000000
_cell_angle_beta 125.704604
_cell_angle_gamma 90.000000
_cell_volume 2538.856868
_symmetry_space_group_name_H-M "C 2/M"
_symmetry_group_IT_number 12
_symmetry_cell_setting 'monoclinic'
loop_
_space_group_symop_operation_xyz
x,y,z
-x,y,-z
-x,-y,-z
x,-y,z
1/2+x,1/2+y,z
1/2-x,1/2+y,-z
1/2-x,1/2-y,-z
1/2+x,1/2-y,z
loop_
_atom_site_type_symbol
_atom_site_label
_atom_site_fract_x
_atom_site_fract_y
_atom_site_fract_z
Si Si1 0.540765 0.329229 0.610155
Si Si2 0.791779 0.329148 0.297596
Si Si3 0.125159 0.325490 0.903128
Si Si4 0.203673 0.825373 0.397567
Si Si5 0.032956 0.323558 0.295516
Si Si6 0.720449 0.671024 0.090107
O O1 0.500000 0.306340 0.500000
O O2 0.537219 0.500000 0.635162
O O3 0.633941 0.279511 0.668428
O O4 0.490128 0.227315 0.634182
O O5 0.822303 0.500000 0.313819
O O6 0.754136 0.291531 0.354676
O O7 0.723711 0.300802 0.184586
O O8 0.124897 0.500000 0.911755
O O9 0.194175 0.272462 0.889142
O O10 0.037498 0.271497 0.812131
O O11 0.143804 0.257407 0.000482
O O12 0.250000 0.750000 0.500000
O O13 0.115298 0.755105 0.324789
O O14 0.195454 0.000000 0.408306
O O15 0.045199 0.500000 0.304488
O O16 0.707005 0.500000 0.060832
#
# Coordination Sequence:
#
# PCOD8108867 Si02
#       6
#     8   8   8   8   8   8
#     4  11  23  36  55  85 115 143 188 244 288 337
#     4  10  21  39  59  82 113 152 191 233 287 344
#     4   9  18  33  55  84 114 146 185 230 283 339
#     4  11  24  41  61  84 115 155 197 237 287 344
#     4  11  22  39  60  83 116 154 192 235 285 342
#     4   9  17  33  56  83 113 145 186 231 281 341
#
# _framework density 18.906146
#
# number of rings (size 3 to 8) (size 9 to 14) (size 15 to 20)
#    0.000    1.833    1.667    2.500    0.000    7.333 
#    0.000    0.833    0.000    5.000    0.000    0.000 
#    0.000    0.000    0.000    0.000    0.000    0.000 
#
# Total GULP energy -297658.794835 kJ/mol
# GULP energy per Si atom -12402.449785 kJ/mol
# Density = 1.886312 g / cm^3
# Si number density = 18.906146 Si / 1000 Ang^3
#
#
#
# Elastic Constant Matrix: (Units=GPa)
#
#
# Indices 1 2 3 4 5 6 
#
# 1 32.9943 9.4476 3.9183 0.0000 -1.4889 0.0000
# 2 9.4476 43.9328 22.0113 0.0000 0.6892 0.0000
# 3 3.9183 22.0113 98.2097 0.0000 -2.6359 0.0000
# 4 0.0000 0.0000 0.0000 32.6866 0.0000 4.3668
# 5 -1.4889 0.6892 -2.6359 0.0000 32.9988 0.0000
# 6 0.0000 0.0000 0.0000 4.3668 0.0000 29.8111
#
#
#
# Elastic Compliance Matrix: (Units=1/GPa)
#
#
# Indices 1 2 3 4 5 6 
#
# 1 0.032393 -0.007172 0.000359 0.000000 0.001640 0.000000
# 2 -0.007172 0.027262 -0.005860 0.000000 -0.001361 0.000000
# 3 0.000359 -0.005860 0.011510 0.000000 0.001058 0.000000
# 4 0.000000 0.000000 0.000000 0.031204 0.000000 -0.004571
# 5 0.001640 -0.001361 0.001058 0.000000 0.030491 0.000000
# 6 0.000000 0.000000 0.000000 -0.004571 0.000000 0.034214
#
#
# Mechanical properties :
#
#
# Convention : Reuss Voigt Hill
#
# Bulk Modulus (GPa) = 21.82519 27.32123 24.57321
# Shear Modulus (GPa) = 24.07396 28.41660 26.24528
#
# Velocity S-wave (km/s) = 3.57226 3.88111 3.72988
# Velocity P-wave (km/s) = 5.34638 5.87931 5.61917
#
# Compressibility (1/GPa) = 0.04581862
#
# Stress axis : x y z
#
# Youngs Moduli (GPa) = 30.87074 36.68136 86.88214
#
# Poissons Ratio (x) = 0.26306 -0.03119
# Poissons Ratio (y) = 0.22139 0.50917
# Poissons Ratio (z) = -0.01108 0.21497
#
# Static dielectric constant tensor:
#      x y z
#    x 3.423340 0.000000 -0.023010 
#    y 0.000000 3.513420 0.000000 
#    z -0.023010 0.000000 3.708770 
# 
# 
# High freq. dielectric constant tensor:
#      x y z
#    x 1.713430 0.000000 -0.001320 
#    y 0.000000 1.738840 0.000000 
#    z -0.001320 0.000000 1.751970 
# 
# From -- ./inp_files/244889.got.cif
#   From: 2010.06.25/outbox.cif.g09.slc.cpg/sg12_123_cif.got.tgz:244889.got - 2010.06.28 00:19:55.
