data_PCOD8108622
_publ_section_title
;
Structure prediction by ZEFSAII (Michael W. Deem and Ramdas Pophale) SiO2 
 PCOD8108622
Probable space group: C 2/M
;
_chemical_formula_sum "Si O2"
_cell_formula_units_Z 64
_cell_length_a 19.448068
_cell_length_b 8.551527
_cell_length_c 30.124244
_cell_angle_alpha 90.000000
_cell_angle_beta 38.072749
_cell_angle_gamma 90.000000
_cell_volume 3089.464035
_symmetry_space_group_name_H-M "C 2/M"
_symmetry_group_IT_number 12
_symmetry_cell_setting 'monoclinic'
loop_
_space_group_symop_operation_xyz
x,y,z
-x,y,-z
-x,-y,-z
x,-y,z
1/2+x,1/2+y,z
1/2-x,1/2+y,-z
1/2-x,1/2-y,-z
1/2+x,1/2-y,z
loop_
_atom_site_type_symbol
_atom_site_label
_atom_site_fract_x
_atom_site_fract_y
_atom_site_fract_z
Si Si1 0.990167 0.319803 0.212902
Si Si2 0.945376 0.181574 0.981261
Si Si3 0.414591 0.184642 0.506921
Si Si4 0.950312 0.316308 0.389739
Si Si5 0.838419 0.817411 0.364586
Si Si6 0.283768 0.320296 0.881078
Si Si7 0.890858 0.319882 0.169944
Si Si8 0.813220 0.679611 0.771810
O O1 0.025427 0.500000 0.197627
O O2 0.922590 0.279591 0.291501
O O3 0.914961 0.282483 0.208825
O O4 0.102239 0.219094 0.151559
O O5 0.814222 0.215739 0.048615
O O6 0.966778 0.000000 0.960944
O O7 0.000000 0.232910 0.000000
O O8 0.000783 0.282049 0.914292
O O9 0.500000 0.257295 0.500000
O O10 0.441048 0.250599 0.444408
O O11 0.287961 0.228618 0.584083
O O12 0.431008 0.000000 0.497260
O O13 0.923571 0.500000 0.401508
O O14 0.861130 0.226766 0.404265
O O15 0.074051 0.277007 0.310518
O O16 0.859776 0.000000 0.346231
O O17 0.252643 0.500000 0.904186
O O18 0.299273 0.288939 0.821235
O O19 0.858071 0.500000 0.179580
O O20 0.788507 0.208924 0.209645
O O21 0.812012 0.500000 0.788127
#
# Coordination Sequence:
#
# PCOD8108622 Si02
#       8
#     8   8   8   8   8   8   8   8
#     4  11  25  44  63  89 128 166 205 256 317 370
#     4  11  23  40  65  93 124 164 206 252 310 375
#     4   9  20  38  60  91 125 161 206 254 306 365
#     4  10  21  38  63  89 123 166 204 252 309 366
#     4  11  22  37  64  92 120 162 210 258 304 366
#     4  12  24  40  66  94 124 161 208 259 306 365
#     4  11  25  42  63  91 124 164 208 261 312 365
#     4  11  22  37  62  93 125 164 207 255 312 373
#
# _framework density 20.715567
#
# number of rings (size 3 to 8) (size 9 to 14) (size 15 to 20)
#    0.000    1.250    2.500    3.375    1.750    3.500 
#    0.000    0.625    0.000    1.875    0.000    0.000 
#    0.000    0.000    0.000    0.000    0.000    0.000 
#
# Total GULP energy -397002.281488 kJ/mol
# GULP energy per Si atom -12406.321296 kJ/mol
# Density = 2.066842 g / cm^3
# Si number density = 20.715567 Si / 1000 Ang^3
#
#
#
# Elastic Constant Matrix: (Units=GPa)
#
#
# Indices 1 2 3 4 5 6 
#
# 1 101.7788 24.3808 30.6583 0.0199 -5.1117 0.0180
# 2 24.3808 43.1896 8.2521 0.0105 -1.2773 0.0141
# 3 30.6583 8.2521 70.9411 0.0068 -9.0667 0.0085
# 4 0.0199 0.0105 0.0068 17.8083 -0.0040 1.4365
# 5 -5.1117 -1.2773 -9.0667 -0.0040 37.9558 -0.0035
# 6 0.0180 0.0141 0.0085 1.4365 -0.0035 28.7100
#
#
#
# Elastic Compliance Matrix: (Units=1/GPa)
#
#
# Indices 1 2 3 4 5 6 
#
# 1 0.012781 -0.006298 -0.004743 -0.000008 0.000376 -0.000003
# 2 -0.006298 0.026784 -0.000399 -0.000008 -0.000042 -0.000009
# 3 -0.004743 -0.000399 0.016616 0.000000 0.003317 -0.000001
# 4 -0.000008 -0.000008 0.000000 0.056381 0.000004 -0.002821
# 5 0.000376 -0.000042 0.003317 0.000004 0.027188 0.000002
# 6 -0.000003 -0.000009 -0.000001 -0.002821 0.000002 0.034972
#
#
# Mechanical properties :
#
#
# Convention : Reuss Voigt Hill
#
# Bulk Modulus (GPa) = 30.02870 38.05465 34.04167
# Shear Modulus (GPa) = 23.95738 27.06938 25.51338
#
# Velocity S-wave (km/s) = 3.40441 3.61878 3.51323
# Velocity P-wave (km/s) = 5.47545 5.98921 5.73808
#
# Compressibility (1/GPa) = 0.03330148
#
# Stress axis : x y z
#
# Youngs Moduli (GPa) = 78.23816 37.33583 60.18176
#
# Poissons Ratio (x) = 0.23514 0.28544
# Poissons Ratio (y) = 0.49273 0.02403
# Poissons Ratio (z) = 0.37108 0.01491
#
# Static dielectric constant tensor:
#      x y z
#    x 3.939230 -0.000010 -0.028870 
#    y -0.000010 3.617070 0.000000 
#    z -0.028870 0.000000 3.762210 
# 
# 
# High freq. dielectric constant tensor:
#      x y z
#    x 1.818210 0.000000 -0.006220 
#    y 0.000000 1.800900 0.000000 
#    z -0.006220 0.000000 1.817750 
# 
# From -- ./inp_files/378248.got.cif
#   From: 2010.06.25/outbox.cif.g09.slc.cpg/sg12_190_cif.got.tgz:378248.got - 2010.06.28 00:19:55.
