data_PCOD8108382
_publ_section_title
;
Structure prediction by ZEFSAII (Michael W. Deem and Ramdas Pophale) SiO2 
 PCOD8108382
Probable space group: C 2/M
;
_chemical_formula_sum "Si O2"
_cell_formula_units_Z 56
_cell_length_a 27.051056
_cell_length_b 8.463668
_cell_length_c 13.555248
_cell_angle_alpha 90.000000
_cell_angle_beta 59.945250
_cell_angle_gamma 90.000000
_cell_volume 2686.216908
_symmetry_space_group_name_H-M "C 2/M"
_symmetry_group_IT_number 12
_symmetry_cell_setting 'monoclinic'
loop_
_space_group_symop_operation_xyz
x,y,z
-x,y,-z
-x,-y,-z
x,-y,z
1/2+x,1/2+y,z
1/2-x,1/2+y,-z
1/2-x,1/2-y,-z
1/2+x,1/2-y,z
loop_
_atom_site_type_symbol
_atom_site_label
_atom_site_fract_x
_atom_site_fract_y
_atom_site_fract_z
Si Si1 0.796633 0.813954 0.879040
Si Si2 0.019443 0.182979 0.588644
Si Si3 0.867075 0.681309 0.442846
Si Si4 0.063027 0.682816 0.968185
Si Si5 0.158391 0.180774 0.738415
Si Si6 0.275883 0.683775 0.679510
Si Si7 0.918070 0.816133 0.840295
O O1 0.784672 0.749375 0.781179
O O2 0.859175 0.758832 0.850087
O O3 0.791711 0.000000 0.882924
O O4 0.750000 0.750000 0.000000
O O5 0.073359 0.287570 0.563118
O O6 0.000000 0.235540 0.500000
O O7 0.968101 0.218134 0.713799
O O8 0.037703 0.000000 0.571594
O O9 0.863770 0.500000 0.413252
O O10 0.862931 0.789365 0.350697
O O11 0.815359 0.717112 0.567563
O O12 0.073707 0.500000 0.931940
O O13 0.106911 0.789514 0.864546
O O14 0.070897 0.709953 0.075887
O O15 0.000000 0.736512 0.000000
O O16 0.210557 0.294694 0.713147
O O17 0.178188 0.000000 0.728614
O O18 0.292586 0.500000 0.655714
O O19 0.915442 0.000000 0.872686
#
# Coordination Sequence:
#
# PCOD8108382 Si02
#       7
#     8   8   8   8   8   8   8
#     4  10  22  39  61  89 121 157 197 244 296 354
#     4  10  21  40  65  91 122 162 206 252 303 358
#     4  12  25  41  62  91 125 160 201 249 303 362
#     4  11  24  41  61  88 122 159 201 250 302 357
#     4  12  25  42  64  90 121 158 202 251 304 362
#     4  11  23  42  65  90 122 160 202 248 302 360
#     4  10  21  38  61  89 120 157 202 247 297 358
#
# _framework density 20.847162000000001
#
# number of rings (size 3 to 8) (size 9 to 14) (size 15 to 20)
#    0.000    1.143    0.000    6.429    0.000   10.571 
#    0.000    1.429    0.000    0.000    0.000    0.000 
#    0.000    0.000    0.000    0.000    0.000    0.000 
#
# Total GULP energy -347436.064474 kJ/mol
# GULP energy per Si atom -12408.430874 kJ/mol
# Density = 2.079971 g / cm^3
# Si number density = 20.847162 Si / 1000 Ang^3
#
#
#
# Elastic Constant Matrix: (Units=GPa)
#
#
# Indices 1 2 3 4 5 6 
#
# 1 139.1975 21.1632 50.6954 0.0000 0.1367 0.0000
# 2 21.1632 58.0249 21.5269 0.0000 -1.5099 0.0000
# 3 50.6954 21.5269 139.0910 0.0000 5.9815 0.0000
# 4 0.0000 0.0000 0.0000 31.2622 0.0000 0.7480
# 5 0.1367 -1.5099 5.9815 0.0000 43.5786 0.0000
# 6 0.0000 0.0000 0.0000 0.7480 0.0000 24.2462
#
#
#
# Elastic Compliance Matrix: (Units=1/GPa)
#
#
# Indices 1 2 3 4 5 6 
#
# 1 0.008516 -0.002061 -0.002797 0.000000 0.000286 0.000000
# 2 -0.002061 0.018828 -0.002204 0.000000 0.000961 0.000000
# 3 -0.002797 -0.002204 0.008604 0.000000 -0.001249 0.000000
# 4 0.000000 0.000000 0.000000 0.032011 0.000000 -0.000987
# 5 0.000286 0.000961 -0.001249 0.000000 0.023151 0.000000
# 6 0.000000 0.000000 0.000000 -0.000987 0.000000 0.041274
#
#
# Mechanical properties :
#
#
# Convention : Reuss Voigt Hill
#
# Bulk Modulus (GPa) = 45.82185 58.12048 51.97116
# Shear Modulus (GPa) = 32.51334 36.01260 34.26297
#
# Velocity S-wave (km/s) = 3.95347 4.16078 4.05845
# Velocity P-wave (km/s) = 6.54733 7.14301 6.85165
#
# Compressibility (1/GPa) = 0.02182365
#
# Stress axis : x y z
#
# Youngs Moduli (GPa) = 117.42899 53.11131 116.22660
#
# Poissons Ratio (x) = 0.10945 0.32510
# Poissons Ratio (y) = 0.24199 0.25620
# Poissons Ratio (z) = 0.32847 0.11707
#
# Static dielectric constant tensor:
#      x y z
#    x 3.733630 0.000000 0.087920 
#    y 0.000000 3.581350 0.000000 
#    z 0.087920 0.000000 3.865670 
# 
# 
# High freq. dielectric constant tensor:
#      x y z
#    x 1.832920 0.000000 0.000600 
#    y 0.000000 1.810320 0.000000 
#    z 0.000600 0.000000 1.833710 
# 
# From -- ./inp_files/180663.got.cif
#   From: 2010.06.25/outbox.cif.g09.slc.cpg/sg12_91_cif.got.tgz:180663.got - 2010.06.28 00:19:55.
