data_PCOD8108671
_publ_section_title
;
Structure prediction by ZEFSAII (Michael W. Deem and Ramdas Pophale) SiO2 
 PCOD8108671
Probable space group: C 2/M
;
_chemical_formula_sum "Si O2"
_cell_formula_units_Z 32
_cell_length_a 19.850542
_cell_length_b 15.070729
_cell_length_c 8.460225
_cell_angle_alpha 90.000000
_cell_angle_beta 148.472796
_cell_angle_gamma 90.000000
_cell_volume 1323.457373
_symmetry_space_group_name_H-M "C 2/M"
_symmetry_group_IT_number 12
_symmetry_cell_setting 'monoclinic'
loop_
_space_group_symop_operation_xyz
x,y,z
-x,y,-z
-x,-y,-z
x,-y,z
1/2+x,1/2+y,z
1/2-x,1/2+y,-z
1/2-x,1/2-y,-z
1/2+x,1/2-y,z
loop_
_atom_site_type_symbol
_atom_site_label
_atom_site_fract_x
_atom_site_fract_y
_atom_site_fract_z
Si Si1 0.011711 0.604809 0.839025
Si Si2 0.750002 0.832314 0.127677
Si Si3 0.749996 0.096203 0.817767
Si Si4 0.011705 0.895191 0.207807
O O1 0.032549 0.500000 0.844698
O O2 0.880129 0.644271 0.500249
O O3 0.126012 0.662746 0.992604
O O4 0.000000 0.623384 0.000000
O O5 0.873996 0.837254 0.488563
O O6 0.750000 0.750000 0.000000
O O7 0.749998 0.915300 0.007696
O O8 0.749994 0.000000 0.735673
O O9 0.880121 0.144270 0.020246
O O10 0.032543 0.000000 0.285484
O O11 0.000000 0.876615 0.000000
#
# Coordination Sequence:
#
# PCOD8108671 Si02
#       4
#     8   8   8   8
#     4  10  21  41  69  97 127 170 229 291 341 394
#     4  12  25  40  60  96 139 177 215 267 349 428
#     4  10  21  38  63  94 125 167 226 287 342 398
#     4  10  21  41  69  97 127 170 229 291 341 394
#
# _framework density 24.179093999999999
#
# number of rings (size 3 to 8) (size 9 to 14) (size 15 to 20)
#    0.000    1.500    0.000    5.250    0.000   12.000 
#    0.000    7.500    0.000    0.000    0.000    0.000 
#    0.000    0.000    0.000    0.000    0.000    0.000 
#
# Total GULP energy -198241.097823 kJ/mol
# GULP energy per Si atom -12390.068614 kJ/mol
# Density = 2.412406 g / cm^3
# Si number density = 24.179094 Si / 1000 Ang^3
#
#
#
# Elastic Constant Matrix: (Units=GPa)
#
#
# Indices 1 2 3 4 5 6 
#
# 1 210.1793 36.3524 111.6669 0.0000 16.6090 0.0000
# 2 36.3524 91.7361 40.1416 0.0000 3.4174 0.0000
# 3 111.6669 40.1416 247.8020 0.0000 17.3233 0.0000
# 4 0.0000 0.0000 0.0000 7.9574 0.0000 -16.1531
# 5 16.6090 3.4174 17.3233 0.0000 59.1081 0.0000
# 6 0.0000 0.0000 0.0000 -16.1531 0.0000 25.8681
#
#
#
# Elastic Compliance Matrix: (Units=1/GPa)
#
#
# Indices 1 2 3 4 5 6 
#
# 1 0.006466 -0.001379 -0.002623 0.000000 -0.000969 0.000000
# 2 -0.001379 0.012027 -0.001333 0.000000 0.000083 0.000000
# 3 -0.002623 -0.001333 0.005489 0.000000 -0.000795 0.000000
# 4 0.000000 0.000000 0.000000 -0.469636 0.000000 -0.293261
# 5 -0.000969 0.000083 -0.000795 0.000000 0.017418 0.000000
# 6 0.000000 0.000000 0.000000 -0.293261 0.000000 -0.144467
#
#
# Mechanical properties :
#
#
# Convention : Reuss Voigt Hill
#
# Bulk Modulus (GPa) = 75.10995 102.89324 89.00159
# Shear Modulus (GPa) = -8.96708 42.69049 16.86170
#
# Velocity S-wave (km/s) = -1.92786 4.20646 2.64364
# Velocity P-wave (km/s) = 5.11624 8.13876 6.79762
#
# Compressibility (1/GPa) = 0.01331382
#
# Stress axis : x y z
#
# Youngs Moduli (GPa) = 154.64656 83.14427 182.18626
#
# Poissons Ratio (x) = 0.11463 0.47786
# Poissons Ratio (y) = 0.21320 0.24282
# Poissons Ratio (z) = 0.40562 0.11082
#
# Static dielectric constant tensor:
#      x y z
#    x 4.555530 0.000000 -0.013790 
#    y 0.000000 4.310270 0.000000 
#    z -0.013790 0.000000 4.540240 
# 
# 
# High freq. dielectric constant tensor:
#      x y z
#    x 1.971900 0.000000 0.001790 
#    y 0.000000 1.953750 0.000000 
#    z 0.001790 0.000000 1.973890 
# 
# From -- ./inp_files/88292.got.cif
#   From: 2010.06.25/outbox.cif.g09.slc.cpg/sg12_45_cif.got.tgz:88292.got - 2010.06.28 00:19:55.
