data_PCOD8108389
_publ_section_title
;
Structure prediction by ZEFSAII (Michael W. Deem and Ramdas Pophale) SiO2 
 PCOD8108389
Probable space group: C 2/M
;
_chemical_formula_sum "Si O2"
_cell_formula_units_Z 64
_cell_length_a 18.389806
_cell_length_b 8.918849
_cell_length_c 28.334658
_cell_angle_alpha 90.000000
_cell_angle_beta 43.616768
_cell_angle_gamma 90.000000
_cell_volume 3205.877497
_symmetry_space_group_name_H-M "C 2/M"
_symmetry_group_IT_number 12
_symmetry_cell_setting 'monoclinic'
loop_
_space_group_symop_operation_xyz
x,y,z
-x,y,-z
-x,-y,-z
x,-y,z
1/2+x,1/2+y,z
1/2-x,1/2+y,-z
1/2-x,1/2-y,-z
1/2+x,1/2-y,z
loop_
_atom_site_type_symbol
_atom_site_label
_atom_site_fract_x
_atom_site_fract_y
_atom_site_fract_z
Si Si1 0.428950 0.325080 0.801733
Si Si2 0.853633 0.322116 0.314997
Si Si3 0.138856 0.176242 0.062721
Si Si4 0.748580 0.325850 0.190374
Si Si5 0.537060 0.329474 0.929320
Si Si6 0.992335 0.335823 0.448923
Si Si7 0.286885 0.823327 0.695442
Si Si8 0.216626 0.174832 0.467896
O O1 0.457984 0.500000 0.787261
O O2 0.527196 0.233633 0.734656
O O3 0.404053 0.269770 0.866376
O O4 0.327718 0.289167 0.817392
O O5 0.851191 0.500000 0.313083
O O6 0.807198 0.256053 0.288491
O O7 0.785096 0.263092 0.391735
O O8 0.055577 0.225400 0.061929
O O9 0.157126 0.000000 0.053972
O O10 0.250000 0.250000 0.000000
O O11 0.744006 0.500000 0.206352
O O12 0.866401 0.283061 0.120929
O O13 0.712796 0.225750 0.250811
O O14 0.570593 0.500000 0.900561
O O15 0.500000 0.319933 0.000000
O O16 0.966002 0.500000 0.438168
O O17 0.101720 0.271629 0.378007
O O18 0.000000 0.362063 0.500000
O O19 0.905743 0.210980 0.480162
O O20 0.269687 0.000000 0.699200
O O21 0.250000 0.250000 0.500000
O O22 0.233457 0.000000 0.464502
#
# Coordination Sequence:
#
# PCOD8108389 Si02
#       8
#     8   8   8   8   8   8   8   8
#     4  10  23  41  60  86 123 164 204 247 300 359
#     4  11  24  41  62  90 120 156 204 252 301 362
#     4  10  21  38  61  89 121 158 199 242 297 359
#     4  11  24  40  60  90 123 159 208 256 301 358
#     4  10  21  38  62  92 124 160 205 253 304 363
#     4  10  21  40  64  90 117 154 202 248 305 372
#     4  11  23  40  64  88 119 159 199 250 310 370
#     4  11  25  41  61  89 123 159 201 252 304 363
#
# _framework density 19.963332000000001
#
# number of rings (size 3 to 8) (size 9 to 14) (size 15 to 20)
#    0.000    1.500    1.250    3.000    1.750    6.000 
#    0.000    0.000    0.000    0.000    0.000    0.000 
#    0.000    0.000    0.000    0.000    0.000    0.000 
#
# Total GULP energy -396934.514438 kJ/mol
# GULP energy per Si atom -12404.203576 kJ/mol
# Density = 1.991789 g / cm^3
# Si number density = 19.963332 Si / 1000 Ang^3
#
#
#
# Elastic Constant Matrix: (Units=GPa)
#
#
# Indices 1 2 3 4 5 6 
#
# 1 143.1144 40.9682 56.0932 -0.0001 -3.4355 0.0003
# 2 40.9682 61.2007 37.3272 -0.0001 -7.0664 0.0013
# 3 56.0932 37.3272 114.0554 -0.0001 -12.5996 -0.0001
# 4 -0.0001 -0.0001 -0.0001 37.3939 0.0000 -5.2373
# 5 -3.4355 -7.0664 -12.5996 0.0000 39.7336 -0.0002
# 6 0.0003 0.0013 -0.0001 -5.2373 -0.0002 33.8051
#
#
#
# Elastic Compliance Matrix: (Units=1/GPa)
#
#
# Indices 1 2 3 4 5 6 
#
# 1 0.009556 -0.004473 -0.003350 0.000000 -0.001031 0.000000
# 2 -0.004473 0.022603 -0.004970 0.000000 0.002057 -0.000001
# 3 -0.003350 -0.004970 0.012345 0.000000 0.002741 0.000000
# 4 0.000000 0.000000 0.000000 0.027335 0.000000 0.004235
# 5 -0.001031 0.002057 0.002741 0.000000 0.026313 0.000000
# 6 0.000000 -0.000001 0.000000 0.004235 0.000000 0.030237
#
#
# Mechanical properties :
#
#
# Convention : Reuss Voigt Hill
#
# Bulk Modulus (GPa) = 52.86117 65.23865 59.04991
# Shear Modulus (GPa) = 31.19514 34.45198 32.82356
#
# Velocity S-wave (km/s) = 3.95729 4.15874 4.05926
# Velocity P-wave (km/s) = 6.88599 7.47063 7.18426
#
# Compressibility (1/GPa) = 0.01891748
#
# Stress axis : x y z
#
# Youngs Moduli (GPa) = 104.64618 44.24228 81.00743
#
# Poissons Ratio (x) = 0.19789 0.27136
# Poissons Ratio (y) = 0.46807 0.40263
# Poissons Ratio (z) = 0.35054 0.21990
#
# Static dielectric constant tensor:
#      x y z
#    x 3.635810 0.000000 0.086420 
#    y 0.000000 3.036790 0.000000 
#    z 0.086420 0.000000 3.747260 
# 
# 
# High freq. dielectric constant tensor:
#      x y z
#    x 1.790180 0.000000 0.001190 
#    y 0.000000 1.776570 0.000000 
#    z 0.001190 0.000000 1.791630 
# 
# From -- ./inp_files/378114.got.cif
#   From: 2010.06.25/outbox.cif.g09.slc.cpg/sg12_190_cif.got.tgz:378114.got - 2010.06.28 00:19:55.
