data_PCOD8108114
_publ_section_title
;
Structure prediction by ZEFSAII (Michael W. Deem and Ramdas Pophale) SiO2 
 PCOD8108114
Probable space group: C 2/M
;
_chemical_formula_sum "Si O2"
_cell_formula_units_Z 56
_cell_length_a 24.216078
_cell_length_b 14.158836
_cell_length_c 8.548095
_cell_angle_alpha 90.000000
_cell_angle_beta 109.041038
_cell_angle_gamma 90.000000
_cell_volume 2770.534303
_symmetry_space_group_name_H-M "C 2/M"
_symmetry_group_IT_number 12
_symmetry_cell_setting 'monoclinic'
loop_
_space_group_symop_operation_xyz
x,y,z
-x,y,-z
-x,-y,-z
x,-y,z
1/2+x,1/2+y,z
1/2-x,1/2+y,-z
1/2-x,1/2-y,-z
1/2+x,1/2-y,z
loop_
_atom_site_type_symbol
_atom_site_label
_atom_site_fract_x
_atom_site_fract_y
_atom_site_fract_z
Si Si1 0.493099 0.801678 0.179667
Si Si2 0.236050 0.390768 0.067025
Si Si3 0.296708 0.771467 0.674732
Si Si4 0.163559 0.891907 0.078215
Si Si5 0.468566 0.601194 0.133258
Si Si6 0.881157 0.389948 0.220268
Si Si7 0.892631 0.611050 0.586410
O O1 0.497507 0.692139 0.244560
O O2 0.429448 0.839075 0.161662
O O3 0.540822 0.864672 0.310029
O O4 0.500000 0.806585 0.000000
O O5 0.234546 0.500000 0.115106
O O6 0.236841 0.327903 0.221798
O O7 0.293841 0.365185 0.024438
O O8 0.181150 0.364011 0.908692
O O9 0.250000 0.750000 0.500000
O O10 0.323482 0.673232 0.760469
O O11 0.349640 0.834588 0.661535
O O12 0.173498 0.000000 0.141608
O O13 0.098870 0.874158 0.957107
O O14 0.474552 0.500000 0.231700
O O15 0.500000 0.585814 0.000000
O O16 0.894871 0.500000 0.226191
O O17 0.881287 0.355236 0.399298
O O18 0.882023 0.500000 0.598101
#
# Coordination Sequence:
#
# PCOD8108114 Si02
#       7
#     8   8   8   8   8   8   8
#     4  11  21  35  60  90 118 152 197 246 300 361
#     4  10  21  39  62  87 117 155 200 249 298 353
#     4  12  24  37  59  89 122 156 194 245 302 358
#     4  10  21  38  60  85 116 158 205 248 295 355
#     4   9  18  34  57  83 112 148 191 238 286 343
#     4  10  21  38  60  85 118 159 199 244 298 356
#     4  11  24  41  59  85 121 158 197 243 299 361
#
# _framework density 20.212710000000001
#
# number of rings (size 3 to 8) (size 9 to 14) (size 15 to 20)
#    0.000    1.571    0.000    6.000    0.000    6.857 
#    0.000    0.000    0.000    2.571    0.000    0.000 
#    0.000    0.000    0.000    0.000    0.000    0.000 
#
# Total GULP energy -347227.701367 kJ/mol
# GULP energy per Si atom -12400.989335 kJ/mol
# Density = 2.016670 g / cm^3
# Si number density = 20.212710 Si / 1000 Ang^3
#
#
#
# Elastic Constant Matrix: (Units=GPa)
#
#
# Indices 1 2 3 4 5 6 
#
# 1 136.0621 48.0001 32.0758 0.0000 -5.2817 0.0000
# 2 48.0001 96.7522 48.1448 0.0000 -13.6672 0.0000
# 3 32.0758 48.1448 94.3589 0.0000 -10.3513 0.0000
# 4 0.0000 0.0000 0.0000 31.1879 0.0000 -0.6643
# 5 -5.2817 -13.6672 -10.3513 0.0000 23.6048 0.0000
# 6 0.0000 0.0000 0.0000 -0.6643 0.0000 35.3654
#
#
#
# Elastic Compliance Matrix: (Units=1/GPa)
#
#
# Indices 1 2 3 4 5 6 
#
# 1 0.008999 -0.004036 -0.001087 0.000000 -0.000800 0.000000
# 2 -0.004036 0.016291 -0.006308 0.000000 0.005763 0.000000
# 3 -0.001087 -0.006308 0.014454 0.000000 0.002443 0.000000
# 4 0.000000 0.000000 0.000000 0.032077 0.000000 0.000603
# 5 -0.000800 0.005763 0.002443 0.000000 0.046593 0.000000
# 6 0.000000 0.000000 0.000000 0.000603 0.000000 0.028288
#
#
# Mechanical properties :
#
#
# Convention : Reuss Voigt Hill
#
# Bulk Modulus (GPa) = 59.23944 64.84608 62.04276
# Shear Modulus (GPa) = 28.54017 31.29511 29.91764
#
# Velocity S-wave (km/s) = 3.76172 3.93910 3.85143
# Velocity P-wave (km/s) = 6.94543 7.26912 7.10912
#
# Compressibility (1/GPa) = 0.01688065
#
# Stress axis : x y z
#
# Youngs Moduli (GPa) = 111.12564 61.38279 69.18538
#
# Poissons Ratio (x) = 0.24777 0.07522
# Poissons Ratio (y) = 0.44855 0.43642
# Poissons Ratio (z) = 0.12083 0.38720
#
# Static dielectric constant tensor:
#      x y z
#    x 3.725130 0.000000 -0.066100 
#    y 0.000000 4.169680 0.000000 
#    z -0.066100 0.000000 3.456570 
# 
# 
# High freq. dielectric constant tensor:
#      x y z
#    x 1.809470 0.000000 0.002750 
#    y 0.000000 1.813350 0.000000 
#    z 0.002750 0.000000 1.761830 
# 
# From -- ./inp_files/96947.got.cif
#   From: 2010.06.25/outbox.cif.g09.slc.cpg/sg12_49_cif.got.tgz:96947.got - 2010.06.28 00:19:55.
