data_PCOD8108993
_publ_section_title
;
Structure prediction by ZEFSAII (Michael W. Deem and Ramdas Pophale) SiO2 
 PCOD8108993
Probable space group: C 2/M
;
_chemical_formula_sum "Si O2"
_cell_formula_units_Z 64
_cell_length_a 29.454305
_cell_length_b 8.806582
_cell_length_c 25.746273
_cell_angle_alpha 90.000000
_cell_angle_beta 149.999056
_cell_angle_gamma 90.000000
_cell_volume 3339.280724
_symmetry_space_group_name_H-M "C 2/M"
_symmetry_group_IT_number 12
_symmetry_cell_setting 'monoclinic'
loop_
_space_group_symop_operation_xyz
x,y,z
-x,y,-z
-x,-y,-z
x,-y,z
1/2+x,1/2+y,z
1/2-x,1/2+y,-z
1/2-x,1/2-y,-z
1/2+x,1/2-y,z
loop_
_atom_site_type_symbol
_atom_site_label
_atom_site_fract_x
_atom_site_fract_y
_atom_site_fract_z
Si Si1 0.257438 0.821373 0.845171
Si Si2 0.329392 0.821674 0.611294
Si Si3 0.491947 0.325860 0.244643
Si Si4 0.250393 0.319525 0.279672
Si Si5 0.921542 0.173301 0.064809
Si Si6 0.124459 0.178537 0.237010
Si Si7 0.058312 0.320724 0.507793
Si Si8 0.932097 0.822546 0.299732
O O1 0.262209 0.758820 0.791387
O O2 0.166028 0.757783 0.781086
O O3 0.252375 0.000000 0.839307
O O4 0.344799 0.776445 0.964326
O O5 0.250000 0.750000 0.500000
O O6 0.423039 0.785685 0.674923
O O7 0.324650 0.749065 0.663420
O O8 0.315754 0.000000 0.602814
O O9 0.527225 0.500000 0.276712
O O10 0.424364 0.295702 0.129469
O O11 0.439812 0.291811 0.246102
O O12 0.250283 0.500000 0.283127
O O13 0.164579 0.253639 0.225302
O O14 0.344365 0.258796 0.395764
O O15 0.017671 0.216333 0.134065
O O16 0.896746 0.000000 0.028342
O O17 0.142300 0.000000 0.254368
O O18 0.072619 0.500000 0.521728
O O19 0.000000 0.267771 0.500000
O O20 0.008649 0.269774 0.406134
O O21 0.943436 0.000000 0.324351
#
# Coordination Sequence:
#
# PCOD8108993 Si02
#       8
#     8   8   8   8   8   8   8   8
#     4  10  22  38  59  87 117 154 199 245 289 348
#     4  11  22  37  58  84 116 154 194 240 294 348
#     4   9  20  39  60  84 116 154 196 240 291 350
#     4  11  23  39  60  87 119 157 198 240 295 354
#     4   9  20  39  61  84 115 153 192 245 300 347
#     4  10  22  41  61  85 117 152 196 244 293 352
#     4  11  23  38  58  85 119 156 195 245 296 346
#     4  10  21  39  61  85 118 158 198 239 290 351
#
# _framework density 19.165804000000001
#
# number of rings (size 3 to 8) (size 9 to 14) (size 15 to 20)
#    0.000    1.875    1.250    3.000    1.750    6.000 
#    0.000    2.500    0.000    0.000    0.000    0.000 
#    0.000    0.000    0.000    0.000    0.000    0.000 
#
# Total GULP energy -396924.959631 kJ/mol
# GULP energy per Si atom -12403.904988 kJ/mol
# Density = 1.912218 g / cm^3
# Si number density = 19.165804 Si / 1000 Ang^3
#
#
#
# Elastic Constant Matrix: (Units=GPa)
#
#
# Indices 1 2 3 4 5 6 
#
# 1 145.6613 38.7277 57.0383 0.0000 -17.6339 0.0000
# 2 38.7277 69.1439 34.4665 0.0000 -3.7755 0.0000
# 3 57.0383 34.4665 127.1653 0.0000 -9.3139 0.0000
# 4 0.0000 0.0000 0.0000 36.0305 0.0000 -0.2454
# 5 -17.6339 -3.7755 -9.3139 0.0000 17.5657 0.0000
# 6 0.0000 0.0000 0.0000 -0.2454 0.0000 29.9575
#
#
#
# Elastic Compliance Matrix: (Units=1/GPa)
#
#
# Indices 1 2 3 4 5 6 
#
# 1 0.009896 -0.003691 -0.002881 0.000000 0.007614 0.000000
# 2 -0.003691 0.018125 -0.003374 0.000000 -0.001599 0.000000
# 3 -0.002881 -0.003374 0.010202 0.000000 0.001792 0.000000
# 4 0.000000 0.000000 0.000000 0.027756 0.000000 0.000227
# 5 0.007614 -0.001599 0.001792 0.000000 0.065179 0.000000
# 6 0.000000 0.000000 0.000000 0.000227 0.000000 0.033383
#
#
# Mechanical properties :
#
#
# Convention : Reuss Voigt Hill
#
# Bulk Modulus (GPa) = 54.55301 66.93728 60.74515
# Shear Modulus (GPa) = 26.24087 30.82661 28.53374
#
# Velocity S-wave (km/s) = 3.70422 4.01486 3.86266
# Velocity P-wave (km/s) = 6.84255 7.51620 7.18727
#
# Compressibility (1/GPa) = 0.01833079
#
# Stress axis : x y z
#
# Youngs Moduli (GPa) = 101.04587 55.17375 98.02373
#
# Poissons Ratio (x) = 0.20366 0.28239
# Poissons Ratio (y) = 0.37299 0.33072
# Poissons Ratio (z) = 0.29109 0.18615
#
# Static dielectric constant tensor:
#      x y z
#    x 3.816380 0.000000 -0.043180 
#    y 0.000000 3.474360 0.000000 
#    z -0.043180 0.000000 3.435960 
# 
# 
# High freq. dielectric constant tensor:
#      x y z
#    x 1.754810 0.000000 -0.003880 
#    y 0.000000 1.745510 0.000000 
#    z -0.003880 0.000000 1.746590 
# 
# From -- ./inp_files/353457.got.cif
#   From: 2010.06.25/outbox.cif.g09.slc.cpg/sg12_177_cif.got.tgz:353457.got - 2010.06.28 00:19:55.
