data_PCOD8108481
_publ_section_title
;
Structure prediction by ZEFSAII (Michael W. Deem and Ramdas Pophale) SiO2 
 PCOD8108481
Probable space group: C 2/M
;
_chemical_formula_sum "Si O2"
_cell_formula_units_Z 56
_cell_length_a 9.753495
_cell_length_b 17.643983
_cell_length_c 27.110852
_cell_angle_alpha 90.000000
_cell_angle_beta 38.491728
_cell_angle_gamma 90.000000
_cell_volume 2903.827356
_symmetry_space_group_name_H-M "C 2/M"
_symmetry_group_IT_number 12
_symmetry_cell_setting 'monoclinic'
loop_
_space_group_symop_operation_xyz
x,y,z
-x,y,-z
-x,-y,-z
x,-y,z
1/2+x,1/2+y,z
1/2-x,1/2+y,-z
1/2-x,1/2-y,-z
1/2+x,1/2-y,z
loop_
_atom_site_type_symbol
_atom_site_label
_atom_site_fract_x
_atom_site_fract_y
_atom_site_fract_z
Si Si1 0.008828 0.205217 0.145722
Si Si2 0.871199 0.184051 0.716676
Si Si3 0.346249 0.326559 0.086341
Si Si4 0.035605 0.413560 0.757703
Si Si5 0.021971 0.415379 0.648182
Si Si6 0.244546 0.769076 0.445340
Si Si7 0.533979 0.412709 0.762024
O O1 0.782822 0.245573 0.225986
O O2 0.000712 0.193368 0.089387
O O3 0.031335 0.125048 0.167490
O O4 0.223995 0.252660 0.099643
O O5 0.753749 0.134685 0.707613
O O6 0.096156 0.216358 0.631661
O O7 0.916265 0.132442 0.751388
O O8 0.166794 0.389569 0.150775
O O9 0.500000 0.360298 0.000000
O O10 0.092596 0.500000 0.752686
O O11 0.966490 0.398791 0.720970
O O12 0.120321 0.500000 0.614615
O O13 0.201897 0.357540 0.577191
O O14 0.797072 0.407855 0.680484
O O15 0.250000 0.750000 0.500000
O O16 0.000000 0.749674 0.500000
O O17 0.453873 0.500000 0.784958
#
# Coordination Sequence:
#
# PCOD8108481 Si02
#       7
#     8   8   8   8   8   8   8
#     4  11  21  38  62  86 117 162 206 248 294 358
#     4  11  22  39  62  85 118 157 207 251 291 360
#     4  11  22  36  59  92 125 157 197 251 307 362
#     4  10  21  38  62  88 114 155 204 250 297 354
#     4  10  21  39  61  84 116 158 205 248 298 359
#     4  12  24  37  59  89 121 155 196 249 310 361
#     4  11  21  37  63  88 115 155 208 257 295 349
#
# _framework density 19.284893
#
# number of rings (size 3 to 8) (size 9 to 14) (size 15 to 20)
#    0.000    1.143    4.286    2.571    2.000    0.571 
#    0.000    1.429    0.000    4.286    0.000    0.000 
#    0.000    0.000    0.000    0.000    0.000    0.000 
#
# Total GULP energy -347291.713099 kJ/mol
# GULP energy per Si atom -12403.275468 kJ/mol
# Density = 1.924100 g / cm^3
# Si number density = 19.284893 Si / 1000 Ang^3
#
#
#
# Elastic Constant Matrix: (Units=GPa)
#
#
# Indices 1 2 3 4 5 6 
#
# 1 97.6368 34.6616 20.6257 0.0068 6.4083 0.0012
# 2 34.6616 118.8314 39.9889 -0.0079 7.5672 0.0036
# 3 20.6257 39.9889 94.7079 -0.0342 6.4741 0.0181
# 4 0.0068 -0.0079 -0.0342 21.1708 -0.0035 6.9658
# 5 6.4083 7.5672 6.4741 -0.0035 29.7561 0.0044
# 6 0.0012 0.0036 0.0181 6.9658 0.0044 25.6121
#
#
#
# Elastic Compliance Matrix: (Units=1/GPa)
#
#
# Indices 1 2 3 4 5 6 
#
# 1 0.011621 -0.002887 -0.001209 -0.000008 -0.001506 0.000003
# 2 -0.002887 0.010604 -0.003763 -0.000002 -0.001256 0.000002
# 3 -0.001209 -0.003763 0.012514 0.000024 -0.001505 -0.000014
# 4 -0.000008 -0.000002 0.000024 0.051877 0.000005 -0.014109
# 5 -0.001506 -0.001256 -0.001505 0.000005 0.034578 -0.000006
# 6 0.000003 0.000002 -0.000014 -0.014109 -0.000006 0.042881
#
#
# Mechanical properties :
#
#
# Convention : Reuss Voigt Hill
#
# Bulk Modulus (GPa) = 52.57275 55.74761 54.16018
# Shear Modulus (GPa) = 26.86258 29.70112 28.28185
#
# Velocity S-wave (km/s) = 3.73625 3.92870 3.83368
# Velocity P-wave (km/s) = 6.77739 7.03916 6.90951
#
# Compressibility (1/GPa) = 0.01902126
#
# Stress axis : x y z
#
# Youngs Moduli (GPa) = 86.04991 94.30797 79.91254
#
# Poissons Ratio (x) = 0.27227 0.09661
# Poissons Ratio (y) = 0.24843 0.30068
# Poissons Ratio (z) = 0.10403 0.35484
#
# Static dielectric constant tensor:
#      x y z
#    x 3.746190 -0.000010 0.197560 
#    y -0.000010 3.654580 0.000000 
#    z 0.197560 0.000000 3.885630 
# 
# 
# High freq. dielectric constant tensor:
#      x y z
#    x 1.769660 0.000000 -0.000500 
#    y 0.000000 1.755970 0.000000 
#    z -0.000500 0.000000 1.729400 
# 
# From -- ./inp_files/257001.got.cif
#   From: 2010.06.25/outbox.cif.g09.slc.cpg/sg12_129_cif.got.tgz:257001.got - 2010.06.28 00:19:55.
