data_PCOD8108971
_publ_section_title
;
Structure prediction by ZEFSAII (Michael W. Deem and Ramdas Pophale) SiO2 
 PCOD8108971
Probable space group: C 2/M
;
_chemical_formula_sum "Si O2"
_cell_formula_units_Z 48
_cell_length_a 18.214725
_cell_length_b 14.467233
_cell_length_c 9.015158
_cell_angle_alpha 90.000000
_cell_angle_beta 100.332239
_cell_angle_gamma 90.000000
_cell_volume 2337.121623
_symmetry_space_group_name_H-M "C 2/M"
_symmetry_group_IT_number 12
_symmetry_cell_setting 'monoclinic'
loop_
_space_group_symop_operation_xyz
x,y,z
-x,y,-z
-x,-y,-z
x,-y,z
1/2+x,1/2+y,z
1/2-x,1/2+y,-z
1/2-x,1/2-y,-z
1/2+x,1/2-y,z
loop_
_atom_site_type_symbol
_atom_site_label
_atom_site_fract_x
_atom_site_fract_y
_atom_site_fract_z
Si Si1 0.950466 0.599870 0.837697
Si Si2 0.213214 0.603471 0.260301
Si Si3 0.286963 0.104821 0.395606
Si Si4 0.852795 0.783874 0.302550
Si Si5 0.002790 0.789400 0.824107
Si Si6 0.620468 0.393069 0.391364
O O1 0.955529 0.500000 0.753568
O O2 0.864348 0.616943 0.855292
O O3 0.977317 0.688112 0.752762
O O4 0.000000 0.593175 0.000000
O O5 0.244891 0.500000 0.255390
O O6 0.196844 0.625196 0.426439
O O7 0.275447 0.671506 0.218166
O O8 0.337898 0.174499 0.319036
O O9 0.198824 0.122674 0.334157
O O10 0.309076 0.000000 0.359409
O O11 0.882380 0.831067 0.462962
O O12 0.912865 0.803926 0.197435
O O13 0.947828 0.866793 0.739917
O O14 0.000000 0.794020 0.000000
O O15 0.612531 0.500000 0.435207
#
# Coordination Sequence:
#
# PCOD8108971 Si02
#       6
#     8   8   8   8   8   8
#     4   9  18  35  56  76 106 147 184 221 271 330
#     4   9  17  32  56  83 108 137 182 236 281 324
#     4   9  18  33  57  87 112 138 179 234 284 323
#     4  11  20  34  60  85 110 145 187 231 272 327
#     4  11  24  38  53  80 117 153 186 225 275 326
#     4  10  21  39  61  83 111 146 185 229 277 331
#
# _framework density 20.538084999999999
#
# number of rings (size 3 to 8) (size 9 to 14) (size 15 to 20)
#    0.000    2.167    0.000    6.000    0.000    3.000 
#    0.000    7.500    0.000   13.000    0.000    0.000 
#    0.000    0.000    0.000    0.000    0.000    0.000 
#
# Total GULP energy -297498.901521 kJ/mol
# GULP energy per Si atom -12395.787563 kJ/mol
# Density = 2.049134 g / cm^3
# Si number density = 20.538085 Si / 1000 Ang^3
#
#
#
# Elastic Constant Matrix: (Units=GPa)
#
#
# Indices 1 2 3 4 5 6 
#
# 1 139.5295 53.4773 58.7909 0.0000 16.0935 0.0000
# 2 53.4773 115.6052 30.3806 0.0000 1.6082 0.0000
# 3 58.7909 30.3806 56.4498 0.0000 -1.6642 0.0000
# 4 0.0000 0.0000 0.0000 12.5529 0.0000 10.3683
# 5 16.0935 1.6082 -1.6642 0.0000 27.0574 0.0000
# 6 0.0000 0.0000 0.0000 10.3683 0.0000 28.8746
#
#
#
# Elastic Compliance Matrix: (Units=1/GPa)
#
#
# Indices 1 2 3 4 5 6 
#
# 1 0.016021 -0.003266 -0.015230 0.000000 -0.010272 0.000000
# 2 -0.003266 0.010764 -0.002358 0.000000 0.001157 0.000000
# 3 -0.015230 -0.002358 0.035181 0.000000 0.011363 0.000000
# 4 0.000000 0.000000 0.000000 0.113252 0.000000 -0.040666
# 5 -0.010272 0.001157 0.011363 0.000000 0.043698 0.000000
# 6 0.000000 0.000000 0.000000 -0.040666 0.000000 0.049235
#
#
# Mechanical properties :
#
#
# Convention : Reuss Voigt Hill
#
# Bulk Modulus (GPa) = 49.36366 66.32024 57.84195
# Shear Modulus (GPa) = 15.79225 24.95937 20.37581
#
# Velocity S-wave (km/s) = 2.77596 3.48986 3.15318
# Velocity P-wave (km/s) = 5.86191 6.97139 6.44058
#
# Compressibility (1/GPa) = 0.02025782
#
# Stress axis : x y z
#
# Youngs Moduli (GPa) = 62.41976 92.89950 28.42449
#
# Poissons Ratio (x) = 0.30337 0.43291
# Poissons Ratio (y) = 0.20383 0.06703
# Poissons Ratio (z) = 0.95067 0.21907
#
# Static dielectric constant tensor:
#      x y z
#    x 3.841230 0.000000 0.272570 
#    y 0.000000 4.323380 0.000000 
#    z 0.272570 0.000000 3.180090 
# 
# 
# High freq. dielectric constant tensor:
#      x y z
#    x 1.810840 0.000000 0.026500 
#    y 0.000000 1.825170 0.000000 
#    z 0.026500 0.000000 1.748330 
# 
# From -- ./inp_files/73605.got.cif
#   From: 2010.06.25/outbox.cif.g09.slc.cpg/sg12_37_cif.got.tgz:73605.got - 2010.06.28 00:19:55.
