data_PCOD8108317
_publ_section_title
;
Structure prediction by ZEFSAII (Michael W. Deem and Ramdas Pophale) SiO2 
 PCOD8108317
Probable space group: C 2/M
;
_chemical_formula_sum "Si O2"
_cell_formula_units_Z 56
_cell_length_a 17.459327
_cell_length_b 14.802462
_cell_length_c 11.580683
_cell_angle_alpha 90.000000
_cell_angle_beta 120.162564
_cell_angle_gamma 90.000000
_cell_volume 2587.691547
_symmetry_space_group_name_H-M "C 2/M"
_symmetry_group_IT_number 12
_symmetry_cell_setting 'monoclinic'
loop_
_space_group_symop_operation_xyz
x,y,z
-x,y,-z
-x,-y,-z
x,-y,z
1/2+x,1/2+y,z
1/2-x,1/2+y,-z
1/2-x,1/2-y,-z
1/2+x,1/2-y,z
loop_
_atom_site_type_symbol
_atom_site_label
_atom_site_fract_x
_atom_site_fract_y
_atom_site_fract_z
Si Si1 0.700472 0.893463 0.309606
Si Si2 0.670324 0.213784 0.866455
Si Si3 0.777179 0.400024 0.307209
Si Si4 0.933215 0.600945 0.598801
Si Si5 0.406804 0.106810 0.986351
Si Si6 0.513329 0.285904 0.638974
Si Si7 0.649379 0.607547 0.413669
O O1 0.620670 0.863077 0.331748
O O2 0.795011 0.857553 0.430471
O O3 0.705726 0.000000 0.326056
O O4 0.675438 0.864049 0.160434
O O5 0.718823 0.160492 0.801875
O O6 0.606405 0.153059 0.899706
O O7 0.611708 0.296918 0.767970
O O8 0.750000 0.250000 0.000000
O O9 0.749757 0.500000 0.246699
O O10 0.871529 0.402242 0.440478
O O11 0.703096 0.363229 0.340172
O O12 0.974500 0.500000 0.649768
O O13 0.006947 0.676353 0.632592
O O14 0.407108 0.000000 0.005868
O O15 0.500000 0.137322 0.000000
O O16 0.500000 0.325031 0.500000
O O17 0.442929 0.339427 0.663331
O O18 0.632956 0.500000 0.405388
#
# Coordination Sequence:
#
# PCOD8108317 Si02
#       7
#     8   8   8   8   8   8   8
#     4   8  16  33  61  93 116 157 208 252 308 362
#     4  12  27  41  57  90 132 167 201 254 313 376
#     4   9  19  41  67  93 122 164 211 259 314 370
#     4   9  18  35  62  95 129 158 201 258 310 372
#     4  10  21  38  61  87 124 166 202 244 308 382
#     4  12  25  40  61  97 124 164 213 257 319 376
#     4   9  21  42  69  92 119 160 219 275 309 357
#
# _framework density 21.640910000000002
#
# number of rings (size 3 to 8) (size 9 to 14) (size 15 to 20)
#    0.000    2.143    1.429    3.000    2.000    7.429 
#    0.000    1.429    0.000    1.714    0.000    0.000 
#    0.000    0.000    0.000    0.000    0.000    0.000 
#
# Total GULP energy -347034.791183 kJ/mol
# GULP energy per Si atom -12394.099685 kJ/mol
# Density = 2.159165 g / cm^3
# Si number density = 21.640910 Si / 1000 Ang^3
#
#
#
# Elastic Constant Matrix: (Units=GPa)
#
#
# Indices 1 2 3 4 5 6 
#
# 1 97.6843 34.3742 58.2096 0.0000 1.2864 0.0000
# 2 34.3742 44.4720 28.4630 0.0000 -1.7360 0.0000
# 3 58.2096 28.4630 141.1748 0.0000 -1.1730 0.0000
# 4 0.0000 0.0000 0.0000 22.9347 0.0000 -4.3156
# 5 1.2864 -1.7360 -1.1730 0.0000 35.4685 0.0000
# 6 0.0000 0.0000 0.0000 -4.3156 0.0000 25.9583
#
#
#
# Elastic Compliance Matrix: (Units=1/GPa)
#
#
# Indices 1 2 3 4 5 6 
#
# 1 0.016596 -0.009748 -0.004888 0.000000 -0.001241 0.000000
# 2 -0.009748 0.031585 -0.002334 0.000000 0.001822 0.000000
# 3 -0.004888 -0.002334 0.009573 0.000000 0.000380 0.000000
# 4 0.000000 0.000000 0.000000 0.045010 0.000000 0.007483
# 5 -0.001241 0.001822 0.000380 0.000000 0.028341 0.000000
# 6 0.000000 0.000000 0.000000 0.007483 0.000000 0.039767
#
#
# Mechanical properties :
#
#
# Convention : Reuss Voigt Hill
#
# Bulk Modulus (GPa) = 41.99042 58.38052 50.18547
# Shear Modulus (GPa) = 23.50174 27.69125 25.59650
#
# Velocity S-wave (km/s) = 3.29901 3.58100 3.44289
# Velocity P-wave (km/s) = 5.82723 6.64331 6.24861
#
# Compressibility (1/GPa) = 0.02381496
#
# Stress axis : x y z
#
# Youngs Moduli (GPa) = 60.25413 31.66025 104.46574
#
# Poissons Ratio (x) = 0.30862 0.51063
# Poissons Ratio (y) = 0.58736 0.24378
# Poissons Ratio (z) = 0.29452 0.07388
#
# Static dielectric constant tensor:
#      x y z
#    x 3.859520 0.000000 -0.169090 
#    y 0.000000 3.716250 0.000000 
#    z -0.169090 0.000000 4.147020 
# 
# 
# High freq. dielectric constant tensor:
#      x y z
#    x 1.847490 0.000000 -0.009300 
#    y 0.000000 1.825520 0.000000 
#    z -0.009300 0.000000 1.850900 
# 
# From -- ./inp_files/156699.got.cif
#   From: 2010.06.25/outbox.cif.g09.slc.cpg/sg12_79_cif.got.tgz:156699.got - 2010.06.28 00:19:55.
