data_PCOD8108611
_publ_section_title
;
Structure prediction by ZEFSAII (Michael W. Deem and Ramdas Pophale) SiO2 
 PCOD8108611
Probable space group: C 2/M
;
_chemical_formula_sum "Si O2"
_cell_formula_units_Z 56
_cell_length_a 15.749479
_cell_length_b 23.102491
_cell_length_c 8.910947
_cell_angle_alpha 90.000000
_cell_angle_beta 117.719458
_cell_angle_gamma 90.000000
_cell_volume 2870.171103
_symmetry_space_group_name_H-M "C 2/M"
_symmetry_group_IT_number 12
_symmetry_cell_setting 'monoclinic'
loop_
_space_group_symop_operation_xyz
x,y,z
-x,y,-z
-x,-y,-z
x,-y,z
1/2+x,1/2+y,z
1/2-x,1/2+y,-z
1/2-x,1/2-y,-z
1/2+x,1/2-y,z
loop_
_atom_site_type_symbol
_atom_site_label
_atom_site_fract_x
_atom_site_fract_y
_atom_site_fract_z
Si Si1 0.105965 0.632440 0.061868
Si Si2 0.104428 0.933163 0.624300
Si Si3 0.745954 0.834570 0.749099
Si Si4 0.239851 0.932486 0.002356
Si Si5 0.408819 0.261668 0.021423
Si Si6 0.234151 0.847396 0.584973
Si Si7 0.103239 0.242020 0.654688
O O1 0.094425 0.692471 0.963506
O O2 0.157744 0.647485 0.262262
O O3 0.168302 0.586892 0.018951
O O4 0.000000 0.605407 0.000000
O O5 0.179452 0.906869 0.570428
O O6 0.000000 0.905539 0.500000
O O7 0.101246 0.000000 0.583758
O O8 0.141777 0.921992 0.825842
O O9 0.764263 0.895309 0.848460
O O10 0.815202 0.784494 0.864032
O O11 0.762692 0.841075 0.588341
O O12 0.640315 0.808499 0.691881
O O13 0.250788 0.000000 0.053567
O O14 0.500000 0.282794 0.000000
O O15 0.408403 0.286568 0.190218
O O16 0.177416 0.795064 0.616986
O O17 0.000000 0.242350 0.500000
#
# Coordination Sequence:
#
# PCOD8108611 Si02
#       7
#     8   8   8   8   8   8   8
#     4  10  21  38  63  88 120 158 200 251 297 360
#     4   9  19  39  64  87 116 156 203 248 294 352
#     4  12  24  38  58  88 125 158 196 251 296 362
#     4  10  22  41  63  88 119 161 206 250 299 350
#     4  11  22  38  61  89 121 156 195 246 302 358
#     4  11  23  37  60  90 124 158 202 240 304 359
#     4  12  24  38  59  85 121 160 197 245 302 362
#
# _framework density 19.511033000000001
#
# number of rings (size 3 to 8) (size 9 to 14) (size 15 to 20)
#    0.000    1.286    2.857    3.857    4.000    2.000 
#    0.000    0.000    0.000    6.000    0.000    0.000 
#    0.000    0.000    0.000    0.000    0.000    0.000 
#
# Total GULP energy -347143.051452 kJ/mol
# GULP energy per Si atom -12397.966123 kJ/mol
# Density = 1.946663 g / cm^3
# Si number density = 19.511033 Si / 1000 Ang^3
#
#
#
# Elastic Constant Matrix: (Units=GPa)
#
#
# Indices 1 2 3 4 5 6 
#
# 1 108.6774 40.8007 85.1690 0.0000 1.8068 0.0000
# 2 40.8007 78.3220 35.8588 0.0000 -2.0024 0.0000
# 3 85.1690 35.8588 154.9251 0.0000 -6.8125 0.0000
# 4 0.0000 0.0000 0.0000 33.0396 0.0000 1.5145
# 5 1.8068 -2.0024 -6.8125 0.0000 49.0926 0.0000
# 6 0.0000 0.0000 0.0000 1.5145 0.0000 -35.0819
#
#
#
# Elastic Compliance Matrix: (Units=1/GPa)
#
#
# Indices 1 2 3 4 5 6 
#
# 1 0.018233 -0.005504 -0.008843 0.000000 -0.002123 0.000000
# 2 -0.005504 0.015943 -0.000631 0.000000 0.000765 0.000000
# 3 -0.008843 -0.000631 0.011546 0.000000 0.001902 0.000000
# 4 0.000000 0.000000 0.000000 0.030207 0.000000 0.001304
# 5 -0.002123 0.000765 0.001902 0.000000 0.020743 0.000000
# 6 0.000000 0.000000 0.000000 0.001304 0.000000 -0.028448
#
#
# Mechanical properties :
#
#
# Convention : Reuss Voigt Hill
#
# Bulk Modulus (GPa) = 63.42427 73.95351 68.68889
# Shear Modulus (GPa) = 48.33932 21.41644 34.87788
#
# Velocity S-wave (km/s) = 4.98289 3.31669 4.23259
# Velocity P-wave (km/s) = 8.10450 7.25623 7.69207
#
# Compressibility (1/GPa) = 0.01576683
#
# Stress axis : x y z
#
# Youngs Moduli (GPa) = 54.84438 62.72190 86.61159
#
# Poissons Ratio (x) = 0.34522 0.76591
# Poissons Ratio (y) = 0.30186 0.05464
# Poissons Ratio (z) = 0.48499 0.03957
#
# Static dielectric constant tensor:
#      x y z
#    x 11.160580 0.000000 -4.811790 
#    y 0.000000 3.522930 0.000000 
#    z -4.811790 0.000000 7.052520 
# 
# 
# High freq. dielectric constant tensor:
#      x y z
#    x 1.756650 0.000000 0.009760 
#    y 0.000000 1.751310 0.000000 
#    z 0.009760 0.000000 1.771470 
# 
# From -- ./inp_files/65773.got.cif
#   From: 2010.06.25/outbox.cif.g09.slc.cpg/sg12_33_cif.got.tgz:65773.got - 2010.06.28 00:19:55.
