data_PCOD8108848
_publ_section_title
;
Structure prediction by ZEFSAII (Michael W. Deem and Ramdas Pophale) SiO2 
 PCOD8108848
Probable space group: C 2/M
;
_chemical_formula_sum "Si O2"
_cell_formula_units_Z 44
_cell_length_a 14.080526
_cell_length_b 25.431460
_cell_length_c 13.775086
_cell_angle_alpha 90.000000
_cell_angle_beta 151.074321
_cell_angle_gamma 90.000000
_cell_volume 2385.821044
_symmetry_space_group_name_H-M "C 2/M"
_symmetry_group_IT_number 12
_symmetry_cell_setting 'monoclinic'
loop_
_space_group_symop_operation_xyz
x,y,z
-x,y,-z
-x,-y,-z
x,-y,z
1/2+x,1/2+y,z
1/2-x,1/2+y,-z
1/2-x,1/2-y,-z
1/2+x,1/2-y,z
loop_
_atom_site_type_symbol
_atom_site_label
_atom_site_fract_x
_atom_site_fract_y
_atom_site_fract_z
Si Si1 0.000000 0.334522 0.000000
Si Si2 0.421500 0.263783 0.728019
Si Si3 0.247309 0.000000 0.612600
Si Si4 0.040131 0.412907 0.869830
Si Si5 0.291250 0.180107 0.074768
Si Si6 0.207634 0.000000 0.806181
Si Si7 0.710162 0.755228 0.730880
O O1 0.951936 0.371254 0.865903
O O2 0.808072 0.299306 0.852110
O O3 0.250000 0.250000 0.500000
O O4 0.557228 0.212236 0.857631
O O5 0.341138 0.279321 0.761509
O O6 0.570091 0.311553 0.832377
O O7 0.359335 0.051350 0.670446
O O8 0.266033 0.000000 0.745795
O O9 0.023853 0.000000 0.380032
O O10 0.143975 0.381041 0.873558
O O11 0.206759 0.447994 0.068860
O O12 0.304096 0.201759 0.196416
O O13 0.500000 0.741125 0.500000
#
# Coordination Sequence:
#
# PCOD8108848 Si02
#       7
#     4   8   4   8   8   4   8
#     4  12  20  35  54  82 120 157 194 234 274 346
#     4  11  21  36  54  80 119 157 202 238 276 338
#     4  10  21  39  60  83 115 141 189 254 305 360
#     4  11  21  36  57  83 113 151 193 236 296 348
#     4  11  22  37  55  82 117 160 198 240 286 340
#     4  10  21  39  58  85 111 145 190 245 311 363
#     4  12  23  36  55  82 125 164 199 238 280 337
#
# _framework density 18.442288000000001
#
# number of rings (size 3 to 8) (size 9 to 14) (size 15 to 20)
#    0.000    0.909    7.273    1.636    0.000    2.909 
#    0.000    0.000    0.000    0.000    0.000   12.727 
#    0.000    0.000    0.000    0.000    0.000    0.000 
#
# Total GULP energy -272636.240733 kJ/mol
# GULP energy per Si atom -12392.556397 kJ/mol
# Density = 1.840031 g / cm^3
# Si number density = 18.442288 Si / 1000 Ang^3
#
#
#
# Elastic Constant Matrix: (Units=GPa)
#
#
# Indices 1 2 3 4 5 6 
#
# 1 99.6147 56.3726 37.3706 -0.0001 6.9454 0.0000
# 2 56.3726 109.6858 35.6014 -0.0001 9.9558 0.0000
# 3 37.3706 35.6014 116.7419 -0.0003 20.4471 -0.0001
# 4 -0.0001 -0.0001 -0.0003 10.7602 -0.0001 4.4302
# 5 6.9454 9.9558 20.4471 -0.0001 31.8551 0.0000
# 6 0.0000 0.0000 -0.0001 4.4302 0.0000 40.1117
#
#
#
# Elastic Compliance Matrix: (Units=1/GPa)
#
#
# Indices 1 2 3 4 5 6 
#
# 1 0.014898 -0.006806 -0.002813 0.000000 0.000685 0.000000
# 2 -0.006806 0.013278 -0.001581 0.000000 -0.001651 0.000000
# 3 -0.002813 -0.001581 0.010990 0.000000 -0.005947 0.000000
# 4 0.000000 0.000000 0.000000 0.097362 0.000000 -0.010753
# 5 0.000685 -0.001651 -0.005947 0.000000 0.035576 0.000000
# 6 0.000000 0.000000 0.000000 -0.010753 0.000000 0.026118
#
#
# Mechanical properties :
#
#
# Convention : Reuss Voigt Hill
#
# Bulk Modulus (GPa) = 59.64862 64.97020 62.30941
# Shear Modulus (GPa) = 22.10322 29.65858 25.88090
#
# Velocity S-wave (km/s) = 3.46570 4.01457 3.75019
# Velocity P-wave (km/s) = 6.95905 7.53621 7.25337
#
# Compressibility (1/GPa) = 0.01676485
#
# Stress axis : x y z
#
# Youngs Moduli (GPa) = 67.12419 75.31356 90.98869
#
# Poissons Ratio (x) = 0.51256 0.25599
# Poissons Ratio (y) = 0.45682 0.14390
# Poissons Ratio (z) = 0.18885 0.11911
#
# Static dielectric constant tensor:
#      x y z
#    x 3.506770 0.000000 0.250660 
#    y 0.000000 3.398850 0.000000 
#    z 0.250660 0.000000 3.595450 
# 
# 
# High freq. dielectric constant tensor:
#      x y z
#    x 1.712110 0.000000 0.017960 
#    y 0.000000 1.690950 0.000000 
#    z 0.017960 0.000000 1.723180 
# 
# From -- ./inp_files/218343.got.cif
#   From: 2010.06.25/outbox.cif.g09.slc.cpg/sg12_110_cif.got.tgz:218343.got - 2010.06.28 00:19:55.
