data_PCOD8108943
_publ_section_title
;
Structure prediction by ZEFSAII (Michael W. Deem and Ramdas Pophale) SiO2 
 PCOD8108943
Probable space group: C 2/M
;
_chemical_formula_sum "Si O2"
_cell_formula_units_Z 52
_cell_length_a 9.066000
_cell_length_b 18.620226
_cell_length_c 14.593119
_cell_angle_alpha 90.000000
_cell_angle_beta 95.763614
_cell_angle_gamma 90.000000
_cell_volume 2451.024897
_symmetry_space_group_name_H-M "C 2/M"
_symmetry_group_IT_number 12
_symmetry_cell_setting 'monoclinic'
loop_
_space_group_symop_operation_xyz
x,y,z
-x,y,-z
-x,-y,-z
x,-y,z
1/2+x,1/2+y,z
1/2-x,1/2+y,-z
1/2-x,1/2-y,-z
1/2+x,1/2-y,z
loop_
_atom_site_type_symbol
_atom_site_label
_atom_site_fract_x
_atom_site_fract_y
_atom_site_fract_z
Si Si1 0.454680 0.697334 0.652836
Si Si2 0.722478 0.266561 0.770542
Si Si3 0.000000 0.686965 0.500000
Si Si4 0.156083 0.919033 0.034808
Si Si5 0.226529 0.582891 0.608897
Si Si6 0.612255 0.864704 0.083681
Si Si7 0.130735 0.379792 0.800104
O O1 0.623054 0.681598 0.698814
O O2 0.350062 0.724587 0.726644
O O3 0.448959 0.760210 0.577310
O O4 0.389577 0.619879 0.617181
O O5 0.787333 0.303712 0.864205
O O6 0.601668 0.205419 0.789302
O O7 0.867926 0.633614 0.463959
O O8 0.273271 0.917691 0.958771
O O9 0.120295 0.000000 0.058300
O O10 0.219888 0.885283 0.131223
O O11 0.000000 0.880108 0.000000
O O12 0.236928 0.500000 0.574828
O O13 0.149790 0.580555 0.704580
O O14 0.515507 0.908328 0.154333
O O15 0.500000 0.831649 0.000000
#
# Coordination Sequence:
#
# PCOD8108943 Si02
#       7
#     8   8   4   8   8   8   8
#     4  11  23  41  69  93 130 166 217 256 320 386
#     4  11  21  40  61  95 121 162 212 262 313 374
#     4  12  21  44  71  96 124 172 214 260 317 398
#     4  10  23  38  56  83 118 164 207 253 320 380
#     4  11  24  40  66  99 131 166 210 269 324 381
#     4  10  22  37  58  88 120 160 211 261 309 362
#     4  10  21  39  60  85 123 161 206 260 307 376
#
# _framework density 21.215613999999999
#
# number of rings (size 3 to 8) (size 9 to 14) (size 15 to 20)
#    0.000    1.385    4.615    1.154    4.308    6.462 
#    0.000    0.385    0.000    0.000    0.000    0.000 
#    0.000    0.000    0.000    0.000    0.000    0.000 
#
# Total GULP energy -322162.159717 kJ/mol
# GULP energy per Si atom -12390.852297 kJ/mol
# Density = 2.116733 g / cm^3
# Si number density = 21.215614 Si / 1000 Ang^3
#
#
#
# Elastic Constant Matrix: (Units=GPa)
#
#
# Indices 1 2 3 4 5 6 
#
# 1 89.8612 23.4149 27.2417 0.0000 19.5814 0.0000
# 2 23.4149 106.5704 29.3425 0.0000 8.6593 0.0000
# 3 27.2417 29.3425 87.6174 0.0000 17.4283 0.0000
# 4 0.0000 0.0000 0.0000 -3.5503 0.0000 1.0536
# 5 19.5814 8.6593 17.4283 0.0000 25.5544 0.0000
# 6 0.0000 0.0000 0.0000 1.0536 0.0000 25.0864
#
#
#
# Elastic Compliance Matrix: (Units=1/GPa)
#
#
# Indices 1 2 3 4 5 6 
#
# 1 0.014146 -0.001832 -0.002027 0.000000 -0.008836 0.000000
# 2 -0.001832 0.010613 -0.002948 0.000000 -0.000182 0.000000
# 3 -0.002027 -0.002948 0.014489 0.000000 -0.007329 0.000000
# 4 0.000000 0.000000 0.000000 -0.278199 0.000000 0.011684
# 5 -0.008836 -0.000182 -0.007329 0.000000 0.050963 0.000000
# 6 0.000000 0.000000 0.000000 0.011684 0.000000 0.039372
#
#
# Mechanical properties :
#
#
# Convention : Reuss Voigt Hill
#
# Bulk Modulus (GPa) = 39.01334 49.33861 44.17598
# Shear Modulus (GPa) = -39.53832 23.02142 -8.25845
#
# Velocity S-wave (km/s) = -4.32168 3.29768 -1.97512
# Velocity P-wave (km/s) = 2.54433 6.14865 3.95805
#
# Compressibility (1/GPa) = 0.02563226
#
# Stress axis : x y z
#
# Youngs Moduli (GPa) = 70.69380 94.22847 69.01910
#
# Poissons Ratio (x) = 0.17262 0.13990
# Poissons Ratio (y) = 0.12950 0.20349
# Poissons Ratio (z) = 0.14329 0.27782
#
# Static dielectric constant tensor:
#      x y z
#    x 4.267830 0.000000 0.155240 
#    y 0.000000 3.684150 0.000000 
#    z 0.155240 0.000000 4.064040 
# 
# 
# High freq. dielectric constant tensor:
#      x y z
#    x 1.839930 0.000000 0.009990 
#    y 0.000000 1.805580 0.000000 
#    z 0.009990 0.000000 1.837160 
# 
# From -- ./inp_files/197129.got.cif
#   From: 2010.06.25/outbox.cif.g09.slc.cpg/sg12_99_cif.got.tgz:197129.got - 2010.06.28 00:19:55.
