data_PCOD8108378
_publ_section_title
;
Structure prediction by ZEFSAII (Michael W. Deem and Ramdas Pophale) SiO2 
 PCOD8108378
Probable space group: C 2/M
;
_chemical_formula_sum "Si O2"
_cell_formula_units_Z 64
_cell_length_a 29.623799
_cell_length_b 8.624411
_cell_length_c 19.700379
_cell_angle_alpha 90.000000
_cell_angle_beta 141.173994
_cell_angle_gamma 90.000000
_cell_volume 3155.606683
_symmetry_space_group_name_H-M "C 2/M"
_symmetry_group_IT_number 12
_symmetry_cell_setting 'monoclinic'
loop_
_space_group_symop_operation_xyz
x,y,z
-x,y,-z
-x,-y,-z
x,-y,z
1/2+x,1/2+y,z
1/2-x,1/2+y,-z
1/2-x,1/2-y,-z
1/2+x,1/2-y,z
loop_
_atom_site_type_symbol
_atom_site_label
_atom_site_fract_x
_atom_site_fract_y
_atom_site_fract_z
Si Si1 0.172752 0.819512 0.476516
Si Si2 0.318912 0.316950 0.042741
Si Si3 0.076245 0.679860 0.476192
Si Si4 0.803689 0.182781 0.869003
Si Si5 0.847300 0.181144 0.312936
Si Si6 0.911484 0.681170 0.258449
Si Si7 0.419810 0.683091 0.896446
Si Si8 0.163620 0.319058 0.325415
O O1 0.124227 0.785970 0.484295
O O2 0.140884 0.726181 0.375176
O O3 0.253859 0.765310 0.589102
O O4 0.171596 0.000000 0.457003
O O5 0.320732 0.500000 0.054348
O O6 0.390128 0.239862 0.158616
O O7 0.250000 0.250000 0.000000
O O8 0.320107 0.269991 0.965436
O O9 0.091558 0.500000 0.479686
O O10 0.095399 0.722390 0.575688
O O11 0.993844 0.722923 0.367499
O O12 0.733345 0.272591 0.760252
O O13 0.869608 0.240725 0.899549
O O14 0.789795 0.000000 0.845369
O O15 0.860497 0.226612 0.250616
O O16 0.859096 0.000000 0.338715
O O17 0.895542 0.500000 0.248116
O O18 0.424050 0.500000 0.902418
O O19 0.387981 0.733048 0.787237
O O20 0.500000 0.753591 0.000000
O O21 0.153555 0.500000 0.302429
#
# Coordination Sequence:
#
# PCOD8108378 Si02
#       8
#     8   8   8   8   8   8   8   8
#     4  10  21  38  62  90 119 155 199 247 296 358
#     4  11  22  38  62  89 119 158 203 252 300 354
#     4  11  24  40  59  86 123 161 197 244 303 363
#     4  10  22  40  63  88 119 159 201 247 304 363
#     4  12  24  38  61  89 118 155 202 252 299 358
#     4  11  24  41  60  85 120 161 200 246 304 360
#     4  10  22  40  61  88 121 159 201 248 302 360
#     4  10  21  38  61  89 120 156 198 245 301 358
#
# _framework density 20.281362000000001
#
# number of rings (size 3 to 8) (size 9 to 14) (size 15 to 20)
#    0.000    1.375    1.250    4.125    0.000    9.250 
#    0.000    1.250    0.000    0.000    0.000    0.000 
#    0.000    0.000    0.000    0.000    0.000    0.000 
#
# Total GULP energy -397006.884909 kJ/mol
# GULP energy per Si atom -12406.465153 kJ/mol
# Density = 2.023520 g / cm^3
# Si number density = 20.281362 Si / 1000 Ang^3
#
#
#
# Elastic Constant Matrix: (Units=GPa)
#
#
# Indices 1 2 3 4 5 6 
#
# 1 51.7380 18.6656 29.6649 0.0000 4.7722 0.0000
# 2 18.6656 40.3089 25.9464 0.0000 13.8327 0.0000
# 3 29.6649 25.9464 145.3281 0.0000 7.3703 0.0000
# 4 0.0000 0.0000 0.0000 36.4542 0.0000 -3.8970
# 5 4.7722 13.8327 7.3703 0.0000 29.8379 0.0000
# 6 0.0000 0.0000 0.0000 -3.8970 0.0000 25.7324
#
#
#
# Elastic Compliance Matrix: (Units=1/GPa)
#
#
# Indices 1 2 3 4 5 6 
#
# 1 0.024635 -0.009722 -0.003364 0.000000 0.001398 0.000000
# 2 -0.009722 0.036776 -0.003844 0.000000 -0.014545 0.000000
# 3 -0.003364 -0.003844 0.008239 0.000000 0.000285 0.000000
# 4 0.000000 0.000000 0.000000 0.027883 0.000000 0.004223
# 5 0.001398 -0.014545 0.000285 0.000000 0.039963 0.000000
# 6 0.000000 0.000000 0.000000 0.004223 0.000000 0.039501
#
#
# Mechanical properties :
#
#
# Convention : Reuss Voigt Hill
#
# Bulk Modulus (GPa) = 27.93978 42.88096 35.41037
# Shear Modulus (GPa) = 22.44287 29.27811 25.86049
#
# Velocity S-wave (km/s) = 3.33013 3.80359 3.57471
# Velocity P-wave (km/s) = 5.34718 6.36229 5.87669
#
# Compressibility (1/GPa) = 0.03579127
#
# Stress axis : x y z
#
# Youngs Moduli (GPa) = 40.59197 27.19178 121.36797
#
# Poissons Ratio (x) = 0.26437 0.40826
# Poissons Ratio (y) = 0.39464 0.46650
# Poissons Ratio (z) = 0.13654 0.10452
#
# Static dielectric constant tensor:
#      x y z
#    x 3.687140 0.000000 0.014710 
#    y 0.000000 3.597660 0.000000 
#    z 0.014710 0.000000 3.869840 
# 
# 
# High freq. dielectric constant tensor:
#      x y z
#    x 1.789760 0.000000 -0.004820 
#    y 0.000000 1.793010 0.000000 
#    z -0.004820 0.000000 1.805100 
# 
# From -- ./inp_files/295721.got.cif
#   From: 2010.06.25/outbox.cif.g09.slc.cpg/sg12_148_cif.got.tgz:295721.got - 2010.06.28 00:19:55.
