data_PCOD8108300
_publ_section_title
;
Structure prediction by ZEFSAII (Michael W. Deem and Ramdas Pophale) SiO2 
 PCOD8108300
Probable space group: C 2/M
;
_chemical_formula_sum "Si O2"
_cell_formula_units_Z 48
_cell_length_a 17.458426
_cell_length_b 8.822510
_cell_length_c 14.963031
_cell_angle_alpha 90.000000
_cell_angle_beta 89.417499
_cell_angle_gamma 90.000000
_cell_volume 2304.593735
_symmetry_space_group_name_H-M "C 2/M"
_symmetry_group_IT_number 12
_symmetry_cell_setting 'monoclinic'
loop_
_space_group_symop_operation_xyz
x,y,z
-x,y,-z
-x,-y,-z
x,-y,z
1/2+x,1/2+y,z
1/2-x,1/2+y,-z
1/2-x,1/2-y,-z
1/2+x,1/2-y,z
loop_
_atom_site_type_symbol
_atom_site_label
_atom_site_fract_x
_atom_site_fract_y
_atom_site_fract_z
Si Si1 0.839248 0.323508 0.151210
Si Si2 0.831841 0.175487 0.486586
Si Si3 0.423887 0.675083 0.310467
Si Si4 0.417584 0.177797 0.643508
Si Si5 0.834453 0.174969 0.804119
Si Si6 0.087861 0.824433 0.013267
O O1 0.855184 0.500000 0.167636
O O2 0.891795 0.225231 0.215754
O O3 0.751112 0.282153 0.167042
O O4 0.859671 0.279400 0.049981
O O5 0.750000 0.250000 0.500000
O O6 0.858694 0.202936 0.385015
O O7 0.895117 0.246374 0.550446
O O8 0.824194 0.000000 0.509816
O O9 0.448638 0.500000 0.305152
O O10 0.497776 0.772872 0.331658
O O11 0.357043 0.223086 0.720052
O O12 0.414767 0.000000 0.629863
O O13 0.891167 0.212367 0.884955
O O14 0.841279 0.000000 0.775737
O O15 0.103845 0.000000 0.990575
O O16 0.000000 0.780380 0.000000
#
# Coordination Sequence:
#
# PCOD8108300 Si02
#       6
#     8   8   8   8   8   8
#     4  11  23  38  60  90 122 158 201 251 302 354
#     4  11  24  42  65  92 123 161 203 248 299 355
#     4  11  24  42  63  87 119 160 203 248 301 360
#     4  12  25  40  63  93 123 158 200 249 303 358
#     4  10  22  40  61  88 124 163 202 247 300 358
#     4  10  21  38  61  87 118 161 206 248 300 359
#
# _framework density 20.827966
#
# number of rings (size 3 to 8) (size 9 to 14) (size 15 to 20)
#    0.000    1.167    0.000    6.000    0.000   11.000 
#    0.000    0.000    0.000    0.000    0.000    0.000 
#    0.000    0.000    0.000    0.000    0.000    0.000 
#
# Total GULP energy -297812.754978 kJ/mol
# GULP energy per Si atom -12408.864791 kJ/mol
# Density = 2.078056 g / cm^3
# Si number density = 20.827966 Si / 1000 Ang^3
#
#
#
# Elastic Constant Matrix: (Units=GPa)
#
#
# Indices 1 2 3 4 5 6 
#
# 1 80.2226 26.8912 -1.0507 0.0000 1.5490 0.0000
# 2 26.8912 98.7898 29.6972 0.0000 -12.5290 0.0000
# 3 -1.0507 29.6972 56.9381 0.0000 2.2619 0.0000
# 4 0.0000 0.0000 0.0000 36.9173 0.0000 -0.4519
# 5 1.5490 -12.5290 2.2619 0.0000 40.2914 0.0000
# 6 0.0000 0.0000 0.0000 -0.4519 0.0000 33.5910
#
#
#
# Elastic Compliance Matrix: (Units=1/GPa)
#
#
# Indices 1 2 3 4 5 6 
#
# 1 0.014249 -0.005071 0.002999 0.000000 -0.002293 0.000000
# 2 -0.005071 0.014523 -0.007873 0.000000 0.005153 0.000000
# 3 0.002999 -0.007873 0.021875 0.000000 -0.003792 0.000000
# 4 0.000000 0.000000 0.000000 0.027092 0.000000 0.000364
# 5 -0.002293 0.005153 -0.003792 0.000000 0.026723 0.000000
# 6 0.000000 0.000000 0.000000 0.000364 0.000000 0.029775
#
#
# Mechanical properties :
#
#
# Convention : Reuss Voigt Hill
#
# Bulk Modulus (GPa) = 32.51314 38.55841 35.53578
# Shear Modulus (GPa) = 30.41755 34.18748 32.30252
#
# Velocity S-wave (km/s) = 3.82569 4.05584 3.94244
# Velocity P-wave (km/s) = 5.92948 6.36287 6.14999
#
# Compressibility (1/GPa) = 0.03075679
#
# Stress axis : x y z
#
# Youngs Moduli (GPa) = 70.18206 68.85595 45.71377
#
# Poissons Ratio (x) = 0.34916 -0.13709
# Poissons Ratio (y) = 0.35588 0.35991
# Poissons Ratio (z) = -0.21046 0.54211
#
# Static dielectric constant tensor:
#      x y z
#    x 7.090570 0.000000 5.971060 
#    y 0.000000 3.768210 0.000000 
#    z 5.971060 0.000000 14.705650 
# 
# 
# High freq. dielectric constant tensor:
#      x y z
#    x 1.829950 0.000000 0.001040 
#    y 0.000000 1.817760 0.000000 
#    z 0.001040 0.000000 1.828880 
# 
# From -- ./inp_files/221682.got.cif
#   From: 2010.06.25/outbox.cif.g09.slc.cpg/sg12_111_cif.got.tgz:221682.got - 2010.06.28 00:19:55.
