data_PCOD8108635
_publ_section_title
;
Structure prediction by ZEFSAII (Michael W. Deem and Ramdas Pophale) SiO2 
 PCOD8108635
Probable space group: C 2/M
;
_chemical_formula_sum "Si O2"
_cell_formula_units_Z 64
_cell_length_a 15.351081
_cell_length_b 12.457355
_cell_length_c 27.008290
_cell_angle_alpha 90.000000
_cell_angle_beta 39.829537
_cell_angle_gamma 90.000000
_cell_volume 3308.147587
_symmetry_space_group_name_H-M "C 2/M"
_symmetry_group_IT_number 12
_symmetry_cell_setting 'monoclinic'
loop_
_space_group_symop_operation_xyz
x,y,z
-x,y,-z
-x,-y,-z
x,-y,z
1/2+x,1/2+y,z
1/2-x,1/2+y,-z
1/2-x,1/2-y,-z
1/2+x,1/2-y,z
loop_
_atom_site_type_symbol
_atom_site_label
_atom_site_fract_x
_atom_site_fract_y
_atom_site_fract_z
Si Si1 0.356543 0.874615 0.319086
Si Si2 0.440499 0.625459 0.171731
Si Si3 0.911265 0.877233 0.719210
Si Si4 0.368736 0.623540 0.090725
Si Si5 0.896505 0.748403 0.823716
Si Si6 0.690591 0.239902 0.319803
Si Si7 0.817601 0.219187 0.419667
Si Si8 0.552938 0.886247 0.529424
O O1 0.497139 0.848946 0.229665
O O2 0.228859 0.821615 0.346803
O O3 0.365789 0.826245 0.370199
O O4 0.332026 0.000000 0.333256
O O5 0.477123 0.500000 0.158886
O O6 0.409284 0.659593 0.128667
O O7 0.568205 0.693970 0.138816
O O8 0.306004 0.648206 0.263785
O O9 0.916476 0.839518 0.773571
O O10 0.808178 0.804864 0.732404
O O11 0.059193 0.864682 0.629512
O O12 0.863401 0.000000 0.738020
O O13 0.317692 0.500000 0.113532
O O14 0.253981 0.698660 0.115460
O O15 0.500000 0.637631 0.000000
O O16 0.541000 0.191088 0.395657
O O17 0.750000 0.250000 0.500000
O O18 0.693795 0.161168 0.447497
O O19 0.500000 0.915771 0.500000
O O20 0.569863 0.000000 0.551448
#
# Coordination Sequence:
#
# PCOD8108635 Si02
#       8
#     8   8   8   8   8   8   8   8
#     4  10  22  37  56  79 109 146 191 242 296 351
#     4  10  21  38  63  91 120 160 203 241 291 355
#     4  11  22  36  57  82 112 150 191 243 299 350
#     4  10  21  39  65  96 126 157 196 243 294 348
#     4  10  21  39  61  87 123 155 197 241 289 351
#     4  11  20  38  57  82 111 147 194 247 290 354
#     4  11  22  38  50  74 108 141 191 240 297 354
#     4  11  22  37  54  72 103 143 187 242 294 342
#
# _framework density 19.346174999999999
#
# number of rings (size 3 to 8) (size 9 to 14) (size 15 to 20)
#    0.000    1.500    3.750    1.875    0.000    1.500 
#    0.000    0.625    0.000    1.500    0.000    0.000 
#    0.000    0.000    0.000    0.000    0.000    0.000 
#
# Total GULP energy -396571.931607 kJ/mol
# GULP energy per Si atom -12392.872863 kJ/mol
# Density = 1.930214 g / cm^3
# Si number density = 19.346175 Si / 1000 Ang^3
#
#
#
# Elastic Constant Matrix: (Units=GPa)
#
#
# Indices 1 2 3 4 5 6 
#
# 1 94.2994 39.4964 24.3601 0.0000 -4.6126 0.0000
# 2 39.4964 118.5435 29.6313 0.0000 -3.8637 0.0000
# 3 24.3601 29.6313 64.8563 0.0000 -4.3960 0.0000
# 4 0.0000 0.0000 0.0000 17.9426 0.0000 0.5497
# 5 -4.6126 -3.8637 -4.3960 0.0000 26.0233 0.0000
# 6 0.0000 0.0000 0.0000 0.5497 0.0000 29.4983
#
#
#
# Elastic Compliance Matrix: (Units=1/GPa)
#
#
# Indices 1 2 3 4 5 6 
#
# 1 0.012945 -0.003475 -0.003190 0.000000 0.001240 0.000000
# 2 -0.003475 0.010468 -0.003453 0.000000 0.000355 0.000000
# 3 -0.003190 -0.003453 0.018332 0.000000 0.002018 0.000000
# 4 0.000000 0.000000 0.000000 0.055765 0.000000 -0.001039
# 5 0.001240 0.000355 0.002018 0.000000 0.039041 0.000000
# 6 0.000000 0.000000 0.000000 -0.001039 0.000000 0.033920
#
#
# Mechanical properties :
#
#
# Convention : Reuss Voigt Hill
#
# Bulk Modulus (GPa) = 46.49655 51.63055 49.06355
# Shear Modulus (GPa) = 25.26823 26.97358 26.12091
#
# Velocity S-wave (km/s) = 3.61794 3.73803 3.67847
# Velocity P-wave (km/s) = 6.44506 6.73618 6.59223
#
# Compressibility (1/GPa) = 0.02150697
#
# Stress axis : x y z
#
# Youngs Moduli (GPa) = 77.25091 95.52601 54.55048
#
# Poissons Ratio (x) = 0.33196 0.17404
# Poissons Ratio (y) = 0.26845 0.18839
# Poissons Ratio (z) = 0.24646 0.32989
#
# Static dielectric constant tensor:
#      x y z
#    x 3.659630 0.000000 0.084790 
#    y 0.000000 3.404300 0.000000 
#    z 0.084790 0.000000 3.141720 
# 
# 
# High freq. dielectric constant tensor:
#      x y z
#    x 1.768360 0.000000 -0.000080 
#    y 0.000000 1.751140 0.000000 
#    z -0.000080 0.000000 1.728540 
# 
# From -- ./inp_files/361025.got.cif
#   From: 2010.06.25/outbox.cif.g09.slc.cpg/sg12_181_cif.got.tgz:361025.got - 2010.06.28 00:19:55.
