data_PCOD8108970
_publ_section_title
;
Structure prediction by ZEFSAII (Michael W. Deem and Ramdas Pophale) SiO2 
 PCOD8108970
Probable space group: C 2/M
;
_chemical_formula_sum "Si O2"
_cell_formula_units_Z 56
_cell_length_a 22.955109
_cell_length_b 14.392705
_cell_length_c 24.702003
_cell_angle_alpha 90.000000
_cell_angle_beta 21.032819
_cell_angle_gamma 90.000000
_cell_volume 2929.075813
_symmetry_space_group_name_H-M "C 2/M"
_symmetry_group_IT_number 12
_symmetry_cell_setting 'monoclinic'
loop_
_space_group_symop_operation_xyz
x,y,z
-x,y,-z
-x,-y,-z
x,-y,z
1/2+x,1/2+y,z
1/2-x,1/2+y,-z
1/2-x,1/2-y,-z
1/2+x,1/2-y,z
loop_
_atom_site_type_symbol
_atom_site_label
_atom_site_fract_x
_atom_site_fract_y
_atom_site_fract_z
Si Si1 0.068665 0.396359 0.775244
Si Si2 0.159482 0.735856 0.207176
Si Si3 0.290521 0.106587 0.936519
Si Si4 0.061716 0.895262 0.781031
Si Si5 0.214625 0.748681 0.467263
Si Si6 0.411820 0.391255 0.023294
Si Si7 0.586591 0.892156 0.980813
O O1 0.122248 0.500000 0.715130
O O2 0.209278 0.336946 0.627292
O O3 0.892280 0.374517 0.902269
O O4 0.053077 0.380138 0.852754
O O5 0.164764 0.691195 0.142400
O O6 0.235499 0.655583 0.178896
O O7 0.260578 0.829841 0.132574
O O8 0.974278 0.753363 0.382916
O O9 0.323301 0.000000 0.885377
O O10 0.099162 0.113075 0.116993
O O11 0.209487 0.842339 0.625594
O O12 0.123202 0.000000 0.733409
O O13 0.012476 0.855954 0.883318
O O14 0.250000 0.750000 0.500000
O O15 0.385922 0.500000 0.042978
O O16 0.500000 0.356987 0.000000
O O17 0.644408 0.000000 0.927210
O O18 0.500000 0.860352 0.000000
#
# Coordination Sequence:
#
# PCOD8108970 Si02
#       7
#     8   8   8   8   8   8   8
#     4  10  21  39  61  82 113 152 194 242 290 337
#     4  11  21  35  59  85 121 151 186 232 290 343
#     4   9  18  35  60  88 112 147 192 237 287 342
#     4   9  20  36  56  82 115 151 188 233 279 330
#     4  12  25  36  51  85 125 158 182 224 286 357
#     4   9  18  37  64  89 112 146 193 236 277 333
#     4  10  23  43  65  85 106 146 206 256 285 320
#
# _framework density 19.118658
#
# number of rings (size 3 to 8) (size 9 to 14) (size 15 to 20)
#    0.000    2.000    1.429    3.429    2.000    3.429 
#    0.000    2.857    0.000    5.143    0.000    0.000 
#    0.000    0.000    0.000    0.000    0.000    0.000 
#
# Total GULP energy -346961.899730 kJ/mol
# GULP energy per Si atom -12391.496419 kJ/mol
# Density = 1.907514 g / cm^3
# Si number density = 19.118658 Si / 1000 Ang^3
#
#
#
# Elastic Constant Matrix: (Units=GPa)
#
#
# Indices 1 2 3 4 5 6 
#
# 1 126.8327 43.5042 58.5945 0.0043 4.5138 -0.0003
# 2 43.5042 99.1294 59.3555 0.0204 1.3452 -0.0078
# 3 58.5945 59.3555 123.3408 0.0104 -10.5315 -0.0025
# 4 0.0043 0.0204 0.0104 19.7820 0.0052 4.2766
# 5 4.5138 1.3452 -10.5315 0.0052 21.9471 -0.0052
# 6 -0.0003 -0.0078 -0.0025 4.2766 -0.0052 18.0915
#
#
#
# Elastic Compliance Matrix: (Units=1/GPa)
#
#
# Indices 1 2 3 4 5 6 
#
# 1 0.010817 -0.001956 -0.004564 0.000004 -0.004295 -0.000003
# 2 -0.001956 0.014928 -0.006568 -0.000012 -0.003664 0.000007
# 3 -0.004564 -0.006568 0.014130 -0.000002 0.008122 0.000002
# 4 0.000004 -0.000012 -0.000002 0.053273 -0.000017 -0.012593
# 5 -0.004295 -0.003664 0.008122 -0.000017 0.050569 0.000018
# 6 -0.000003 0.000007 0.000002 -0.012593 0.000018 0.058251
#
#
# Mechanical properties :
#
#
# Convention : Reuss Voigt Hill
#
# Bulk Modulus (GPa) = 72.99492 74.69014 73.84253
# Shear Modulus (GPa) = 21.48587 24.48738 22.98662
#
# Velocity S-wave (km/s) = 3.35597 3.58272 3.47120
# Velocity P-wave (km/s) = 7.29929 7.50107 7.40086
#
# Compressibility (1/GPa) = 0.01369958
#
# Stress axis : x y z
#
# Youngs Moduli (GPa) = 92.45004 66.98597 70.77205
#
# Poissons Ratio (x) = 0.13102 0.32301
# Poissons Ratio (y) = 0.18083 0.46481
# Poissons Ratio (z) = 0.42194 0.43995
#
# Static dielectric constant tensor:
#      x y z
#    x 4.154920 -0.000900 0.633790 
#    y -0.000900 3.757970 -0.001310 
#    z 0.633790 -0.001310 4.240020 
# 
# 
# High freq. dielectric constant tensor:
#      x y z
#    x 1.746160 0.000000 -0.001980 
#    y 0.000000 1.765430 0.000000 
#    z -0.001980 0.000000 1.713090 
# 
# From -- ./inp_files/349731.got.cif
#   From: 2010.06.25/outbox.cif.g09.slc.cpg/sg12_175_cif.got.tgz:349731.got - 2010.06.28 00:19:55.
