data_PCOD8108684
_publ_section_title
;
Structure prediction by ZEFSAII (Michael W. Deem and Ramdas Pophale) SiO2 
 PCOD8108684
Probable space group: C 2/M
;
_chemical_formula_sum "Si O2"
_cell_formula_units_Z 48
_cell_length_a 8.771856
_cell_length_b 20.066215
_cell_length_c 13.533643
_cell_angle_alpha 90.000000
_cell_angle_beta 82.659553
_cell_angle_gamma 90.000000
_cell_volume 2362.641041
_symmetry_space_group_name_H-M "C 2/M"
_symmetry_group_IT_number 12
_symmetry_cell_setting 'monoclinic'
loop_
_space_group_symop_operation_xyz
x,y,z
-x,y,-z
-x,-y,-z
x,-y,z
1/2+x,1/2+y,z
1/2-x,1/2+y,-z
1/2-x,1/2-y,-z
1/2+x,1/2-y,z
loop_
_atom_site_type_symbol
_atom_site_label
_atom_site_fract_x
_atom_site_fract_y
_atom_site_fract_z
Si Si1 0.722202 0.122747 0.718103
Si Si2 0.137374 0.762346 0.423486
Si Si3 0.121445 0.375682 0.312306
Si Si4 0.815013 0.821122 0.120352
Si Si5 0.730731 0.500000 0.584567
Si Si6 0.669413 0.322234 0.101803
Si Si7 0.865128 0.000000 0.615933
O O1 0.788095 0.189941 0.663651
O O2 0.549009 0.103291 0.704939
O O3 0.738705 0.128132 0.834663
O O4 0.836339 0.065063 0.680698
O O5 0.250000 0.750000 0.500000
O O6 0.099873 0.692289 0.374741
O O7 0.000000 0.794362 0.500000
O O8 0.222627 0.366251 0.205424
O O9 0.200091 0.433690 0.370962
O O10 0.743200 0.749012 0.114973
O O11 0.989562 0.816043 0.144308
O O12 0.808982 0.851663 0.010311
O O13 0.547319 0.500000 0.587892
O O14 0.760278 0.500000 0.464493
#
# Coordination Sequence:
#
# PCOD8108684 Si02
#       7
#     8   8   8   8   4   8   4
#     4  12  25  42  67  94 130 169 217 264 323 382
#     4  12  26  40  61  94 127 167 213 266 315 374
#     4  12  25  43  65  96 129 172 212 268 323 380
#     4  10  21  38  63  95 132 165 212 264 325 379
#     4  11  27  45  68  89 131 175 218 262 320 382
#     4  10  21  38  63  96 129 169 209 266 322 383
#     4  11  27  45  66  93 126 178 217 263 317 387
#
# _framework density 20.316248999999999
#
# number of rings (size 3 to 8) (size 9 to 14) (size 15 to 20)
#    0.000    0.833    3.333    3.500    7.000    2.667 
#    0.000    0.833    0.000    5.000    0.000    0.000 
#    0.000    0.000    0.000    0.000    0.000    0.000 
#
# Total GULP energy -297406.746486 kJ/mol
# GULP energy per Si atom -12391.947770 kJ/mol
# Density = 2.027001 g / cm^3
# Si number density = 20.316249 Si / 1000 Ang^3
#
#
#
# Elastic Constant Matrix: (Units=GPa)
#
#
# Indices 1 2 3 4 5 6 
#
# 1 121.8106 15.0566 41.3833 0.0000 11.8776 0.0000
# 2 15.0566 81.4969 32.7707 0.0000 9.5405 0.0000
# 3 41.3833 32.7707 118.7734 0.0000 9.8903 0.0000
# 4 0.0000 0.0000 0.0000 199.4154 0.0000 7.0870
# 5 11.8776 9.5405 9.8903 0.0000 41.5621 0.0000
# 6 0.0000 0.0000 0.0000 7.0870 0.0000 33.2819
#
#
#
# Elastic Compliance Matrix: (Units=1/GPa)
#
#
# Indices 1 2 3 4 5 6 
#
# 1 0.009472 -0.000296 -0.003059 0.000000 -0.001911 0.000000
# 2 -0.000296 0.014031 -0.003578 0.000000 -0.002285 0.000000
# 3 -0.003059 -0.003578 0.010540 0.000000 -0.000813 0.000000
# 4 0.000000 0.000000 0.000000 0.005053 0.000000 -0.001076
# 5 -0.001911 -0.002285 -0.000813 0.000000 0.025324 0.000000
# 6 0.000000 0.000000 0.000000 -0.001076 0.000000 0.030275
#
#
# Mechanical properties :
#
#
# Convention : Reuss Voigt Hill
#
# Bulk Modulus (GPa) = 49.56249 55.61135 52.58692
# Shear Modulus (GPa) = 43.36956 70.37657 56.87306
#
# Velocity S-wave (km/s) = 4.62532 5.89201 5.29666
# Velocity P-wave (km/s) = 7.27827 8.58603 7.95906
#
# Compressibility (1/GPa) = 0.02017655
#
# Stress axis : x y z
#
# Youngs Moduli (GPa) = 105.57699 71.26918 94.87480
#
# Poissons Ratio (x) = 0.02110 0.29026
# Poissons Ratio (y) = 0.03125 0.33946
# Poissons Ratio (z) = 0.32300 0.25500
#
# Static dielectric constant tensor:
#      x y z
#    x 3.871670 0.000000 0.084480 
#    y 0.000000 3.278400 0.000000 
#    z 0.084480 0.000000 4.117570 
# 
# 
# High freq. dielectric constant tensor:
#      x y z
#    x 1.816800 0.000000 0.006250 
#    y 0.000000 1.768850 0.000000 
#    z 0.006250 0.000000 1.812720 
# 
# From -- ./inp_files/196038.got.cif
#   From: 2010.06.25/outbox.cif.g09.slc.cpg/sg12_99_cif.got.tgz:196038.got - 2010.06.28 00:19:55.
