data_PCOD8108745
_publ_section_title
;
Structure prediction by ZEFSAII (Michael W. Deem and Ramdas Pophale) SiO2 
 PCOD8108745
Probable space group: C 2/M
;
_chemical_formula_sum "Si O2"
_cell_formula_units_Z 40
_cell_length_a 9.345913
_cell_length_b 15.403334
_cell_length_c 13.679468
_cell_angle_alpha 90.000000
_cell_angle_beta 80.246085
_cell_angle_gamma 90.000000
_cell_volume 1940.805018
_symmetry_space_group_name_H-M "C 2/M"
_symmetry_group_IT_number 12
_symmetry_cell_setting 'monoclinic'
loop_
_space_group_symop_operation_xyz
x,y,z
-x,y,-z
-x,-y,-z
x,-y,z
1/2+x,1/2+y,z
1/2-x,1/2+y,-z
1/2-x,1/2-y,-z
1/2+x,1/2-y,z
loop_
_atom_site_type_symbol
_atom_site_label
_atom_site_fract_x
_atom_site_fract_y
_atom_site_fract_z
Si Si1 0.639387 0.741846 0.926984
Si Si2 0.646612 0.341583 0.607076
Si Si3 0.729087 0.095359 0.220821
Si Si4 0.187407 0.836657 0.383922
Si Si5 0.404916 0.097669 0.207564
O O1 0.681556 0.668367 0.845555
O O2 0.621352 0.834577 0.876440
O O3 0.500000 0.709520 0.000000
O O4 0.750000 0.750000 0.000000
O O5 0.707699 0.411282 0.676584
O O6 0.732896 0.254745 0.622583
O O7 0.681021 0.375873 0.494080
O O8 0.474622 0.325426 0.640218
O O9 0.558671 0.119088 0.240889
O O10 0.752136 0.000000 0.170439
O O11 0.278327 0.899363 0.303268
O O12 0.404300 0.000000 0.163704
#
# Coordination Sequence:
#
# PCOD8108745 Si02
#       5
#     8   8   8   8   8
#     4  12  26  46  70  93 125 168 217 271 329 383
#     4  10  21  38  64  97 134 173 216 260 315 384
#     4  11  25  44  67  99 133 168 216 268 323 387
#     4  10  21  38  64  97 133 175 215 259 317 382
#     4  11  25  44  68  98 132 171 216 264 325 390
#
# _framework density 20.610004
#
# number of rings (size 3 to 8) (size 9 to 14) (size 15 to 20)
#    0.000    1.200    4.000    1.200    2.800    5.600 
#    0.000    4.000    0.000    0.000    0.000    0.000 
#    0.000    0.000    0.000    0.000    0.000    0.000 
#
# Total GULP energy -247962.016023 kJ/mol
# GULP energy per Si atom -12398.100801 kJ/mol
# Density = 2.056309 g / cm^3
# Si number density = 20.610004 Si / 1000 Ang^3
#
#
#
# Elastic Constant Matrix: (Units=GPa)
#
#
# Indices 1 2 3 4 5 6 
#
# 1 173.7068 49.3619 70.1531 0.0000 3.4798 0.0000
# 2 49.3619 113.8711 48.0255 0.0000 1.1226 0.0000
# 3 70.1531 48.0255 112.6342 0.0000 5.7316 0.0000
# 4 0.0000 0.0000 0.0000 8.2106 0.0000 1.8559
# 5 3.4798 1.1226 5.7316 0.0000 47.4109 0.0000
# 6 0.0000 0.0000 0.0000 1.8559 0.0000 24.6955
#
#
#
# Elastic Compliance Matrix: (Units=1/GPa)
#
#
# Indices 1 2 3 4 5 6 
#
# 1 0.007939 -0.001654 -0.004238 0.000000 -0.000031 0.000000
# 2 -0.001654 0.011056 -0.003700 0.000000 0.000307 0.000000
# 3 -0.004238 -0.003700 0.013156 0.000000 -0.001192 0.000000
# 4 0.000000 0.000000 0.000000 0.123898 0.000000 -0.009311
# 5 -0.000031 0.000307 -0.001192 0.000000 0.021231 0.000000
# 6 0.000000 0.000000 0.000000 -0.009311 0.000000 0.041193
#
#
# Mechanical properties :
#
#
# Convention : Reuss Voigt Hill
#
# Bulk Modulus (GPa) = 77.11204 81.69923 79.40564
# Shear Modulus (GPa) = 20.66296 31.57484 26.11890
#
# Velocity S-wave (km/s) = 3.16977 3.91834 3.56377
# Velocity P-wave (km/s) = 7.13391 7.75873 7.45287
#
# Compressibility (1/GPa) = 0.01296814
#
# Stress axis : x y z
#
# Youngs Moduli (GPa) = 125.96138 90.44781 76.01077
#
# Poissons Ratio (x) = 0.14958 0.32213
# Poissons Ratio (y) = 0.20831 0.28122
# Poissons Ratio (z) = 0.53382 0.33463
#
# Static dielectric constant tensor:
#      x y z
#    x 0.000000 0.000000 0.000000 
#    y 0.000000 0.000000 0.000000 
#    z 0.000000 0.000000 0.000000 
# 
# 
# High freq. dielectric constant tensor:
#      x y z
#    x 1.825650 0.000000 0.004100 
#    y 0.000000 1.799060 0.000000 
#    z 0.004100 0.000000 1.808500 
# 
# From -- ./inp_files/194439.got.cif
#   From: 2010.06.25/outbox.cif.g09.slc.cpg/sg12_98_cif.got.tgz:194439.got - 2010.06.28 00:19:55.
