data_PCOD8108625
_publ_section_title
;
Structure prediction by ZEFSAII (Michael W. Deem and Ramdas Pophale) SiO2 
 PCOD8108625
Probable space group: C 2/M
;
_chemical_formula_sum "Si O2"
_cell_formula_units_Z 40
_cell_length_a 30.848544
_cell_length_b 8.734189
_cell_length_c 7.635106
_cell_angle_alpha 90.000000
_cell_angle_beta 75.107534
_cell_angle_gamma 90.000000
_cell_volume 1988.079236
_symmetry_space_group_name_H-M "C 2/M"
_symmetry_group_IT_number 12
_symmetry_cell_setting 'monoclinic'
loop_
_space_group_symop_operation_xyz
x,y,z
-x,y,-z
-x,-y,-z
x,-y,z
1/2+x,1/2+y,z
1/2-x,1/2+y,-z
1/2-x,1/2-y,-z
1/2+x,1/2-y,z
loop_
_atom_site_type_symbol
_atom_site_label
_atom_site_fract_x
_atom_site_fract_y
_atom_site_fract_z
Si Si1 0.298622 0.319350 0.971057
Si Si2 0.452099 0.830799 0.504393
Si Si3 0.357218 0.816773 0.211466
Si Si4 0.638084 0.679092 0.414919
Si Si5 0.953543 0.331999 0.094389
O O1 0.295960 0.500000 0.997329
O O2 0.319441 0.249210 0.125223
O O3 0.250000 0.250000 0.000000
O O4 0.326513 0.273512 0.770019
O O5 0.500000 0.752494 0.500000
O O6 0.410694 0.727490 0.610816
O O7 0.448240 0.850040 0.304014
O O8 0.449381 0.000000 0.596097
O O9 0.348313 0.762729 0.419385
O O10 0.406088 0.755725 0.086656
O O11 0.356468 0.000000 0.211049
O O12 0.637812 0.500000 0.452925
O O13 0.957550 0.500000 0.000371
O O14 0.000000 0.239784 0.000000
#
# Coordination Sequence:
#
# PCOD8108625 Si02
#       5
#     8   8   8   8   8
#     4  11  25  43  64  90 118 155 202 250 305 361
#     4   9  18  31  52  82 114 154 201 243 287 343
#     4  10  21  38  63  90 120 158 199 248 301 350
#     4  10  22  40  60  85 123 161 195 243 301 361
#     4   8  15  28  48  79 113 147 190 236 282 335
#
# _framework density 20.119921999999999
#
# number of rings (size 3 to 8) (size 9 to 14) (size 15 to 20)
#    0.000    2.400    0.000    3.000    2.800    4.400 
#    0.000    0.000    0.000    3.000    0.000    0.000 
#    0.000    0.000    0.000    0.000    0.000    0.000 
#
# Total GULP energy -247813.187396 kJ/mol
# GULP energy per Si atom -12390.659370 kJ/mol
# Density = 2.007413 g / cm^3
# Si number density = 20.119922 Si / 1000 Ang^3
#
#
#
# Elastic Constant Matrix: (Units=GPa)
#
#
# Indices 1 2 3 4 5 6 
#
# 1 188.5858 47.6489 70.4457 0.0000 -14.5161 0.0000
# 2 47.6489 70.6752 47.6500 0.0000 -6.3126 0.0000
# 3 70.4457 47.6500 104.9759 0.0000 -17.1294 0.0000
# 4 0.0000 0.0000 0.0000 29.5853 0.0000 -17.5849
# 5 -14.5161 -6.3126 -17.1294 0.0000 34.4769 0.0000
# 6 0.0000 0.0000 0.0000 -17.5849 0.0000 94.6915
#
#
#
# Elastic Compliance Matrix: (Units=1/GPa)
#
#
# Indices 1 2 3 4 5 6 
#
# 1 0.007357 -0.002375 -0.003727 0.000000 0.000811 0.000000
# 2 -0.002375 0.021184 -0.008218 0.000000 -0.001205 0.000000
# 3 -0.003727 -0.008218 0.016602 0.000000 0.005174 0.000000
# 4 0.000000 0.000000 0.000000 0.037994 0.000000 0.007056
# 5 0.000811 -0.001205 0.005174 0.000000 0.031697 0.000000
# 6 0.000000 0.000000 0.000000 0.007056 0.000000 0.011871
#
#
# Mechanical properties :
#
#
# Convention : Reuss Voigt Hill
#
# Bulk Modulus (GPa) = 60.59740 77.30291 68.95016
# Shear Modulus (GPa) = 31.08561 44.98357 38.03459
#
# Velocity S-wave (km/s) = 3.93493 4.73353 4.35258
# Velocity P-wave (km/s) = 7.12941 8.26919 7.72036
#
# Compressibility (1/GPa) = 0.01650236
#
# Stress axis : x y z
#
# Youngs Moduli (GPa) = 135.91923 47.20577 60.23518
#
# Poissons Ratio (x) = 0.11212 0.22448
# Poissons Ratio (y) = 0.32284 0.49503
# Poissons Ratio (z) = 0.50653 0.38795
#
# Static dielectric constant tensor:
#      x y z
#    x 5.370010 0.000000 -0.187340 
#    y 0.000000 3.566510 0.000000 
#    z -0.187340 0.000000 3.612850 
# 
# 
# High freq. dielectric constant tensor:
#      x y z
#    x 1.801010 0.000000 -0.004930 
#    y 0.000000 1.757600 0.000000 
#    z -0.004930 0.000000 1.784640 
# 
# From -- ./inp_files/107781.got.cif
#   From: 2010.06.25/outbox.cif.g09.slc.cpg/sg12_54_cif.got.tgz:107781.got - 2010.06.28 00:19:55.
