data_PCOD8108250
_publ_section_title
;
Structure prediction by ZEFSAII (Michael W. Deem and Ramdas Pophale) SiO2 
 PCOD8108250
Probable space group: C 2/M
;
_chemical_formula_sum "Si O2"
_cell_formula_units_Z 64
_cell_length_a 9.417995
_cell_length_b 18.625267
_cell_length_c 28.742856
_cell_angle_alpha 90.000000
_cell_angle_beta 39.288139
_cell_angle_gamma 90.000000
_cell_volume 3192.610668
_symmetry_space_group_name_H-M "C 2/M"
_symmetry_group_IT_number 12
_symmetry_cell_setting 'monoclinic'
loop_
_space_group_symop_operation_xyz
x,y,z
-x,y,-z
-x,-y,-z
x,-y,z
1/2+x,1/2+y,z
1/2-x,1/2+y,-z
1/2-x,1/2-y,-z
1/2+x,1/2-y,z
loop_
_atom_site_type_symbol
_atom_site_label
_atom_site_fract_x
_atom_site_fract_y
_atom_site_fract_z
Si Si1 0.902470 0.213992 0.669185
Si Si2 0.451411 0.681057 0.061623
Si Si3 0.666923 0.705136 0.416611
Si Si4 0.092703 0.421015 0.189167
Si Si5 0.912441 0.844014 0.232489
Si Si6 0.537047 0.918197 0.675818
Si Si7 0.152270 0.917233 0.256721
Si Si8 0.761412 0.674789 0.067212
O O1 0.956767 0.217562 0.600778
O O2 0.677097 0.261064 0.740032
O O3 0.896627 0.130302 0.685076
O O4 0.115501 0.245311 0.641383
O O5 0.288241 0.634836 0.134165
O O6 0.669800 0.692643 0.038733
O O7 0.332602 0.754776 0.077861
O O8 0.500000 0.640679 0.000000
O O9 0.500000 0.726375 0.500000
O O10 0.756731 0.623996 0.400073
O O11 0.200024 0.500000 0.168189
O O12 0.960360 0.400388 0.269920
O O13 0.923927 0.421171 0.187803
O O14 0.700236 0.896151 0.285854
O O15 0.067309 0.870445 0.235344
O O16 0.064554 0.859800 0.148133
O O17 0.582193 0.000000 0.652605
O O18 0.056866 0.000000 0.283429
O O19 0.000000 0.630780 0.000000
#
# Coordination Sequence:
#
# PCOD8108250 Si02
#       8
#     8   8   8   8   8   8   8   8
#     4  11  22  40  63  96 123 164 209 261 308 374
#     4  11  23  39  58  84 122 155 203 259 319 376
#     4  11  23  39  63  94 127 163 203 259 316 377
#     4  10  21  38  61  84 114 157 205 255 301 364
#     4  11  23  38  67  89 124 163 213 261 312 372
#     4  10  21  40  62  90 121 158 208 258 312 371
#     4  11  23  39  63  93 126 163 211 263 313 369
#     4  11  24  37  58  93 121 160 202 264 317 368
#
# _framework density 20.046289999999999
#
# number of rings (size 3 to 8) (size 9 to 14) (size 15 to 20)
#    0.000    1.250    3.750    3.000    5.250    0.500 
#    0.000    0.000    0.000    2.250    0.000    0.000 
#    0.000    0.000    0.000    0.000    0.000    0.000 
#
# Total GULP energy -396447.401099 kJ/mol
# GULP energy per Si atom -12388.981284 kJ/mol
# Density = 2.000066 g / cm^3
# Si number density = 20.046290 Si / 1000 Ang^3
#
#
#
# Elastic Constant Matrix: (Units=GPa)
#
#
# Indices 1 2 3 4 5 6 
#
# 1 125.6352 13.6595 6.5023 -0.0062 4.0992 0.0041
# 2 13.6595 79.1626 19.2440 -0.0009 1.9258 0.0019
# 3 6.5023 19.2440 61.7399 0.0069 3.4085 0.0204
# 4 -0.0062 -0.0009 0.0069 14.0183 0.0000 6.2385
# 5 4.0992 1.9258 3.4085 0.0000 27.9186 -0.0113
# 6 0.0041 0.0019 0.0204 6.2385 -0.0113 22.1354
#
#
#
# Elastic Compliance Matrix: (Units=1/GPa)
#
#
# Indices 1 2 3 4 5 6 
#
# 1 0.008154 -0.001284 -0.000400 0.000005 -0.001060 -0.000003
# 2 -0.001284 0.013875 -0.004175 0.000001 -0.000259 0.000002
# 3 -0.000400 -0.004175 0.017640 -0.000002 -0.001807 -0.000016
# 4 0.000005 0.000001 -0.000002 0.081566 -0.000010 -0.022988
# 5 -0.001060 -0.000259 -0.001807 -0.000010 0.036212 0.000023
# 6 -0.000003 0.000002 -0.000016 -0.022988 0.000023 0.051655
#
#
# Mechanical properties :
#
#
# Convention : Reuss Voigt Hill
#
# Bulk Modulus (GPa) = 35.77679 38.37215 37.07447
# Shear Modulus (GPa) = 21.72598 27.95658 24.84128
#
# Velocity S-wave (km/s) = 3.29567 3.73849 3.52404
# Velocity P-wave (km/s) = 5.68927 6.14966 5.92394
#
# Compressibility (1/GPa) = 0.02795108
#
# Stress axis : x y z
#
# Youngs Moduli (GPa) = 122.63253 72.07169 56.68844
#
# Poissons Ratio (x) = 0.09254 0.02268
# Poissons Ratio (y) = 0.15746 0.23669
# Poissons Ratio (z) = 0.04906 0.30092
#
# Static dielectric constant tensor:
#      x y z
#    x 3.851880 0.000000 -0.014130 
#    y 0.000000 3.584080 0.000020 
#    z -0.014130 0.000020 3.613220 
# 
# 
# High freq. dielectric constant tensor:
#      x y z
#    x 1.808120 0.000000 -0.004920 
#    y 0.000000 1.768770 0.000000 
#    z -0.004920 0.000000 1.758620 
# 
# From -- ./inp_files/372931.got.cif
#   From: 2010.06.25/outbox.cif.g09.slc.cpg/sg12_187_cif.got.tgz:372931.got - 2010.06.28 00:19:55.
