data_PCOD8108029
_publ_section_title
;
Structure prediction by ZEFSAII (Michael W. Deem and Ramdas Pophale) SiO2 
 PCOD8108029
Probable space group: C 2/M
;
_chemical_formula_sum "Si O2"
_cell_formula_units_Z 64
_cell_length_a 19.178579
_cell_length_b 8.888361
_cell_length_c 30.229690
_cell_angle_alpha 90.000000
_cell_angle_beta 141.023165
_cell_angle_gamma 90.000000
_cell_volume 3241.355653
_symmetry_space_group_name_H-M "C 2/M"
_symmetry_group_IT_number 12
_symmetry_cell_setting 'monoclinic'
loop_
_space_group_symop_operation_xyz
x,y,z
-x,y,-z
-x,-y,-z
x,-y,z
1/2+x,1/2+y,z
1/2-x,1/2+y,-z
1/2-x,1/2-y,-z
1/2+x,1/2-y,z
loop_
_atom_site_type_symbol
_atom_site_label
_atom_site_fract_x
_atom_site_fract_y
_atom_site_fract_z
Si Si1 0.209737 0.824433 0.789022
Si Si2 0.373055 0.178018 0.433290
Si Si3 0.981268 0.668523 0.798414
Si Si4 0.627988 0.323035 0.067374
Si Si5 0.280264 0.179110 0.061228
Si Si6 0.279871 0.677531 0.560983
Si Si7 0.249462 0.823491 0.708325
Si Si8 0.487137 0.169411 0.700253
O O1 0.323615 0.763718 0.866254
O O2 0.202011 0.791422 0.733187
O O3 0.110347 0.733572 0.761867
O O4 0.198381 0.000000 0.793702
O O5 0.500000 0.232023 0.500000
O O6 0.302930 0.235993 0.441193
O O7 0.327419 0.243775 0.365262
O O8 0.364532 0.000000 0.426022
O O9 0.995124 0.500000 0.823307
O O10 0.875196 0.744165 0.769981
O O11 0.947075 0.669391 0.730566
O O12 0.098881 0.747951 0.866163
O O13 0.642815 0.500000 0.082648
O O14 0.692143 0.269855 0.054839
O O15 0.500000 0.277233 0.000000
O O16 0.280463 0.000000 0.057911
O O17 0.250000 0.250000 0.000000
O O18 0.272925 0.500000 0.553020
O O19 0.250000 0.750000 0.500000
O O20 0.405885 0.724632 0.632610
O O21 0.253070 0.000000 0.698759
O O22 0.485911 0.000000 0.680109
#
# Coordination Sequence:
#
# PCOD8108029 Si02
#       8
#     8   8   8   8   8   8   8   8
#     4  11  24  39  60  92 124 155 200 252 302 358
#     4  10  23  42  61  87 122 158 198 245 294 351
#     4   9  18  37  62  83 112 152 197 241 293 355
#     4  10  22  41  61  84 120 162 204 245 296 363
#     4  10  21  38  59  86 116 154 197 243 296 354
#     4  11  24  41  62  92 125 159 203 250 298 356
#     4  10  22  40  61  88 118 155 197 244 300 357
#     4  11  21  40  67  87 116 161 202 249 304 355
#
# _framework density 19.744826
#
# number of rings (size 3 to 8) (size 9 to 14) (size 15 to 20)
#    0.000    1.750    2.500    1.125    3.500    2.500 
#    0.000    0.625    0.000    0.000    0.000    0.000 
#    0.000    0.000    0.000    0.000    0.000    0.000 
#
# Total GULP energy -396803.844884 kJ/mol
# GULP energy per Si atom -12400.120153 kJ/mol
# Density = 1.969989 g / cm^3
# Si number density = 19.744826 Si / 1000 Ang^3
#
#
#
# Elastic Constant Matrix: (Units=GPa)
#
#
# Indices 1 2 3 4 5 6 
#
# 1 79.2748 27.2122 41.6346 0.0000 3.6129 0.0000
# 2 27.2122 50.9875 30.5529 0.0001 -3.0698 -0.0001
# 3 41.6346 30.5529 136.2718 0.0000 3.0558 0.0000
# 4 0.0000 0.0001 0.0000 36.1798 0.0000 -5.4209
# 5 3.6129 -3.0698 3.0558 0.0000 39.5324 0.0000
# 6 0.0000 -0.0001 0.0000 -5.4209 0.0000 24.5981
#
#
#
# Elastic Compliance Matrix: (Units=1/GPa)
#
#
# Indices 1 2 3 4 5 6 
#
# 1 0.016989 -0.007036 -0.003572 0.000000 -0.001823 0.000000
# 2 -0.007036 0.025756 -0.003690 0.000000 0.002928 0.000000
# 3 -0.003572 -0.003690 0.009272 0.000000 -0.000677 0.000000
# 4 0.000000 0.000000 0.000000 0.028584 0.000000 0.006299
# 5 -0.001823 0.002928 -0.000677 0.000000 0.025742 0.000000
# 6 0.000000 0.000000 0.000000 0.006299 0.000000 0.042042
#
#
# Mechanical properties :
#
#
# Convention : Reuss Voigt Hill
#
# Bulk Modulus (GPa) = 42.70022 51.70370 47.20196
# Shear Modulus (GPa) = 27.05806 31.20435 29.13121
#
# Velocity S-wave (km/s) = 3.70589 3.97971 3.84524
# Velocity P-wave (km/s) = 6.32333 6.88188 6.60851
#
# Compressibility (1/GPa) = 0.02341908
#
# Stress axis : x y z
#
# Youngs Moduli (GPa) = 58.86255 38.82647 107.84890
#
# Poissons Ratio (x) = 0.27319 0.38524
# Poissons Ratio (y) = 0.41417 0.39801
# Poissons Ratio (z) = 0.21026 0.14329
#
# Static dielectric constant tensor:
#      x y z
#    x 3.791060 0.000000 0.240460 
#    y 0.000000 3.439230 0.000000 
#    z 0.240460 0.000000 3.781820 
# 
# 
# High freq. dielectric constant tensor:
#      x y z
#    x 1.779060 0.000000 0.006040 
#    y 0.000000 1.751560 0.000000 
#    z 0.006040 0.000000 1.782300 
# 
# From -- ./inp_files/378486.got.cif
#   From: 2010.06.25/outbox.cif.g09.slc.cpg/sg12_190_cif.got.tgz:378486.got - 2010.06.28 00:19:55.
