data_PCOD8108190
_publ_section_title
;
Structure prediction by ZEFSAII (Michael W. Deem and Ramdas Pophale) SiO2 
 PCOD8108190
Probable space group: C 2/M
;
_chemical_formula_sum "Si O2"
_cell_formula_units_Z 48
_cell_length_a 25.136858
_cell_length_b 8.418410
_cell_length_c 11.115658
_cell_angle_alpha 90.000000
_cell_angle_beta 77.675282
_cell_angle_gamma 90.000000
_cell_volume 2298.000770
_symmetry_space_group_name_H-M "C 2/M"
_symmetry_group_IT_number 12
_symmetry_cell_setting 'monoclinic'
loop_
_space_group_symop_operation_xyz
x,y,z
-x,y,-z
-x,-y,-z
x,-y,z
1/2+x,1/2+y,z
1/2-x,1/2+y,-z
1/2-x,1/2-y,-z
1/2+x,1/2-y,z
loop_
_atom_site_type_symbol
_atom_site_label
_atom_site_fract_x
_atom_site_fract_y
_atom_site_fract_z
Si Si1 0.862994 0.316399 0.685183
Si Si2 0.348985 0.677553 0.210795
Si Si3 0.520058 0.314928 0.360260
Si Si4 0.755853 0.688694 0.865725
Si Si5 0.031614 0.809748 0.865215
Si Si6 0.309122 0.321330 0.491592
O O1 0.875990 0.500000 0.704456
O O2 0.915974 0.213709 0.687353
O O3 0.813354 0.247783 0.788990
O O4 0.844018 0.294315 0.557989
O O5 0.350096 0.500000 0.156802
O O6 0.295594 0.763919 0.181654
O O7 0.406743 0.758034 0.149595
O O8 0.344314 0.674039 0.355193
O O9 0.500000 0.240560 0.500000
O O10 0.507208 0.500000 0.371169
O O11 0.491906 0.244122 0.251942
O O12 0.755955 0.500000 0.853189
O O13 0.750000 0.750000 0.000000
O O14 0.030581 0.000000 0.861218
O O15 0.000000 0.748128 0.000000
O O16 0.303811 0.500000 0.546880
O O17 0.250000 0.250000 0.500000
#
# Coordination Sequence:
#
# PCOD8108190 Si02
#       6
#     8   8   8   8   8   8
#     4  11  23  39  58  86 120 154 195 243 294 354
#     4   9  18  35  56  80 115 148 180 237 293 340
#     4  10  21  38  60  88 117 152 199 247 297 356
#     4  10  22  38  56  82 116 152 194 241 294 351
#     4   9  18  32  55  85 111 142 191 242 288 343
#     4  11  20  35  58  85 118 152 188 236 295 353
#
# _framework density 20.887720999999999
#
# number of rings (size 3 to 8) (size 9 to 14) (size 15 to 20)
#    0.000    2.000    1.667    2.000    2.333    4.333 
#    0.000    0.000    0.000    1.500    0.000    0.000 
#    0.000    0.000    0.000    0.000    0.000    0.000 
#
# Total GULP energy -297426.838344 kJ/mol
# GULP energy per Si atom -12392.784931 kJ/mol
# Density = 2.084018 g / cm^3
# Si number density = 20.887721 Si / 1000 Ang^3
#
#
#
# Elastic Constant Matrix: (Units=GPa)
#
#
# Indices 1 2 3 4 5 6 
#
# 1 149.8022 -2.3391 72.0180 0.0000 -20.5874 0.0000
# 2 -2.3391 12.2662 11.1484 0.0000 -5.2716 0.0000
# 3 72.0180 11.1484 149.3974 0.0000 -4.6569 0.0000
# 4 0.0000 0.0000 0.0000 21.0375 0.0000 0.0120
# 5 -20.5874 -5.2716 -4.6569 0.0000 41.0545 0.0000
# 6 0.0000 0.0000 0.0000 0.0120 0.0000 24.2874
#
#
#
# Elastic Compliance Matrix: (Units=1/GPa)
#
#
# Indices 1 2 3 4 5 6 
#
# 1 0.010227 0.009358 -0.005450 0.000000 0.005712 0.000000
# 2 0.009358 0.100801 -0.011524 0.000000 0.016329 0.000000
# 3 -0.005450 -0.011524 0.010085 0.000000 -0.003069 0.000000
# 4 0.000000 0.000000 0.000000 0.047534 0.000000 -0.000024
# 5 0.005712 0.016329 -0.003069 0.000000 0.028971 0.000000
# 6 0.000000 0.000000 0.000000 -0.000024 0.000000 0.041174
#
#
# Mechanical properties :
#
#
# Convention : Reuss Voigt Hill
#
# Bulk Modulus (GPa) = 9.44457 52.56891 31.00674
# Shear Modulus (GPa) = 17.28207 32.65179 24.96693
#
# Velocity S-wave (km/s) = 2.87954 3.95803 3.46105
# Velocity P-wave (km/s) = 3.94805 6.79043 5.55415
#
# Compressibility (1/GPa) = 0.10588092
#
# Stress axis : x y z
#
# Youngs Moduli (GPa) = 97.78253 9.92053 99.15561
#
# Poissons Ratio (x) = -0.09284 0.54042
# Poissons Ratio (y) = -0.91509 1.14270
# Poissons Ratio (z) = 0.53293 0.11433
#
# Static dielectric constant tensor:
#      x y z
#    x 3.965580 0.000000 -0.120050 
#    y 0.000000 3.462650 0.000000 
#    z -0.120050 0.000000 3.934650 
# 
# 
# High freq. dielectric constant tensor:
#      x y z
#    x 1.836310 0.000000 -0.005000 
#    y 0.000000 1.767010 0.000000 
#    z -0.005000 0.000000 1.825570 
# 
# From -- ./inp_files/172207.got.cif
#   From: 2010.06.25/outbox.cif.g09.slc.cpg/sg12_87_cif.got.tgz:172207.got - 2010.06.28 00:19:55.
