data_PCOD8108743
_publ_section_title
;
Structure prediction by ZEFSAII (Michael W. Deem and Ramdas Pophale) SiO2 
 PCOD8108743
Probable space group: C 2/M
;
_chemical_formula_sum "Si O2"
_cell_formula_units_Z 48
_cell_length_a 23.449322
_cell_length_b 15.280818
_cell_length_c 19.752997
_cell_angle_alpha 90.000000
_cell_angle_beta 161.438872
_cell_angle_gamma 90.000000
_cell_volume 2253.038800
_symmetry_space_group_name_H-M "C 2/M"
_symmetry_group_IT_number 12
_symmetry_cell_setting 'monoclinic'
loop_
_space_group_symop_operation_xyz
x,y,z
-x,y,-z
-x,-y,-z
x,-y,z
1/2+x,1/2+y,z
1/2-x,1/2+y,-z
1/2-x,1/2-y,-z
1/2+x,1/2-y,z
loop_
_atom_site_type_symbol
_atom_site_label
_atom_site_fract_x
_atom_site_fract_y
_atom_site_fract_z
Si Si1 0.411251 0.747418 0.968252
Si Si2 0.365966 0.674423 0.659989
Si Si3 0.540618 0.901283 0.355865
Si Si4 0.836800 0.402983 0.364681
Si Si5 0.154626 0.101843 0.880871
Si Si6 0.158299 0.899306 0.730939
O O1 0.293600 0.663464 0.818601
O O2 0.313828 0.830634 0.891005
O O3 0.500000 0.784085 0.000000
O O4 0.554877 0.708704 0.181030
O O5 0.250000 0.750000 0.500000
O O6 0.214871 0.600340 0.503241
O O7 0.518059 0.647172 0.778479
O O8 0.593625 0.858207 0.487388
O O9 0.487666 0.000000 0.311200
O O10 0.357209 0.858548 0.118970
O O11 0.747254 0.500000 0.276479
O O12 0.000000 0.418587 0.500000
O O13 0.091814 0.118249 0.732872
O O14 0.150446 0.000000 0.893260
O O15 0.000000 0.881593 0.500000
O O16 0.228449 0.000000 0.803514
#
# Coordination Sequence:
#
# PCOD8108743 Si02
#       6
#     8   8   8   8   8   8
#     4  12  25  41  64  99 137 176 215 271 337 397
#     4  12  26  40  64 100 132 173 217 268 335 402
#     4  10  21  41  65  92 130 171 216 265 319 397
#     4  10  21  38  64  96 133 178 217 259 323 403
#     4  10  23  45  70  95 129 175 223 278 336 392
#     4  10  24  46  70  93 122 171 233 289 338 387
#
# _framework density 21.304561
#
# number of rings (size 3 to 8) (size 9 to 14) (size 15 to 20)
#    0.000    1.333    1.667    3.000    2.333    7.333 
#    0.000    0.833    0.000    0.000    0.000    0.000 
#    0.000    0.000    0.000    0.000    0.000    0.000 
#
# Total GULP energy -297439.189305 kJ/mol
# GULP energy per Si atom -12393.299554 kJ/mol
# Density = 2.125607 g / cm^3
# Si number density = 21.304561 Si / 1000 Ang^3
#
#
#
# Elastic Constant Matrix: (Units=GPa)
#
#
# Indices 1 2 3 4 5 6 
#
# 1 152.3604 39.2312 73.2437 0.0011 1.9898 -0.0015
# 2 39.2312 71.9832 42.8089 0.0191 2.7741 0.0192
# 3 73.2437 42.8089 150.1038 0.0116 -6.5746 0.0143
# 4 0.0011 0.0191 0.0116 33.4856 0.0056 5.5404
# 5 1.9898 2.7741 -6.5746 0.0056 47.6982 0.0031
# 6 -0.0015 0.0192 0.0143 5.5404 0.0031 32.2969
#
#
#
# Elastic Compliance Matrix: (Units=1/GPa)
#
#
# Indices 1 2 3 4 5 6 
#
# 1 0.009034 -0.002716 -0.003665 0.000002 -0.000724 0.000003
# 2 -0.002716 0.017675 -0.003778 -0.000007 -0.001435 -0.000008
# 3 -0.003665 -0.003778 0.009602 -0.000001 0.001696 -0.000002
# 4 0.000002 -0.000007 -0.000001 0.030736 -0.000003 -0.005273
# 5 -0.000724 -0.001435 0.001696 -0.000003 0.021313 -0.000001
# 6 0.000003 -0.000008 -0.000002 -0.005273 -0.000001 0.031867
#
#
# Mechanical properties :
#
#
# Convention : Reuss Voigt Hill
#
# Bulk Modulus (GPa) = 62.53150 76.11279 69.32215
# Shear Modulus (GPa) = 34.27537 37.30705 35.79121
#
# Velocity S-wave (km/s) = 4.01537 4.18919 4.10320
# Velocity P-wave (km/s) = 7.13530 7.69433 7.42008
#
# Compressibility (1/GPa) = 0.01599194
#
# Stress axis : x y z
#
# Youngs Moduli (GPa) = 110.69001 56.57809 104.13965
#
# Poissons Ratio (x) = 0.15366 0.38172
# Poissons Ratio (y) = 0.30063 0.39348
# Poissons Ratio (z) = 0.40573 0.21377
#
# Static dielectric constant tensor:
#      x y z
#    x -14.616390 0.002570 -9.965060 
#    y 0.002570 3.848170 0.001240 
#    z -9.965060 0.001240 -1.197020 
# 
# 
# High freq. dielectric constant tensor:
#      x y z
#    x 1.848300 0.000000 -0.011170 
#    y 0.000000 1.834710 0.000000 
#    z -0.011170 0.000000 1.842000 
# 
# From -- ./inp_files/285423.got.cif
#   From: 2010.06.25/outbox.cif.g09.slc.cpg/sg12_143_cif.got.tgz:285423.got - 2010.06.28 00:19:55.
