data_PCOD8108636
_publ_section_title
;
Structure prediction by ZEFSAII (Michael W. Deem and Ramdas Pophale) SiO2 
 PCOD8108636
Probable space group: C 2/M
;
_chemical_formula_sum "Si O2"
_cell_formula_units_Z 48
_cell_length_a 25.838940
_cell_length_b 13.823720
_cell_length_c 9.096299
_cell_angle_alpha 90.000000
_cell_angle_beta 42.161654
_cell_angle_gamma 90.000000
_cell_volume 2180.882378
_symmetry_space_group_name_H-M "C 2/M"
_symmetry_group_IT_number 12
_symmetry_cell_setting 'monoclinic'
loop_
_space_group_symop_operation_xyz
x,y,z
-x,y,-z
-x,-y,-z
x,-y,z
1/2+x,1/2+y,z
1/2-x,1/2+y,-z
1/2-x,1/2-y,-z
1/2+x,1/2-y,z
loop_
_atom_site_type_symbol
_atom_site_label
_atom_site_fract_x
_atom_site_fract_y
_atom_site_fract_z
Si Si1 0.852629 0.291621 0.950540
Si Si2 0.368524 0.890373 0.601060
Si Si3 0.939471 0.108147 0.255569
Si Si4 0.791881 0.761457 0.566503
Si Si5 0.475583 0.889913 0.892001
Si Si6 0.947456 0.892231 0.748671
O O1 0.860341 0.343236 0.778310
O O2 0.903784 0.334823 0.973697
O O3 0.874231 0.178100 0.882826
O O4 0.765218 0.304415 0.189693
O O5 0.319982 0.840227 0.573580
O O6 0.457442 0.885267 0.369288
O O7 0.338913 0.000000 0.673738
O O8 0.863386 0.168733 0.385023
O O9 0.991080 0.158451 0.271916
O O10 0.912885 0.000000 0.357233
O O11 0.000000 0.102565 0.000000
O O12 0.750000 0.750000 0.500000
O O13 0.449582 0.000000 0.976328
O O14 0.500000 0.843937 0.000000
O O15 0.000000 0.906593 0.500000
O O16 0.918700 0.000000 0.861674
#
# Coordination Sequence:
#
# PCOD8108636 Si02
#       6
#     8   8   8   8   8   8
#     4  12  23  39  65  95 130 169 211 269 337 396
#     4  11  25  44  64  91 130 175 220 265 322 396
#     4  10  22  42  66  91 122 162 209 262 320 387
#     4  12  26  41  64  96 129 170 216 272 338 396
#     4  10  21  39  65  94 125 167 217 267 319 384
#     4  10  21  38  63  91 120 160 210 261 312 376
#
# _framework density 22.009440999999999
#
# number of rings (size 3 to 8) (size 9 to 14) (size 15 to 20)
#    0.000    1.167    0.000    6.500    0.000    5.333 
#    0.000    1.667    0.000    0.000    0.000    0.000 
#    0.000    0.000    0.000    0.000    0.000    0.000 
#
# Total GULP energy -297506.805836 kJ/mol
# GULP energy per Si atom -12396.116910 kJ/mol
# Density = 2.195935 g / cm^3
# Si number density = 22.009441 Si / 1000 Ang^3
#
#
#
# Elastic Constant Matrix: (Units=GPa)
#
#
# Indices 1 2 3 4 5 6 
#
# 1 109.0103 55.8704 23.0577 0.0000 7.5494 0.0000
# 2 55.8704 122.5498 37.3107 0.0000 -9.5787 0.0000
# 3 23.0577 37.3107 105.6565 0.0000 -6.8806 0.0000
# 4 0.0000 0.0000 0.0000 28.5210 0.0000 5.4077
# 5 7.5494 -9.5787 -6.8806 0.0000 37.3739 0.0000
# 6 0.0000 0.0000 0.0000 5.4077 0.0000 30.3808
#
#
#
# Elastic Compliance Matrix: (Units=1/GPa)
#
#
# Indices 1 2 3 4 5 6 
#
# 1 0.012644 -0.005793 -0.000988 0.000000 -0.004221 0.000000
# 2 -0.005793 0.011915 -0.002700 0.000000 0.003727 0.000000
# 3 -0.000988 -0.002700 0.010731 0.000000 0.001483 0.000000
# 4 0.000000 0.000000 0.000000 0.036287 0.000000 -0.006459
# 5 -0.004221 0.003727 0.001483 0.000000 0.028837 0.000000
# 6 0.000000 0.000000 0.000000 -0.006459 0.000000 0.034065
#
#
# Mechanical properties :
#
#
# Convention : Reuss Voigt Hill
#
# Bulk Modulus (GPa) = 61.25666 63.29936 62.27801
# Shear Modulus (GPa) = 31.46942 33.98700 32.72821
#
# Velocity S-wave (km/s) = 3.78539 3.93390 3.86036
# Velocity P-wave (km/s) = 6.85551 7.03254 6.94459
#
# Compressibility (1/GPa) = 0.01632475
#
# Stress axis : x y z
#
# Youngs Moduli (GPa) = 79.08829 83.93050 93.19220
#
# Poissons Ratio (x) = 0.48625 0.09211
# Poissons Ratio (y) = 0.45819 0.25166
# Poissons Ratio (z) = 0.07817 0.22665
#
# Static dielectric constant tensor:
#      x y z
#    x 3.964200 0.000000 0.043310 
#    y 0.000000 4.278460 0.000000 
#    z 0.043310 0.000000 4.040950 
# 
# 
# High freq. dielectric constant tensor:
#      x y z
#    x 1.871620 0.000000 0.014210 
#    y 0.000000 1.874730 0.000000 
#    z 0.014210 0.000000 1.871560 
# 
# From -- ./inp_files/104950.got.cif
#   From: 2010.06.25/outbox.cif.g09.slc.cpg/sg12_53_cif.got.tgz:104950.got - 2010.06.28 00:19:55.
