data_PCOD8108958
_publ_section_title
;
Structure prediction by ZEFSAII (Michael W. Deem and Ramdas Pophale) SiO2 
 PCOD8108958
Probable space group: C 2/M
;
_chemical_formula_sum "Si O2"
_cell_formula_units_Z 64
_cell_length_a 29.461501
_cell_length_b 18.462373
_cell_length_c 9.385570
_cell_angle_alpha 90.000000
_cell_angle_beta 38.501335
_cell_angle_gamma 90.000000
_cell_volume 3178.083706
_symmetry_space_group_name_H-M "C 2/M"
_symmetry_group_IT_number 12
_symmetry_cell_setting 'monoclinic'
loop_
_space_group_symop_operation_xyz
x,y,z
-x,y,-z
-x,-y,-z
x,-y,z
1/2+x,1/2+y,z
1/2-x,1/2+y,-z
1/2-x,1/2-y,-z
1/2+x,1/2-y,z
loop_
_atom_site_type_symbol
_atom_site_label
_atom_site_fract_x
_atom_site_fract_y
_atom_site_fract_z
Si Si1 0.282244 0.417416 0.589886
Si Si2 0.572726 0.190242 0.411541
Si Si3 0.777235 0.326369 0.493261
Si Si4 0.564148 0.361140 0.745113
Si Si5 0.074919 0.856759 0.398357
Si Si6 0.933385 0.691785 0.253238
Si Si7 0.193247 0.581148 0.078819
Si Si8 0.291697 0.582750 0.098984
O O1 0.289122 0.500000 0.528031
O O2 0.219718 0.380899 0.647350
O O3 0.359164 0.379144 0.370038
O O4 0.261290 0.407121 0.805993
O O5 0.500000 0.181950 0.500000
O O6 0.600712 0.273019 0.343659
O O7 0.563114 0.159816 0.595753
O O8 0.632614 0.140113 0.188893
O O9 0.750000 0.250000 0.500000
O O10 0.856932 0.323461 0.365139
O O11 0.718759 0.359218 0.748995
O O12 0.563196 0.390714 0.584990
O O13 0.551881 0.276243 0.769373
O O14 0.500000 0.396341 0.000000
O O15 0.000000 0.863592 0.500000
O O16 0.134168 0.902256 0.167235
O O17 0.000000 0.656439 0.000000
O O18 0.161164 0.500000 0.137897
O O19 0.222687 0.592625 0.165105
O O20 0.294147 0.500000 0.150870
#
# Coordination Sequence:
#
# PCOD8108958 Si02
#       8
#     8   8   8   8   8   8   8   8
#     4  11  24  41  61  92 128 165 210 263 317 379
#     4  10  22  39  65  94 124 161 211 268 317 371
#     4  12  25  40  67  97 122 171 214 259 316 378
#     4  10  21  39  60  89 129 165 209 260 318 383
#     4  10  23  38  63  96 125 164 215 263 317 381
#     4  10  22  40  61  92 128 162 205 263 319 375
#     4  10  22  41  65  89 125 168 210 265 321 377
#     4  11  24  43  65  92 130 168 211 265 318 379
#
# _framework density 20.137922
#
# number of rings (size 3 to 8) (size 9 to 14) (size 15 to 20)
#    0.000    1.500    3.750    0.375    5.250    2.250 
#    0.000    0.000    0.000    1.875    0.000    0.000 
#    0.000    0.000    0.000    0.000    0.000    0.000 
#
# Total GULP energy -396817.745718 kJ/mol
# GULP energy per Si atom -12400.554554 kJ/mol
# Density = 2.009209 g / cm^3
# Si number density = 20.137922 Si / 1000 Ang^3
#
#
#
# Elastic Constant Matrix: (Units=GPa)
#
#
# Indices 1 2 3 4 5 6 
#
# 1 111.3241 25.1113 43.8126 0.0000 4.0741 0.0000
# 2 25.1113 58.3382 49.3309 0.0000 0.5619 0.0000
# 3 43.8126 49.3309 116.7365 0.0000 1.3259 0.0000
# 4 0.0000 0.0000 0.0000 26.0927 0.0000 4.5311
# 5 4.0741 0.5619 1.3259 0.0000 33.3031 0.0000
# 6 0.0000 0.0000 0.0000 4.5311 0.0000 24.2142
#
#
#
# Elastic Compliance Matrix: (Units=1/GPa)
#
#
# Indices 1 2 3 4 5 6 
#
# 1 0.010714 -0.001885 -0.003211 0.000000 -0.001151 0.000000
# 2 -0.001885 0.027004 -0.010706 0.000000 0.000201 0.000000
# 3 -0.003211 -0.010706 0.014296 0.000000 0.000004 0.000000
# 4 0.000000 0.000000 0.000000 0.039612 0.000000 -0.007412
# 5 -0.001151 0.000201 0.000004 0.000000 0.030165 0.000000
# 6 0.000000 0.000000 0.000000 -0.007412 0.000000 0.042685
#
#
# Mechanical properties :
#
#
# Convention : Reuss Voigt Hill
#
# Bulk Modulus (GPa) = 48.99946 58.10093 53.55019
# Shear Modulus (GPa) = 24.64461 27.93160 26.28810
#
# Velocity S-wave (km/s) = 3.50207 3.72831 3.61696
# Velocity P-wave (km/s) = 6.38259 6.88824 6.64023
#
# Compressibility (1/GPa) = 0.02040839
#
# Stress axis : x y z
#
# Youngs Moduli (GPa) = 93.33579 37.03127 69.95045
#
# Poissons Ratio (x) = 0.06981 0.22464
# Poissons Ratio (y) = 0.17595 0.74891
# Poissons Ratio (z) = 0.29974 0.39647
#
# Static dielectric constant tensor:
#      x y z
#    x 3.680430 0.000000 0.199950 
#    y 0.000000 3.577690 0.000000 
#    z 0.199950 0.000000 3.763340 
# 
# 
# High freq. dielectric constant tensor:
#      x y z
#    x 1.793690 0.000000 0.009440 
#    y 0.000000 1.773190 0.000000 
#    z 0.009440 0.000000 1.789160 
# 
# From -- ./inp_files/112805.got.cif
#   From: 2010.06.25/outbox.cif.g09.slc.cpg/sg12_57_cif.got.tgz:112805.got - 2010.06.28 00:19:55.
