data_PCOD8108533
_publ_section_title
;
Structure prediction by ZEFSAII (Michael W. Deem and Ramdas Pophale) SiO2 
 PCOD8108533
Probable space group: C 2/M
;
_chemical_formula_sum "Si O2"
_cell_formula_units_Z 40
_cell_length_a 25.344992
_cell_length_b 8.545121
_cell_length_c 20.832011
_cell_angle_alpha 90.000000
_cell_angle_beta 24.912550
_cell_angle_gamma 90.000000
_cell_volume 1900.489548
_symmetry_space_group_name_H-M "C 2/M"
_symmetry_group_IT_number 12
_symmetry_cell_setting 'monoclinic'
loop_
_space_group_symop_operation_xyz
x,y,z
-x,y,-z
-x,-y,-z
x,-y,z
1/2+x,1/2+y,z
1/2-x,1/2+y,-z
1/2-x,1/2-y,-z
1/2+x,1/2-y,z
loop_
_atom_site_type_symbol
_atom_site_label
_atom_site_fract_x
_atom_site_fract_y
_atom_site_fract_z
Si Si1 0.325200 0.826311 0.823768
Si Si2 0.139950 0.820968 0.342686
Si Si3 0.092932 0.321584 0.135399
Si Si4 0.633825 0.316439 0.824759
Si Si5 0.354246 0.314537 0.337200
O O1 0.326114 0.693417 0.769258
O O2 0.434150 0.806374 0.757607
O O3 0.331210 0.000000 0.786003
O O4 0.195869 0.807167 0.004272
O O5 0.245556 0.738365 0.268408
O O6 0.000000 0.745109 0.500000
O O7 0.135573 0.000000 0.369403
O O8 0.134445 0.500000 0.074293
O O9 0.974799 0.279813 0.224316
O O10 0.625218 0.500000 0.842212
O O11 0.662847 0.270326 0.718967
O O12 0.500000 0.246877 0.000000
O O13 0.368153 0.500000 0.330912
O O14 0.250000 0.250000 0.500000
#
# Coordination Sequence:
#
# PCOD8108533 Si02
#       5
#     8   8   8   8   8
#     4  10  21  38  62  90 122 163 205 250 308 375
#     4  11  25  41  61  93 128 164 209 264 320 373
#     4  10  21  38  62  92 123 159 205 254 309 370
#     4  10  23  44  68  93 123 166 219 266 316 383
#     4  11  24  40  62  92 128 166 209 260 316 377
#
# _framework density 21.047208000000001
#
# number of rings (size 3 to 8) (size 9 to 14) (size 15 to 20)
#    0.000    1.600    0.000    3.600    2.800    7.600 
#    0.000    0.000    0.000    0.000    0.000    0.000 
#    0.000    0.000    0.000    0.000    0.000    0.000 
#
# Total GULP energy -247811.063236 kJ/mol
# GULP energy per Si atom -12390.553162 kJ/mol
# Density = 2.099930 g / cm^3
# Si number density = 21.047208 Si / 1000 Ang^3
#
#
#
# Elastic Constant Matrix: (Units=GPa)
#
#
# Indices 1 2 3 4 5 6 
#
# 1 166.5373 37.1807 68.1229 0.0072 1.1458 -0.0038
# 2 37.1807 48.2841 20.6899 0.0167 8.5038 -0.0109
# 3 68.1229 20.6899 109.0181 0.0153 6.2235 -0.0094
# 4 0.0072 0.0167 0.0153 31.4025 -0.0066 0.1718
# 5 1.1458 8.5038 6.2235 -0.0066 36.5447 0.0033
# 6 -0.0038 -0.0109 -0.0094 0.1718 0.0033 31.5344
#
#
#
# Elastic Compliance Matrix: (Units=1/GPa)
#
#
# Indices 1 2 3 4 5 6 
#
# 1 0.009140 -0.005288 -0.004808 0.000003 0.001763 -0.000002
# 2 -0.005288 0.026383 -0.001375 -0.000013 -0.005739 0.000009
# 3 -0.004808 -0.001375 0.012533 -0.000005 -0.001664 0.000003
# 4 0.000003 -0.000013 -0.000005 0.031846 0.000010 -0.000174
# 5 0.001763 -0.005739 -0.001664 0.000010 0.028927 -0.000005
# 6 -0.000002 0.000009 0.000003 -0.000174 -0.000005 0.031712
#
#
# Mechanical properties :
#
#
# Convention : Reuss Voigt Hill
#
# Bulk Modulus (GPa) = 39.81975 63.98070 51.90022
# Shear Modulus (GPa) = 29.09413 33.08604 31.09009
#
# Velocity S-wave (km/s) = 3.72200 3.96914 3.84755
# Velocity P-wave (km/s) = 6.11812 7.17426 6.66714
#
# Compressibility (1/GPa) = 0.02511317
#
# Stress axis : x y z
#
# Youngs Moduli (GPa) = 109.40797 37.90333 79.78690
#
# Poissons Ratio (x) = 0.20044 0.38365
# Poissons Ratio (y) = 0.57858 0.10970
# Poissons Ratio (z) = 0.52608 0.05211
#
# Static dielectric constant tensor:
#      x y z
#    x 3.976540 -0.000220 0.151030 
#    y -0.000220 3.238850 -0.000010 
#    z 0.151030 -0.000010 3.832460 
# 
# 
# High freq. dielectric constant tensor:
#      x y z
#    x 1.844920 0.000000 0.003110 
#    y 0.000000 1.822740 0.000000 
#    z 0.003110 0.000000 1.817680 
# 
# From -- ./inp_files/288595.got.cif
#   From: 2010.06.25/outbox.cif.g09.slc.cpg/sg12_145_cif.got.tgz:288595.got - 2010.06.28 00:19:55.
