data_PCOD8108424
_publ_section_title
;
Structure prediction by ZEFSAII (Michael W. Deem and Ramdas Pophale) SiO2 
 PCOD8108424
Probable space group: C 2/M
;
_chemical_formula_sum "Si O2"
_cell_formula_units_Z 64
_cell_length_a 21.122725
_cell_length_b 23.931357
_cell_length_c 17.695141
_cell_angle_alpha 90.000000
_cell_angle_beta 161.330558
_cell_angle_gamma 90.000000
_cell_volume 2863.304285
_symmetry_space_group_name_H-M "C 2/M"
_symmetry_group_IT_number 12
_symmetry_cell_setting 'monoclinic'
loop_
_space_group_symop_operation_xyz
x,y,z
-x,y,-z
-x,-y,-z
x,-y,z
1/2+x,1/2+y,z
1/2-x,1/2+y,-z
1/2-x,1/2-y,-z
1/2+x,1/2-y,z
loop_
_atom_site_type_symbol
_atom_site_label
_atom_site_fract_x
_atom_site_fract_y
_atom_site_fract_z
Si Si1 0.681378 0.261254 0.653839
Si Si2 0.167592 0.142780 0.524273
Si Si3 0.716263 0.562361 0.711493
Si Si4 0.590440 0.624155 0.912723
Si Si5 0.353318 0.192253 0.117199
Si Si6 0.767063 0.660007 0.388580
Si Si7 0.899513 0.342498 0.009678
Si Si8 0.038098 0.563485 0.630041
O O1 0.500000 0.242170 0.500000
O O2 0.593741 0.305025 0.492307
O O3 0.775121 0.203744 0.727112
O O4 0.843524 0.293024 0.888234
O O5 0.211923 0.088287 0.623790
O O6 0.019178 0.121933 0.291812
O O7 0.368620 0.163432 0.712598
O O8 0.500000 0.563343 0.500000
O O9 0.802724 0.500000 0.804562
O O10 0.855693 0.597464 0.924449
O O11 0.442810 0.642628 0.812325
O O12 0.769336 0.667267 0.100619
O O13 0.723437 0.570000 0.084094
O O14 0.591856 0.194442 0.393868
O O15 0.250000 0.250000 0.000000
O O16 0.293139 0.160988 0.970993
O O17 0.885918 0.603296 0.503170
O O18 0.983254 0.500000 0.590382
O O19 0.000000 0.575635 0.500000
#
# Coordination Sequence:
#
# PCOD8108424 Si02
#       8
#     8   8   8   8   8   8   8   8
#     4  11  22  39  62  96 140 184 225 274 334 404
#     4  11  22  39  64  96 140 179 221 273 335 408
#     4  10  21  38  61  90 128 179 234 277 326 397
#     4  11  24  43  70  99 133 175 221 279 345 417
#     4  11  23  40  65  93 140 185 224 279 342 408
#     4  11  24  43  67 105 133 170 234 283 342 420
#     4  11  22  40  61  95 136 183 229 279 336 400
#     4  10  25  51  74  97 130 170 224 292 358 417
#
# _framework density 22.351799
#
# number of rings (size 3 to 8) (size 9 to 14) (size 15 to 20)
#    0.000    1.250    1.250    6.375    1.750    4.500 
#    6.750    5.000    0.000    0.000    0.000    0.000 
#    0.000    0.000    0.000    0.000    0.000    0.000 
#
# Total GULP energy -396510.985348 kJ/mol
# GULP energy per Si atom -12390.968292 kJ/mol
# Density = 2.230092 g / cm^3
# Si number density = 22.351799 Si / 1000 Ang^3
#
#
#
# Elastic Constant Matrix: (Units=GPa)
#
#
# Indices 1 2 3 4 5 6 
#
# 1 129.3702 52.8092 42.9311 -0.0004 13.8686 -0.0004
# 2 52.8092 117.2220 24.9013 0.0001 6.9561 -0.0001
# 3 42.9311 24.9013 103.6029 -0.0009 1.8931 -0.0027
# 4 -0.0004 0.0001 -0.0009 33.2736 -0.0002 -2.6235
# 5 13.8686 6.9561 1.8931 -0.0002 35.6617 -0.0009
# 6 -0.0004 -0.0001 -0.0027 -2.6235 -0.0009 19.3070
#
#
#
# Elastic Compliance Matrix: (Units=1/GPa)
#
#
# Indices 1 2 3 4 5 6 
#
# 1 0.010851 -0.003954 -0.003486 0.000000 -0.003263 0.000000
# 2 -0.003954 0.010528 -0.000883 0.000000 -0.000469 0.000000
# 3 -0.003486 -0.000883 0.011292 0.000000 0.000929 0.000002
# 4 0.000000 0.000000 0.000000 0.030379 0.000000 0.004128
# 5 -0.003263 -0.000469 0.000929 0.000000 0.029353 0.000001
# 6 0.000000 0.000000 0.000002 0.004128 0.000001 0.052355
#
#
# Mechanical properties :
#
#
# Convention : Reuss Voigt Hill
#
# Bulk Modulus (GPa) = 62.40953 65.71980 64.06466
# Shear Modulus (GPa) = 29.98574 32.95203 31.46888
#
# Velocity S-wave (km/s) = 3.66667 3.84376 3.75626
# Velocity P-wave (km/s) = 6.77555 7.01182 6.89470
#
# Compressibility (1/GPa) = 0.01602319
#
# Stress axis : x y z
#
# Youngs Moduli (GPa) = 92.16140 94.98857 88.55649
#
# Poissons Ratio (x) = 0.37558 0.30873
# Poissons Ratio (y) = 0.36440 0.07822
# Poissons Ratio (z) = 0.32130 0.08390
#
# Static dielectric constant tensor:
#      x y z
#    x 3.856620 -0.000010 0.204030 
#    y -0.000010 3.911310 0.000010 
#    z 0.204030 0.000010 4.136660 
# 
# 
# High freq. dielectric constant tensor:
#      x y z
#    x 1.887000 0.000000 0.006100 
#    y 0.000000 1.863970 0.000000 
#    z 0.006100 0.000000 1.895380 
# 
# From -- ./inp_files/286440.got.cif
#   From: 2010.06.25/outbox.cif.g09.slc.cpg/sg12_144_cif.got.tgz:286440.got - 2010.06.28 00:19:55.
