data_PCOD8108476
_publ_section_title
;
Structure prediction by ZEFSAII (Michael W. Deem and Ramdas Pophale) SiO2 
 PCOD8108476
Probable space group: C 2/M
;
_chemical_formula_sum "Si O2"
_cell_formula_units_Z 56
_cell_length_a 9.775186
_cell_length_b 22.113955
_cell_length_c 15.183880
_cell_angle_alpha 90.000000
_cell_angle_beta 60.313911
_cell_angle_gamma 90.000000
_cell_volume 2851.477328
_symmetry_space_group_name_H-M "C 2/M"
_symmetry_group_IT_number 12
_symmetry_cell_setting 'monoclinic'
loop_
_space_group_symop_operation_xyz
x,y,z
-x,y,-z
-x,-y,-z
x,-y,z
1/2+x,1/2+y,z
1/2-x,1/2+y,-z
1/2-x,1/2-y,-z
1/2+x,1/2-y,z
loop_
_atom_site_type_symbol
_atom_site_label
_atom_site_fract_x
_atom_site_fract_y
_atom_site_fract_z
Si Si1 0.136065 0.229500 0.388609
Si Si2 0.697306 0.144011 0.302985
Si Si3 0.320274 0.568541 0.414953
Si Si4 0.061836 0.788364 0.885960
Si Si5 0.176877 0.932006 0.267097
Si Si6 0.347948 0.124655 0.368179
Si Si7 0.681805 0.308675 0.186756
O O1 0.173835 0.300436 0.378584
O O2 0.293611 0.192918 0.363611
O O3 0.085260 0.209917 0.305829
O O4 0.000000 0.212666 0.500000
O O5 0.774590 0.089404 0.331514
O O6 0.812458 0.162333 0.186795
O O7 0.534936 0.122451 0.313022
O O8 0.265008 0.500000 0.443791
O O9 0.506955 0.575283 0.367089
O O10 0.228424 0.607515 0.515193
O O11 0.146074 0.722770 0.867078
O O12 0.914803 0.785000 0.866199
O O13 0.000000 0.809805 0.000000
O O14 0.299933 0.921483 0.306485
O O15 0.201363 0.882013 0.181770
O O16 0.198631 0.000000 0.221338
#
# Coordination Sequence:
#
# PCOD8108476 Si02
#       7
#     8   8   8   8   8   8   8
#     4  10  22  34  57  85 129 163 197 235 306 373
#     4  11  25  37  56  88 126 155 202 262 315 362
#     4  11  22  39  59  84 123 172 212 245 293 365
#     4  11  24  43  67  94 118 158 206 266 328 374
#     4  10  21  38  62  87 125 171 209 245 290 361
#     4  11  22  35  57  89 124 166 205 246 295 365
#     4  10  22  40  64  94 124 157 206 258 308 376
#
# _framework density 19.638943000000001
#
# number of rings (size 3 to 8) (size 9 to 14) (size 15 to 20)
#    0.000    1.429    1.429    4.286   12.000    4.000 
#    0.000    0.000    0.000    2.143    0.000    0.000 
#    0.000    0.000    0.000    0.000    0.000    0.000 
#
# Total GULP energy -347249.226878 kJ/mol
# GULP energy per Si atom -12401.758103 kJ/mol
# Density = 1.959424 g / cm^3
# Si number density = 19.638943 Si / 1000 Ang^3
#
#
#
# Elastic Constant Matrix: (Units=GPa)
#
#
# Indices 1 2 3 4 5 6 
#
# 1 129.4187 59.9245 40.3659 0.0000 8.3102 0.0000
# 2 59.9245 91.5805 28.9859 0.0000 3.8383 0.0000
# 3 40.3659 28.9859 93.1414 0.0000 15.3004 0.0000
# 4 0.0000 0.0000 0.0000 14.9029 0.0000 0.4541
# 5 8.3102 3.8383 15.3004 0.0000 22.0507 0.0000
# 6 0.0000 0.0000 0.0000 0.4541 0.0000 19.6256
#
#
#
# Elastic Compliance Matrix: (Units=1/GPa)
#
#
# Indices 1 2 3 4 5 6 
#
# 1 0.011834 -0.006804 -0.002791 0.000000 -0.001339 0.000000
# 2 -0.006804 0.016030 -0.002261 0.000000 0.001342 0.000000
# 3 -0.002791 -0.002261 0.014009 0.000000 -0.008275 0.000000
# 4 0.000000 0.000000 0.000000 0.067148 0.000000 -0.001554
# 5 -0.001339 0.001342 -0.008275 0.000000 0.051363 0.000000
# 6 0.000000 0.000000 0.000000 -0.001554 0.000000 0.050990
#
#
# Mechanical properties :
#
#
# Convention : Reuss Voigt Hill
#
# Bulk Modulus (GPa) = 55.06038 63.63258 59.34648
# Shear Modulus (GPa) = 20.73492 23.64013 22.18752
#
# Velocity S-wave (km/s) = 3.25284 3.47326 3.36485
# Velocity P-wave (km/s) = 6.49655 6.96823 6.73652
#
# Compressibility (1/GPa) = 0.01816188
#
# Stress axis : x y z
#
# Youngs Moduli (GPa) = 84.50436 62.38113 71.38303
#
# Poissons Ratio (x) = 0.42442 0.19925
# Poissons Ratio (y) = 0.57494 0.16137
# Poissons Ratio (z) = 0.23588 0.14102
#
# Static dielectric constant tensor:
#      x y z
#    x 3.655590 0.000000 0.029860 
#    y 0.000000 3.690580 0.000000 
#    z 0.029860 0.000000 3.344270 
# 
# 
# High freq. dielectric constant tensor:
#      x y z
#    x 1.775910 0.000000 0.002700 
#    y 0.000000 1.762810 0.000000 
#    z 0.002700 0.000000 1.733190 
# 
# From -- ./inp_files/198393.got.cif
#   From: 2010.06.25/outbox.cif.g09.slc.cpg/sg12_100_cif.got.tgz:198393.got - 2010.06.28 00:19:55.
