data_PCOD8108828
_publ_section_title
;
Structure prediction by ZEFSAII (Michael W. Deem and Ramdas Pophale) SiO2 
 PCOD8108828
Probable space group: C 2/M
;
_chemical_formula_sum "Si O2"
_cell_formula_units_Z 56
_cell_length_a 14.043778
_cell_length_b 13.930119
_cell_length_c 17.763015
_cell_angle_alpha 90.000000
_cell_angle_beta 127.058557
_cell_angle_gamma 90.000000
_cell_volume 2773.123793
_symmetry_space_group_name_H-M "C 2/M"
_symmetry_group_IT_number 12
_symmetry_cell_setting 'monoclinic'
loop_
_space_group_symop_operation_xyz
x,y,z
-x,y,-z
-x,-y,-z
x,-y,z
1/2+x,1/2+y,z
1/2-x,1/2+y,-z
1/2-x,1/2-y,-z
1/2+x,1/2-y,z
loop_
_atom_site_type_symbol
_atom_site_label
_atom_site_fract_x
_atom_site_fract_y
_atom_site_fract_z
Si Si1 0.515692 0.889484 0.327909
Si Si2 0.646067 0.389069 0.928052
Si Si3 0.435111 0.285869 0.897985
Si Si4 0.278460 0.888005 0.128930
Si Si5 0.577128 0.738679 0.607000
Si Si6 0.848704 0.744133 0.702624
Si Si7 0.034214 0.114725 0.727417
O O1 0.412896 0.868990 0.217514
O O2 0.483745 0.834951 0.389426
O O3 0.633518 0.846939 0.344328
O O4 0.535075 0.000000 0.356930
O O5 0.662603 0.500000 0.924110
O O6 0.525647 0.370608 0.917917
O O7 0.633756 0.348570 0.836795
O O8 0.758136 0.351022 0.032192
O O9 0.308004 0.331515 0.856594
O O10 0.408765 0.219322 0.812747
O O11 0.500000 0.231161 0.000000
O O12 0.245981 0.000000 0.119134
O O13 0.500000 0.702380 0.500000
O O14 0.709290 0.764366 0.643047
O O15 0.578605 0.652808 0.668430
O O16 0.908378 0.838017 0.692184
O O17 0.018652 0.000000 0.717567
#
# Coordination Sequence:
#
# PCOD8108828 Si02
#       7
#     8   8   8   8   8   8   8
#     4  10  22  39  59  84 115 152 190 231 285 339
#     4   8  14  26  48  81 116 146 182 227 271 325
#     4   9  15  27  49  82 111 149 184 224 273 333
#     4   9  15  27  51  81 113 149 186 225 272 330
#     4  11  24  42  61  83 112 148 192 241 288 334
#     4  10  21  39  57  84 117 148 185 240 282 331
#     4   9  20  38  60  87 115 148 188 230 284 340
#
# _framework density 20.193833000000001
#
# number of rings (size 3 to 8) (size 9 to 14) (size 15 to 20)
#    0.000    2.571    1.429    0.429    0.000    6.286 
#    2.571    4.286    0.000    0.429    0.000    0.000 
#    0.000    0.000    0.000    0.000    0.000    0.000 
#
# Total GULP energy -346932.031398 kJ/mol
# GULP energy per Si atom -12390.429693 kJ/mol
# Density = 2.014787 g / cm^3
# Si number density = 20.193833 Si / 1000 Ang^3
#
#
#
# Elastic Constant Matrix: (Units=GPa)
#
#
# Indices 1 2 3 4 5 6 
#
# 1 82.6993 15.3625 29.9094 0.0000 -14.0913 0.0000
# 2 15.3625 52.2976 8.7499 0.0000 -17.3794 0.0000
# 3 29.9094 8.7499 94.8248 0.0000 -17.4129 0.0000
# 4 0.0000 0.0000 0.0000 21.3960 0.0000 -6.7753
# 5 -14.0913 -17.3794 -17.4129 0.0000 22.1795 0.0000
# 6 0.0000 0.0000 0.0000 -6.7753 0.0000 13.6137
#
#
#
# Elastic Compliance Matrix: (Units=1/GPa)
#
#
# Indices 1 2 3 4 5 6 
#
# 1 0.014579 -0.002073 -0.003511 0.000000 0.004882 0.000000
# 2 -0.002073 0.026347 0.002070 0.000000 0.020954 0.000000
# 3 -0.003511 0.002070 0.013262 0.000000 0.009804 0.000000
# 4 0.000000 0.000000 0.000000 0.055481 0.000000 0.027612
# 5 0.004882 0.020954 0.009804 0.000000 0.072304 0.000000
# 6 0.000000 0.000000 0.000000 0.027612 0.000000 0.087197
#
#
# Mechanical properties :
#
#
# Convention : Reuss Voigt Hill
#
# Bulk Modulus (GPa) = 21.20351 37.54060 29.37205
# Shear Modulus (GPa) = 17.12813 23.15783 20.14298
#
# Velocity S-wave (km/s) = 2.91552 3.39008 3.16172
# Velocity P-wave (km/s) = 4.67509 5.82701 5.28254
#
# Compressibility (1/GPa) = 0.04716201
#
# Stress axis : x y z
#
# Youngs Moduli (GPa) = 68.59402 37.95485 75.40128
#
# Poissons Ratio (x) = 0.07867 0.26470
# Poissons Ratio (y) = 0.14218 -0.15611
# Poissons Ratio (z) = 0.24081 -0.07858
#
# Static dielectric constant tensor:
#      x y z
#    x 3.504040 0.000000 -0.179540 
#    y 0.000000 3.388670 0.000000 
#    z -0.179540 0.000000 3.943970 
# 
# 
# High freq. dielectric constant tensor:
#      x y z
#    x 1.778210 0.000000 -0.012250 
#    y 0.000000 1.762950 0.000000 
#    z -0.012250 0.000000 1.793640 
# 
# From -- ./inp_files/270361.got.cif
#   From: 2010.06.25/outbox.cif.g09.slc.cpg/sg12_136_cif.got.tgz:270361.got - 2010.06.28 00:19:55.
