data_PCOD8108913
_publ_section_title
;
Structure prediction by ZEFSAII (Michael W. Deem and Ramdas Pophale) SiO2 
 PCOD8108913
Probable space group: C 2/M
;
_chemical_formula_sum "Si O2"
_cell_formula_units_Z 48
_cell_length_a 23.351400
_cell_length_b 8.443839
_cell_length_c 12.335163
_cell_angle_alpha 90.000000
_cell_angle_beta 69.576043
_cell_angle_gamma 90.000000
_cell_volume 2279.294568
_symmetry_space_group_name_H-M "C 2/M"
_symmetry_group_IT_number 12
_symmetry_cell_setting 'monoclinic'
loop_
_space_group_symop_operation_xyz
x,y,z
-x,y,-z
-x,-y,-z
x,-y,z
1/2+x,1/2+y,z
1/2-x,1/2+y,-z
1/2-x,1/2-y,-z
1/2+x,1/2-y,z
loop_
_atom_site_type_symbol
_atom_site_label
_atom_site_fract_x
_atom_site_fract_y
_atom_site_fract_z
Si Si1 0.694121 0.813510 0.789322
Si Si2 0.493943 0.317387 0.879044
Si Si3 0.173107 0.812436 0.242505
Si Si4 0.864473 0.685832 0.949746
Si Si5 0.431820 0.685846 0.530297
Si Si6 0.100722 0.316522 0.675541
O O1 0.765291 0.767139 0.732198
O O2 0.657001 0.746593 0.710060
O O3 0.684879 0.000000 0.797505
O O4 0.666206 0.746862 0.920259
O O5 0.510315 0.500000 0.845226
O O6 0.425932 0.282372 0.884873
O O7 0.538706 0.205134 0.783133
O O8 0.500000 0.271899 0.000000
O O9 0.178648 0.724067 0.123839
O O10 0.114533 0.747847 0.347878
O O11 0.170226 0.000000 0.225039
O O12 0.877854 0.500000 0.949588
O O13 0.500000 0.761110 0.500000
O O14 0.436847 0.500000 0.542041
O O15 0.402838 0.721406 0.433325
O O16 0.109889 0.500000 0.641970
#
# Coordination Sequence:
#
# PCOD8108913 Si02
#       6
#     8   8   8   8   8   8
#     4   9  20  37  57  85 120 157 192 239 298 347
#     4  11  22  36  57  86 117 150 191 234 286 351
#     4  10  21  39  60  82 117 162 202 239 288 346
#     4  11  21  36  59  87 121 154 194 244 294 345
#     4  10  22  40  60  83 115 153 197 247 295 345
#     4  11  22  38  61  87 119 153 193 243 295 348
#
# _framework density 21.059148
#
# number of rings (size 3 to 8) (size 9 to 14) (size 15 to 20)
#    0.000    1.667    1.667    3.000    0.000    3.667 
#    0.000    2.500    0.000    0.000    0.000    0.000 
#    0.000    0.000    0.000    0.000    0.000    0.000 
#
# Total GULP energy -297647.457225 kJ/mol
# GULP energy per Si atom -12401.977384 kJ/mol
# Density = 2.101122 g / cm^3
# Si number density = 21.059148 Si / 1000 Ang^3
#
#
#
# Elastic Constant Matrix: (Units=GPa)
#
#
# Indices 1 2 3 4 5 6 
#
# 1 151.7341 9.2614 59.7661 0.0000 2.7010 0.0000
# 2 9.2614 15.8129 7.3006 0.0000 -2.3550 0.0000
# 3 59.7661 7.3006 106.9195 0.0000 11.9947 0.0000
# 4 0.0000 0.0000 0.0000 18.5033 0.0000 11.9402
# 5 2.7010 -2.3550 11.9947 0.0000 39.1744 0.0000
# 6 0.0000 0.0000 0.0000 11.9402 0.0000 20.1887
#
#
#
# Elastic Compliance Matrix: (Units=1/GPa)
#
#
# Indices 1 2 3 4 5 6 
#
# 1 0.008595 -0.002767 -0.004692 0.000000 0.000678 0.000000
# 2 -0.002767 0.067345 -0.003653 0.000000 0.005358 0.000000
# 3 -0.004692 -0.003653 0.012648 0.000000 -0.003769 0.000000
# 4 0.000000 0.000000 0.000000 0.087401 0.000000 -0.051691
# 5 0.000678 0.005358 -0.003769 0.000000 0.026956 0.000000
# 6 0.000000 0.000000 0.000000 -0.051691 0.000000 0.080104
#
#
# Mechanical properties :
#
#
# Convention : Reuss Voigt Hill
#
# Bulk Modulus (GPa) = 15.06829 47.45806 31.26317
# Shear Modulus (GPa) = 15.27216 28.78250 22.02733
#
# Velocity S-wave (km/s) = 2.69588 3.70096 3.23766
# Velocity P-wave (km/s) = 4.10623 6.39119 5.37161
#
# Compressibility (1/GPa) = 0.06636455
#
# Stress axis : x y z
#
# Youngs Moduli (GPa) = 116.34252 14.84899 79.06643
#
# Poissons Ratio (x) = 0.04109 0.37096
# Poissons Ratio (y) = 0.32194 0.28880
# Poissons Ratio (z) = 0.54584 0.05424
#
# Static dielectric constant tensor:
#      x y z
#    x 4.094500 0.000000 0.025140 
#    y 0.000000 3.438330 0.000000 
#    z 0.025140 0.000000 3.875760 
# 
# 
# High freq. dielectric constant tensor:
#      x y z
#    x 1.839570 0.000000 0.005620 
#    y 0.000000 1.797270 0.000000 
#    z 0.005620 0.000000 1.825440 
# 
# From -- ./inp_files/172859.got.cif
#   From: 2010.06.25/outbox.cif.g09.slc.cpg/sg12_87_cif.got.tgz:172859.got - 2010.06.28 00:19:55.
