data_PCOD8108729
_publ_section_title
;
Structure prediction by ZEFSAII (Michael W. Deem and Ramdas Pophale) SiO2 
 PCOD8108729
Probable space group: C 2/M
;
_chemical_formula_sum "Si O2"
_cell_formula_units_Z 52
_cell_length_a 20.003980
_cell_length_b 21.791286
_cell_length_c 17.417630
_cell_angle_alpha 90.000000
_cell_angle_beta 20.520402
_cell_angle_gamma 90.000000
_cell_volume 2661.503364
_symmetry_space_group_name_H-M "C 2/M"
_symmetry_group_IT_number 12
_symmetry_cell_setting 'monoclinic'
loop_
_space_group_symop_operation_xyz
x,y,z
-x,y,-z
-x,-y,-z
x,-y,z
1/2+x,1/2+y,z
1/2-x,1/2+y,-z
1/2-x,1/2-y,-z
1/2+x,1/2-y,z
loop_
_atom_site_type_symbol
_atom_site_label
_atom_site_fract_x
_atom_site_fract_y
_atom_site_fract_z
Si Si1 0.364792 0.120992 0.419521
Si Si2 0.383197 0.682909 0.548055
Si Si3 0.000000 0.254151 0.000000
Si Si4 0.895483 0.930100 0.431370
Si Si5 0.025927 0.247599 0.246111
Si Si6 0.498799 0.337190 0.866832
Si Si7 0.255455 0.569022 0.054159
O O1 0.275484 0.086377 0.442726
O O2 0.442987 0.187186 0.310125
O O3 0.200785 0.127400 0.662753
O O4 0.537593 0.080753 0.266013
O O5 0.500000 0.689062 0.500000
O O6 0.388011 0.612974 0.513905
O O7 0.465723 0.730140 0.396798
O O8 0.167749 0.701122 0.796191
O O9 0.939216 0.210306 0.995659
O O10 0.868017 0.000000 0.488339
O O11 0.103240 0.920943 0.169707
O O12 0.952244 0.196731 0.266264
O O13 0.250000 0.250000 0.000000
O O14 0.321990 0.384267 0.049541
O O15 0.273524 0.500000 0.066387
#
# Coordination Sequence:
#
# PCOD8108729 Si02
#       7
#     8   8   4   8   8   8   8
#     4  11  19  36  64  90 121 158 208 263 312 369
#     4  12  25  41  60  94 133 171 210 259 316 376
#     4  12  26  40  62  96 132 168 208 260 320 380
#     4  10  22  41  63  92 127 166 215 260 308 373
#     4  12  20  39  64  92 123 162 210 265 320 370
#     4  11  22  39  62  92 125 162 208 261 317 375
#     4  10  21  38  64  95 120 158 211 260 316 377
#
# _framework density 19.537828999999999
#
# number of rings (size 3 to 8) (size 9 to 14) (size 15 to 20)
#    0.000    0.923    6.154    2.769    0.000    2.154 
#    0.000    0.769    0.000    0.923    0.000    0.000 
#    0.000    0.000    0.000    0.000    0.000    0.000 
#
# Total GULP energy -322437.822917 kJ/mol
# GULP energy per Si atom -12401.454728 kJ/mol
# Density = 1.949336 g / cm^3
# Si number density = 19.537829 Si / 1000 Ang^3
#
#
#
# Elastic Constant Matrix: (Units=GPa)
#
#
# Indices 1 2 3 4 5 6 
#
# 1 73.7532 31.8687 35.6733 0.0314 -0.6058 -0.0937
# 2 31.8687 113.6854 27.8886 -0.1499 6.0531 -0.0241
# 3 35.6733 27.8886 116.1140 -0.0876 -11.9239 -0.0430
# 4 0.0314 -0.1499 -0.0876 25.6293 0.0302 -5.3003
# 5 -0.6058 6.0531 -11.9239 0.0302 29.1734 0.1029
# 6 -0.0937 -0.0241 -0.0430 -5.3003 0.1029 20.9108
#
#
#
# Elastic Compliance Matrix: (Units=1/GPa)
#
#
# Indices 1 2 3 4 5 6 
#
# 1 0.017339 -0.003717 -0.004507 -0.000046 -0.000711 0.000056
# 2 -0.003717 0.010399 -0.001655 0.000068 -0.002911 0.000024
# 3 -0.004507 -0.001655 0.010877 0.000024 0.004695 -0.000017
# 4 -0.000046 0.000068 0.000024 0.041177 -0.000085 0.010438
# 5 -0.000711 -0.002911 0.004695 -0.000085 0.036787 -0.000199
# 6 0.000056 0.000024 -0.000017 0.010438 -0.000199 0.050469
#
#
# Mechanical properties :
#
#
# Convention : Reuss Voigt Hill
#
# Bulk Modulus (GPa) = 53.03085 54.93487 53.98286
# Shear Modulus (GPa) = 25.89440 29.01750 27.45595
#
# Velocity S-wave (km/s) = 3.64448 3.85800 3.75276
# Velocity P-wave (km/s) = 6.70158 6.92992 6.81671
#
# Compressibility (1/GPa) = 0.01885695
#
# Stress axis : x y z
#
# Youngs Moduli (GPa) = 57.67258 96.16121 91.94050
#
# Poissons Ratio (x) = 0.35744 0.41441
# Poissons Ratio (y) = 0.21437 0.15213
# Poissons Ratio (z) = 0.25995 0.15911
#
# Static dielectric constant tensor:
#      x y z
#    x 3.523790 -0.000800 -0.182600 
#    y -0.000800 3.898060 0.001080 
#    z -0.182600 0.001080 3.691540 
# 
# 
# High freq. dielectric constant tensor:
#      x y z
#    x 1.738340 -0.000020 -0.023960 
#    y -0.000020 1.773690 0.000060 
#    z -0.023960 0.000060 1.769240 
# 
# From -- ./inp_files/286258.got.cif
#   From: 2010.06.25/outbox.cif.g09.slc.cpg/sg12_144_cif.got.tgz:286258.got - 2010.06.28 00:19:55.
