data_PCOD8108980
_publ_section_title
;
Structure prediction by ZEFSAII (Michael W. Deem and Ramdas Pophale) SiO2 
 PCOD8108980
Probable space group: C 2/M
;
_chemical_formula_sum "Si O2"
_cell_formula_units_Z 48
_cell_length_a 15.540357
_cell_length_b 8.827405
_cell_length_c 28.958161
_cell_angle_alpha 90.000000
_cell_angle_beta 35.952125
_cell_angle_gamma 90.000000
_cell_volume 2332.296703
_symmetry_space_group_name_H-M "C 2/M"
_symmetry_group_IT_number 12
_symmetry_cell_setting 'monoclinic'
loop_
_space_group_symop_operation_xyz
x,y,z
-x,y,-z
-x,-y,-z
x,-y,z
1/2+x,1/2+y,z
1/2-x,1/2+y,-z
1/2-x,1/2-y,-z
1/2+x,1/2-y,z
loop_
_atom_site_type_symbol
_atom_site_label
_atom_site_fract_x
_atom_site_fract_y
_atom_site_fract_z
Si Si1 0.417874 0.679064 0.799386
Si Si2 0.567984 0.671928 0.343532
Si Si3 0.674093 0.171380 0.831679
Si Si4 0.427047 0.834494 0.483917
Si Si5 0.131133 0.324151 0.640368
Si Si6 0.892560 0.178409 0.916271
O O1 0.436831 0.500000 0.786779
O O2 0.276014 0.729092 0.830233
O O3 0.568415 0.752414 0.714933
O O4 0.401425 0.733820 0.859244
O O5 0.508753 0.500000 0.362041
O O6 0.737864 0.677996 0.255113
O O7 0.540799 0.726318 0.407325
O O8 0.487353 0.794958 0.347384
O O9 0.531622 0.274334 0.886928
O O10 0.622386 0.000000 0.864435
O O11 0.500000 0.867000 0.500000
O O12 0.275017 0.751926 0.557613
O O13 0.401959 0.000000 0.470746
O O14 0.159981 0.500000 0.636350
O O15 0.878462 0.000000 0.924231
O O16 0.750000 0.250000 0.000000
#
# Coordination Sequence:
#
# PCOD8108980 Si02
#       6
#     8   8   8   8   8   8
#     4   9  21  42  64  88 121 164 202 243 302 365
#     4  10  21  39  61  84 116 156 198 244 297 355
#     4   9  20  40  64  89 120 158 201 246 299 358
#     4  11  24  38  54  81 118 158 200 247 296 349
#     4  11  22  37  60  86 115 153 199 248 296 351
#     4  11  24  41  64  92 124 158 197 244 301 363
#
# _framework density 20.580572
#
# number of rings (size 3 to 8) (size 9 to 14) (size 15 to 20)
#    0.000    1.833    0.000    4.500    2.333    6.667 
#    0.000    3.333    0.000    0.000    0.000    0.000 
#    0.000    0.000    0.000    0.000    0.000    0.000 
#
# Total GULP energy -297503.522137 kJ/mol
# GULP energy per Si atom -12395.980089 kJ/mol
# Density = 2.053373 g / cm^3
# Si number density = 20.580572 Si / 1000 Ang^3
#
#
#
# Elastic Constant Matrix: (Units=GPa)
#
#
# Indices 1 2 3 4 5 6 
#
# 1 46.2177 12.5806 6.5588 -0.0001 -0.5117 0.0025
# 2 12.5806 84.3483 32.1026 0.0026 -3.3996 0.0014
# 3 6.5588 32.1026 73.7591 -0.0012 0.7400 -0.0009
# 4 -0.0001 0.0026 -0.0012 37.7500 0.0002 -0.1529
# 5 -0.5117 -3.3996 0.7400 0.0002 33.7763 0.0003
# 6 0.0025 0.0014 -0.0009 -0.1529 0.0003 30.4130
#
#
#
# Elastic Compliance Matrix: (Units=1/GPa)
#
#
# Indices 1 2 3 4 5 6 
#
# 1 0.022578 -0.003118 -0.000651 0.000000 0.000042 -0.000002
# 2 -0.003118 0.014723 -0.006147 -0.000001 0.001569 -0.000001
# 3 -0.000651 -0.006147 0.016301 0.000001 -0.000986 0.000001
# 4 0.000000 -0.000001 0.000001 0.026491 0.000000 0.000133
# 5 0.000042 0.001569 -0.000986 0.000000 0.029787 0.000000
# 6 -0.000002 -0.000001 0.000001 0.000133 0.000000 0.032881
#
#
# Mechanical properties :
#
#
# Convention : Reuss Voigt Hill
#
# Bulk Modulus (GPa) = 29.61133 34.08992 31.85063
# Shear Modulus (GPa) = 28.76053 30.59339 29.67696
#
# Velocity S-wave (km/s) = 3.74232 3.85972 3.80147
# Velocity P-wave (km/s) = 5.75261 6.03849 5.89728
#
# Compressibility (1/GPa) = 0.03377085
#
# Stress axis : x y z
#
# Youngs Moduli (GPa) = 44.29020 67.91964 61.34732
#
# Poissons Ratio (x) = 0.21178 0.03994
# Poissons Ratio (y) = 0.13810 0.37708
# Poissons Ratio (z) = 0.02884 0.41747
#
# Static dielectric constant tensor:
#      x y z
#    x 3.290220 0.000000 0.502080 
#    y 0.000000 3.785320 0.000000 
#    z 0.502080 0.000000 3.555570 
# 
# 
# High freq. dielectric constant tensor:
#      x y z
#    x 1.795080 0.000000 0.003360 
#    y 0.000000 1.808530 0.000000 
#    z 0.003360 0.000000 1.809290 
# 
# From -- ./inp_files/295347.got.cif
#   From: 2010.06.25/outbox.cif.g09.slc.cpg/sg12_148_cif.got.tgz:295347.got - 2010.06.28 00:19:55.
