data_PCOD8108261
_publ_section_title
;
Structure prediction by ZEFSAII (Michael W. Deem and Ramdas Pophale) SiO2 
 PCOD8108261
Probable space group: C 2/M
;
_chemical_formula_sum "Si O2"
_cell_formula_units_Z 44
_cell_length_a 26.069366
_cell_length_b 9.443561
_cell_length_c 10.758935
_cell_angle_alpha 90.000000
_cell_angle_beta 125.106397
_cell_angle_gamma 90.000000
_cell_volume 2166.876928
_symmetry_space_group_name_H-M "C 2/M"
_symmetry_group_IT_number 12
_symmetry_cell_setting 'monoclinic'
loop_
_space_group_symop_operation_xyz
x,y,z
-x,y,-z
-x,-y,-z
x,-y,z
1/2+x,1/2+y,z
1/2-x,1/2+y,-z
1/2-x,1/2-y,-z
1/2+x,1/2-y,z
loop_
_atom_site_type_symbol
_atom_site_label
_atom_site_fract_x
_atom_site_fract_y
_atom_site_fract_z
Si Si1 0.871332 0.843533 0.413007
Si Si2 0.421343 0.336862 0.745772
Si Si3 0.000000 0.749324 0.500000
Si Si4 0.233758 0.336354 0.855595
Si Si5 0.865075 0.838367 0.929075
Si Si6 0.466008 0.159559 0.188211
O O1 0.875901 0.809362 0.565724
O O2 0.940529 0.846461 0.449504
O O3 0.828966 0.723663 0.293177
O O4 0.842163 0.000000 0.350817
O O5 0.443461 0.500000 0.780168
O O6 0.383053 0.293606 0.814666
O O7 0.483154 0.241434 0.824263
O O8 0.983931 0.653480 0.358360
O O9 0.221901 0.500000 0.873490
O O10 0.290611 0.318978 0.837951
O O11 0.250000 0.250000 0.000000
O O12 0.884479 0.000000 0.984947
O O13 0.899731 0.738651 0.077362
O O14 0.460825 0.000000 0.131371
#
# Coordination Sequence:
#
# PCOD8108261 Si02
#       6
#     8   8   4   8   8   8
#     4  10  21  38  61  86 112 145 189 234 277 332
#     4   9  20  39  60  82 112 151 189 227 278 339
#     4  10  22  38  58  82 116 154 186 224 282 342
#     4  11  24  40  59  84 115 150 189 232 279 333
#     4  10  22  40  59  80 112 154 191 225 276 341
#     4  11  22  35  56  87 117 146 187 238 284 326
#
# _framework density 20.305723
#
# number of rings (size 3 to 8) (size 9 to 14) (size 15 to 20)
#    0.000    1.818    0.000    3.273    0.000   13.818 
#    0.000    0.000    0.000    0.000    0.000    0.000 
#    0.000    0.000    0.000    0.000    0.000    0.000 
#
# Total GULP energy -272871.881545 kJ/mol
# GULP energy per Si atom -12403.267343 kJ/mol
# Density = 2.025951 g / cm^3
# Si number density = 20.305723 Si / 1000 Ang^3
#
#
#
# Elastic Constant Matrix: (Units=GPa)
#
#
# Indices 1 2 3 4 5 6 
#
# 1 104.3308 40.8061 49.8493 0.0000 -3.7300 0.0000
# 2 40.8061 128.3475 58.8404 0.0000 8.2764 0.0000
# 3 49.8493 58.8404 105.6542 0.0000 7.7158 0.0000
# 4 0.0000 0.0000 0.0000 26.9153 0.0000 -1.2582
# 5 -3.7300 8.2764 7.7158 0.0000 30.1895 0.0000
# 6 0.0000 0.0000 0.0000 -1.2582 0.0000 18.0610
#
#
#
# Elastic Compliance Matrix: (Units=1/GPa)
#
#
# Indices 1 2 3 4 5 6 
#
# 1 0.013003 -0.001920 -0.005321 0.000000 0.003493 0.000000
# 2 -0.001920 0.010805 -0.004971 0.000000 -0.001929 0.000000
# 3 -0.005321 -0.004971 0.014971 0.000000 -0.003121 0.000000
# 4 0.000000 0.000000 0.000000 0.037275 0.000000 0.002597
# 5 0.003493 -0.001929 -0.003121 0.000000 0.034882 0.000000
# 6 0.000000 0.000000 0.000000 0.002597 0.000000 0.055549
#
#
# Mechanical properties :
#
#
# Convention : Reuss Voigt Hill
#
# Bulk Modulus (GPa) = 69.65534 70.81381 70.23457
# Shear Modulus (GPa) = 25.55012 27.62229 26.58621
#
# Velocity S-wave (km/s) = 3.55106 3.69225 3.62235
# Velocity P-wave (km/s) = 7.15480 7.28879 7.22211
#
# Compressibility (1/GPa) = 0.01435640
#
# Stress axis : x y z
#
# Youngs Moduli (GPa) = 76.90523 92.55003 66.79386
#
# Poissons Ratio (x) = 0.17770 0.35540
# Poissons Ratio (y) = 0.14766 0.33201
# Poissons Ratio (z) = 0.40920 0.46004
#
# Static dielectric constant tensor:
#      x y z
#    x 3.777990 0.000000 -0.101170 
#    y 0.000000 3.600720 0.000000 
#    z -0.101170 0.000000 3.763710 
# 
# 
# High freq. dielectric constant tensor:
#      x y z
#    x 1.795800 0.000000 -0.007260 
#    y 0.000000 1.791250 0.000000 
#    z -0.007260 0.000000 1.793090 
# 
# From -- ./inp_files/163285.got.cif
#   From: 2010.06.25/outbox.cif.g09.slc.cpg/sg12_82_cif.got.tgz:163285.got - 2010.06.28 00:19:55.
