data_PCOD8108020
_publ_section_title
;
Structure prediction by ZEFSAII (Michael W. Deem and Ramdas Pophale) SiO2 
 PCOD8108020
Probable space group: C 2/M
;
_chemical_formula_sum "Si O2"
_cell_formula_units_Z 64
_cell_length_a 23.929349
_cell_length_b 8.687238
_cell_length_c 14.967338
_cell_angle_alpha 90.000000
_cell_angle_beta 86.300290
_cell_angle_gamma 90.000000
_cell_volume 3104.925125
_symmetry_space_group_name_H-M "C 2/M"
_symmetry_group_IT_number 12
_symmetry_cell_setting 'monoclinic'
loop_
_space_group_symop_operation_xyz
x,y,z
-x,y,-z
-x,-y,-z
x,-y,z
1/2+x,1/2+y,z
1/2-x,1/2+y,-z
1/2-x,1/2-y,-z
1/2+x,1/2-y,z
loop_
_atom_site_type_symbol
_atom_site_label
_atom_site_fract_x
_atom_site_fract_y
_atom_site_fract_z
Si Si1 0.454170 0.679755 0.669125
Si Si2 0.067534 0.680539 0.682012
Si Si3 0.623670 0.181800 0.179606
Si Si4 0.359299 0.817931 0.161786
Si Si5 0.716176 0.679625 0.421922
Si Si6 0.263191 0.683029 0.781213
Si Si7 0.936547 0.317159 0.995751
Si Si8 0.100826 0.679739 0.480702
O O1 0.452438 0.500000 0.649834
O O2 0.511155 0.728452 0.712236
O O3 0.401741 0.727139 0.734689
O O4 0.451832 0.773117 0.575548
O O5 0.054437 0.500000 0.689968
O O6 0.113996 0.734312 0.747335
O O7 0.089510 0.728863 0.582932
O O8 0.688571 0.230917 0.167547
O O9 0.618358 0.000000 0.195366
O O10 0.590247 0.234796 0.094992
O O11 0.294956 0.762098 0.167056
O O12 0.396142 0.747878 0.077101
O O13 0.360335 0.000000 0.154447
O O14 0.724977 0.500000 0.427947
O O15 0.750000 0.750000 0.500000
O O16 0.737767 0.736259 0.322647
O O17 0.651738 0.722429 0.437197
O O18 0.271903 0.500000 0.787043
O O19 0.938374 0.500000 0.003047
O O20 0.000000 0.251929 0.000000
O O21 0.114110 0.500000 0.471937
#
# Coordination Sequence:
#
# PCOD8108020 Si02
#       8
#     8   8   8   8   8   8   8   8
#     4  12  24  38  57  84 119 159 198 243 302 362
#     4  10  21  38  61  87 115 153 198 246 299 358
#     4  11  22  37  61  89 117 155 202 251 299 353
#     4   9  18  36  61  87 118 154 195 243 295 356
#     4  11  22  36  56  82 117 162 208 251 298 353
#     4  10  21  38  59  85 119 159 199 243 300 358
#     4   9  18  34  60  92 119 149 197 249 298 354
#     4  11  22  37  58  86 117 153 201 249 297 357
#
# _framework density 20.612414000000001
#
# number of rings (size 3 to 8) (size 9 to 14) (size 15 to 20)
#    0.000    1.625    1.250    4.125    0.000    7.500 
#    0.000    0.625    0.000    7.500    0.000    0.000 
#    0.000    0.000    0.000    0.000    0.000    0.000 
#
# Total GULP energy -396869.925906 kJ/mol
# GULP energy per Si atom -12402.185185 kJ/mol
# Density = 2.056550 g / cm^3
# Si number density = 20.612414 Si / 1000 Ang^3
#
#
#
# Elastic Constant Matrix: (Units=GPa)
#
#
# Indices 1 2 3 4 5 6 
#
# 1 142.2733 22.4431 59.4049 0.0000 3.2059 0.0000
# 2 22.4431 31.1056 29.5001 0.0000 2.7995 0.0000
# 3 59.4049 29.5001 126.8927 0.0000 6.0720 0.0000
# 4 0.0000 0.0000 0.0000 13.0004 0.0000 1.3724
# 5 3.2059 2.7995 6.0720 0.0000 39.8413 0.0000
# 6 0.0000 0.0000 0.0000 1.3724 0.0000 34.1129
#
#
#
# Elastic Compliance Matrix: (Units=1/GPa)
#
#
# Indices 1 2 3 4 5 6 
#
# 1 0.008978 -0.003198 -0.003461 0.000000 0.000030 0.000000
# 2 -0.003198 0.042464 -0.008305 0.000000 -0.001461 0.000000
# 3 -0.003461 -0.008305 0.011474 0.000000 -0.000887 0.000000
# 4 0.000000 0.000000 0.000000 0.077249 0.000000 -0.003108
# 5 0.000030 -0.001461 -0.000887 0.000000 0.025335 0.000000
# 6 0.000000 0.000000 0.000000 -0.003108 0.000000 0.029439
#
#
# Mechanical properties :
#
#
# Convention : Reuss Voigt Hill
#
# Bulk Modulus (GPa) = 30.31423 58.10754 44.21089
# Shear Modulus (GPa) = 21.19886 29.98583 25.59234
#
# Velocity S-wave (km/s) = 3.21043 3.81825 3.52746
# Velocity P-wave (km/s) = 5.33677 6.90583 6.17137
#
# Compressibility (1/GPa) = 0.03298780
#
# Stress axis : x y z
#
# Youngs Moduli (GPa) = 111.38898 23.54958 87.15337
#
# Poissons Ratio (x) = 0.07531 0.30162
# Poissons Ratio (y) = 0.35621 0.72381
# Poissons Ratio (z) = 0.38550 0.19558
#
# Static dielectric constant tensor:
#      x y z
#    x 3.989730 0.000000 0.025800 
#    y 0.000000 3.368440 0.000000 
#    z 0.025800 0.000000 3.898260 
# 
# 
# High freq. dielectric constant tensor:
#      x y z
#    x 1.821980 0.000000 0.003550 
#    y 0.000000 1.773480 0.000000 
#    z 0.003550 0.000000 1.811440 
# 
# From -- ./inp_files/238721.got.cif
#   From: 2010.06.25/outbox.cif.g09.slc.cpg/sg12_120_cif.got.tgz:238721.got - 2010.06.28 00:19:55.
