data_PCOD8108655
_publ_section_title
;
Structure prediction by ZEFSAII (Michael W. Deem and Ramdas Pophale) SiO2 
 PCOD8108655
Probable space group: C 2/M
;
_chemical_formula_sum "Si O2"
_cell_formula_units_Z 56
_cell_length_a 8.786583
_cell_length_b 18.405939
_cell_length_c 18.426808
_cell_angle_alpha 90.000000
_cell_angle_beta 112.192057
_cell_angle_gamma 90.000000
_cell_volume 2759.325641
_symmetry_space_group_name_H-M "C 2/M"
_symmetry_group_IT_number 12
_symmetry_cell_setting 'monoclinic'
loop_
_space_group_symop_operation_xyz
x,y,z
-x,y,-z
-x,-y,-z
x,-y,z
1/2+x,1/2+y,z
1/2-x,1/2+y,-z
1/2-x,1/2-y,-z
1/2+x,1/2-y,z
loop_
_atom_site_type_symbol
_atom_site_label
_atom_site_fract_x
_atom_site_fract_y
_atom_site_fract_z
Si Si1 0.135123 0.818438 0.468483
Si Si2 0.594490 0.916313 0.442957
Si Si3 0.956897 0.913634 0.165713
Si Si4 0.790462 0.414053 0.150509
Si Si5 0.676018 0.086412 0.005611
Si Si6 0.907795 0.816748 0.294127
Si Si7 0.542356 0.165487 0.288182
O O1 0.250000 0.750000 0.500000
O O2 0.218804 0.894273 0.506467
O O3 0.000000 0.797795 0.500000
O O4 0.061003 0.828070 0.375428
O O5 0.500000 0.899735 0.500000
O O6 0.522583 0.867182 0.365388
O O7 0.584898 0.000000 0.417612
O O8 0.817466 0.886147 0.085127
O O9 0.919538 0.879224 0.236597
O O10 0.132704 0.886180 0.167246
O O11 0.953341 0.000000 0.174639
O O12 0.789118 0.500000 0.148121
O O13 0.961676 0.389735 0.216922
O O14 0.783071 0.383348 0.067190
O O15 0.672059 0.000000 0.003936
O O16 0.500000 0.117289 0.000000
O O17 0.733141 0.821682 0.303512
O O18 0.933261 0.738153 0.262681
#
# Coordination Sequence:
#
# PCOD8108655 Si02
#       7
#     8   8   8   8   8   8   8
#     4  12  23  43  66  91 121 167 211 257 311 373
#     4  11  26  43  65  92 125 162 206 259 314 370
#     4  10  22  39  63  96 129 164 210 259 310 370
#     4  10  21  38  63  92 129 169 208 257 310 370
#     4   9  17  34  61  92 127 168 209 252 308 370
#     4  12  25  41  65  90 122 166 209 258 314 376
#     4  12  25  43  62  92 125 163 212 258 314 375
#
# _framework density 20.294813000000001
#
# number of rings (size 3 to 8) (size 9 to 14) (size 15 to 20)
#    0.000    1.143    2.857    3.000    4.000    4.857 
#    0.000    0.714    0.000    0.000    0.000    0.000 
#    0.000    0.000    0.000    0.000    0.000    0.000 
#
# Total GULP energy -347225.426261 kJ/mol
# GULP energy per Si atom -12400.908081 kJ/mol
# Density = 2.024862 g / cm^3
# Si number density = 20.294813 Si / 1000 Ang^3
#
#
#
# Elastic Constant Matrix: (Units=GPa)
#
#
# Indices 1 2 3 4 5 6 
#
# 1 123.9500 45.3279 55.4923 0.0000 0.4906 0.0000
# 2 45.3279 56.5374 35.1765 0.0000 -7.7525 0.0000
# 3 55.4923 35.1765 155.5119 0.0000 1.7093 0.0000
# 4 0.0000 0.0000 0.0000 14.8165 0.0000 7.5131
# 5 0.4906 -7.7525 1.7093 0.0000 40.6242 0.0000
# 6 0.0000 0.0000 0.0000 7.5131 0.0000 30.7227
#
#
#
# Elastic Compliance Matrix: (Units=1/GPa)
#
#
# Indices 1 2 3 4 5 6 
#
# 1 0.012300 -0.008581 -0.002430 0.000000 -0.001684 0.000000
# 2 -0.008581 0.027285 -0.003170 0.000000 0.005444 0.000000
# 3 -0.002430 -0.003170 0.008024 0.000000 -0.000913 0.000000
# 4 0.000000 0.000000 0.000000 0.077046 0.000000 -0.018841
# 5 -0.001684 0.005444 -0.000913 0.000000 0.025714 0.000000
# 6 0.000000 0.000000 0.000000 -0.018841 0.000000 0.037157
#
#
# Mechanical properties :
#
#
# Convention : Reuss Voigt Hill
#
# Bulk Modulus (GPa) = 51.94895 67.55476 59.75186
# Shear Modulus (GPa) = 22.49178 30.56618 26.52898
#
# Velocity S-wave (km/s) = 3.33265 3.88507 3.61942
# Velocity P-wave (km/s) = 6.36094 7.31328 6.85367
#
# Compressibility (1/GPa) = 0.01924967
#
# Stress axis : x y z
#
# Youngs Moduli (GPa) = 81.30035 36.64958 124.61917
#
# Poissons Ratio (x) = 0.31447 0.30279
# Poissons Ratio (y) = 0.69760 0.39503
# Poissons Ratio (z) = 0.19754 0.11618
#
# Static dielectric constant tensor:
#      x y z
#    x 3.945450 0.000000 0.019010 
#    y 0.000000 3.520630 0.000000 
#    z 0.019010 0.000000 3.892440 
# 
# 
# High freq. dielectric constant tensor:
#      x y z
#    x 1.807870 0.000000 -0.001000 
#    y 0.000000 1.772480 0.000000 
#    z -0.001000 0.000000 1.808260 
# 
# From -- ./inp_files/257135.got.cif
#   From: 2010.06.25/outbox.cif.g09.slc.cpg/sg12_129_cif.got.tgz:257135.got - 2010.06.28 00:19:55.
