data_PCOD8108309
_publ_section_title
;
Structure prediction by ZEFSAII (Michael W. Deem and Ramdas Pophale) SiO2 
 PCOD8108309
Probable space group: C 2/M
;
_chemical_formula_sum "Si O2"
_cell_formula_units_Z 64
_cell_length_a 23.631432
_cell_length_b 8.866545
_cell_length_c 28.738808
_cell_angle_alpha 90.000000
_cell_angle_beta 31.134568
_cell_angle_gamma 90.000000
_cell_volume 3113.476723
_symmetry_space_group_name_H-M "C 2/M"
_symmetry_group_IT_number 12
_symmetry_cell_setting 'monoclinic'
loop_
_space_group_symop_operation_xyz
x,y,z
-x,y,-z
-x,-y,-z
x,-y,z
1/2+x,1/2+y,z
1/2-x,1/2+y,-z
1/2-x,1/2-y,-z
1/2+x,1/2-y,z
loop_
_atom_site_type_symbol
_atom_site_label
_atom_site_fract_x
_atom_site_fract_y
_atom_site_fract_z
Si Si1 0.799995 0.825995 0.155876
Si Si2 0.128440 0.323315 0.979767
Si Si3 0.010528 0.825851 0.731451
Si Si4 0.304039 0.178288 0.916696
Si Si5 0.431804 0.676569 0.685825
Si Si6 0.708031 0.674031 0.653965
Si Si7 0.440892 0.678115 0.495172
Si Si8 0.920978 0.173197 0.163709
O O1 0.885021 0.730830 0.064133
O O2 0.677777 0.771140 0.234122
O O3 0.831966 0.797558 0.186527
O O4 0.810230 0.000000 0.134662
O O5 0.148477 0.500000 0.969019
O O6 0.236952 0.236487 0.919671
O O7 0.025270 0.279570 0.083594
O O8 0.929127 0.728358 0.820866
O O9 0.002404 0.787935 0.682388
O O10 0.135450 0.791636 0.659150
O O11 0.981504 0.000000 0.761651
O O12 0.298560 0.000000 0.925314
O O13 0.250000 0.250000 0.000000
O O14 0.403123 0.500000 0.702363
O O15 0.497187 0.734435 0.594630
O O16 0.742872 0.500000 0.632391
O O17 0.816303 0.772038 0.578500
O O18 0.634259 0.720718 0.749606
O O19 0.500000 0.744834 0.500000
O O20 0.442447 0.500000 0.496698
O O21 0.961099 0.000000 0.135823
#
# Coordination Sequence:
#
# PCOD8108309 Si02
#       8
#     8   8   8   8   8   8   8   8
#     4  11  22  37  59  87 119 158 204 255 308 369
#     4  12  24  38  58  87 121 160 205 251 306 369
#     4  10  21  39  61  87 121 160 205 253 307 365
#     4  12  24  39  61  88 121 163 210 255 303 359
#     4  10  21  38  61  87 120 161 204 255 311 370
#     4  10  22  40  62  88 119 156 198 251 307 363
#     4  10  22  40  62  90 123 159 201 252 310 369
#     4  10  22  39  58  84 120 159 203 257 314 367
#
# _framework density 20.555797999999999
#
# number of rings (size 3 to 8) (size 9 to 14) (size 15 to 20)
#    0.000    1.375    1.250    4.500    0.000    5.750 
#    0.000    0.000    0.000    0.000    0.000    0.000 
#    0.000    0.000    0.000    0.000    0.000    0.000 
#
# Total GULP energy -396928.568183 kJ/mol
# GULP energy per Si atom -12404.017756 kJ/mol
# Density = 2.050901 g / cm^3
# Si number density = 20.555798 Si / 1000 Ang^3
#
#
#
# Elastic Constant Matrix: (Units=GPa)
#
#
# Indices 1 2 3 4 5 6 
#
# 1 104.8225 30.6437 42.8644 -0.0178 3.0117 0.0130
# 2 30.6437 83.3916 31.1601 -0.0093 0.7506 0.0054
# 3 42.8644 31.1601 103.1108 0.0147 4.1937 -0.0204
# 4 -0.0178 -0.0093 0.0147 36.5474 0.0057 -5.0272
# 5 3.0117 0.7506 4.1937 0.0057 37.9924 -0.0121
# 6 0.0130 0.0054 -0.0204 -5.0272 -0.0121 23.3665
#
#
#
# Elastic Compliance Matrix: (Units=1/GPa)
#
#
# Indices 1 2 3 4 5 6 
#
# 1 0.012089 -0.002894 -0.004133 0.000006 -0.000445 -0.000009
# 2 -0.002894 0.014212 -0.003104 0.000003 0.000291 -0.000004
# 3 -0.004133 -0.003104 0.012394 -0.000006 -0.000979 0.000012
# 4 0.000006 0.000003 -0.000006 0.028196 -0.000002 0.006066
# 5 -0.000445 0.000291 -0.000979 -0.000002 0.026459 0.000013
# 6 -0.000009 -0.000004 0.000012 0.006066 0.000013 0.044101
#
#
# Mechanical properties :
#
#
# Convention : Reuss Voigt Hill
#
# Bulk Modulus (GPa) = 54.24727 55.62905 54.93816
# Shear Modulus (GPa) = 30.51444 32.02505 31.26974
#
# Velocity S-wave (km/s) = 3.85706 3.95138 3.90450
# Velocity P-wave (km/s) = 6.80319 6.92380 6.86376
#
# Compressibility (1/GPa) = 0.01843411
#
# Stress axis : x y z
#
# Youngs Moduli (GPa) = 82.72171 70.36230 80.68346
#
# Poissons Ratio (x) = 0.20363 0.33345
# Poissons Ratio (y) = 0.23939 0.25042
# Poissons Ratio (z) = 0.34187 0.21838
#
# Static dielectric constant tensor:
#      x y z
#    x 4.166890 -0.000070 0.179530 
#    y -0.000070 3.654930 0.000030 
#    z 0.179530 0.000030 3.702870 
# 
# 
# High freq. dielectric constant tensor:
#      x y z
#    x 1.822570 -0.000010 0.004710 
#    y -0.000010 1.795100 0.000000 
#    z 0.004710 0.000000 1.801320 
# 
# From -- ./inp_files/238614.got.cif
#   From: 2010.06.25/outbox.cif.g09.slc.cpg/sg12_120_cif.got.tgz:238614.got - 2010.06.28 00:19:55.
