data_PCOD8108006
_publ_section_title
;
Structure prediction by ZEFSAII (Michael W. Deem and Ramdas Pophale) SiO2 
 PCOD8108006
Probable space group: C 2/M
;
_chemical_formula_sum "Si O2"
_cell_formula_units_Z 52
_cell_length_a 5.358383
_cell_length_b 25.191947
_cell_length_c 19.863617
_cell_angle_alpha 90.000000
_cell_angle_beta 113.542448
_cell_angle_gamma 90.000000
_cell_volume 2458.168010
_symmetry_space_group_name_H-M "C 2/M"
_symmetry_group_IT_number 12
_symmetry_cell_setting 'monoclinic'
loop_
_space_group_symop_operation_xyz
x,y,z
-x,y,-z
-x,-y,-z
x,-y,z
1/2+x,1/2+y,z
1/2-x,1/2+y,-z
1/2-x,1/2-y,-z
1/2+x,1/2-y,z
loop_
_atom_site_type_symbol
_atom_site_label
_atom_site_fract_x
_atom_site_fract_y
_atom_site_fract_z
Si Si1 0.256395 0.732151 0.738197
Si Si2 0.087847 0.437391 0.206969
Si Si3 0.194782 0.562629 0.962642
Si Si4 0.036393 0.776108 0.422242
Si Si5 0.500000 0.628414 0.500000
Si Si6 0.977151 0.440833 0.577025
Si Si7 0.689219 0.392207 0.277611
O O1 0.560090 0.757008 0.781909
O O2 0.098797 0.768619 0.665522
O O3 0.268083 0.670743 0.720629
O O4 0.145716 0.500000 0.218693
O O5 0.375530 0.407143 0.232291
O O6 0.926539 0.422284 0.122371
O O7 0.897693 0.419390 0.247892
O O8 0.212764 0.500000 0.975003
O O9 0.500000 0.586953 0.000000
O O10 0.000000 0.586863 0.000000
O O11 0.807816 0.759800 0.453301
O O12 0.117716 0.836445 0.450143
O O13 0.289240 0.592841 0.435894
O O14 0.942331 0.500000 0.602538
O O15 0.000000 0.442117 0.500000
O O16 0.234270 0.412950 0.639877
#
# Coordination Sequence:
#
# PCOD8108006 Si02
#       7
#     8   8   8   8   4   8   8
#     4  10  21  38  59  85 112 145 195 263 325 382
#     4  11  23  40  64  95 131 175 210 238 295 372
#     4   9  17  32  58  93 133 167 198 240 287 345
#     4  10  22  37  58  85 107 130 178 248 326 387
#     4  12  25  38  66  78 108 144 201 262 340 382
#     4  11  27  43  58  81 113 160 218 269 309 360
#     4  12  25  42  64  85 124 167 213 263 315 371
#
# _framework density 21.153967000000002
#
# number of rings (size 3 to 8) (size 9 to 14) (size 15 to 20)
#    0.000    1.385    0.000    5.769    8.615    2.462 
#    0.000    0.000    0.000    0.000    0.000    0.000 
#    0.000   43.077    0.000    0.000    0.000    0.000 
#
# Total GULP energy -322246.813343 kJ/mol
# GULP energy per Si atom -12394.108206 kJ/mol
# Density = 2.110582 g / cm^3
# Si number density = 21.153967 Si / 1000 Ang^3
#
#
#
# Elastic Constant Matrix: (Units=GPa)
#
#
# Indices 1 2 3 4 5 6 
#
# 1 168.9158 32.1801 41.7904 0.0000 21.0783 0.0000
# 2 32.1801 115.0972 27.4848 0.0000 14.1118 0.0000
# 3 41.7904 27.4848 85.7993 0.0000 15.1588 0.0000
# 4 0.0000 0.0000 0.0000 -47.4722 0.0000 -16.1689
# 5 21.0783 14.1118 15.1588 0.0000 35.1572 0.0000
# 6 0.0000 0.0000 0.0000 -16.1689 0.0000 22.3600
#
#
#
# Elastic Compliance Matrix: (Units=1/GPa)
#
#
# Indices 1 2 3 4 5 6 
#
# 1 0.007110 -0.001021 -0.002658 0.000000 -0.002707 0.000000
# 2 -0.001021 0.009794 -0.002223 0.000000 -0.002360 0.000000
# 3 -0.002658 -0.002223 0.014313 0.000000 -0.003686 0.000000
# 4 0.000000 0.000000 0.000000 -0.016902 0.000000 -0.012222
# 5 -0.002707 -0.002360 -0.003686 0.000000 0.032603 0.000000
# 6 0.000000 0.000000 0.000000 -0.012222 0.000000 0.035885
#
#
# Mechanical properties :
#
#
# Convention : Reuss Voigt Hill
#
# Bulk Modulus (GPa) = 51.51163 63.63586 57.57375
# Shear Modulus (GPa) = 49.46701 19.89947 34.68324
#
# Velocity S-wave (km/s) = 4.84097 3.07041 4.05354
# Velocity P-wave (km/s) = 7.45992 6.53585 7.01312
#
# Compressibility (1/GPa) = 0.01941309
#
# Stress axis : x y z
#
# Youngs Moduli (GPa) = 140.64736 102.10226 69.86740
#
# Poissons Ratio (x) = 0.10428 0.18568
# Poissons Ratio (y) = 0.14365 0.15531
# Poissons Ratio (z) = 0.37379 0.22696
#
# Static dielectric constant tensor:
#      x y z
#    x 4.735280 0.000000 0.106520 
#    y 0.000000 3.812780 0.000000 
#    z 0.106520 0.000000 3.640500 
# 
# 
# High freq. dielectric constant tensor:
#      x y z
#    x 1.857300 0.000000 0.006260 
#    y 0.000000 1.816270 0.000000 
#    z 0.006260 0.000000 1.802460 
# 
# From -- ./inp_files/298132.got.cif
#   From: 2010.06.25/outbox.cif.g09.slc.cpg/sg12_150_cif.got.tgz:298132.got - 2010.06.28 00:19:55.
