data_PCOD8108257
_publ_section_title
;
Structure prediction by ZEFSAII (Michael W. Deem and Ramdas Pophale) SiO2 
 PCOD8108257
Probable space group: C 2/M
;
_chemical_formula_sum "Si O2"
_cell_formula_units_Z 56
_cell_length_a 29.143095
_cell_length_b 8.807523
_cell_length_c 20.266402
_cell_angle_alpha 90.000000
_cell_angle_beta 147.736034
_cell_angle_gamma 90.000000
_cell_volume 2776.907922
_symmetry_space_group_name_H-M "C 2/M"
_symmetry_group_IT_number 12
_symmetry_cell_setting 'monoclinic'
loop_
_space_group_symop_operation_xyz
x,y,z
-x,y,-z
-x,-y,-z
x,-y,z
1/2+x,1/2+y,z
1/2-x,1/2+y,-z
1/2-x,1/2-y,-z
1/2+x,1/2-y,z
loop_
_atom_site_type_symbol
_atom_site_label
_atom_site_fract_x
_atom_site_fract_y
_atom_site_fract_z
Si Si1 0.168405 0.678402 0.866513
Si Si2 0.298708 0.176215 0.240703
Si Si3 0.159488 0.175200 0.577386
Si Si4 0.047128 0.322719 0.213266
Si Si5 0.172731 0.824416 0.268847
Si Si6 0.892569 0.827109 0.954234
Si Si7 0.496759 0.675658 0.705541
O O1 0.177413 0.500000 0.883953
O O2 0.164816 0.727280 0.785515
O O3 0.083163 0.731462 0.799316
O O4 0.250000 0.750000 0.000000
O O5 0.347613 0.274438 0.355167
O O6 0.196869 0.208256 0.118061
O O7 0.316288 0.000000 0.277550
O O8 0.229721 0.273849 0.624147
O O9 0.067260 0.204474 0.432894
O O10 0.186810 0.000000 0.606509
O O11 0.050138 0.500000 0.232069
O O12 0.132571 0.274764 0.278201
O O13 0.047795 0.231654 0.282075
O O14 0.963072 0.286211 0.068091
O O15 0.116736 0.798803 0.134955
O O16 0.172574 0.000000 0.289310
O O17 0.921974 0.000000 0.003761
O O18 0.520982 0.500000 0.742226
#
# Coordination Sequence:
#
# PCOD8108257 Si02
#       7
#     8   8   8   8   8   8   8
#     4  11  23  40  64  93 122 154 192 235 287 345
#     4   9  20  38  61  87 118 155 189 232 292 349
#     4  10  22  40  62  87 114 149 197 246 287 335
#     4  12  24  36  56  86 117 153 197 244 293 344
#     4  10  21  38  61  85 115 155 192 235 293 352
#     4   9  18  35  58  85 118 154 190 231 288 352
#     4  11  25  43  60  82 117 157 196 241 290 342
#
# _framework density 20.166315000000001
#
# number of rings (size 3 to 8) (size 9 to 14) (size 15 to 20)
#    0.000    1.714    0.000    5.143    0.000   10.286 
#    0.000    2.857    0.000    0.000    0.000    0.000 
#    0.000    0.000    0.000    0.000    0.000    0.000 
#
# Total GULP energy -347372.629132 kJ/mol
# GULP energy per Si atom -12406.165326 kJ/mol
# Density = 2.012042 g / cm^3
# Si number density = 20.166315 Si / 1000 Ang^3
#
#
#
# Elastic Constant Matrix: (Units=GPa)
#
#
# Indices 1 2 3 4 5 6 
#
# 1 102.1866 36.1762 31.0338 0.0000 -12.1456 0.0000
# 2 36.1762 69.3266 46.6005 0.0000 -5.9352 0.0000
# 3 31.0338 46.6005 90.2781 0.0000 -7.3317 0.0000
# 4 0.0000 0.0000 0.0000 33.2712 0.0000 -0.5406
# 5 -12.1456 -5.9352 -7.3317 0.0000 16.7728 0.0000
# 6 0.0000 0.0000 0.0000 -0.5406 0.0000 36.5319
#
#
#
# Elastic Compliance Matrix: (Units=1/GPa)
#
#
# Indices 1 2 3 4 5 6 
#
# 1 0.012842 -0.005389 -0.001071 0.000000 0.006924 0.000000
# 2 -0.005389 0.024490 -0.010785 0.000000 0.000050 0.000000
# 3 -0.001071 -0.010785 0.017252 0.000000 0.002949 0.000000
# 4 0.000000 0.000000 0.000000 0.030063 0.000000 0.000445
# 5 0.006924 0.000050 0.002949 0.000000 0.065941 0.000000
# 6 0.000000 0.000000 0.000000 0.000445 0.000000 0.027380
#
#
# Mechanical properties :
#
#
# Convention : Reuss Voigt Hill
#
# Bulk Modulus (GPa) = 49.76395 54.37914 52.07154
# Shear Modulus (GPa) = 22.81485 27.18056 24.99771
#
# Velocity S-wave (km/s) = 3.36718 3.67525 3.52458
# Velocity P-wave (km/s) = 6.31249 6.71072 6.51465
#
# Compressibility (1/GPa) = 0.02009487
#
# Stress axis : x y z
#
# Youngs Moduli (GPa) = 77.87024 40.83229 57.96564
#
# Poissons Ratio (x) = 0.22004 0.06205
# Poissons Ratio (y) = 0.41963 0.62517
# Poissons Ratio (z) = 0.08336 0.44038
#
# Static dielectric constant tensor:
#      x y z
#    x 3.829440 0.000000 -0.164040 
#    y 0.000000 3.689650 0.000000 
#    z -0.164040 0.000000 3.881550 
# 
# 
# High freq. dielectric constant tensor:
#      x y z
#    x 1.797080 0.000000 -0.002830 
#    y 0.000000 1.792400 0.000000 
#    z -0.002830 0.000000 1.783230 
# 
# From -- ./inp_files/329691.got.cif
#   From: 2010.06.25/outbox.cif.g09.slc.cpg/sg12_165_cif.got.tgz:329691.got - 2010.06.28 00:19:55.
