data_PCOD8108568
_publ_section_title
;
Structure prediction by ZEFSAII (Michael W. Deem and Ramdas Pophale) SiO2 
 PCOD8108568
Probable space group: C 2/M
;
_chemical_formula_sum "Si O2"
_cell_formula_units_Z 48
_cell_length_a 15.567633
_cell_length_b 8.910010
_cell_length_c 17.211861
_cell_angle_alpha 90.000000
_cell_angle_beta 89.285866
_cell_angle_gamma 90.000000
_cell_volume 2387.233341
_symmetry_space_group_name_H-M "C 2/M"
_symmetry_group_IT_number 12
_symmetry_cell_setting 'monoclinic'
loop_
_space_group_symop_operation_xyz
x,y,z
-x,y,-z
-x,-y,-z
x,-y,z
1/2+x,1/2+y,z
1/2-x,1/2+y,-z
1/2-x,1/2-y,-z
1/2+x,1/2-y,z
loop_
_atom_site_type_symbol
_atom_site_label
_atom_site_fract_x
_atom_site_fract_y
_atom_site_fract_z
Si Si1 0.400619 0.322317 0.804953
Si Si2 0.084564 0.676880 0.817174
Si Si3 0.744485 0.177254 0.916681
Si Si4 0.401086 0.164772 0.648905
Si Si5 0.599547 0.837283 0.647988
Si Si6 0.158886 0.175675 0.500793
O O1 0.407305 0.500000 0.796031
O O2 0.493968 0.261642 0.830602
O O3 0.328780 0.272778 0.867743
O O4 0.366431 0.256843 0.723056
O O5 0.065974 0.500000 0.824337
O O6 0.155155 0.732077 0.878576
O O7 0.130291 0.713649 0.733242
O O8 0.743137 0.000000 0.924952
O O9 0.750000 0.250000 0.000000
O O10 0.499924 0.137682 0.661389
O O11 0.393574 0.256235 0.569538
O O12 0.355543 0.000000 0.643272
O O13 0.616173 0.711056 0.583986
O O14 0.640613 0.000000 0.623339
O O15 0.250000 0.250000 0.500000
O O16 0.164337 0.000000 0.489475
#
# Coordination Sequence:
#
# PCOD8108568 Si02
#       6
#     8   8   8   8   8   8
#     4  10  21  38  62  92 122 156 200 251 301 352
#     4   9  20  40  63  87 120 162 200 241 302 364
#     4  10  23  41  62  90 122 159 197 242 303 362
#     4  10  21  39  61  85 114 154 196 239 296 354
#     4   9  19  37  60  82 112 152 193 240 295 351
#     4  12  25  37  53  82 118 155 199 246 292 344
#
# _framework density 20.106959
#
# number of rings (size 3 to 8) (size 9 to 14) (size 15 to 20)
#    0.000    2.000    0.000    4.000    2.333    8.000 
#    0.000    3.333    0.000    0.000    0.000    0.000 
#    0.000    0.000    0.000    0.000    0.000    0.000 
#
# Total GULP energy -297491.125834 kJ/mol
# GULP energy per Si atom -12395.463576 kJ/mol
# Density = 2.006119 g / cm^3
# Si number density = 20.106959 Si / 1000 Ang^3
#
#
#
# Elastic Constant Matrix: (Units=GPa)
#
#
# Indices 1 2 3 4 5 6 
#
# 1 63.9655 26.8725 29.4737 0.0000 -5.5212 0.0000
# 2 26.8725 107.6876 44.2525 0.0000 -4.0972 0.0000
# 3 29.4737 44.2525 126.3879 0.0000 -0.8744 0.0000
# 4 0.0000 0.0000 0.0000 36.0608 0.0000 -2.2297
# 5 -5.5212 -4.0972 -0.8744 0.0000 35.0219 0.0000
# 6 0.0000 0.0000 0.0000 -2.2297 0.0000 30.1309
#
#
#
# Elastic Compliance Matrix: (Units=1/GPa)
#
#
# Indices 1 2 3 4 5 6 
#
# 1 0.018690 -0.003254 -0.003202 0.000000 0.002486 0.000000
# 2 -0.003254 0.011462 -0.003249 0.000000 0.000747 0.000000
# 3 -0.003202 -0.003249 0.009792 0.000000 -0.000640 0.000000
# 4 0.000000 0.000000 0.000000 0.027858 0.000000 0.002062
# 5 0.002486 0.000747 -0.000640 0.000000 0.029017 0.000000
# 6 0.000000 0.000000 0.000000 0.002062 0.000000 0.033341
#
#
# Mechanical properties :
#
#
# Convention : Reuss Voigt Hill
#
# Bulk Modulus (GPa) = 48.69927 55.47093 52.08510
# Shear Modulus (GPa) = 31.96625 33.40556 32.68590
#
# Velocity S-wave (km/s) = 3.99157 4.08044 4.03625
# Velocity P-wave (km/s) = 6.74657 7.06030 6.90521
#
# Compressibility (1/GPa) = 0.02053419
#
# Stress axis : x y z
#
# Youngs Moduli (GPa) = 53.50361 87.24760 102.12284
#
# Poissons Ratio (x) = 0.28386 0.32702
# Poissons Ratio (y) = 0.17408 0.33182
# Poissons Ratio (z) = 0.17133 0.28348
#
# Static dielectric constant tensor:
#      x y z
#    x 3.635030 0.000000 0.072230 
#    y 0.000000 3.741390 0.000000 
#    z 0.072230 0.000000 3.538160 
# 
# 
# High freq. dielectric constant tensor:
#      x y z
#    x 1.782220 0.000000 0.005700 
#    y 0.000000 1.786400 0.000000 
#    z 0.005700 0.000000 1.790800 
# 
# From -- ./inp_files/267701.got.cif
#   From: 2010.06.25/outbox.cif.g09.slc.cpg/sg12_134_cif.got.tgz:267701.got - 2010.06.28 00:19:55.
