data_PCOD8108517
_publ_section_title
;
Structure prediction by ZEFSAII (Michael W. Deem and Ramdas Pophale) SiO2 
 PCOD8108517
Probable space group: C 2/M
;
_chemical_formula_sum "Si O2"
_cell_formula_units_Z 64
_cell_length_a 21.321909
_cell_length_b 8.838234
_cell_length_c 16.036617
_cell_angle_alpha 90.000000
_cell_angle_beta 92.226972
_cell_angle_gamma 90.000000
_cell_volume 3019.786274
_symmetry_space_group_name_H-M "C 2/M"
_symmetry_group_IT_number 12
_symmetry_cell_setting 'monoclinic'
loop_
_space_group_symop_operation_xyz
x,y,z
-x,y,-z
-x,-y,-z
x,-y,z
1/2+x,1/2+y,z
1/2-x,1/2+y,-z
1/2-x,1/2-y,-z
1/2+x,1/2-y,z
loop_
_atom_site_type_symbol
_atom_site_label
_atom_site_fract_x
_atom_site_fract_y
_atom_site_fract_z
Si Si1 0.482142 0.829964 0.126962
Si Si2 0.404526 0.172354 0.279549
Si Si3 0.800039 0.171147 0.174503
Si Si4 0.430642 0.177653 0.469338
Si Si5 0.646338 0.825806 0.974808
Si Si6 0.322629 0.826614 0.726119
Si Si7 0.106843 0.824094 0.132573
Si Si8 0.810126 0.179679 0.549134
O O1 0.464375 0.807541 0.222816
O O2 0.422186 0.798477 0.066991
O O3 0.535184 0.711212 0.103719
O O4 0.507611 0.000000 0.112418
O O5 0.348255 0.278238 0.248147
O O6 0.425224 0.219319 0.372390
O O7 0.379958 0.000000 0.274377
O O8 0.803064 0.268455 0.089962
O O9 0.732196 0.188920 0.209841
O O10 0.815838 0.000000 0.150812
O O11 0.500000 0.232246 0.500000
O O12 0.376233 0.265142 0.515416
O O13 0.422068 0.000000 0.486476
O O14 0.660265 0.000000 0.994443
O O15 0.652408 0.735620 0.061580
O O16 0.382247 0.760287 0.778554
O O17 0.306988 0.727383 0.645023
O O18 0.334848 0.000000 0.699802
O O19 0.118397 0.000000 0.145390
O O20 0.750000 0.250000 0.500000
O O21 0.805707 0.000000 0.540939
#
# Coordination Sequence:
#
# PCOD8108517 Si02
#       8
#     8   8   8   8   8   8   8   8
#     4   9  19  36  59  86 119 163 207 246 297 368
#     4   9  19  36  60  89 120 160 202 244 301 372
#     4  10  21  38  62  90 116 151 202 258 309 360
#     4  10  22  40  65  97 131 172 215 263 326 392
#     4  10  21  39  63  88 118 162 205 246 303 370
#     4  11  25  44  65  89 122 164 206 255 314 374
#     4  12  25  38  57  89 125 161 202 255 310 362
#     4  12  26  45  69  98 131 172 220 271 325 387
#
# _framework density 21.193553999999999
#
# number of rings (size 3 to 8) (size 9 to 14) (size 15 to 20)
#    0.000    1.625    0.000    5.250    1.750    9.250 
#    0.000    0.000    0.000    0.000    0.000    0.000 
#    0.000    0.000    0.000    0.000    0.000    0.000 
#
# Total GULP energy -396904.658746 kJ/mol
# GULP energy per Si atom -12403.270586 kJ/mol
# Density = 2.114532 g / cm^3
# Si number density = 21.193554 Si / 1000 Ang^3
#
#
#
# Elastic Constant Matrix: (Units=GPa)
#
#
# Indices 1 2 3 4 5 6 
#
# 1 73.2250 45.9900 17.4246 0.0000 -3.5793 0.0000
# 2 45.9900 118.3069 42.9656 0.0000 -6.2838 0.0000
# 3 17.4246 42.9656 103.6316 0.0000 4.9307 0.0000
# 4 0.0000 0.0000 0.0000 35.7064 0.0000 -3.4097
# 5 -3.5793 -6.2838 4.9307 0.0000 18.5710 0.0000
# 6 0.0000 0.0000 0.0000 -3.4097 0.0000 32.3239
#
#
#
# Elastic Compliance Matrix: (Units=1/GPa)
#
#
# Indices 1 2 3 4 5 6 
#
# 1 0.018096 -0.006879 -0.000249 0.000000 0.001226 0.000000
# 2 -0.006879 0.012955 -0.004416 0.000000 0.004230 0.000000
# 3 -0.000249 -0.004416 0.011744 0.000000 -0.004660 0.000000
# 4 0.000000 0.000000 0.000000 0.028291 0.000000 0.002984
# 5 0.001226 0.004230 -0.004660 0.000000 0.056753 0.000000
# 6 0.000000 0.000000 0.000000 0.002984 0.000000 0.031252
#
#
# Mechanical properties :
#
#
# Convention : Reuss Voigt Hill
#
# Bulk Modulus (GPa) = 50.74194 56.43600 53.58897
# Shear Modulus (GPa) = 26.49039 29.90580 28.19809
#
# Velocity S-wave (km/s) = 3.53927 3.76051 3.65156
# Velocity P-wave (km/s) = 6.37934 6.74847 6.56650
#
# Compressibility (1/GPa) = 0.01970756
#
# Stress axis : x y z
#
# Youngs Moduli (GPa) = 55.26006 77.18956 85.15025
#
# Poissons Ratio (x) = 0.53099 0.02120
# Poissons Ratio (y) = 0.38014 0.37601
# Poissons Ratio (z) = 0.01376 0.34085
#
# Static dielectric constant tensor:
#      x y z
#    x 3.778810 0.000000 -0.056570 
#    y 0.000000 3.802280 0.000000 
#    z -0.056570 0.000000 4.037510 
# 
# 
# High freq. dielectric constant tensor:
#      x y z
#    x 1.830680 0.000000 -0.001040 
#    y 0.000000 1.827010 0.000000 
#    z -0.001040 0.000000 1.846100 
# 
# From -- ./inp_files/238715.got.cif
#   From: 2010.06.25/outbox.cif.g09.slc.cpg/sg12_120_cif.got.tgz:238715.got - 2010.06.28 00:19:55.
