data_PCOD8108278
_publ_section_title
;
Structure prediction by ZEFSAII (Michael W. Deem and Ramdas Pophale) SiO2 
 PCOD8108278
Probable space group: C 2/M
;
_chemical_formula_sum "Si O2"
_cell_formula_units_Z 56
_cell_length_a 15.069270
_cell_length_b 8.806487
_cell_length_c 22.816847
_cell_angle_alpha 90.000000
_cell_angle_beta 110.585957
_cell_angle_gamma 90.000000
_cell_volume 2834.614534
_symmetry_space_group_name_H-M "C 2/M"
_symmetry_group_IT_number 12
_symmetry_cell_setting 'monoclinic'
loop_
_space_group_symop_operation_xyz
x,y,z
-x,y,-z
-x,-y,-z
x,-y,z
1/2+x,1/2+y,z
1/2-x,1/2+y,-z
1/2-x,1/2-y,-z
1/2+x,1/2-y,z
loop_
_atom_site_type_symbol
_atom_site_label
_atom_site_fract_x
_atom_site_fract_y
_atom_site_fract_z
Si Si1 0.108705 0.834233 0.007858
Si Si2 0.209515 0.676132 0.580022
Si Si3 0.653565 0.318838 0.141268
Si Si4 0.382706 0.176163 0.564762
Si Si5 0.552682 0.681824 0.873760
Si Si6 0.421882 0.676683 0.360466
Si Si7 0.657492 0.322678 0.783219
O O1 0.159835 0.752351 0.075279
O O2 0.155469 0.000000 0.011283
O O3 0.111216 0.752158 0.944375
O O4 0.000000 0.854077 0.000000
O O5 0.208582 0.500000 0.597121
O O6 0.317332 0.726537 0.593229
O O7 0.145121 0.710137 0.508561
O O8 0.170293 0.774875 0.624417
O O9 0.655615 0.500000 0.139663
O O10 0.556550 0.262410 0.149645
O O11 0.741049 0.257646 0.199028
O O12 0.490689 0.223477 0.597725
O O13 0.369293 0.000000 0.576625
O O14 0.554595 0.500000 0.876835
O O15 0.600177 0.743966 0.825540
O O16 0.443477 0.500000 0.375866
O O17 0.403607 0.713003 0.288330
O O18 0.675978 0.500000 0.794689
#
# Coordination Sequence:
#
# PCOD8108278 Si02
#       7
#     8   8   8   8   8   8   8
#     4   7  11  23  47  75  96 121 165 216 262 310
#     4  10  21  38  61  87 112 140 176 219 271 326
#     4   9  17  31  53  77  98 128 174 221 262 311
#     4  10  21  38  61  88 113 138 174 221 272 324
#     4   8  15  31  52  71  98 135 171 211 261 317
#     4  11  23  37  53  77 112 151 189 226 264 312
#     4  10  22  36  49  72 105 141 177 211 257 312
#
# _framework density 19.755773999999999
#
# number of rings (size 3 to 8) (size 9 to 14) (size 15 to 20)
#    0.000    2.714    0.000    3.429    0.000    6.286 
#    0.000    2.143    0.000    3.857    0.000    0.000 
#    0.000    0.000    0.000    0.000    0.000    0.000 
#
# Total GULP energy -347052.469220 kJ/mol
# GULP energy per Si atom -12394.731044 kJ/mol
# Density = 1.971081 g / cm^3
# Si number density = 19.755774 Si / 1000 Ang^3
#
#
#
# Elastic Constant Matrix: (Units=GPa)
#
#
# Indices 1 2 3 4 5 6 
#
# 1 71.9481 13.9587 25.5340 0.0000 -7.8448 0.0000
# 2 13.9587 33.5993 30.6865 0.0000 0.3719 0.0000
# 3 25.5340 30.6865 62.4189 0.0000 -16.3288 0.0000
# 4 0.0000 0.0000 0.0000 18.5483 0.0000 1.2815
# 5 -7.8448 0.3719 -16.3288 0.0000 27.6970 0.0000
# 6 0.0000 0.0000 0.0000 1.2815 0.0000 29.5921
#
#
#
# Elastic Compliance Matrix: (Units=1/GPa)
#
#
# Indices 1 2 3 4 5 6 
#
# 1 0.016332 -0.001921 -0.005344 0.000000 0.001501 0.000000
# 2 -0.001921 0.064736 -0.037137 0.000000 -0.023308 0.000000
# 3 -0.005344 -0.037137 0.042800 0.000000 0.024218 0.000000
# 4 0.000000 0.000000 0.000000 0.054075 0.000000 -0.002342
# 5 0.001501 -0.023308 0.024218 0.000000 0.051121 0.000000
# 6 0.000000 0.000000 0.000000 -0.002342 0.000000 0.033894
#
#
# Mechanical properties :
#
#
# Convention : Reuss Voigt Hill
#
# Bulk Modulus (GPa) = 28.51959 34.25827 31.38893
# Shear Modulus (GPa) = 13.75705 21.68662 17.72183
#
# Velocity S-wave (km/s) = 2.64172 3.31680 2.99832
# Velocity P-wave (km/s) = 4.87569 5.66099 5.28295
#
# Compressibility (1/GPa) = 0.03506361
#
# Stress axis : x y z
#
# Youngs Moduli (GPa) = 61.23035 15.44726 23.36467
#
# Poissons Ratio (x) = 0.02967 0.12486
# Poissons Ratio (y) = 0.11763 0.86770
# Poissons Ratio (z) = 0.32720 0.57367
#
# Static dielectric constant tensor:
#      x y z
#    x 3.534520 0.000000 -0.141050 
#    y 0.000000 3.230650 0.000000 
#    z -0.141050 0.000000 3.793510 
# 
# 
# High freq. dielectric constant tensor:
#      x y z
#    x 1.768480 0.000000 -0.004570 
#    y 0.000000 1.736740 0.000000 
#    z -0.004570 0.000000 1.773210 
# 
# From -- ./inp_files/338210.got.cif
#   From: 2010.06.25/outbox.cif.g09.slc.cpg/sg12_170_cif.got.tgz:338210.got - 2010.06.28 00:19:55.
