data_PCOD8108456
_publ_section_title
;
Structure prediction by ZEFSAII (Michael W. Deem and Ramdas Pophale) SiO2 
 PCOD8108456
Probable space group: C 2/M
;
_chemical_formula_sum "Si O2"
_cell_formula_units_Z 56
_cell_length_a 19.392976
_cell_length_b 20.000033
_cell_length_c 16.254187
_cell_angle_alpha 90.000000
_cell_angle_beta 159.128357
_cell_angle_gamma 90.000000
_cell_volume 2246.086615
_symmetry_space_group_name_H-M "C 2/M"
_symmetry_group_IT_number 12
_symmetry_cell_setting 'monoclinic'
loop_
_space_group_symop_operation_xyz
x,y,z
-x,y,-z
-x,-y,-z
x,-y,z
1/2+x,1/2+y,z
1/2-x,1/2+y,-z
1/2-x,1/2-y,-z
1/2+x,1/2-y,z
loop_
_atom_site_type_symbol
_atom_site_label
_atom_site_fract_x
_atom_site_fract_y
_atom_site_fract_z
Si Si1 0.566548 0.382160 0.814248
Si Si2 0.167399 0.928618 0.296511
Si Si3 0.547305 0.240668 0.855952
Si Si4 0.804565 0.422301 0.704146
Si Si5 0.791410 0.819781 0.275823
Si Si6 0.475251 0.101199 0.207486
Si Si7 0.818507 0.210595 0.744123
O O1 0.511724 0.410591 0.843133
O O2 0.623916 0.303032 0.887113
O O3 0.389106 0.395563 0.556191
O O4 0.757921 0.419093 0.992428
O O5 0.366698 0.940910 0.567397
O O6 0.203363 0.869708 0.270137
O O7 0.120785 0.000000 0.201215
O O8 0.480410 0.179937 0.722066
O O9 0.359121 0.267956 0.695399
O O10 0.704873 0.205147 0.092102
O O11 0.785925 0.500000 0.708977
O O12 0.838611 0.376043 0.822440
O O13 0.990314 0.412771 0.851104
O O14 0.845064 0.755518 0.395514
O O15 0.000000 0.854677 0.500000
O O16 0.000000 0.235803 0.000000
#
# Coordination Sequence:
#
# PCOD8108456 Si02
#       7
#     8   8   8   8   8   8   8
#     4  10  22  38  64  92 125 164 211 266 308 376
#     4  10  23  38  59  92 123 159 202 251 316 376
#     4  10  21  38  61  94 122 158 214 262 319 365
#     4  11  25  42  62  95 131 172 214 256 320 385
#     4  11  23  40  65  90 126 166 212 268 311 377
#     4  11  21  37  65  90 126 161 205 265 311 372
#     4   9  20  39  62  84 118 158 202 257 311 369
#
# _framework density 24.932252999999999
#
# number of rings (size 3 to 8) (size 9 to 14) (size 15 to 20)
#    0.000    1.714    1.429    3.000    4.000    4.571 
#    0.000    2.143    0.000    0.429    0.000    0.000 
#    0.000    0.000    0.000    0.000    0.000    0.000 
#
# Total GULP energy -346960.121580 kJ/mol
# GULP energy per Si atom -12391.432914 kJ/mol
# Density = 2.487551 g / cm^3
# Si number density = 24.932253 Si / 1000 Ang^3
#
#
#
# Elastic Constant Matrix: (Units=GPa)
#
#
# Indices 1 2 3 4 5 6 
#
# 1 80.0836 30.3248 32.0923 0.0003 13.3630 0.0000
# 2 30.3248 200.7971 7.6988 -0.0005 0.0326 -0.0002
# 3 32.0923 7.6988 74.8581 0.0009 23.6557 -0.0001
# 4 0.0003 -0.0005 0.0009 -8.8125 0.0012 -1.6589
# 5 13.3630 0.0326 23.6557 0.0012 33.9874 0.0001
# 6 0.0000 -0.0002 -0.0001 -1.6589 0.0001 3.0553
#
#
#
# Elastic Compliance Matrix: (Units=1/GPa)
#
#
# Indices 1 2 3 4 5 6 
#
# 1 0.016077 -0.002198 -0.005986 0.000000 -0.002153 0.000000
# 2 -0.002198 0.005306 0.000160 0.000000 0.000747 0.000000
# 3 -0.005986 0.000160 0.019441 0.000000 -0.011177 0.000001
# 4 0.000000 0.000000 0.000000 -0.102952 0.000004 -0.055899
# 5 -0.002153 0.000747 -0.011177 0.000004 0.038048 0.000000
# 6 0.000000 0.000000 0.000001 -0.055899 0.000000 0.296948
#
#
# Mechanical properties :
#
#
# Convention : Reuss Voigt Hill
#
# Bulk Modulus (GPa) = 40.36149 55.10781 47.73465
# Shear Modulus (GPa) = 16.82519 24.68758 20.75638
#
# Velocity S-wave (km/s) = 2.60058 3.15014 2.88846
# Velocity P-wave (km/s) = 5.02404 5.94829 5.50559
#
# Compressibility (1/GPa) = 0.02477609
#
# Stress axis : x y z
#
# Youngs Moduli (GPa) = 62.19910 188.47118 51.43880
#
# Poissons Ratio (x) = 0.41429 0.30792
# Poissons Ratio (y) = 0.13672 -0.00826
# Poissons Ratio (z) = 0.37233 -0.03025
#
# Static dielectric constant tensor:
#      x y z
#    x 4.492210 0.000000 0.103510 
#    y 0.000000 4.590290 0.000000 
#    z 0.103510 0.000000 4.172220 
# 
# 
# High freq. dielectric constant tensor:
#      x y z
#    x 1.975450 0.000000 0.005280 
#    y 0.000000 2.001140 0.000000 
#    z 0.005280 0.000000 1.985890 
# 
# From -- ./inp_files/286078.got.cif
#   From: 2010.06.25/outbox.cif.g09.slc.cpg/sg12_144_cif.got.tgz:286078.got - 2010.06.28 00:19:55.
