data_PCOD8108293
_publ_section_title
;
Structure prediction by ZEFSAII (Michael W. Deem and Ramdas Pophale) SiO2 
 PCOD8108293
Probable space group: C 2/M
;
_chemical_formula_sum "Si O2"
_cell_formula_units_Z 48
_cell_length_a 15.156610
_cell_length_b 8.766833
_cell_length_c 21.477768
_cell_angle_alpha 90.000000
_cell_angle_beta 59.748709
_cell_angle_gamma 90.000000
_cell_volume 2465.240534
_symmetry_space_group_name_H-M "C 2/M"
_symmetry_group_IT_number 12
_symmetry_cell_setting 'monoclinic'
loop_
_space_group_symop_operation_xyz
x,y,z
-x,y,-z
-x,-y,-z
x,-y,z
1/2+x,1/2+y,z
1/2-x,1/2+y,-z
1/2-x,1/2-y,-z
1/2+x,1/2-y,z
loop_
_atom_site_type_symbol
_atom_site_label
_atom_site_fract_x
_atom_site_fract_y
_atom_site_fract_z
Si Si1 0.829799 0.180063 0.423841
Si Si2 0.890414 0.677811 0.159896
Si Si3 0.472189 0.680671 0.577470
Si Si4 0.897575 0.177321 0.907221
Si Si5 0.255294 0.821402 0.325767
Si Si6 0.296384 0.677378 0.073759
O O1 0.750000 0.250000 0.500000
O O2 0.813094 0.234606 0.359957
O O3 0.943432 0.234555 0.402828
O O4 0.818846 0.000000 0.431769
O O5 0.889928 0.500000 0.143340
O O6 0.809345 0.717651 0.241960
O O7 0.862185 0.774174 0.109390
O O8 0.001641 0.727020 0.144228
O O9 0.500000 0.749985 0.500000
O O10 0.470762 0.500000 0.573421
O O11 0.360875 0.739458 0.638029
O O12 0.809009 0.228556 0.891118
O O13 0.920258 0.000000 0.888778
O O14 0.864329 0.214424 0.989358
O O15 0.259159 0.000000 0.339781
O O16 0.269164 0.500000 0.086866
#
# Coordination Sequence:
#
# PCOD8108293 Si02
#       6
#     8   8   8   8   8   8
#     4  11  21  35  59  85 109 143 186 234 287 342
#     4  11  23  37  57  85 121 159 194 241 297 353
#     4   9  17  34  59  79 104 144 182 222 277 339
#     4  10  21  38  61  87 117 155 198 243 291 348
#     4  10  22  40  57  81 114 149 191 235 284 341
#     4  10  21  38  61  88 117 152 198 247 291 344
#
# _framework density 19.470715999999999
#
# number of rings (size 3 to 8) (size 9 to 14) (size 15 to 20)
#    0.000    1.833    1.667    2.500    0.000    6.667 
#    0.000    4.167    0.000    0.000    0.000    0.000 
#    0.000    0.000    0.000    0.000    0.000    0.000 
#
# Total GULP energy -297696.700449 kJ/mol
# GULP energy per Si atom -12404.029185 kJ/mol
# Density = 1.942640 g / cm^3
# Si number density = 19.470716 Si / 1000 Ang^3
#
#
#
# Elastic Constant Matrix: (Units=GPa)
#
#
# Indices 1 2 3 4 5 6 
#
# 1 139.5860 30.1967 38.1372 0.0000 -14.6784 0.0000
# 2 30.1967 53.6640 36.3543 -0.0001 -3.0303 0.0000
# 3 38.1372 36.3543 56.8120 0.0000 -19.3553 0.0000
# 4 0.0000 -0.0001 0.0000 27.9575 0.0000 3.5974
# 5 -14.6784 -3.0303 -19.3553 0.0000 33.1636 0.0000
# 6 0.0000 0.0000 0.0000 3.5974 0.0000 36.0705
#
#
#
# Elastic Compliance Matrix: (Units=1/GPa)
#
#
# Indices 1 2 3 4 5 6 
#
# 1 0.008899 -0.002096 -0.004188 0.000000 0.001303 0.000000
# 2 -0.002096 0.037385 -0.027046 0.000000 -0.013297 0.000000
# 3 -0.004188 -0.027046 0.045243 0.000000 0.022080 0.000000
# 4 0.000000 0.000000 0.000000 0.036234 0.000000 -0.003614
# 5 0.001303 -0.013297 0.022080 0.000000 0.042402 0.000000
# 6 0.000000 0.000000 0.000000 -0.003614 0.000000 0.028084
#
#
# Mechanical properties :
#
#
# Convention : Reuss Voigt Hill
#
# Bulk Modulus (GPa) = 40.21610 51.04872 45.63241
# Shear Modulus (GPa) = 18.30191 29.12990 23.71591
#
# Velocity S-wave (km/s) = 3.06922 3.87213 3.49381
# Velocity P-wave (km/s) = 5.76712 6.80193 6.30579
#
# Compressibility (1/GPa) = 0.02486566
#
# Stress axis : x y z
#
# Youngs Moduli (GPa) = 112.37358 26.74849 22.10306
#
# Poissons Ratio (x) = 0.05608 0.09258
# Poissons Ratio (y) = 0.23558 0.59779
# Poissons Ratio (z) = 0.47066 0.72343
#
# Static dielectric constant tensor:
#      x y z
#    x 3.847090 0.000000 -0.067470 
#    y 0.000000 3.473080 0.000000 
#    z -0.067470 0.000000 3.512540 
# 
# 
# High freq. dielectric constant tensor:
#      x y z
#    x 1.775630 0.000000 -0.003510 
#    y 0.000000 1.749240 0.000000 
#    z -0.003510 0.000000 1.750510 
# 
# From -- ./inp_files/308258.got.cif
#   From: 2010.06.25/outbox.cif.g09.slc.cpg/sg12_155_cif.got.tgz:308258.got - 2010.06.28 00:19:55.
