data_PCOD8108674
_publ_section_title
;
Structure prediction by ZEFSAII (Michael W. Deem and Ramdas Pophale) SiO2 
 PCOD8108674
Probable space group: C 2/M
;
_chemical_formula_sum "Si O2"
_cell_formula_units_Z 40
_cell_length_a 17.389216
_cell_length_b 13.928202
_cell_length_c 14.960387
_cell_angle_alpha 90.000000
_cell_angle_beta 148.301587
_cell_angle_gamma 90.000000
_cell_volume 1903.915635
_symmetry_space_group_name_H-M "C 2/M"
_symmetry_group_IT_number 12
_symmetry_cell_setting 'monoclinic'
loop_
_space_group_symop_operation_xyz
x,y,z
-x,y,-z
-x,-y,-z
x,-y,z
1/2+x,1/2+y,z
1/2-x,1/2+y,-z
1/2-x,1/2-y,-z
1/2+x,1/2-y,z
loop_
_atom_site_type_symbol
_atom_site_label
_atom_site_fract_x
_atom_site_fract_y
_atom_site_fract_z
Si Si1 0.628851 0.240703 0.055948
Si Si2 0.015932 0.771781 0.275616
Si Si3 0.783925 0.607741 0.475147
Si Si4 0.663200 0.893235 0.671700
Si Si5 0.386080 0.387827 0.307598
O O1 0.740375 0.329829 0.167633
O O2 0.721641 0.144625 0.172823
O O3 0.500000 0.249734 0.000000
O O4 0.569424 0.243236 0.897521
O O5 0.070272 0.669536 0.365906
O O6 0.148462 0.844697 0.390819
O O7 0.916862 0.824606 0.250296
O O8 0.807110 0.500000 0.536172
O O9 0.751994 0.604298 0.338473
O O10 0.500000 0.849601 0.500000
O O11 0.650667 0.000000 0.700769
O O12 0.500000 0.365375 0.500000
O O13 0.387424 0.500000 0.285118
#
# Coordination Sequence:
#
# PCOD8108674 Si02
#       5
#     8   8   8   8   8
#     4  12  24  41  66  99 134 166 209 273 328 381
#     4  11  23  41  65  95 129 171 211 270 321 379
#     4  10  21  38  63  94 128 168 213 261 322 385
#     4  10  21  39  64  94 129 169 212 262 322 388
#     4  11  26  46  68  91 127 178 223 262 315 387
#
# _framework density 21.009333999999999
#
# number of rings (size 3 to 8) (size 9 to 14) (size 15 to 20)
#    0.000    1.200    2.000    4.200    2.800    3.200 
#    0.000    2.000    0.000    0.000    0.000    0.000 
#    0.000    0.000    0.000    0.000    0.000    0.000 
#
# Total GULP energy -248007.879093 kJ/mol
# GULP energy per Si atom -12400.393955 kJ/mol
# Density = 2.096152 g / cm^3
# Si number density = 21.009334 Si / 1000 Ang^3
#
#
#
# Elastic Constant Matrix: (Units=GPa)
#
#
# Indices 1 2 3 4 5 6 
#
# 1 59.0894 17.9230 20.4447 0.0000 1.9199 0.0000
# 2 17.9230 146.7909 58.4227 0.0000 -0.2220 0.0000
# 3 20.4447 58.4227 115.6994 -0.0001 -6.8160 -0.0001
# 4 0.0000 0.0000 -0.0001 13.2045 -0.0001 2.8271
# 5 1.9199 -0.2220 -6.8160 -0.0001 39.7779 -0.0001
# 6 0.0000 0.0000 -0.0001 2.8271 -0.0001 28.0109
#
#
#
# Elastic Compliance Matrix: (Units=1/GPa)
#
#
# Indices 1 2 3 4 5 6 
#
# 1 0.018259 -0.001146 -0.002728 0.000000 -0.001355 0.000000
# 2 -0.001146 0.008617 -0.004185 0.000000 -0.000614 0.000000
# 3 -0.002728 -0.004185 0.011359 0.000000 0.002055 0.000000
# 4 0.000000 0.000000 0.000000 0.077404 0.000000 -0.007812
# 5 -0.001355 -0.000614 0.002055 0.000000 0.025554 0.000000
# 6 0.000000 0.000000 0.000000 -0.007812 0.000000 0.036489
#
#
# Mechanical properties :
#
#
# Convention : Reuss Voigt Hill
#
# Bulk Modulus (GPa) = 45.21122 57.24007 51.22564
# Shear Modulus (GPa) = 24.85445 31.18463 28.01954
#
# Velocity S-wave (km/s) = 3.44324 3.85687 3.65591
# Velocity P-wave (km/s) = 6.11344 6.86572 6.50047
#
# Compressibility (1/GPa) = 0.02211840
#
# Stress axis : x y z
#
# Youngs Moduli (GPa) = 54.76794 116.05040 88.03385
#
# Poissons Ratio (x) = 0.13297 0.24013
# Poissons Ratio (y) = 0.06275 0.36841
# Poissons Ratio (z) = 0.14939 0.48565
#
# Static dielectric constant tensor:
#      x y z
#    x 3.824980 0.000000 0.124710 
#    y 0.000000 3.991580 0.000000 
#    z 0.124710 0.000000 3.774310 
# 
# 
# High freq. dielectric constant tensor:
#      x y z
#    x 1.829970 0.000000 0.006710 
#    y 0.000000 1.833400 0.000000 
#    z 0.006710 0.000000 1.819290 
# 
# From -- ./inp_files/58945.got.cif
#   From: 2010.06.25/outbox.cif.g09.slc.cpg/sg12_30_cif.got.tgz:58945.got - 2010.06.28 00:19:55.
