data_PCOD8108921
_publ_section_title
;
Structure prediction by ZEFSAII (Michael W. Deem and Ramdas Pophale) SiO2 
 PCOD8108921
Probable space group: C 2/M
;
_chemical_formula_sum "Si O2"
_cell_formula_units_Z 56
_cell_length_a 20.412794
_cell_length_b 8.646976
_cell_length_c 31.009160
_cell_angle_alpha 90.000000
_cell_angle_beta 32.831750
_cell_angle_gamma 90.000000
_cell_volume 2967.531459
_symmetry_space_group_name_H-M "C 2/M"
_symmetry_group_IT_number 12
_symmetry_cell_setting 'monoclinic'
loop_
_space_group_symop_operation_xyz
x,y,z
-x,y,-z
-x,-y,-z
x,-y,z
1/2+x,1/2+y,z
1/2-x,1/2+y,-z
1/2-x,1/2-y,-z
1/2+x,1/2-y,z
loop_
_atom_site_type_symbol
_atom_site_label
_atom_site_fract_x
_atom_site_fract_y
_atom_site_fract_z
Si Si1 0.586108 0.682005 0.843854
Si Si2 0.583179 0.182778 0.993929
Si Si3 0.936437 0.681542 0.237053
Si Si4 0.661611 0.181499 0.170734
Si Si5 0.164305 0.183363 0.260845
Si Si6 0.477226 0.316298 0.580057
Si Si7 0.315541 0.317308 0.591763
O O1 0.587390 0.500000 0.849771
O O2 0.572734 0.722047 0.801356
O O3 0.706191 0.751445 0.797945
O O4 0.471435 0.753653 0.931652
O O5 0.714100 0.255295 0.916287
O O6 0.595854 0.000000 0.989271
O O7 0.500000 0.234689 0.000000
O O8 0.928780 0.500000 0.230097
O O9 0.824772 0.731851 0.330058
O O10 0.059077 0.725605 0.193143
O O11 0.624998 0.259181 0.235891
O O12 0.670926 0.000000 0.172920
O O13 0.062133 0.244260 0.350997
O O14 0.175720 0.000000 0.254399
O O15 0.473075 0.500000 0.583123
O O16 0.380304 0.252289 0.598977
O O17 0.611590 0.257325 0.491243
O O18 0.327725 0.500000 0.585698
#
# Coordination Sequence:
#
# PCOD8108921 Si02
#       7
#     8   8   8   8   8   8   8
#     4  12  24  37  60  88 116 147 186 237 286 337
#     4  11  23  40  63  86 110 147 191 234 280 336
#     4  10  21  39  60  83 117 155 192 230 280 341
#     4  11  24  39  58  85 117 153 187 232 288 338
#     4  11  20  35  58  85 115 151 194 236 279 336
#     4   8  14  25  52  86 110 140 191 240 274 319
#     4   8  13  27  52  83 112 143 188 237 275 322
#
# _framework density 18.870902000000001
#
# number of rings (size 3 to 8) (size 9 to 14) (size 15 to 20)
#    0.000    1.857    2.857    3.429    0.000    2.286 
#    0.000    0.714    0.000    2.571    0.000    0.000 
#    0.000    0.000    0.000    0.000    0.000    0.000 
#
# Total GULP energy -347124.071269 kJ/mol
# GULP energy per Si atom -12397.288260 kJ/mol
# Density = 1.882795 g / cm^3
# Si number density = 18.870902 Si / 1000 Ang^3
#
#
#
# Elastic Constant Matrix: (Units=GPa)
#
#
# Indices 1 2 3 4 5 6 
#
# 1 60.6606 25.5299 24.0567 -0.0145 -5.9370 0.0531
# 2 25.5299 64.1180 23.6268 -0.0518 -1.4627 -0.0319
# 3 24.0567 23.6268 134.6213 -0.0172 0.1968 0.0142
# 4 -0.0145 -0.0518 -0.0172 7.0899 0.0004 5.3530
# 5 -5.9370 -1.4627 0.1968 0.0004 32.5614 0.0009
# 6 0.0531 -0.0319 0.0142 5.3530 0.0009 24.7061
#
#
#
# Elastic Compliance Matrix: (Units=1/GPa)
#
#
# Indices 1 2 3 4 5 6 
#
# 1 0.020885 -0.007333 -0.002450 0.000027 0.003493 -0.000059
# 2 -0.007333 0.019269 -0.002071 0.000107 -0.000459 0.000019
# 3 -0.002450 -0.002071 0.008230 0.000002 -0.000590 -0.000003
# 4 0.000027 0.000107 0.000002 0.168634 0.000009 -0.036538
# 5 0.003493 -0.000459 -0.000590 0.000009 0.031331 -0.000011
# 6 -0.000059 0.000019 -0.000003 -0.036538 -0.000011 0.048393
#
#
# Mechanical properties :
#
#
# Convention : Reuss Voigt Hill
#
# Bulk Modulus (GPa) = 40.52520 45.09185 42.80852
# Shear Modulus (GPa) = 15.21259 25.28391 20.24825
#
# Velocity S-wave (km/s) = 2.84234 3.66435 3.27920
# Velocity P-wave (km/s) = 5.68273 6.46916 6.08866
#
# Compressibility (1/GPa) = 0.02467601
#
# Stress axis : x y z
#
# Youngs Moduli (GPa) = 47.88098 51.89742 121.50122
#
# Poissons Ratio (x) = 0.38058 0.29770
# Poissons Ratio (y) = 0.35112 0.25159
# Poissons Ratio (z) = 0.11732 0.10746
#
# Static dielectric constant tensor:
#      x y z
#    x 3.350980 -0.000010 0.052750 
#    y -0.000010 3.259010 -0.000030 
#    z 0.052750 -0.000030 4.003720 
# 
# 
# High freq. dielectric constant tensor:
#      x y z
#    x 1.712280 0.000000 0.004580 
#    y 0.000000 1.712600 0.000000 
#    z 0.004580 0.000000 1.758390 
# 
# From -- ./inp_files/362977.got.cif
#   From: 2010.06.25/outbox.cif.g09.slc.cpg/sg12_182_cif.got.tgz:362977.got - 2010.06.28 00:19:55.
