data_PCOD8108726
_publ_section_title
;
Structure prediction by ZEFSAII (Michael W. Deem and Ramdas Pophale) SiO2 
 PCOD8108726
Probable space group: C 2/M
;
_chemical_formula_sum "Si O2"
_cell_formula_units_Z 64
_cell_length_a 16.642293
_cell_length_b 15.802846
_cell_length_c 22.004623
_cell_angle_alpha 90.000000
_cell_angle_beta 148.152672
_cell_angle_gamma 90.000000
_cell_volume 3053.617562
_symmetry_space_group_name_H-M "C 2/M"
_symmetry_group_IT_number 12
_symmetry_cell_setting 'monoclinic'
loop_
_space_group_symop_operation_xyz
x,y,z
-x,y,-z
-x,-y,-z
x,-y,z
1/2+x,1/2+y,z
1/2-x,1/2+y,-z
1/2-x,1/2-y,-z
1/2+x,1/2-y,z
loop_
_atom_site_type_symbol
_atom_site_label
_atom_site_fract_x
_atom_site_fract_y
_atom_site_fract_z
Si Si1 0.835773 0.656341 0.822589
Si Si2 0.461969 0.404672 0.407220
Si Si3 0.092510 0.708918 0.816902
Si Si4 0.103916 0.805539 0.216507
Si Si5 0.082275 0.261055 0.416298
Si Si6 0.187241 0.091499 0.984612
Si Si7 0.143000 0.406230 0.550557
Si Si8 0.313580 0.853494 0.948999
O O1 0.722023 0.595822 0.713017
O O2 0.811849 0.753650 0.784009
O O3 0.787616 0.637358 0.860916
O O4 0.009897 0.633976 0.921681
O O5 0.500000 0.381524 0.500000
O O6 0.519929 0.500000 0.426677
O O7 0.530669 0.330457 0.409291
O O8 0.156393 0.619142 0.880680
O O9 0.246871 0.763127 0.925768
O O10 0.952153 0.739301 0.768253
O O11 0.036460 0.710402 0.711674
O O12 0.216035 0.872259 0.319448
O O13 0.960053 0.852479 0.094966
O O14 0.250000 0.250000 0.500000
O O15 0.088864 0.338033 0.466944
O O16 0.147016 0.000000 0.984326
O O17 0.219175 0.083332 0.931880
O O18 0.187569 0.500000 0.552048
O O19 0.000000 0.421317 0.500000
#
# Coordination Sequence:
#
# PCOD8108726 Si02
#       8
#     8   8   8   8   8   8   8   8
#     4  11  20  38  69  93 125 171 215 261 321 390
#     4  11  26  45  66  99 138 174 213 266 333 402
#     4  11  21  42  64  92 126 171 222 257 321 396
#     4  11  20  41  67  91 127 169 221 266 327 385
#     4  12  24  43  69  95 128 176 219 272 327 382
#     4  11  23  40  63  95 134 170 213 273 328 386
#     4  11  25  43  66  96 127 167 224 273 324 390
#     4  10  21  38  64  94 122 168 217 265 317 384
#
# _framework density 20.958748
#
# number of rings (size 3 to 8) (size 9 to 14) (size 15 to 20)
#    0.000    1.000    5.000    3.000    0.000    2.000 
#    0.000    1.250    0.000    0.750    0.000    0.000 
#    0.000    0.000    0.000    0.000    0.000    0.000 
#
# Total GULP energy -396457.649944 kJ/mol
# GULP energy per Si atom -12389.301561 kJ/mol
# Density = 2.091104 g / cm^3
# Si number density = 20.958748 Si / 1000 Ang^3
#
#
#
# Elastic Constant Matrix: (Units=GPa)
#
#
# Indices 1 2 3 4 5 6 
#
# 1 67.3099 29.1216 37.2542 0.0002 -9.0098 -0.0001
# 2 29.1216 126.6046 47.7323 0.0000 -15.5094 -0.0013
# 3 37.2542 47.7323 133.2475 0.0093 -10.5807 -0.0011
# 4 0.0002 0.0000 0.0093 -3.0099 -0.0007 7.7289
# 5 -9.0098 -15.5094 -10.5807 -0.0007 31.6981 -0.0006
# 6 -0.0001 -0.0013 -0.0011 7.7289 -0.0006 10.5055
#
#
#
# Elastic Compliance Matrix: (Units=1/GPa)
#
#
# Indices 1 2 3 4 5 6 
#
# 1 0.018526 -0.002377 -0.004111 -0.000004 0.002730 0.000003
# 2 -0.002377 0.009824 -0.002595 -0.000002 0.003265 0.000003
# 3 -0.004111 -0.002595 0.009646 0.000011 0.000781 -0.000007
# 4 -0.000004 -0.000002 0.000011 -0.114994 0.000000 0.084601
# 5 0.002730 0.003265 0.000781 0.000000 0.034182 0.000002
# 6 0.000003 0.000003 -0.000007 0.084601 0.000002 0.032947
#
#
# Mechanical properties :
#
#
# Convention : Reuss Voigt Hill
#
# Bulk Modulus (GPa) = 50.43168 61.70870 56.07019
# Shear Modulus (GPa) = 335.40501 22.04231 178.72366
#
# Velocity S-wave (km/s) = 12.66406 3.24651 9.24441
# Velocity P-wave (km/s) = 15.42571 6.60000 11.86407
#
# Compressibility (1/GPa) = 0.01982881
#
# Stress axis : x y z
#
# Youngs Moduli (GPa) = 53.97816 101.79422 103.66920
#
# Poissons Ratio (x) = 0.24194 0.42622
# Poissons Ratio (y) = 0.12830 0.26906
# Poissons Ratio (z) = 0.22192 0.26419
#
# Static dielectric constant tensor:
#      x y z
#    x 3.798760 0.000050 0.012390 
#    y 0.000050 8.326450 0.000100 
#    z 0.012390 0.000100 3.967110 
# 
# 
# High freq. dielectric constant tensor:
#      x y z
#    x 1.811630 0.000000 0.003430 
#    y 0.000000 1.811400 0.000000 
#    z 0.003430 0.000000 1.839280 
# 
# From -- ./inp_files/344070.got.cif
#   From: 2010.06.25/outbox.cif.g09.slc.cpg/sg12_173_cif.got.tgz:344070.got - 2010.06.28 00:19:55.
