data_PCOD8108215
_publ_section_title
;
Structure prediction by ZEFSAII (Michael W. Deem and Ramdas Pophale) SiO2 
 PCOD8108215
Probable space group: C 2/M
;
_chemical_formula_sum "Si O2"
_cell_formula_units_Z 44
_cell_length_a 14.780931
_cell_length_b 13.610018
_cell_length_c 11.831934
_cell_angle_alpha 90.000000
_cell_angle_beta 114.938048
_cell_angle_gamma 90.000000
_cell_volume 2158.293996
_symmetry_space_group_name_H-M "C 2/M"
_symmetry_group_IT_number 12
_symmetry_cell_setting 'monoclinic'
loop_
_space_group_symop_operation_xyz
x,y,z
-x,y,-z
-x,-y,-z
x,-y,z
1/2+x,1/2+y,z
1/2-x,1/2+y,-z
1/2-x,1/2-y,-z
1/2+x,1/2-y,z
loop_
_atom_site_type_symbol
_atom_site_label
_atom_site_fract_x
_atom_site_fract_y
_atom_site_fract_z
Si Si1 0.500000 0.702831 0.000000
Si Si2 0.702996 0.388311 0.063232
Si Si3 0.042860 0.752519 0.255649
Si Si4 0.735143 0.775656 0.698721
Si Si5 0.590165 0.106776 0.466510
Si Si6 0.360066 0.383363 0.217478
O O1 0.407443 0.629017 0.947342
O O2 0.501533 0.773724 0.891511
O O3 0.734378 0.500000 0.095930
O O4 0.777827 0.327885 0.184575
O O5 0.703937 0.359961 0.930617
O O6 0.156100 0.787802 0.297409
O O7 0.044211 0.654793 0.330004
O O8 0.972246 0.837539 0.272030
O O9 0.667357 0.820652 0.565749
O O10 0.700147 0.663690 0.707812
O O11 0.500000 0.086864 0.500000
O O12 0.638757 0.000000 0.463054
O O13 0.370703 0.500000 0.241595
#
# Coordination Sequence:
#
# PCOD8108215 Si02
#       6
#     4   8   8   8   8   8
#     4   8  17  32  59  86 118 152 187 244 297 342
#     4   9  17  31  56  88 119 152 194 238 288 348
#     4  10  21  40  61  87 118 155 194 242 295 353
#     4  11  21  37  61  87 119 155 197 240 295 351
#     4  11  23  40  60  81 115 158 199 241 289 349
#     4  10  21  38  60  89 123 155 192 246 298 346
#
# _framework density 20.386471
#
# number of rings (size 3 to 8) (size 9 to 14) (size 15 to 20)
#    0.000    2.000    1.818    1.909    0.000    5.818 
#    0.000    2.273    0.000    0.000    0.000    0.000 
#    0.000    0.000    0.000    0.000    0.000    0.000 
#
# Total GULP energy -272583.444409 kJ/mol
# GULP energy per Si atom -12390.156564 kJ/mol
# Density = 2.034007 g / cm^3
# Si number density = 20.386471 Si / 1000 Ang^3
#
#
#
# Elastic Constant Matrix: (Units=GPa)
#
#
# Indices 1 2 3 4 5 6 
#
# 1 41.8266 6.3824 3.6734 0.0000 7.0358 0.0000
# 2 6.3824 109.8451 53.7863 0.0000 -7.3619 0.0000
# 3 3.6734 53.7863 69.8660 0.0000 1.3731 0.0000
# 4 0.0000 0.0000 0.0000 40.6092 0.0000 -8.0795
# 5 7.0358 -7.3619 1.3731 0.0000 20.4675 0.0000
# 6 0.0000 0.0000 0.0000 -8.0795 0.0000 23.3460
#
#
#
# Elastic Compliance Matrix: (Units=1/GPa)
#
#
# Indices 1 2 3 4 5 6 
#
# 1 0.025889 -0.002559 0.000803 0.000000 -0.009874 0.000000
# 2 -0.002559 0.015645 -0.012053 0.000000 0.007316 0.000000
# 3 0.000803 -0.012053 0.023672 0.000000 -0.006200 0.000000
# 4 0.000000 0.000000 0.000000 0.026446 0.000000 0.009152
# 5 -0.009874 0.007316 -0.006200 0.000000 0.055300 0.000000
# 6 0.000000 0.000000 0.000000 0.009152 0.000000 0.046001
#
#
# Mechanical properties :
#
#
# Convention : Reuss Voigt Hill
#
# Bulk Modulus (GPa) = 26.60500 38.80245 32.70372
# Shear Modulus (GPa) = 21.45001 27.39758 24.42380
#
# Velocity S-wave (km/s) = 3.24723 3.66991 3.46503
# Velocity P-wave (km/s) = 5.20942 6.08543 5.66438
#
# Compressibility (1/GPa) = 0.03758692
#
# Stress axis : x y z
#
# Youngs Moduli (GPa) = 38.62619 63.91958 42.24417
#
# Poissons Ratio (x) = 0.16359 -0.03393
# Poissons Ratio (y) = 0.09885 0.50918
# Poissons Ratio (z) = -0.03102 0.77044
#
# Static dielectric constant tensor:
#      x y z
#    x 3.646040 0.000000 -0.051810 
#    y 0.000000 3.664370 0.000000 
#    z -0.051810 0.000000 4.043590 
# 
# 
# High freq. dielectric constant tensor:
#      x y z
#    x 1.788610 0.000000 0.000330 
#    y 0.000000 1.780000 0.000000 
#    z 0.000330 0.000000 1.804120 
# 
# From -- ./inp_files/143253.got.cif
#   From: 2010.06.25/outbox.cif.g09.slc.cpg/sg12_72_cif.got.tgz:143253.got - 2010.06.28 00:19:55.
