data_PCOD8108529
_publ_section_title
;
Structure prediction by ZEFSAII (Michael W. Deem and Ramdas Pophale) SiO2 
 PCOD8108529
Probable space group: C 2/M
;
_chemical_formula_sum "Si O2"
_cell_formula_units_Z 48
_cell_length_a 19.113559
_cell_length_b 15.284542
_cell_length_c 10.255814
_cell_angle_alpha 90.000000
_cell_angle_beta 131.957869
_cell_angle_gamma 90.000000
_cell_volume 2228.049906
_symmetry_space_group_name_H-M "C 2/M"
_symmetry_group_IT_number 12
_symmetry_cell_setting 'monoclinic'
loop_
_space_group_symop_operation_xyz
x,y,z
-x,y,-z
-x,-y,-z
x,-y,z
1/2+x,1/2+y,z
1/2-x,1/2+y,-z
1/2-x,1/2-y,-z
1/2+x,1/2-y,z
loop_
_atom_site_type_symbol
_atom_site_label
_atom_site_fract_x
_atom_site_fract_y
_atom_site_fract_z
Si Si1 0.587553 0.405295 0.785332
Si Si2 0.957488 0.718187 0.316736
Si Si3 0.234939 0.401380 0.315928
Si Si4 0.074643 0.720554 0.200558
Si Si5 0.095541 0.094790 0.288614
Si Si6 0.792140 0.402038 0.016961
O O1 0.581048 0.500000 0.699522
O O2 0.566886 0.318702 0.675251
O O3 0.514596 0.407896 0.813071
O O4 0.693981 0.397558 0.974525
O O5 0.000000 0.674560 0.500000
O O6 0.030780 0.712970 0.289573
O O7 0.863334 0.667005 0.164353
O O8 0.198494 0.500000 0.289351
O O9 0.165502 0.340170 0.311358
O O10 0.340578 0.390746 0.502811
O O11 0.234419 0.375234 0.164085
O O12 0.107583 0.820890 0.210169
O O13 0.000000 0.688397 0.000000
O O14 0.121507 0.000000 0.255405
O O15 0.835754 0.500000 0.077513
#
# Coordination Sequence:
#
# PCOD8108529 Si02
#       6
#     8   8   8   8   8   8
#     4   9  20  38  61  88 121 159 201 246 298 360
#     4  11  24  40  61  92 125 158 202 253 301 356
#     4  10  21  38  63  91 119 158 208 251 291 359
#     4  11  22  40  62  87 123 165 202 243 301 360
#     4   9  20  38  60  91 123 156 201 251 302 355
#     4  10  21  38  62  90 121 161 203 248 302 357
#
# _framework density 21.543503999999999
#
# number of rings (size 3 to 8) (size 9 to 14) (size 15 to 20)
#    0.000    2.000    1.667    1.000    4.667    2.000 
#    0.000    0.000    0.000    8.000    0.000    0.000 
#    0.000    0.000    0.000    0.000    0.000    0.000 
#
# Total GULP energy -297384.485251 kJ/mol
# GULP energy per Si atom -12391.020219 kJ/mol
# Density = 2.149447 g / cm^3
# Si number density = 21.543504 Si / 1000 Ang^3
#
#
#
# Elastic Constant Matrix: (Units=GPa)
#
#
# Indices 1 2 3 4 5 6 
#
# 1 82.2358 57.1629 40.4351 0.0000 14.6257 0.0000
# 2 57.1629 122.9674 38.4166 0.0000 19.5195 0.0000
# 3 40.4351 38.4166 60.6654 0.0000 7.9815 0.0000
# 4 0.0000 0.0000 0.0000 14.4212 0.0000 16.6430
# 5 14.6257 19.5195 7.9815 0.0000 31.1235 0.0000
# 6 0.0000 0.0000 0.0000 16.6430 0.0000 22.6480
#
#
#
# Elastic Compliance Matrix: (Units=1/GPa)
#
#
# Indices 1 2 3 4 5 6 
#
# 1 0.022520 -0.006652 -0.010302 0.000000 -0.003769 0.000000
# 2 -0.006652 0.012872 -0.003174 0.000000 -0.004133 0.000000
# 3 -0.010302 -0.003174 0.025315 0.000000 0.000340 0.000000
# 4 0.000000 0.000000 0.000000 0.456414 0.000000 -0.335398
# 5 -0.003769 -0.004133 0.000340 0.000000 0.036406 0.000000
# 6 0.000000 0.000000 0.000000 -0.335398 0.000000 0.290623
#
#
# Mechanical properties :
#
#
# Convention : Reuss Voigt Hill
#
# Bulk Modulus (GPa) = 48.89457 59.76642 54.33050
# Shear Modulus (GPa) = 5.61028 22.29546 13.95287
#
# Velocity S-wave (km/s) = 1.61549 3.22048 2.54768
# Velocity P-wave (km/s) = 5.12101 6.45222 5.82477
#
# Compressibility (1/GPa) = 0.02045217
#
# Stress axis : x y z
#
# Youngs Moduli (GPa) = 44.40593 77.68774 39.50165
#
# Poissons Ratio (x) = 0.51677 0.40693
# Poissons Ratio (y) = 0.29538 0.12537
# Poissons Ratio (z) = 0.45746 0.24657
#
# Static dielectric constant tensor:
#      x y z
#    x 3.616020 0.000000 0.299610 
#    y 0.000000 4.378450 0.000000 
#    z 0.299610 0.000000 3.738500 
# 
# 
# High freq. dielectric constant tensor:
#      x y z
#    x 1.818240 0.000000 0.025530 
#    y 0.000000 1.864150 0.000000 
#    z 0.025530 0.000000 1.834730 
# 
# From -- ./inp_files/167648.got.cif
#   From: 2010.06.25/outbox.cif.g09.slc.cpg/sg12_84_cif.got.tgz:167648.got - 2010.06.28 00:19:55.
