data_PCOD8108774
_publ_section_title
;
Structure prediction by ZEFSAII (Michael W. Deem and Ramdas Pophale) SiO2 
 PCOD8108774
Probable space group: C 2/M
;
_chemical_formula_sum "Si O2"
_cell_formula_units_Z 56
_cell_length_a 16.708204
_cell_length_b 26.853309
_cell_length_c 8.832758
_cell_angle_alpha 90.000000
_cell_angle_beta 42.968574
_cell_angle_gamma 90.000000
_cell_volume 2701.168376
_symmetry_space_group_name_H-M "C 2/M"
_symmetry_group_IT_number 12
_symmetry_cell_setting 'monoclinic'
loop_
_space_group_symop_operation_xyz
x,y,z
-x,y,-z
-x,-y,-z
x,-y,z
1/2+x,1/2+y,z
1/2-x,1/2+y,-z
1/2-x,1/2-y,-z
1/2+x,1/2-y,z
loop_
_atom_site_type_symbol
_atom_site_label
_atom_site_fract_x
_atom_site_fract_y
_atom_site_fract_z
Si Si1 0.381551 0.804352 0.574674
Si Si2 0.618563 0.853815 0.748700
Si Si3 0.758529 0.057071 0.444456
Si Si4 0.822968 0.190070 0.625576
Si Si5 0.865399 0.443952 0.707084
Si Si6 0.527404 0.376275 0.801450
Si Si7 0.209966 0.136128 0.016038
O O1 0.500000 0.815290 0.500000
O O2 0.398236 0.832591 0.394640
O O3 0.364259 0.746184 0.578007
O O4 0.267077 0.824812 0.819719
O O5 0.682844 0.907380 0.658140
O O6 0.691547 0.813258 0.743486
O O7 0.500000 0.863058 0.000000
O O8 0.708112 0.062433 0.345131
O O9 0.894099 0.074633 0.271420
O O10 0.749120 0.000000 0.512747
O O11 0.908732 0.163567 0.390261
O O12 0.828687 0.164163 0.780052
O O13 0.861081 0.500000 0.775442
O O14 0.000000 0.427088 0.500000
O O15 0.805248 0.407815 0.914521
O O16 0.404985 0.390862 0.892557
O O17 0.500000 0.349932 0.000000
#
# Coordination Sequence:
#
# PCOD8108774 Si02
#       7
#     8   8   8   8   8   8   8
#     4  12  24  43  66  94 128 176 221 267 325 389
#     4  11  24  42  65  98 132 170 215 273 324 384
#     4  10  22  42  66  95 127 171 219 265 326 390
#     4  11  26  42  63  96 132 169 216 269 330 384
#     4  10  21  38  65  96 128 167 215 269 326 387
#     4  11  22  42  63  92 126 167 214 264 323 383
#     4  12  22  40  66  94 128 169 216 270 319 388
#
# _framework density 20.731770000000001
#
# number of rings (size 3 to 8) (size 9 to 14) (size 15 to 20)
#    0.000    1.000    2.857    4.286    2.000    2.857 
#    0.000    2.857    0.000    4.286    0.000    0.000 
#    0.000    0.000    0.000    0.000    0.000    0.000 
#
# Total GULP energy -347188.879577 kJ/mol
# GULP energy per Si atom -12399.602842 kJ/mol
# Density = 2.068458 g / cm^3
# Si number density = 20.731770 Si / 1000 Ang^3
#
#
#
# Elastic Constant Matrix: (Units=GPa)
#
#
# Indices 1 2 3 4 5 6 
#
# 1 128.5771 47.7615 47.4823 0.0000 -15.3059 0.0000
# 2 47.7615 141.1954 62.9558 0.0000 -2.9557 0.0000
# 3 47.4823 62.9558 149.8460 0.0000 1.3815 0.0000
# 4 0.0000 0.0000 0.0000 11.0619 0.0000 -3.1861
# 5 -15.3059 -2.9557 1.3815 0.0000 42.0738 0.0000
# 6 0.0000 0.0000 0.0000 -3.1861 0.0000 29.0570
#
#
#
# Elastic Compliance Matrix: (Units=1/GPa)
#
#
# Indices 1 2 3 4 5 6 
#
# 1 0.009851 -0.002280 -0.002196 0.000000 0.003496 0.000000
# 2 -0.002280 0.009265 -0.003170 0.000000 -0.000075 0.000000
# 3 -0.002196 -0.003170 0.008713 0.000000 -0.001308 0.000000
# 4 0.000000 0.000000 0.000000 0.093349 0.000000 0.010236
# 5 0.003496 -0.000075 -0.001308 0.000000 0.025077 0.000000
# 6 0.000000 0.000000 0.000000 0.010236 0.000000 0.035537
#
#
# Mechanical properties :
#
#
# Convention : Reuss Voigt Hill
#
# Bulk Modulus (GPa) = 79.75302 81.77972 80.76637
# Shear Modulus (GPa) = 24.84298 33.86648 29.35473
#
# Velocity S-wave (km/s) = 3.46541 4.04611 3.76697
# Velocity P-wave (km/s) = 7.38678 7.83328 7.61330
#
# Compressibility (1/GPa) = 0.01253871
#
# Stress axis : x y z
#
# Youngs Moduli (GPa) = 101.50753 107.92945 114.77054
#
# Poissons Ratio (x) = 0.24609 0.25203
# Poissons Ratio (y) = 0.23145 0.36377
# Poissons Ratio (z) = 0.22291 0.34208
#
# Static dielectric constant tensor:
#      x y z
#    x 3.670530 0.000000 -0.234700 
#    y 0.000000 3.861610 0.000000 
#    z -0.234700 0.000000 3.832860 
# 
# 
# High freq. dielectric constant tensor:
#      x y z
#    x 1.824030 0.000000 -0.013720 
#    y 0.000000 1.811560 0.000000 
#    z -0.013720 0.000000 1.816260 
# 
# From -- ./inp_files/80006.got.cif
#   From: 2010.06.25/outbox.cif.g09.slc.cpg/sg12_41_cif.got.tgz:80006.got - 2010.06.28 00:19:55.
