data_PCOD8108905
_publ_section_title
;
Structure prediction by ZEFSAII (Michael W. Deem and Ramdas Pophale) SiO2 
 PCOD8108905
Probable space group: C 2/M
;
_chemical_formula_sum "Si O2"
_cell_formula_units_Z 56
_cell_length_a 15.009026
_cell_length_b 8.606137
_cell_length_c 21.913277
_cell_angle_alpha 90.000000
_cell_angle_beta 100.742047
_cell_angle_gamma 90.000000
_cell_volume 2780.930705
_symmetry_space_group_name_H-M "C 2/M"
_symmetry_group_IT_number 12
_symmetry_cell_setting 'monoclinic'
loop_
_space_group_symop_operation_xyz
x,y,z
-x,y,-z
-x,-y,-z
x,-y,z
1/2+x,1/2+y,z
1/2-x,1/2+y,-z
1/2-x,1/2-y,-z
1/2+x,1/2-y,z
loop_
_atom_site_type_symbol
_atom_site_label
_atom_site_fract_x
_atom_site_fract_y
_atom_site_fract_z
Si Si1 0.278021 0.315843 0.591626
Si Si2 0.101659 0.683804 0.495852
Si Si3 0.230484 0.317839 0.063320
Si Si4 0.306043 0.318097 0.730300
Si Si5 0.477525 0.175070 0.808711
Si Si6 0.456515 0.317512 0.931582
Si Si7 0.823532 0.677832 0.181911
O O1 0.287113 0.500000 0.590696
O O2 0.178242 0.264036 0.554910
O O3 0.362706 0.248285 0.564163
O O4 0.287719 0.246855 0.661132
O O5 0.096184 0.500000 0.490296
O O6 0.000000 0.747924 0.500000
O O7 0.210477 0.500000 0.055570
O O8 0.148682 0.223291 0.082763
O O9 0.312656 0.283653 0.119966
O O10 0.250000 0.250000 0.000000
O O11 0.290882 0.500000 0.724227
O O12 0.407485 0.284379 0.765158
O O13 0.235092 0.249457 0.770285
O O14 0.500525 0.230169 0.880216
O O15 0.571828 0.183951 0.784180
O O16 0.438978 0.000000 0.805451
O O17 0.472844 0.500000 0.926516
O O18 0.500000 0.255105 0.000000
O O19 0.794514 0.500000 0.163723
#
# Coordination Sequence:
#
# PCOD8108905 Si02
#       7
#     8   8   8   8   8   8   8
#     4   9  19  35  56  85 118 157 200 239 291 345
#     4   9  18  34  58  87 120 155 196 243 291 344
#     4  12  24  38  59  85 114 147 190 241 295 356
#     4  10  21  39  60  81 117 162 197 238 295 360
#     4  11  23  38  59  87 114 148 196 246 292 350
#     4  11  23  39  59  83 113 149 189 238 300 358
#     4  10  22  40  60  83 115 152 191 239 299 355
#
# _framework density 20.137143999999999
#
# number of rings (size 3 to 8) (size 9 to 14) (size 15 to 20)
#    0.000    1.714    1.429    3.000    0.000    6.571 
#    0.000    2.857    0.000    0.000    0.000    0.000 
#    0.000    0.000    0.000    0.000    0.000    0.000 
#
# Total GULP energy -347186.318093 kJ/mol
# GULP energy per Si atom -12399.511360 kJ/mol
# Density = 2.009131 g / cm^3
# Si number density = 20.137144 Si / 1000 Ang^3
#
#
#
# Elastic Constant Matrix: (Units=GPa)
#
#
# Indices 1 2 3 4 5 6 
#
# 1 132.3208 13.1422 55.3125 0.0000 -10.3788 0.0000
# 2 13.1422 23.8650 18.7351 0.0000 -6.9233 0.0000
# 3 55.3125 18.7351 154.7794 0.0000 -5.2999 0.0000
# 4 0.0000 0.0000 0.0000 25.6093 0.0000 -0.9152
# 5 -10.3788 -6.9233 -5.2999 0.0000 24.6978 0.0000
# 6 0.0000 0.0000 0.0000 -0.9152 0.0000 24.3049
#
#
#
# Elastic Compliance Matrix: (Units=1/GPa)
#
#
# Indices 1 2 3 4 5 6 
#
# 1 0.009199 -0.001967 -0.002958 0.000000 0.002680 0.000000
# 2 -0.001967 0.050451 -0.004985 0.000000 0.012247 0.000000
# 3 -0.002958 -0.004985 0.008090 0.000000 -0.000904 0.000000
# 4 0.000000 0.000000 0.000000 0.039101 0.000000 0.001472
# 5 0.002680 0.012247 -0.000904 0.000000 0.044854 0.000000
# 6 0.000000 0.000000 0.000000 0.001472 0.000000 0.041199
#
#
# Mechanical properties :
#
#
# Convention : Reuss Voigt Hill
#
# Bulk Modulus (GPa) = 20.86684 53.92719 37.39701
# Shear Modulus (GPa) = 21.86383 29.84075 25.85229
#
# Velocity S-wave (km/s) = 3.29864 3.85369 3.58692
# Velocity P-wave (km/s) = 4.98928 6.82930 5.98048
#
# Compressibility (1/GPa) = 0.04792293
#
# Stress axis : x y z
#
# Youngs Moduli (GPa) = 108.70416 19.82104 123.60667
#
# Poissons Ratio (x) = 0.03898 0.36559
# Poissons Ratio (y) = 0.21378 0.61614
# Poissons Ratio (z) = 0.32151 0.09880
#
# Static dielectric constant tensor:
#      x y z
#    x 3.756520 0.000000 -0.014010 
#    y 0.000000 3.441530 0.000000 
#    z -0.014010 0.000000 3.786190 
# 
# 
# High freq. dielectric constant tensor:
#      x y z
#    x 1.794530 0.000000 -0.003820 
#    y 0.000000 1.774060 0.000000 
#    z -0.003820 0.000000 1.783530 
# 
# From -- ./inp_files/308953.got.cif
#   From: 2010.06.25/outbox.cif.g09.slc.cpg/sg12_155_cif.got.tgz:308953.got - 2010.06.28 00:19:55.
