data_PCOD8108071
_publ_section_title
;
Structure prediction by ZEFSAII (Michael W. Deem and Ramdas Pophale) SiO2 
 PCOD8108071
Probable space group: C 2/M
;
_chemical_formula_sum "Si O2"
_cell_formula_units_Z 48
_cell_length_a 18.009958
_cell_length_b 17.560188
_cell_length_c 14.293045
_cell_angle_alpha 90.000000
_cell_angle_beta 145.311714
_cell_angle_gamma 90.000000
_cell_volume 2572.550608
_symmetry_space_group_name_H-M "C 2/M"
_symmetry_group_IT_number 12
_symmetry_cell_setting 'monoclinic'
loop_
_space_group_symop_operation_xyz
x,y,z
-x,y,-z
-x,-y,-z
x,-y,z
1/2+x,1/2+y,z
1/2-x,1/2+y,-z
1/2-x,1/2-y,-z
1/2+x,1/2-y,z
loop_
_atom_site_type_symbol
_atom_site_label
_atom_site_fract_x
_atom_site_fract_y
_atom_site_fract_z
Si Si1 0.614738 0.414998 0.836197
Si Si2 0.102124 0.783613 0.688341
Si Si3 0.302831 0.000000 0.286550
Si Si4 0.528653 0.000000 0.377231
Si Si5 0.101081 0.712426 0.028249
Si Si6 0.589427 0.390543 0.012269
Si Si7 0.097289 0.355408 0.827694
O O1 0.609169 0.500000 0.787007
O O2 0.552587 0.355049 0.699404
O O3 0.538009 0.414128 0.855792
O O4 0.761922 0.392149 0.013332
O O5 0.105971 0.707153 0.754452
O O6 0.000000 0.770302 0.500000
O O7 0.245311 0.806420 0.795728
O O8 0.434357 0.000000 0.366531
O O9 0.328386 0.000000 0.425546
O O10 0.232224 0.923274 0.180291
O O11 0.508432 0.922269 0.297826
O O12 0.089920 0.801582 0.021933
O O13 0.053344 0.684997 0.877589
O O14 0.000000 0.676405 0.000000
O O15 0.500000 0.427610 0.000000
#
# Coordination Sequence:
#
# PCOD8108071 Si02
#       7
#     8   8   4   4   8   8   8
#     4  11  19  36  59  84 108 148 194 222 269 339
#     4  11  23  37  60  85 114 147 187 236 276 325
#     4  11  21  32  50  90 115 142 167 235 294 331
#     4  11  22  32  57  82 116 139 186 231 284 320
#     4  10  21  38  60  82 109 148 194 227 272 334
#     4  11  19  33  55  84 112 144 181 225 281 337
#     4  11  19  38  59  84 108 149 188 230 271 340
#
# _framework density 18.658525000000001
#
# number of rings (size 3 to 8) (size 9 to 14) (size 15 to 20)
#    0.000    1.167    6.667    1.250    4.667    0.333 
#    0.000    2.917    0.000    0.000    0.000    0.000 
#    0.000    0.000    0.000    0.000    0.000    0.000 
#
# Total GULP energy -297427.284811 kJ/mol
# GULP energy per Si atom -12392.803534 kJ/mol
# Density = 1.861606 g / cm^3
# Si number density = 18.658525 Si / 1000 Ang^3
#
#
#
# Elastic Constant Matrix: (Units=GPa)
#
#
# Indices 1 2 3 4 5 6 
#
# 1 116.1263 26.9954 34.3099 0.0000 -6.1106 0.0000
# 2 26.9954 98.4923 19.6096 0.0000 -8.7517 0.0000
# 3 34.3099 19.6096 73.0094 0.0000 -16.6559 0.0000
# 4 0.0000 0.0000 0.0000 9.1024 0.0000 6.0117
# 5 -6.1106 -8.7517 -16.6559 0.0000 19.4768 0.0000
# 6 0.0000 0.0000 0.0000 6.0117 0.0000 8.8280
#
#
#
# Elastic Compliance Matrix: (Units=1/GPa)
#
#
# Indices 1 2 3 4 5 6 
#
# 1 0.010395 -0.002061 -0.004720 0.000000 -0.001701 0.000000
# 2 -0.002061 0.011271 -0.001306 0.000000 0.003301 0.000000
# 3 -0.004720 -0.001306 0.019622 0.000000 0.014713 0.000000
# 4 0.000000 0.000000 0.000000 0.199655 0.000000 -0.135961
# 5 -0.001701 0.003301 0.014713 0.000000 0.064875 0.000000
# 6 0.000000 0.000000 0.000000 -0.135961 0.000000 0.205862
#
#
# Mechanical properties :
#
#
# Convention : Reuss Voigt Hill
#
# Bulk Modulus (GPa) = 39.81481 49.93976 44.87728
# Shear Modulus (GPa) = 9.32445 21.26230 15.29338
#
# Velocity S-wave (km/s) = 2.23792 3.37938 2.86605
# Velocity P-wave (km/s) = 5.29742 6.48461 5.92085
#
# Compressibility (1/GPa) = 0.02511628
#
# Stress axis : x y z
#
# Youngs Moduli (GPa) = 96.19740 88.72165 50.96334
#
# Poissons Ratio (x) = 0.18282 0.24053
# Poissons Ratio (y) = 0.19823 0.06655
# Poissons Ratio (z) = 0.45402 0.11585
#
# Static dielectric constant tensor:
#      x y z
#    x 3.977610 0.000000 -0.061760 
#    y 0.000000 3.569070 0.000000 
#    z -0.061760 0.000000 3.371970 
# 
# 
# High freq. dielectric constant tensor:
#      x y z
#    x 1.719070 0.000000 -0.013490 
#    y 0.000000 1.736940 0.000000 
#    z -0.013490 0.000000 1.696560 
# 
# From -- ./inp_files/112771.got.cif
#   From: 2010.06.25/outbox.cif.g09.slc.cpg/sg12_57_cif.got.tgz:112771.got - 2010.06.28 00:19:55.
