data_PCOD8108844
_publ_section_title
;
Structure prediction by ZEFSAII (Michael W. Deem and Ramdas Pophale) SiO2 
 PCOD8108844
Probable space group: C 2/M
;
_chemical_formula_sum "Si O2"
_cell_formula_units_Z 40
_cell_length_a 7.530377
_cell_length_b 30.257956
_cell_length_c 10.628185
_cell_angle_alpha 90.000000
_cell_angle_beta 127.733413
_cell_angle_gamma 90.000000
_cell_volume 1915.220330
_symmetry_space_group_name_H-M "C 2/M"
_symmetry_group_IT_number 12
_symmetry_cell_setting 'monoclinic'
loop_
_space_group_symop_operation_xyz
x,y,z
-x,y,-z
-x,-y,-z
x,-y,z
1/2+x,1/2+y,z
1/2-x,1/2+y,-z
1/2-x,1/2-y,-z
1/2+x,1/2-y,z
loop_
_atom_site_type_symbol
_atom_site_label
_atom_site_fract_x
_atom_site_fract_y
_atom_site_fract_z
Si Si1 0.527113 0.276305 0.378699
Si Si2 0.762379 0.897384 0.830880
Si Si3 0.604987 0.550565 0.350600
Si Si4 0.653736 0.949506 0.281042
Si Si5 0.170334 0.199875 0.184324
O O1 0.500000 0.303249 0.500000
O O2 0.332767 0.241068 0.267956
O O3 0.542842 0.307811 0.263528
O O4 0.750000 0.250000 0.500000
O O5 0.776320 0.919167 0.700458
O O6 0.566289 0.919111 0.830097
O O7 0.701805 0.845576 0.791905
O O8 0.000000 0.904378 0.000000
O O9 0.611470 0.500000 0.306477
O O10 0.749776 0.555967 0.538153
O O11 0.346039 0.564681 0.264595
O O12 0.582204 0.000000 0.225338
O O13 0.000000 0.212154 0.000000
#
# Coordination Sequence:
#
# PCOD8108844 Si02
#       5
#     8   8   8   8   8
#     4   9  19  37  60  85 107 140 190 239 277 336
#     4  11  23  36  54  86 119 151 189 232 284 345
#     4   9  19  37  58  82 111 151 198 238 285 337
#     4   9  19  37  59  82 112 152 196 240 286 336
#     4  10  21  39  58  82 118 154 186 227 294 359
#
# _framework density 20.885325000000002
#
# number of rings (size 3 to 8) (size 9 to 14) (size 15 to 20)
#    0.000    2.400    0.000    3.000    0.000    8.800 
#   10.800    2.000    0.000    0.000    0.000    0.000 
#    0.000    0.000    0.000    0.000    0.000    0.000 
#
# Total GULP energy -247874.124657 kJ/mol
# GULP energy per Si atom -12393.706233 kJ/mol
# Density = 2.083779 g / cm^3
# Si number density = 20.885325 Si / 1000 Ang^3
#
#
#
# Elastic Constant Matrix: (Units=GPa)
#
#
# Indices 1 2 3 4 5 6 
#
# 1 71.1468 11.7261 22.3127 0.0000 7.5229 0.0000
# 2 11.7261 62.1443 18.2280 0.0000 15.0014 0.0000
# 3 22.3127 18.2280 75.4937 0.0000 -2.8329 0.0000
# 4 0.0000 0.0000 0.0000 1.9539 0.0000 -8.1992
# 5 7.5229 15.0014 -2.8329 0.0000 35.7838 0.0000
# 6 0.0000 0.0000 0.0000 -8.1992 0.0000 10.7956
#
#
#
# Elastic Compliance Matrix: (Units=1/GPa)
#
#
# Indices 1 2 3 4 5 6 
#
# 1 0.016012 -0.000839 -0.004657 0.000000 -0.003383 0.000000
# 2 -0.000839 0.019711 -0.004829 0.000000 -0.008469 0.000000
# 3 -0.004657 -0.004829 0.015949 0.000000 0.004266 0.000000
# 4 0.000000 0.000000 0.000000 -0.234007 0.000000 -0.177728
# 5 -0.003383 -0.008469 0.004266 0.000000 0.032545 0.000000
# 6 0.000000 0.000000 0.000000 -0.177728 0.000000 -0.042354
#
#
# Mechanical properties :
#
#
# Convention : Reuss Voigt Hill
#
# Bulk Modulus (GPa) = 32.23530 34.81316 33.52423
# Shear Modulus (GPa) = -31.02609 20.14121 -5.44244
#
# Velocity S-wave (km/s) = -3.85846 3.10880 -1.61602
# Velocity P-wave (km/s) = 2.09340 5.43977 3.55027
#
# Compressibility (1/GPa) = 0.03102190
#
# Stress axis : x y z
#
# Youngs Moduli (GPa) = 62.45365 50.73386 62.70151
#
# Poissons Ratio (x) = 0.04255 0.29199
# Poissons Ratio (y) = 0.05238 0.30279
# Poissons Ratio (z) = 0.29084 0.24500
#
# Static dielectric constant tensor:
#      x y z
#    x 4.438600 0.000000 -0.366110 
#    y 0.000000 3.543180 0.000000 
#    z -0.366110 0.000000 3.606940 
# 
# 
# High freq. dielectric constant tensor:
#      x y z
#    x 1.828200 0.000000 -0.001220 
#    y 0.000000 1.792850 0.000000 
#    z -0.001220 0.000000 1.821870 
# 
# From -- ./inp_files/125464.got.cif
#   From: 2010.06.25/outbox.cif.g09.slc.cpg/sg12_63_cif.got.tgz:125464.got - 2010.06.28 00:19:55.
