data_PCOD8108901
_publ_section_title
;
Structure prediction by ZEFSAII (Michael W. Deem and Ramdas Pophale) SiO2 
 PCOD8108901
Probable space group: C 2/M
;
_chemical_formula_sum "Si O2"
_cell_formula_units_Z 64
_cell_length_a 15.072753
_cell_length_b 30.279825
_cell_length_c 11.712044
_cell_angle_alpha 90.000000
_cell_angle_beta 142.496366
_cell_angle_gamma 90.000000
_cell_volume 3254.330539
_symmetry_space_group_name_H-M "C 2/M"
_symmetry_group_IT_number 12
_symmetry_cell_setting 'monoclinic'
loop_
_space_group_symop_operation_xyz
x,y,z
-x,y,-z
-x,-y,-z
x,-y,z
1/2+x,1/2+y,z
1/2-x,1/2+y,-z
1/2-x,1/2-y,-z
1/2+x,1/2-y,z
loop_
_atom_site_type_symbol
_atom_site_label
_atom_site_fract_x
_atom_site_fract_y
_atom_site_fract_z
Si Si1 0.276356 0.760264 0.833137
Si Si2 0.368796 0.949968 0.221080
Si Si3 0.908698 0.710629 0.183583
Si Si4 0.216269 0.125635 0.944027
Si Si5 0.796484 0.449612 0.402941
Si Si6 0.879838 0.877147 0.640961
Si Si7 0.733228 0.789997 0.569728
Si Si8 0.664346 0.349271 0.647439
O O1 0.144143 0.749719 0.785972
O O2 0.287090 0.720897 0.753367
O O3 0.251316 0.803363 0.729339
O O4 0.415577 0.769189 0.059996
O O5 0.304958 0.936360 0.279021
O O6 0.541382 0.944534 0.384085
O O7 0.323432 0.000000 0.147792
O O8 0.300370 0.918424 0.059069
O O9 0.064748 0.694604 0.389023
O O10 0.796067 0.669516 0.072761
O O11 0.221423 0.123100 0.812619
O O12 0.053715 0.122241 0.826886
O O13 0.741461 0.500000 0.361834
O O14 0.685135 0.417913 0.355027
O O15 0.834981 0.830393 0.644556
O O16 0.819791 0.879091 0.449549
O O17 0.750000 0.750000 0.500000
O O18 0.500000 0.334479 0.500000
#
# Coordination Sequence:
#
# PCOD8108901 Si02
#       8
#     8   8   8   8   8   8   8   8
#     4  10  21  39  60  76 110 158 208 239 288 347
#     4   9  19  40  65  87 114 152 188 229 296 366
#     4  10  23  39  59  80 112 162 201 245 292 353
#     4  10  22  39  60  84 114 156 200 239 288 354
#     4   9  20  40  65  88 117 150 186 236 298 358
#     4  11  23  38  58  89 119 150 195 249 292 341
#     4  12  24  37  57  86 119 156 199 252 297 340
#     4   9  18  37  57  76 113 157 194 233 287 344
#
# _framework density 19.666101999999999
#
# number of rings (size 3 to 8) (size 9 to 14) (size 15 to 20)
#    0.000    2.000    1.250    2.625    7.000    1.500 
#    0.000    3.750    0.000    3.750    0.000    0.000 
#    0.000    0.000    0.000    0.000    0.000    0.000 
#
# Total GULP energy -396659.983433 kJ/mol
# GULP energy per Si atom -12395.624482 kJ/mol
# Density = 1.962134 g / cm^3
# Si number density = 19.666102 Si / 1000 Ang^3
#
#
#
# Elastic Constant Matrix: (Units=GPa)
#
#
# Indices 1 2 3 4 5 6 
#
# 1 75.3742 40.4243 29.2276 0.0000 -4.0794 0.0000
# 2 40.4243 98.6813 44.7999 0.0000 -2.6657 0.0000
# 3 29.2276 44.7999 82.5241 0.0000 -11.0990 0.0000
# 4 0.0000 0.0000 0.0000 33.0119 0.0000 0.3511
# 5 -4.0794 -2.6657 -11.0990 0.0000 24.1142 0.0000
# 6 0.0000 0.0000 0.0000 0.3511 0.0000 35.4782
#
#
#
# Elastic Compliance Matrix: (Units=1/GPa)
#
#
# Indices 1 2 3 4 5 6 
#
# 1 0.017593 -0.005854 -0.002920 0.000000 0.000985 0.000000
# 2 -0.005854 0.015487 -0.006648 0.000000 -0.002338 0.000000
# 3 -0.002920 -0.006648 0.017691 0.000000 0.006914 0.000000
# 4 0.000000 0.000000 0.000000 0.030295 0.000000 -0.000300
# 5 0.000985 -0.002338 0.006914 0.000000 0.044560 0.000000
# 6 0.000000 0.000000 0.000000 -0.000300 0.000000 0.028189
#
#
# Mechanical properties :
#
#
# Convention : Reuss Voigt Hill
#
# Bulk Modulus (GPa) = 50.18934 53.94257 52.06595
# Shear Modulus (GPa) = 26.13665 27.99606 27.06636
#
# Velocity S-wave (km/s) = 3.64953 3.77712 3.71387
# Velocity P-wave (km/s) = 6.58292 6.81989 6.70245
#
# Compressibility (1/GPa) = 0.01992455
#
# Stress axis : x y z
#
# Youngs Moduli (GPa) = 56.84219 64.57023 56.52585
#
# Poissons Ratio (x) = 0.37802 0.16506
# Poissons Ratio (y) = 0.33278 0.37581
# Poissons Ratio (z) = 0.16599 0.42930
#
# Static dielectric constant tensor:
#      x y z
#    x 3.605260 0.000000 -0.208010 
#    y 0.000000 3.597660 0.000000 
#    z -0.208010 0.000000 3.866570 
# 
# 
# High freq. dielectric constant tensor:
#      x y z
#    x 1.762130 0.000000 -0.007020 
#    y 0.000000 1.753680 0.000000 
#    z -0.007020 0.000000 1.774390 
# 
# From -- ./inp_files/150300.got.cif
#   From: 2010.06.25/outbox.cif.g09.slc.cpg/sg12_76_cif.got.tgz:150300.got - 2010.06.28 00:19:55.
