data_PCOD8108841
_publ_section_title
;
Structure prediction by ZEFSAII (Michael W. Deem and Ramdas Pophale) SiO2 
 PCOD8108841
Probable space group: C 2/M
;
_chemical_formula_sum "Si O2"
_cell_formula_units_Z 40
_cell_length_a 23.993426
_cell_length_b 12.436897
_cell_length_c 23.236563
_cell_angle_alpha 90.000000
_cell_angle_beta 18.344373
_cell_angle_gamma 90.000000
_cell_volume 2182.283106
_symmetry_space_group_name_H-M "C 2/M"
_symmetry_group_IT_number 12
_symmetry_cell_setting 'monoclinic'
loop_
_space_group_symop_operation_xyz
x,y,z
-x,y,-z
-x,-y,-z
x,-y,z
1/2+x,1/2+y,z
1/2-x,1/2+y,-z
1/2-x,1/2-y,-z
1/2+x,1/2-y,z
loop_
_atom_site_type_symbol
_atom_site_label
_atom_site_fract_x
_atom_site_fract_y
_atom_site_fract_z
Si Si1 0.117516 0.742093 0.714623
Si Si2 0.777804 0.376666 0.085525
Si Si3 0.564171 0.375747 0.653962
Si Si4 0.625615 0.232499 0.331823
Si Si5 0.717226 0.125103 0.350013
O O1 0.293258 0.675654 0.528413
O O2 0.064084 0.820905 0.715808
O O3 0.145792 0.812085 0.743881
O O4 0.961710 0.657415 0.877265
O O5 0.788346 0.500000 0.094672
O O6 0.627573 0.358430 0.185495
O O7 0.741338 0.307179 0.178114
O O8 0.610999 0.500000 0.616495
O O9 0.500000 0.301558 0.500000
O O10 0.751992 0.158241 0.248810
O O11 0.487716 0.155151 0.431909
O O12 0.749980 0.000000 0.327040
#
# Coordination Sequence:
#
# PCOD8108841 Si02
#       5
#     8   8   8   8   8
#     4  11  21  36  61  87 113 147 197 233 277 344
#     4  11  22  38  58  85 118 151 190 233 280 335
#     4  10  21  39  58  81 118 154 184 235 290 329
#     4   8  18  37  58  82 116 151 182 234 279 340
#     4   9  18  37  59  82 114 148 187 234 285 333
#
# _framework density 18.329428
#
# number of rings (size 3 to 8) (size 9 to 14) (size 15 to 20)
#    1.200    0.800    2.000    3.000    0.000    1.200 
#    0.000    8.000    0.000    0.000    0.000    0.000 
#    0.000    0.000    0.000    0.000    0.000    0.000 
#
# Total GULP energy -247843.765801 kJ/mol
# GULP energy per Si atom -12392.188290 kJ/mol
# Density = 1.828771 g / cm^3
# Si number density = 18.329428 Si / 1000 Ang^3
#
#
#
# Elastic Constant Matrix: (Units=GPa)
#
#
# Indices 1 2 3 4 5 6 
#
# 1 71.7765 39.6990 41.1991 0.0024 -8.2246 -0.0028
# 2 39.6990 105.3777 43.6268 0.0110 -8.9192 -0.0033
# 3 41.1991 43.6268 53.5281 -0.0040 -17.3439 0.0019
# 4 0.0024 0.0110 -0.0040 23.9053 -0.0030 1.3318
# 5 -8.2246 -8.9192 -17.3439 -0.0030 17.5056 0.0018
# 6 -0.0028 -0.0033 0.0019 1.3318 0.0018 25.9241
#
#
#
# Elastic Compliance Matrix: (Units=1/GPa)
#
#
# Indices 1 2 3 4 5 6 
#
# 1 0.026571 -0.001523 -0.022705 -0.000007 -0.010787 0.000005
# 2 -0.001523 0.014895 -0.012873 -0.000010 -0.005881 0.000004
# 3 -0.022705 -0.012873 0.060484 0.000024 0.042699 -0.000013
# 4 -0.000007 -0.000010 0.000024 0.041952 0.000023 -0.002155
# 5 -0.010787 -0.005881 0.042699 0.000023 0.091365 -0.000012
# 6 0.000005 0.000004 -0.000013 -0.002155 -0.000012 0.038685
#
#
# Mechanical properties :
#
#
# Convention : Reuss Voigt Hill
#
# Bulk Modulus (GPa) = 36.03825 53.30356 44.67090
# Shear Modulus (GPa) = 13.98982 20.54418 17.26700
#
# Velocity S-wave (km/s) = 2.76568 3.35151 3.07259
# Velocity P-wave (km/s) = 5.46834 6.64235 6.08373
#
# Compressibility (1/GPa) = 0.02774830
#
# Stress axis : x y z
#
# Youngs Moduli (GPa) = 37.63529 67.13529 16.53332
#
# Poissons Ratio (x) = 0.10227 0.37538
# Poissons Ratio (y) = 0.05733 0.21283
# Poissons Ratio (z) = 0.85449 0.86423
#
# Static dielectric constant tensor:
#      x y z
#    x 3.352530 0.000000 -0.105320 
#    y 0.000000 3.240610 0.000010 
#    z -0.105320 0.000010 3.208430 
# 
# 
# High freq. dielectric constant tensor:
#      x y z
#    x 1.717890 0.000000 -0.011280 
#    y 0.000000 1.705270 0.000000 
#    z -0.011280 0.000000 1.698400 
# 
# From -- ./inp_files/349101.got.cif
#   From: 2010.06.25/outbox.cif.g09.slc.cpg/sg12_175_cif.got.tgz:349101.got - 2010.06.28 00:19:55.
