data_PCOD8108406
_publ_section_title
;
Structure prediction by ZEFSAII (Michael W. Deem and Ramdas Pophale) SiO2 
 PCOD8108406
Probable space group: C 2/M
;
_chemical_formula_sum "Si O2"
_cell_formula_units_Z 48
_cell_length_a 28.593591
_cell_length_b 8.824492
_cell_length_c 15.792484
_cell_angle_alpha 90.000000
_cell_angle_beta 142.562881
_cell_angle_gamma 90.000000
_cell_volume 2422.334561
_symmetry_space_group_name_H-M "C 2/M"
_symmetry_group_IT_number 12
_symmetry_cell_setting 'monoclinic'
loop_
_space_group_symop_operation_xyz
x,y,z
-x,y,-z
-x,-y,-z
x,-y,z
1/2+x,1/2+y,z
1/2-x,1/2+y,-z
1/2-x,1/2-y,-z
1/2+x,1/2-y,z
loop_
_atom_site_type_symbol
_atom_site_label
_atom_site_fract_x
_atom_site_fract_y
_atom_site_fract_z
Si Si1 0.644852 0.675342 0.400726
Si Si2 0.689734 0.175153 0.295811
Si Si3 0.568251 0.176597 0.660331
Si Si4 0.726023 0.322033 0.877452
Si Si5 0.482996 0.673786 0.243792
Si Si6 0.655531 0.325783 0.075309
O O1 0.641815 0.500000 0.368130
O O2 0.647834 0.778566 0.322030
O O3 0.718835 0.706662 0.565991
O O4 0.569594 0.721782 0.345200
O O5 0.653523 0.275152 0.169528
O O6 0.672878 0.000000 0.253153
O O7 0.500000 0.221738 0.500000
O O8 0.641090 0.268431 0.730737
O O9 0.547271 0.219457 0.725713
O O10 0.587768 0.000000 0.685509
O O11 0.727138 0.500000 0.890475
O O12 0.783429 0.276334 0.885973
O O13 0.750000 0.250000 0.000000
O O14 0.479582 0.500000 0.269997
O O15 0.429423 0.697837 0.084845
O O16 0.681281 0.500000 0.105472
#
# Coordination Sequence:
#
# PCOD8108406 Si02
#       6
#     8   8   8   8   8   8
#     4   9  20  40  62  86 117 155 201 248 300 362
#     4  10  21  38  61  90 119 155 198 247 305 362
#     4  11  25  42  61  91 125 160 203 252 303 357
#     4  12  24  41  64  89 122 163 203 249 301 359
#     4  10  22  40  62  87 117 160 205 249 300 355
#     4  11  23  39  61  89 121 159 201 249 300 357
#
# _framework density 19.815594999999998
#
# number of rings (size 3 to 8) (size 9 to 14) (size 15 to 20)
#    0.000    1.500    1.667    3.000    2.333    4.000 
#    0.000    3.333    0.000    0.000    0.000    0.000 
#    0.000    0.000    0.000    0.000    0.000    0.000 
#
# Total GULP energy -297758.223553 kJ/mol
# GULP energy per Si atom -12406.592648 kJ/mol
# Density = 1.977049 g / cm^3
# Si number density = 19.815595 Si / 1000 Ang^3
#
#
#
# Elastic Constant Matrix: (Units=GPa)
#
#
# Indices 1 2 3 4 5 6 
#
# 1 47.0317 10.4379 11.8604 0.0000 10.7584 0.0000
# 2 10.4379 94.6357 39.1167 0.0000 2.3639 0.0000
# 3 11.8604 39.1167 86.6125 0.0000 -4.9025 0.0000
# 4 0.0000 0.0000 0.0000 30.7817 0.0000 -1.8506
# 5 10.7584 2.3639 -4.9025 0.0000 35.9529 0.0000
# 6 0.0000 0.0000 0.0000 -1.8506 0.0000 35.0832
#
#
#
# Elastic Compliance Matrix: (Units=1/GPa)
#
#
# Indices 1 2 3 4 5 6 
#
# 1 0.024053 -0.001138 -0.003208 0.000000 -0.007560 0.000000
# 2 -0.001138 0.013146 -0.005856 0.000000 -0.001322 0.000000
# 3 -0.003208 -0.005856 0.014820 0.000000 0.003366 0.000000
# 4 0.000000 0.000000 0.000000 0.032590 0.000000 0.001719
# 5 -0.007560 -0.001322 0.003366 0.000000 0.030622 0.000000
# 6 0.000000 0.000000 0.000000 0.001719 0.000000 0.028594
#
#
# Mechanical properties :
#
#
# Convention : Reuss Voigt Hill
#
# Bulk Modulus (GPa) = 31.63017 39.01222 35.32120
# Shear Modulus (GPa) = 28.60928 31.48787 30.04857
#
# Velocity S-wave (km/s) = 3.80383 3.99061 3.89834
# Velocity P-wave (km/s) = 5.94046 6.40028 6.17465
#
# Compressibility (1/GPa) = 0.03161539
#
# Stress axis : x y z
#
# Youngs Moduli (GPa) = 41.57468 76.06902 67.47556
#
# Poissons Ratio (x) = 0.08659 0.21643
# Poissons Ratio (y) = 0.04732 0.39514
# Poissons Ratio (z) = 0.13335 0.44547
#
# Static dielectric constant tensor:
#      x y z
#    x 3.743450 0.000000 -0.055940 
#    y 0.000000 3.657430 0.000000 
#    z -0.055940 0.000000 4.026790 
# 
# 
# High freq. dielectric constant tensor:
#      x y z
#    x 1.770930 0.000000 0.004040 
#    y 0.000000 1.780340 0.000000 
#    z 0.004040 0.000000 1.782080 
# 
# From -- ./inp_files/244659.got.cif
#   From: 2010.06.25/outbox.cif.g09.slc.cpg/sg12_123_cif.got.tgz:244659.got - 2010.06.28 00:19:55.
