data_PCOD8108998
_publ_section_title
;
Structure prediction by ZEFSAII (Michael W. Deem and Ramdas Pophale) SiO2 
 PCOD8108998
Probable space group: C 2/M
;
_chemical_formula_sum "Si O2"
_cell_formula_units_Z 56
_cell_length_a 21.325081
_cell_length_b 8.515097
_cell_length_c 15.125417
_cell_angle_alpha 90.000000
_cell_angle_beta 92.062571
_cell_angle_gamma 90.000000
_cell_volume 2744.771422
_symmetry_space_group_name_H-M "C 2/M"
_symmetry_group_IT_number 12
_symmetry_cell_setting 'monoclinic'
loop_
_space_group_symop_operation_xyz
x,y,z
-x,y,-z
-x,-y,-z
x,-y,z
1/2+x,1/2+y,z
1/2-x,1/2+y,-z
1/2-x,1/2-y,-z
1/2+x,1/2-y,z
loop_
_atom_site_type_symbol
_atom_site_label
_atom_site_fract_x
_atom_site_fract_y
_atom_site_fract_z
Si Si1 0.814730 0.186057 0.964990
Si Si2 0.469926 0.813979 0.406473
Si Si3 0.440128 0.815410 0.055879
Si Si4 0.331455 0.814668 0.433747
Si Si5 0.707495 0.814593 0.377718
Si Si6 0.502689 0.682916 0.222176
Si Si7 0.865976 0.685180 0.795623
O O1 0.818544 0.269369 0.870301
O O2 0.811051 0.000000 0.954920
O O3 0.750000 0.250000 0.000000
O O4 0.875930 0.230056 0.025403
O O5 0.500000 0.754101 0.500000
O O6 0.398022 0.757296 0.400857
O O7 0.503218 0.738372 0.323846
O O8 0.477919 0.000000 0.399802
O O9 0.451792 0.773617 0.159501
O O10 0.429838 0.000000 0.043480
O O11 0.500000 0.759026 0.000000
O O12 0.320892 0.747846 0.532270
O O13 0.277727 0.750181 0.366405
O O14 0.329096 0.000000 0.436632
O O15 0.663656 0.754495 0.297251
O O16 0.710826 0.000000 0.377734
O O17 0.488303 0.500000 0.215681
O O18 0.570158 0.721450 0.184500
O O19 0.879948 0.500000 0.795781
#
# Coordination Sequence:
#
# PCOD8108998 Si02
#       7
#     8   8   8   8   8   8   8
#     4  12  26  44  67  96 131 166 208 262 324 384
#     4  10  21  39  61  85 121 166 210 258 311 371
#     4  11  23  43  71  96 125 167 215 265 320 385
#     4   9  18  34  56  83 114 154 200 247 301 360
#     4   9  19  35  58  84 114 154 198 245 300 364
#     4  12  25  39  62  95 127 163 208 261 321 384
#     4  11  22  40  63  88 120 160 208 255 309 378
#
# _framework density 20.402428
#
# number of rings (size 3 to 8) (size 9 to 14) (size 15 to 20)
#    0.000    1.429    1.429    4.286    0.000    6.000 
#    0.000    5.714    0.000    0.000    0.000    0.000 
#    0.000    0.000    0.000    0.000    0.000    0.000 
#
# Total GULP energy -347269.585656 kJ/mol
# GULP energy per Si atom -12402.485202 kJ/mol
# Density = 2.035599 g / cm^3
# Si number density = 20.402428 Si / 1000 Ang^3
#
#
#
# Elastic Constant Matrix: (Units=GPa)
#
#
# Indices 1 2 3 4 5 6 
#
# 1 114.8472 19.7716 36.0509 0.0000 4.6259 0.0000
# 2 19.7716 39.4474 22.1730 0.0000 8.3264 0.0000
# 3 36.0509 22.1730 97.7008 0.0000 2.9865 0.0000
# 4 0.0000 0.0000 0.0000 30.6041 0.0000 1.1769
# 5 4.6259 8.3264 2.9865 0.0000 34.1363 0.0000
# 6 0.0000 0.0000 0.0000 1.1769 0.0000 35.2666
#
#
#
# Elastic Compliance Matrix: (Units=1/GPa)
#
#
# Indices 1 2 3 4 5 6 
#
# 1 0.010244 -0.003383 -0.003003 0.000000 -0.000300 0.000000
# 2 -0.003383 0.031701 -0.005739 0.000000 -0.006772 0.000000
# 3 -0.003003 -0.005739 0.012624 0.000000 0.000702 0.000000
# 4 0.000000 0.000000 0.000000 0.032717 0.000000 -0.001092
# 5 -0.000300 -0.006772 0.000702 0.000000 0.030925 0.000000
# 6 0.000000 0.000000 0.000000 -0.001092 0.000000 0.028392
#
#
# Mechanical properties :
#
#
# Convention : Reuss Voigt Hill
#
# Bulk Modulus (GPa) = 32.98245 45.33182 39.15714
# Shear Modulus (GPa) = 27.63008 31.60139 29.61574
#
# Velocity S-wave (km/s) = 3.68401 3.93988 3.81409
# Velocity P-wave (km/s) = 5.85636 6.55469 6.21534
#
# Compressibility (1/GPa) = 0.03031915
#
# Stress axis : x y z
#
# Youngs Moduli (GPa) = 97.61373 31.54450 79.21113
#
# Poissons Ratio (x) = 0.10672 0.23788
# Poissons Ratio (y) = 0.33025 0.45460
# Poissons Ratio (z) = 0.29315 0.18104
#
# Static dielectric constant tensor:
#      x y z
#    x 3.710750 0.000000 -0.165620 
#    y 0.000000 3.574810 0.000000 
#    z -0.165620 0.000000 3.505680 
# 
# 
# High freq. dielectric constant tensor:
#      x y z
#    x 1.804240 0.000000 0.007050 
#    y 0.000000 1.790650 0.000000 
#    z 0.007050 0.000000 1.803110 
# 
# From -- ./inp_files/231053.got.cif
#   From: 2010.06.25/outbox.cif.g09.slc.cpg/sg12_116_cif.got.tgz:231053.got - 2010.06.28 00:19:55.
