data_PCOD8108351
_publ_section_title
;
Structure prediction by ZEFSAII (Michael W. Deem and Ramdas Pophale) SiO2 
 PCOD8108351
Probable space group: C 2/M
;
_chemical_formula_sum "Si O2"
_cell_formula_units_Z 64
_cell_length_a 12.125299
_cell_length_b 14.012697
_cell_length_c 31.402739
_cell_angle_alpha 90.000000
_cell_angle_beta 142.506635
_cell_angle_gamma 90.000000
_cell_volume 3247.605702
_symmetry_space_group_name_H-M "C 2/M"
_symmetry_group_IT_number 12
_symmetry_cell_setting 'monoclinic'
loop_
_space_group_symop_operation_xyz
x,y,z
-x,y,-z
-x,-y,-z
x,-y,z
1/2+x,1/2+y,z
1/2-x,1/2+y,-z
1/2-x,1/2-y,-z
1/2+x,1/2-y,z
loop_
_atom_site_type_symbol
_atom_site_label
_atom_site_fract_x
_atom_site_fract_y
_atom_site_fract_z
Si Si1 0.773191 0.890988 0.862782
Si Si2 0.181489 0.143780 0.974691
Si Si3 0.866444 0.110199 0.659068
Si Si4 0.353076 0.389632 0.555278
Si Si5 0.492858 0.222296 0.448259
Si Si6 0.954709 0.602497 0.125389
Si Si7 0.788616 0.202888 0.192460
Si Si8 0.807454 0.391997 0.924295
O O1 0.674143 0.863032 0.876202
O O2 0.696445 0.818448 0.803206
O O3 0.986061 0.873852 0.935553
O O4 0.733436 0.000000 0.836709
O O5 0.168381 0.113140 0.921235
O O6 0.250000 0.250000 0.000000
O O7 0.332443 0.084075 0.046108
O O8 0.899469 0.119061 0.619038
O O9 0.692417 0.169767 0.620767
O O10 0.035666 0.154415 0.734869
O O11 0.840000 0.000000 0.664147
O O12 0.368631 0.500000 0.544932
O O13 0.493712 0.322432 0.572937
O O14 0.151195 0.351541 0.484070
O O15 0.500000 0.247900 0.500000
O O16 0.044997 0.500000 0.163940
O O17 0.113841 0.678283 0.167359
O O18 0.761924 0.171082 0.135691
O O19 0.825056 0.500000 0.912840
O O20 0.000000 0.352626 0.000000
#
# Coordination Sequence:
#
# PCOD8108351 Si02
#       8
#     8   8   8   8   8   8   8   8
#     4  11  25  42  60  83 113 151 196 251 313 372
#     4  12  21  38  60  84 112 145 191 248 314 376
#     4  10  21  38  61  88 120 160 204 246 290 348
#     4   9  18  35  62  93 128 165 200 239 287 343
#     4   9  18  35  61  95 128 159 198 242 288 344
#     4  11  22  39  62  84 109 145 193 249 305 372
#     4  12  24  40  61  85 118 156 206 250 306 363
#     4  11  21  35  58  86 115 146 193 257 312 357
#
# _framework density 19.706826
#
# number of rings (size 3 to 8) (size 9 to 14) (size 15 to 20)
#    0.000    1.375    2.500    3.750    0.000    3.750 
#    0.000    1.875    0.000    3.000    0.000    0.000 
#    0.000    0.000    0.000    0.000    0.000    0.000 
#
# Total GULP energy -396782.131685 kJ/mol
# GULP energy per Si atom -12399.441615 kJ/mol
# Density = 1.966197 g / cm^3
# Si number density = 19.706826 Si / 1000 Ang^3
#
#
#
# Elastic Constant Matrix: (Units=GPa)
#
#
# Indices 1 2 3 4 5 6 
#
# 1 123.4595 67.3103 46.0991 0.0000 18.9522 0.0000
# 2 67.3103 171.2359 55.9432 0.0000 5.5173 0.0000
# 3 46.0991 55.9432 103.5001 0.0000 15.3190 0.0000
# 4 0.0000 0.0000 0.0000 26.1072 0.0000 -1.6155
# 5 18.9522 5.5173 15.3190 0.0000 17.3185 0.0000
# 6 0.0000 0.0000 0.0000 -1.6155 0.0000 34.0600
#
#
#
# Elastic Compliance Matrix: (Units=1/GPa)
#
#
# Indices 1 2 3 4 5 6 
#
# 1 0.012661 -0.004021 -0.001846 0.000000 -0.010941 0.000000
# 2 -0.004021 0.008395 -0.003454 0.000000 0.004782 0.000000
# 3 -0.001846 -0.003454 0.013680 0.000000 -0.008980 0.000000
# 4 0.000000 0.000000 0.000000 0.038416 0.000000 0.001822
# 5 -0.010941 0.004782 -0.008980 0.000000 0.076135 0.000000
# 6 0.000000 0.000000 0.000000 0.001822 0.000000 0.029446
#
#
# Mechanical properties :
#
#
# Convention : Reuss Voigt Hill
#
# Bulk Modulus (GPa) = 62.13917 81.87785 72.00851
# Shear Modulus (GPa) = 24.66183 30.75333 27.70758
#
# Velocity S-wave (km/s) = 3.54140 3.95466 3.75372
# Velocity P-wave (km/s) = 6.95142 7.90510 7.44355
#
# Compressibility (1/GPa) = 0.01609291
#
# Stress axis : x y z
#
# Youngs Moduli (GPa) = 78.98150 119.11808 73.09702
#
# Poissons Ratio (x) = 0.47899 0.13497
# Poissons Ratio (y) = 0.31760 0.25250
# Poissons Ratio (z) = 0.14583 0.41147
#
# Static dielectric constant tensor:
#      x y z
#    x 3.789150 0.000000 -0.004610 
#    y 0.000000 3.806550 0.000000 
#    z -0.004610 0.000000 3.351400 
# 
# 
# High freq. dielectric constant tensor:
#      x y z
#    x 1.775300 0.000000 0.006150 
#    y 0.000000 1.788760 0.000000 
#    z 0.006150 0.000000 1.730860 
# 
# From -- ./inp_files/374109.got.cif
#   From: 2010.06.25/outbox.cif.g09.slc.cpg/sg12_188_cif.got.tgz:374109.got - 2010.06.28 00:19:55.
