data_PCOD8108168
_publ_section_title
;
Structure prediction by ZEFSAII (Michael W. Deem and Ramdas Pophale) SiO2 
 PCOD8108168
Probable space group: C 2/M
;
_chemical_formula_sum "Si O2"
_cell_formula_units_Z 64
_cell_length_a 18.244601
_cell_length_b 8.700487
_cell_length_c 33.286811
_cell_angle_alpha 90.000000
_cell_angle_beta 143.087720
_cell_angle_gamma 90.000000
_cell_volume 3173.433339
_symmetry_space_group_name_H-M "C 2/M"
_symmetry_group_IT_number 12
_symmetry_cell_setting 'monoclinic'
loop_
_space_group_symop_operation_xyz
x,y,z
-x,y,-z
-x,-y,-z
x,-y,z
1/2+x,1/2+y,z
1/2-x,1/2+y,-z
1/2-x,1/2-y,-z
1/2+x,1/2-y,z
loop_
_atom_site_type_symbol
_atom_site_label
_atom_site_fract_x
_atom_site_fract_y
_atom_site_fract_z
Si Si1 0.649631 0.680310 0.984410
Si Si2 0.895534 0.677246 0.877044
Si Si3 0.687128 0.180754 0.511278
Si Si4 0.744062 0.321757 0.113563
Si Si5 0.225262 0.679752 0.369059
Si Si6 0.527635 0.320983 0.748829
Si Si7 0.839919 0.175073 0.275181
Si Si8 0.408018 0.179182 0.386502
O O1 0.635445 0.500000 0.970908
O O2 0.524644 0.764297 0.917845
O O3 0.750000 0.750000 0.000000
O O4 0.686336 0.719860 0.045759
O O5 0.900534 0.500000 0.892762
O O6 0.857471 0.778956 0.898331
O O7 0.800159 0.697988 0.798992
O O8 0.750000 0.250000 0.500000
O O9 0.757814 0.233739 0.581654
O O10 0.547013 0.234085 0.452752
O O11 0.696801 0.000000 0.511848
O O12 0.777315 0.500000 0.131853
O O13 0.867714 0.225379 0.173807
O O14 0.231208 0.500000 0.379580
O O15 0.328400 0.724229 0.382551
O O16 0.093534 0.726047 0.293859
O O17 0.499767 0.500000 0.741755
O O18 0.572236 0.282122 0.723376
O O19 0.866967 0.290415 0.323063
O O20 0.863406 0.000000 0.299437
O O21 0.392418 0.000000 0.389555
#
# Coordination Sequence:
#
# PCOD8108168 Si02
#       8
#     8   8   8   8   8   8   8   8
#     4  11  24  39  57  83 116 154 194 242 297 352
#     4  10  21  38  61  87 116 153 196 241 290 346
#     4  11  24  42  64  90 120 154 197 245 292 346
#     4  10  21  38  60  87 118 151 193 242 291 346
#     4  12  25  40  61  88 120 158 196 239 293 347
#     4  10  21  39  63  89 118 153 194 240 290 346
#     4   9  20  38  60  87 117 150 190 237 287 341
#     4  11  24  40  60  87 119 156 195 238 289 345
#
# _framework density 20.167432000000002
#
# number of rings (size 3 to 8) (size 9 to 14) (size 15 to 20)
#    0.000    1.500    0.000    5.625    0.000   13.000 
#    0.000    1.250    0.000    0.000    0.000    0.000 
#    0.000    0.000    0.000    0.000    0.000    0.000 
#
# Total GULP energy -397018.020087 kJ/mol
# GULP energy per Si atom -12406.813128 kJ/mol
# Density = 2.012153 g / cm^3
# Si number density = 20.167432 Si / 1000 Ang^3
#
#
#
# Elastic Constant Matrix: (Units=GPa)
#
#
# Indices 1 2 3 4 5 6 
#
# 1 78.8673 31.9792 25.5499 0.0001 32.4034 0.0000
# 2 31.9792 57.6692 35.2913 0.0001 5.7601 0.0002
# 3 25.5499 35.2913 73.3821 0.0001 22.9324 -0.0001
# 4 0.0001 0.0001 0.0001 36.9491 -0.0001 0.3837
# 5 32.4034 5.7601 22.9324 -0.0001 34.1803 0.0001
# 6 0.0000 0.0002 -0.0001 0.3837 0.0001 37.7263
#
#
#
# Elastic Compliance Matrix: (Units=1/GPa)
#
#
# Indices 1 2 3 4 5 6 
#
# 1 0.030466 -0.018781 0.008176 0.000000 -0.031203 0.000000
# 2 -0.018781 0.036786 -0.018700 0.000000 0.024152 0.000000
# 3 0.008176 -0.018700 0.026838 0.000000 -0.022606 0.000000
# 4 0.000000 0.000000 0.000000 0.027067 0.000000 -0.000275
# 5 -0.031203 0.024152 -0.022606 0.000000 0.069934 0.000000
# 6 0.000000 0.000000 0.000000 -0.000275 0.000000 0.026510
#
#
# Mechanical properties :
#
#
# Convention : Reuss Voigt Hill
#
# Bulk Modulus (GPa) = 28.18448 43.95104 36.06776
# Shear Modulus (GPa) = 17.35877 29.57767 23.46822
#
# Velocity S-wave (km/s) = 2.93701 3.83378 3.41496
# Velocity P-wave (km/s) = 5.05044 6.43720 5.78552
#
# Compressibility (1/GPa) = 0.03548052
#
# Stress axis : x y z
#
# Youngs Moduli (GPa) = 32.82331 27.18410 37.25991
#
# Poissons Ratio (x) = 0.51055 -0.30463
# Poissons Ratio (y) = 0.61646 0.69676
# Poissons Ratio (z) = -0.26835 0.50834
#
# Static dielectric constant tensor:
#      x y z
#    x 3.277400 0.000000 0.450950 
#    y 0.000000 3.716030 0.000000 
#    z 0.450950 0.000000 3.506730 
# 
# 
# High freq. dielectric constant tensor:
#      x y z
#    x 1.789270 0.000000 0.009620 
#    y 0.000000 1.798220 0.000000 
#    z 0.009620 0.000000 1.797910 
# 
# From -- ./inp_files/378535.got.cif
#   From: 2010.06.25/outbox.cif.g09.slc.cpg/sg12_190_cif.got.tgz:378535.got - 2010.06.28 00:19:55.
