data_PCOD8108280
_publ_section_title
;
Structure prediction by ZEFSAII (Michael W. Deem and Ramdas Pophale) SiO2 
 PCOD8108280
Probable space group: C 2/M
;
_chemical_formula_sum "Si O2"
_cell_formula_units_Z 56
_cell_length_a 8.889018
_cell_length_b 18.428474
_cell_length_c 18.612141
_cell_angle_alpha 90.000000
_cell_angle_beta 76.184617
_cell_angle_gamma 90.000000
_cell_volume 2960.670809
_symmetry_space_group_name_H-M "C 2/M"
_symmetry_group_IT_number 12
_symmetry_cell_setting 'monoclinic'
loop_
_space_group_symop_operation_xyz
x,y,z
-x,y,-z
-x,-y,-z
x,-y,z
1/2+x,1/2+y,z
1/2-x,1/2+y,-z
1/2-x,1/2-y,-z
1/2+x,1/2-y,z
loop_
_atom_site_type_symbol
_atom_site_label
_atom_site_fract_x
_atom_site_fract_y
_atom_site_fract_z
Si Si1 0.533267 0.171483 0.290665
Si Si2 0.823934 0.828518 0.709336
Si Si3 0.463416 0.584648 0.422872
Si Si4 0.669901 0.413737 0.999999
Si Si5 0.886288 0.415352 0.577129
Si Si6 0.250622 0.582634 0.852418
Si Si7 0.896960 0.582634 0.852417
O O1 0.351678 0.176929 0.296642
O O2 0.605881 0.250001 0.288232
O O3 0.559997 0.128629 0.360406
O O4 0.621912 0.129560 0.217084
O O5 0.920404 0.871373 0.639595
O O6 0.838995 0.870440 0.782917
O O7 0.500000 0.606822 0.500000
O O8 0.494546 0.500000 0.406479
O O9 0.287548 0.606047 0.424903
O O10 0.682828 0.500000 0.999999
O O11 0.712162 0.383571 0.073850
O O12 0.500000 0.385845 0.000000
O O13 0.786010 0.383571 0.926149
O O14 0.901023 0.500000 0.593525
O O15 0.000000 0.393182 0.500000
O O16 0.311212 0.500000 0.838924
O O17 0.068193 0.586038 0.863614
O O18 0.849864 0.500000 0.838923
#
# Coordination Sequence:
#
# PCOD8108280 Si02
#       7
#     8   8   8   8   8   8   8
#     4  11  23  38  56  80 112 148 186 226 272 326
#     4  11  23  38  56  80 112 148 186 226 272 326
#     4  10  21  38  61  87 113 142 179 224 272 323
#     4   9  17  29  50  81 110 135 171 223 274 319
#     4  10  21  38  61  87 113 142 179 224 272 323
#     4   9  18  34  56  79 105 140 180 222 270 325
#     4   9  18  34  56  79 105 140 180 222 270 325
#
# _framework density 18.914632000000001
#
# number of rings (size 3 to 8) (size 9 to 14) (size 15 to 20)
#    0.000    2.143    0.000    3.000    0.000    7.429 
#    0.000    6.429    0.000    0.000    0.000    0.000 
#    0.000    0.000    0.000    0.000    0.000    0.000 
#
# Total GULP energy -347281.124955 kJ/mol
# GULP energy per Si atom -12402.897320 kJ/mol
# Density = 1.887158 g / cm^3
# Si number density = 18.914632 Si / 1000 Ang^3
#
#
#
# Elastic Constant Matrix: (Units=GPa)
#
#
# Indices 1 2 3 4 5 6 
#
# 1 88.1317 47.1940 77.9452 0.0000 2.2085 0.0000
# 2 47.1940 65.4565 86.7965 0.0000 1.8638 0.0000
# 3 77.9452 86.7965 202.4201 0.0000 3.1685 0.0000
# 4 0.0000 0.0000 0.0000 -12.8025 0.0000 -1.3706
# 5 2.2085 1.8638 3.1685 0.0000 28.5929 0.0000
# 6 0.0000 0.0000 0.0000 -1.3706 0.0000 16.2410
#
#
#
# Elastic Compliance Matrix: (Units=1/GPa)
#
#
# Indices 1 2 3 4 5 6 
#
# 1 0.019462 -0.009482 -0.003420 0.000000 -0.000506 0.000000
# 2 -0.009482 0.040044 -0.013513 0.000000 -0.000380 0.000000
# 3 -0.003420 -0.013513 0.012055 0.000000 -0.000191 0.000000
# 4 0.000000 0.000000 0.000000 -0.077411 0.000000 -0.006533
# 5 -0.000506 -0.000380 -0.000191 0.000000 0.035059 0.000000
# 6 0.000000 0.000000 0.000000 -0.006533 0.000000 0.061021
#
#
# Mechanical properties :
#
#
# Convention : Reuss Voigt Hill
#
# Bulk Modulus (GPa) = 53.39398 86.65331 70.02365
# Shear Modulus (GPa) = 33.48861 16.01111 24.74986
#
# Velocity S-wave (km/s) = 4.21231 2.91261 3.62125
# Velocity P-wave (km/s) = 7.20752 7.56461 7.38822
#
# Compressibility (1/GPa) = 0.01872870
#
# Stress axis : x y z
#
# Youngs Moduli (GPa) = 51.38208 24.97271 82.95562
#
# Poissons Ratio (x) = 0.23680 0.28373
# Poissons Ratio (y) = 0.48722 1.12100
# Poissons Ratio (z) = 0.17574 0.33746
#
# Static dielectric constant tensor:
#      x y z
#    x 3.542760 0.000000 0.007690 
#    y 0.000000 3.399170 0.000000 
#    z 0.007690 0.000000 3.705920 
# 
# 
# High freq. dielectric constant tensor:
#      x y z
#    x 1.744260 0.000000 0.000470 
#    y 0.000000 1.714360 0.000000 
#    z 0.000470 0.000000 1.754170 
# 
# From -- ./inp_files/257068.got.cif
#   From: 2010.06.25/outbox.cif.g09.slc.cpg/sg12_129_cif.got.tgz:257068.got - 2010.06.28 00:19:55.
