data_PCOD8108605
_publ_section_title
;
Structure prediction by ZEFSAII (Michael W. Deem and Ramdas Pophale) SiO2 
 PCOD8108605
Probable space group: C 2/M
;
_chemical_formula_sum "Si O2"
_cell_formula_units_Z 56
_cell_length_a 17.792321
_cell_length_b 13.692449
_cell_length_c 20.809862
_cell_angle_alpha 90.000000
_cell_angle_beta 152.699543
_cell_angle_gamma 90.000000
_cell_volume 2325.255203
_symmetry_space_group_name_H-M "C 2/M"
_symmetry_group_IT_number 12
_symmetry_cell_setting 'monoclinic'
loop_
_space_group_symop_operation_xyz
x,y,z
-x,y,-z
-x,-y,-z
x,-y,z
1/2+x,1/2+y,z
1/2-x,1/2+y,-z
1/2-x,1/2-y,-z
1/2+x,1/2-y,z
loop_
_atom_site_type_symbol
_atom_site_label
_atom_site_fract_x
_atom_site_fract_y
_atom_site_fract_z
Si Si1 0.633688 0.706150 0.774300
Si Si2 0.017720 0.109669 0.086032
Si Si3 0.572292 0.796050 0.917255
Si Si4 0.532405 0.111508 0.750864
Si Si5 0.656560 0.890362 0.164616
Si Si6 0.163737 0.389726 0.596860
Si Si7 0.196506 0.889501 0.429431
O O1 0.627506 0.825883 0.767989
O O2 0.687692 0.668013 0.745331
O O3 0.452881 0.672157 0.656464
O O4 0.765985 0.661002 0.925120
O O5 0.208354 0.110053 0.247974
O O6 0.924176 0.179143 0.065982
O O7 0.943871 0.000000 0.034521
O O8 0.000000 0.152086 0.000000
O O9 0.579234 0.823946 0.848592
O O10 0.400623 0.839451 0.813131
O O11 0.338733 0.111801 0.590943
O O12 0.598023 0.000000 0.804624
O O13 0.714304 0.000000 0.222965
O O14 0.500000 0.887302 0.000000
O O15 0.115167 0.500000 0.538978
O O16 0.238320 0.341346 0.588269
O O17 0.000000 0.336620 0.500000
O O18 0.135662 0.000000 0.370442
#
# Coordination Sequence:
#
# PCOD8108605 Si02
#       7
#     8   8   8   8   8   8   8
#     4  11  22  40  65  92 126 171 223 274 331 400
#     4  10  21  38  62  96 136 170 213 278 339 393
#     4  11  23  42  65  95 133 175 225 274 331 400
#     4  11  25  43  64  94 135 178 222 279 338 393
#     4   9  19  37  63  92 122 163 216 271 323 382
#     4   9  19  37  61  89 124 170 218 263 321 394
#     4  10  22  41  65  95 132 174 221 273 334 401
#
# _framework density 24.083376999999999
#
# number of rings (size 3 to 8) (size 9 to 14) (size 15 to 20)
#    0.000    1.857    0.000    3.857    0.000    4.571 
#    0.000    7.857    0.000    3.000    0.000    0.000 
#    0.000    0.000    0.000    0.000    0.000    0.000 
#
# Total GULP energy -347088.899545 kJ/mol
# GULP energy per Si atom -12396.032127 kJ/mol
# Density = 2.402856 g / cm^3
# Si number density = 24.083377 Si / 1000 Ang^3
#
#
#
# Elastic Constant Matrix: (Units=GPa)
#
#
# Indices 1 2 3 4 5 6 
#
# 1 96.6344 43.9899 6.7307 -0.0182 27.1816 -0.0024
# 2 43.9899 148.7537 -3.3195 -0.0083 3.7772 -0.0027
# 3 6.7307 -3.3195 70.1134 -0.0158 3.0895 -0.0054
# 4 -0.0182 -0.0083 -0.0158 15.3889 -0.0125 -1.4044
# 5 27.1816 3.7772 3.0895 -0.0125 38.9844 -0.0050
# 6 -0.0024 -0.0027 -0.0054 -1.4044 -0.0050 31.8721
#
#
#
# Elastic Compliance Matrix: (Units=1/GPa)
#
#
# Indices 1 2 3 4 5 6 
#
# 1 0.015219 -0.004271 -0.001218 0.000006 -0.010101 -0.000001
# 2 -0.004271 0.007946 0.000691 0.000002 0.002153 0.000001
# 3 -0.001218 0.000691 0.014428 0.000014 -0.000361 0.000003
# 4 0.000006 0.000002 0.000014 0.065244 0.000016 0.002875
# 5 -0.010101 0.002153 -0.000361 0.000016 0.032514 0.000005
# 6 -0.000001 0.000001 0.000003 0.002875 0.000005 0.031502
#
#
# Mechanical properties :
#
#
# Convention : Reuss Voigt Hill
#
# Bulk Modulus (GPa) = 35.71772 45.58931 40.65351
# Shear Modulus (GPa) = 26.91333 35.12245 31.01789
#
# Velocity S-wave (km/s) = 3.34654 3.82300 3.59268
# Velocity P-wave (km/s) = 5.45852 6.20145 5.84181
#
# Compressibility (1/GPa) = 0.02799731
#
# Stress axis : x y z
#
# Youngs Moduli (GPa) = 65.70902 125.84368 69.30877
#
# Poissons Ratio (x) = 0.53750 0.08442
# Poissons Ratio (y) = 0.28066 -0.04792
# Poissons Ratio (z) = 0.08004 -0.08700
#
# Static dielectric constant tensor:
#      x y z
#    x 4.391990 -0.000010 0.094750 
#    y -0.000010 4.463830 -0.000020 
#    z 0.094750 -0.000020 4.206130 
# 
# 
# High freq. dielectric constant tensor:
#      x y z
#    x 1.949440 0.000000 0.011740 
#    y 0.000000 1.948840 0.000000 
#    z 0.011740 0.000000 1.947440 
# 
# From -- ./inp_files/316752.got.cif
#   From: 2010.06.25/outbox.cif.g09.slc.cpg/sg12_159_cif.got.tgz:316752.got - 2010.06.28 00:19:55.
