data_PCOD8108585
_publ_section_title
;
Structure prediction by ZEFSAII (Michael W. Deem and Ramdas Pophale) SiO2 
 PCOD8108585
Probable space group: C 2/M
;
_chemical_formula_sum "Si O2"
_cell_formula_units_Z 56
_cell_length_a 30.042047
_cell_length_b 14.871360
_cell_length_c 9.512762
_cell_angle_alpha 90.000000
_cell_angle_beta 143.204412
_cell_angle_gamma 90.000000
_cell_volume 2545.575980
_symmetry_space_group_name_H-M "C 2/M"
_symmetry_group_IT_number 12
_symmetry_cell_setting 'monoclinic'
loop_
_space_group_symop_operation_xyz
x,y,z
-x,y,-z
-x,-y,-z
x,-y,z
1/2+x,1/2+y,z
1/2-x,1/2+y,-z
1/2-x,1/2-y,-z
1/2+x,1/2-y,z
loop_
_atom_site_type_symbol
_atom_site_label
_atom_site_fract_x
_atom_site_fract_y
_atom_site_fract_z
Si Si1 0.107362 0.723207 0.455946
Si Si2 0.313768 0.602397 0.249412
Si Si3 0.276578 0.395777 0.569678
Si Si4 0.072173 0.819776 0.109148
Si Si5 0.329886 0.105162 0.935822
Si Si6 0.255224 0.896841 0.208349
Si Si7 0.968958 0.269014 0.274487
O O1 0.125453 0.826998 0.543849
O O2 0.086713 0.727755 0.236965
O O3 0.173575 0.657837 0.660444
O O4 0.038197 0.684350 0.369623
O O5 0.337079 0.500000 0.349826
O O6 0.230449 0.622845 0.094635
O O7 0.309866 0.613217 0.070469
O O8 0.263627 0.500000 0.549173
O O9 0.354823 0.380712 0.690056
O O10 0.208757 0.357178 0.305079
O O11 0.274318 0.353877 0.720245
O O12 0.060650 0.804281 0.912934
O O13 0.000000 0.866799 0.000000
O O14 0.350111 0.000000 0.977631
O O15 0.405470 0.159281 0.153505
O O16 0.279775 0.000000 0.286929
O O17 0.000000 0.226535 0.500000
#
# Coordination Sequence:
#
# PCOD8108585 Si02
#       7
#     8   8   8   8   8   8   8
#     4  11  22  39  62  88 123 169 203 250 314 370
#     4  10  21  38  62  93 124 160 206 259 311 366
#     4  10  21  39  64  92 120 160 210 259 313 367
#     4  10  23  40  59  87 124 161 206 256 309 375
#     4  10  21  39  64  91 120 160 210 261 308 365
#     4  10  22  36  58  93 126 158 203 254 313 373
#     4  11  25  39  57  91 125 163 209 252 308 375
#
# _framework density 21.998950000000001
#
# number of rings (size 3 to 8) (size 9 to 14) (size 15 to 20)
#    0.000    1.714    1.429    2.143    4.000    2.286 
#    0.000    2.143    0.000    6.000    0.000    0.000 
#    0.000    0.000    0.000    0.000    0.000    0.000 
#
# Total GULP energy -346993.083474 kJ/mol
# GULP energy per Si atom -12392.610124 kJ/mol
# Density = 2.194888 g / cm^3
# Si number density = 21.998950 Si / 1000 Ang^3
#
#
#
# Elastic Constant Matrix: (Units=GPa)
#
#
# Indices 1 2 3 4 5 6 
#
# 1 75.8116 13.0727 33.9177 0.0000 -8.7763 0.0000
# 2 13.0727 43.9567 28.6189 0.0000 6.3498 0.0000
# 3 33.9177 28.6189 104.2902 0.0000 -8.0232 0.0000
# 4 0.0000 0.0000 0.0000 15.1665 0.0000 1.0751
# 5 -8.7763 6.3498 -8.0232 0.0000 56.3850 0.0000
# 6 0.0000 0.0000 0.0000 1.0751 0.0000 19.5893
#
#
#
# Elastic Compliance Matrix: (Units=1/GPa)
#
#
# Indices 1 2 3 4 5 6 
#
# 1 0.015758 -0.002134 -0.004380 0.000000 0.002070 0.000000
# 2 -0.002134 0.029031 -0.007633 0.000000 -0.004688 0.000000
# 3 -0.004380 -0.007633 0.013267 0.000000 0.002066 0.000000
# 4 0.000000 0.000000 0.000000 0.066192 0.000000 -0.003633
# 5 0.002070 -0.004688 0.002066 0.000000 0.018879 0.000000
# 6 0.000000 0.000000 0.000000 -0.003633 0.000000 0.051248
#
#
# Mechanical properties :
#
#
# Convention : Reuss Voigt Hill
#
# Bulk Modulus (GPa) = 33.60032 41.69746 37.64889
# Shear Modulus (GPa) = 21.49712 28.12478 24.81095
#
# Velocity S-wave (km/s) = 3.12939 3.57944 3.36195
# Velocity P-wave (km/s) = 5.32581 6.00655 5.67639
#
# Compressibility (1/GPa) = 0.02976162
#
# Stress axis : x y z
#
# Youngs Moduli (GPa) = 63.46091 34.44571 75.37626
#
# Poissons Ratio (x) = 0.07349 0.33015
# Poissons Ratio (y) = 0.13540 0.57537
# Poissons Ratio (z) = 0.27796 0.26294
#
# Static dielectric constant tensor:
#      x y z
#    x 4.332980 0.000000 -0.339130 
#    y 0.000000 3.526190 0.000000 
#    z -0.339130 0.000000 4.204220 
# 
# 
# High freq. dielectric constant tensor:
#      x y z
#    x 1.879460 0.000000 -0.014640 
#    y 0.000000 1.825920 0.000000 
#    z -0.014640 0.000000 1.878730 
# 
# From -- ./inp_files/106046.got.cif
#   From: 2010.06.25/outbox.cif.g09.slc.cpg/sg12_54_cif.got.tgz:106046.got - 2010.06.28 00:19:55.
