data_PCOD8108972
_publ_section_title
;
Structure prediction by ZEFSAII (Michael W. Deem and Ramdas Pophale) SiO2 
 PCOD8108972
Probable space group: C 2/M
;
_chemical_formula_sum "Si O2"
_cell_formula_units_Z 48
_cell_length_a 26.413906
_cell_length_b 9.016661
_cell_length_c 14.944674
_cell_angle_alpha 90.000000
_cell_angle_beta 41.366255
_cell_angle_gamma 90.000000
_cell_volume 2352.235661
_symmetry_space_group_name_H-M "C 2/M"
_symmetry_group_IT_number 12
_symmetry_cell_setting 'monoclinic'
loop_
_space_group_symop_operation_xyz
x,y,z
-x,y,-z
-x,-y,-z
x,-y,z
1/2+x,1/2+y,z
1/2-x,1/2+y,-z
1/2-x,1/2-y,-z
1/2+x,1/2-y,z
loop_
_atom_site_type_symbol
_atom_site_label
_atom_site_fract_x
_atom_site_fract_y
_atom_site_fract_z
Si Si1 0.087317 0.825705 0.903519
Si Si2 0.834565 0.174390 0.698560
Si Si3 0.589422 0.829065 0.560894
Si Si4 0.172354 0.672405 0.631139
Si Si5 0.161859 0.673215 0.966215
Si Si6 0.581988 0.827577 0.254097
O O1 0.142780 0.743704 0.761309
O O2 0.106878 0.769380 0.976448
O O3 0.101805 0.000000 0.876824
O O4 0.000000 0.783118 0.000000
O O5 0.852872 0.233783 0.575693
O O6 0.749087 0.224053 0.837283
O O7 0.894725 0.239366 0.688866
O O8 0.843115 0.000000 0.687841
O O9 0.609079 0.802788 0.638421
O O10 0.502666 0.775858 0.661696
O O11 0.600161 0.000000 0.519832
O O12 0.188569 0.500000 0.627038
O O13 0.250000 0.750000 0.500000
O O14 0.149411 0.500000 0.960913
O O15 0.140096 0.709668 0.096999
O O16 0.583389 0.000000 0.276429
#
# Coordination Sequence:
#
# PCOD8108972 Si02
#       6
#     8   8   8   8   8   8
#     4  11  24  40  60  89 122 155 195 244 295 348
#     4  11  23  37  57  87 118 148 186 236 291 343
#     4  10  22  39  59  83 112 151 194 234 281 341
#     4  11  23  40  63  89 119 156 198 244 294 349
#     4  10  22  40  61  85 114 152 196 238 286 346
#     4  10  21  39  61  83 111 150 195 237 281 341
#
# _framework density 20.406119
#
# number of rings (size 3 to 8) (size 9 to 14) (size 15 to 20)
#    0.000    1.500    0.000    4.500    0.000   11.333 
#    0.000    0.000    0.000    0.000    0.000    0.000 
#    0.000    0.000    0.000    0.000    0.000    0.000 
#
# Total GULP energy -297787.400907 kJ/mol
# GULP energy per Si atom -12407.808371 kJ/mol
# Density = 2.035967 g / cm^3
# Si number density = 20.406119 Si / 1000 Ang^3
#
#
#
# Elastic Constant Matrix: (Units=GPa)
#
#
# Indices 1 2 3 4 5 6 
#
# 1 71.6975 23.2727 -11.1914 0.0005 -4.6465 -0.0005
# 2 23.2727 63.1912 19.8376 0.0033 -4.0317 -0.0005
# 3 -11.1914 19.8376 79.9066 0.0007 -3.5845 -0.0003
# 4 0.0005 0.0033 0.0007 34.7800 0.0000 0.9035
# 5 -4.6465 -4.0317 -3.5845 0.0000 36.4465 -0.0003
# 6 -0.0005 -0.0005 -0.0003 0.9035 -0.0003 33.5685
#
#
#
# Elastic Compliance Matrix: (Units=1/GPa)
#
#
# Indices 1 2 3 4 5 6 
#
# 1 0.017213 -0.007600 0.004378 0.000000 0.001784 0.000000
# 2 -0.007600 0.020599 -0.006147 -0.000002 0.000705 0.000000
# 3 0.004378 -0.006147 0.014713 0.000000 0.001325 0.000000
# 4 0.000000 -0.000002 0.000000 0.028772 0.000000 -0.000774
# 5 0.001784 0.000705 0.001325 0.000000 0.027873 0.000000
# 6 0.000000 0.000000 0.000000 -0.000774 0.000000 0.029811
#
#
# Mechanical properties :
#
#
# Convention : Reuss Voigt Hill
#
# Bulk Modulus (GPa) = 29.59695 30.95924 30.27810
# Shear Modulus (GPa) = 29.58903 33.15075 31.36989
#
# Velocity S-wave (km/s) = 3.81203 4.03494 3.92507
# Velocity P-wave (km/s) = 5.82330 6.07554 5.95076
#
# Compressibility (1/GPa) = 0.03378726
#
# Stress axis : x y z
#
# Youngs Moduli (GPa) = 58.09446 48.54706 67.96652
#
# Poissons Ratio (x) = 0.36895 -0.29753
# Poissons Ratio (y) = 0.44151 0.41776
# Poissons Ratio (z) = -0.25432 0.29840
#
# Static dielectric constant tensor:
#      x y z
#    x 3.846810 -0.000010 -0.004120 
#    y -0.000010 3.666830 -0.000010 
#    z -0.004120 -0.000010 3.962610 
# 
# 
# High freq. dielectric constant tensor:
#      x y z
#    x 1.810370 0.000000 -0.000720 
#    y 0.000000 1.795390 0.000000 
#    z -0.000720 0.000000 1.811170 
# 
# From -- ./inp_files/244673.got.cif
#   From: 2010.06.25/outbox.cif.g09.slc.cpg/sg12_123_cif.got.tgz:244673.got - 2010.06.28 00:19:55.
