data_PCOD8108701
_publ_section_title
;
Structure prediction by ZEFSAII (Michael W. Deem and Ramdas Pophale) SiO2 
 PCOD8108701
Probable space group: C 2/M
;
_chemical_formula_sum "Si O2"
_cell_formula_units_Z 64
_cell_length_a 19.031084
_cell_length_b 10.992036
_cell_length_c 21.984028
_cell_angle_alpha 90.000000
_cell_angle_beta 134.894830
_cell_angle_gamma 90.000000
_cell_volume 3257.839257
_symmetry_space_group_name_H-M "C 2/M"
_symmetry_group_IT_number 12
_symmetry_cell_setting 'monoclinic'
loop_
_space_group_symop_operation_xyz
x,y,z
-x,y,-z
-x,-y,-z
x,-y,z
1/2+x,1/2+y,z
1/2-x,1/2+y,-z
1/2-x,1/2-y,-z
1/2+x,1/2-y,z
loop_
_atom_site_type_symbol
_atom_site_label
_atom_site_fract_x
_atom_site_fract_y
_atom_site_fract_z
Si Si1 0.557635 0.636848 0.972878
Si Si2 0.246439 0.859353 0.160263
Si Si3 0.403535 0.282276 0.585794
Si Si4 0.977224 0.359507 0.843599
Si Si5 0.440021 0.363239 0.407855
Si Si6 0.225872 0.747981 0.274058
Si Si7 0.954877 0.641440 0.247767
Si Si8 0.752019 0.364791 0.416944
O O1 0.548177 0.500000 0.935934
O O2 0.672287 0.664928 0.058836
O O3 0.500000 0.629787 0.000000
O O4 0.518823 0.752829 0.911855
O O5 0.199634 0.813760 0.194982
O O6 0.351813 0.796194 0.207172
O O7 0.264263 0.000000 0.181613
O O8 0.490912 0.361879 0.609635
O O9 0.453425 0.172268 0.652692
O O10 0.342217 0.363786 0.595530
O O11 0.333372 0.231176 0.489533
O O12 0.007130 0.500000 0.880012
O O13 0.857021 0.356701 0.768250
O O14 0.021171 0.319676 0.805933
O O15 0.500000 0.299850 0.500000
O O16 0.413955 0.500000 0.410398
O O17 0.336990 0.297963 0.333982
O O18 0.218689 0.835692 0.327980
O O19 0.940081 0.500000 0.241545
O O20 0.797342 0.500000 0.445577
#
# Coordination Sequence:
#
# PCOD8108701 Si02
#       8
#     8   8   8   8   8   8   8   8
#     4  10  21  40  65  93 123 160 200 248 309 369
#     4  10  21  38  64  90 119 156 195 244 306 366
#     4  11  21  41  58  83 119 160 201 245 301 354
#     4  11  24  41  63  92 124 162 201 251 308 367
#     4  11  23  39  58  82 117 160 201 249 304 359
#     4  12  21  39  60  90 121 153 201 253 296 359
#     4  10  21  39  62  87 122 158 198 245 300 362
#     4  11  24  37  58  89 119 156 205 253 297 353
#
# _framework density 19.644922999999999
#
# number of rings (size 3 to 8) (size 9 to 14) (size 15 to 20)
#    0.000    1.250    5.000    1.500    0.000    1.250 
#    0.000    0.625    0.000    0.000    0.000    0.000 
#    0.000    0.000    0.000    0.000    0.000    0.000 
#
# Total GULP energy -396588.726540 kJ/mol
# GULP energy per Si atom -12393.397704 kJ/mol
# Density = 1.960021 g / cm^3
# Si number density = 19.644923 Si / 1000 Ang^3
#
#
#
# Elastic Constant Matrix: (Units=GPa)
#
#
# Indices 1 2 3 4 5 6 
#
# 1 76.8083 50.1781 38.2556 0.0000 -5.4625 0.0000
# 2 50.1781 64.8018 35.3759 0.0000 -5.0098 0.0000
# 3 38.2556 35.3759 82.2275 0.0000 -1.2801 0.0000
# 4 0.0000 0.0000 0.0000 28.7845 0.0000 -0.7819
# 5 -5.4625 -5.0098 -1.2801 0.0000 28.2782 0.0000
# 6 0.0000 0.0000 0.0000 -0.7819 0.0000 24.2191
#
#
#
# Elastic Compliance Matrix: (Units=1/GPa)
#
#
# Indices 1 2 3 4 5 6 
#
# 1 0.027811 -0.018749 -0.004844 0.000000 0.001831 0.000000
# 2 -0.018749 0.033098 -0.005486 0.000000 0.001994 0.000000
# 3 -0.004844 -0.005486 0.016757 0.000000 -0.001149 0.000000
# 4 0.000000 0.000000 0.000000 0.034771 0.000000 0.001123
# 5 0.001831 0.001994 -0.001149 0.000000 0.036018 0.000000
# 6 0.000000 0.000000 0.000000 0.001123 0.000000 0.041326
#
#
# Mechanical properties :
#
#
# Convention : Reuss Voigt Hill
#
# Bulk Modulus (GPa) = 51.25840 52.38409 51.82124
# Shear Modulus (GPa) = 19.65085 22.92489 21.28787
#
# Velocity S-wave (km/s) = 3.16619 3.41979 3.29543
# Velocity P-wave (km/s) = 6.28613 6.50512 6.39656
#
# Compressibility (1/GPa) = 0.01950900
#
# Stress axis : x y z
#
# Youngs Moduli (GPa) = 35.95735 30.21304 59.67554
#
# Poissons Ratio (x) = 0.56646 0.28908
# Poissons Ratio (y) = 0.67415 0.32737
# Poissons Ratio (z) = 0.17418 0.16574
#
# Static dielectric constant tensor:
#      x y z
#    x 3.983070 0.000000 0.078760 
#    y 0.000000 3.355860 0.000000 
#    z 0.078760 0.000000 3.669700 
# 
# 
# High freq. dielectric constant tensor:
#      x y z
#    x 1.781360 0.000000 0.007180 
#    y 0.000000 1.748280 0.000000 
#    z 0.007180 0.000000 1.764850 
# 
# From -- ./inp_files/315726.got.cif
#   From: 2010.06.25/outbox.cif.g09.slc.cpg/sg12_158_cif.got.tgz:315726.got - 2010.06.28 00:19:55.
