data_PCOD8108525
_publ_section_title
;
Structure prediction by ZEFSAII (Michael W. Deem and Ramdas Pophale) SiO2 
 PCOD8108525
Probable space group: C 2/M
;
_chemical_formula_sum "Si O2"
_cell_formula_units_Z 48
_cell_length_a 28.100840
_cell_length_b 8.971941
_cell_length_c 10.029997
_cell_angle_alpha 90.000000
_cell_angle_beta 89.686336
_cell_angle_gamma 90.000000
_cell_volume 2528.715708
_symmetry_space_group_name_H-M "C 2/M"
_symmetry_group_IT_number 12
_symmetry_cell_setting 'monoclinic'
loop_
_space_group_symop_operation_xyz
x,y,z
-x,y,-z
-x,-y,-z
x,-y,z
1/2+x,1/2+y,z
1/2-x,1/2+y,-z
1/2-x,1/2-y,-z
1/2+x,1/2-y,z
loop_
_atom_site_type_symbol
_atom_site_label
_atom_site_fract_x
_atom_site_fract_y
_atom_site_fract_z
Si Si1 0.977905 0.672044 0.644334
Si Si2 0.275129 0.828392 0.621556
Si Si3 0.281780 0.672363 0.108924
Si Si4 0.126010 0.675357 0.272564
Si Si5 0.533261 0.670398 0.873268
Si Si6 0.624696 0.823549 0.969687
O O1 0.983645 0.500000 0.689061
O O2 0.921939 0.716353 0.645930
O O3 0.000000 0.699857 0.500000
O O4 0.005181 0.779101 0.743623
O O5 0.250000 0.750000 0.500000
O O6 0.242007 0.804501 0.748673
O O7 0.327725 0.758975 0.651415
O O8 0.280622 0.000000 0.583234
O O9 0.287050 0.500000 0.071702
O O10 0.332775 0.749450 0.112313
O O11 0.250000 0.750000 0.000000
O O12 0.133220 0.500000 0.260402
O O13 0.123166 0.738547 0.121585
O O14 0.549989 0.500000 0.854948
O O15 0.577709 0.778120 0.891549
O O16 0.500000 0.689192 0.000000
O O17 0.630511 0.000000 0.966236
#
# Coordination Sequence:
#
# PCOD8108525 Si02
#       6
#     8   8   8   8   8   8
#     4  10  21  38  62  90 119 158 203 248 298 357
#     4  10  22  40  59  85 121 160 199 245 297 354
#     4  11  22  38  60  89 122 154 198 249 298 355
#     4   9  18  36  59  83 116 154 197 244 295 353
#     4  11  23  38  58  89 124 157 196 247 301 357
#     4  11  21  37  63  89 117 159 203 251 301 348
#
# _framework density 18.981968999999999
#
# number of rings (size 3 to 8) (size 9 to 14) (size 15 to 20)
#    0.000    1.667    3.333    1.500    0.000    3.667 
#    0.000    2.500    0.000    0.000    0.000    0.000 
#    0.000    0.000    0.000    0.000    0.000    0.000 
#
# Total GULP energy -297647.013443 kJ/mol
# GULP energy per Si atom -12401.958893 kJ/mol
# Density = 1.893876 g / cm^3
# Si number density = 18.981969 Si / 1000 Ang^3
#
#
#
# Elastic Constant Matrix: (Units=GPa)
#
#
# Indices 1 2 3 4 5 6 
#
# 1 158.0709 52.4912 59.6613 0.0000 3.6896 0.0000
# 2 52.4912 83.0661 52.6189 0.0000 -2.0189 0.0000
# 3 59.6613 52.6189 93.9319 0.0000 9.6920 0.0000
# 4 0.0000 0.0000 0.0000 37.7092 0.0000 4.1121
# 5 3.6896 -2.0189 9.6920 0.0000 32.3243 0.0000
# 6 0.0000 0.0000 0.0000 4.1121 0.0000 33.5181
#
#
#
# Elastic Compliance Matrix: (Units=1/GPa)
#
#
# Indices 1 2 3 4 5 6 
#
# 1 0.008819 -0.003146 -0.003834 0.000000 -0.000054 0.000000
# 2 -0.003146 0.020420 -0.009916 0.000000 0.004608 0.000000
# 3 -0.003834 -0.009916 0.019250 0.000000 -0.005954 0.000000
# 4 0.000000 0.000000 0.000000 0.026878 0.000000 -0.003298
# 5 -0.000054 0.004608 -0.005954 0.000000 0.033015 0.000000
# 6 0.000000 0.000000 0.000000 -0.003298 0.000000 0.030239
#
#
# Mechanical properties :
#
#
# Convention : Reuss Voigt Hill
#
# Bulk Modulus (GPa) = 68.03760 73.84576 70.94168
# Shear Modulus (GPa) = 28.19865 32.06350 30.13107
#
# Velocity S-wave (km/s) = 3.85846 4.11439 3.98848
# Velocity P-wave (km/s) = 7.46803 7.84592 7.65931
#
# Compressibility (1/GPa) = 0.01469776
#
# Stress axis : x y z
#
# Youngs Moduli (GPa) = 113.38950 48.97150 51.94720
#
# Poissons Ratio (x) = 0.15405 0.19916
# Poissons Ratio (y) = 0.35670 0.51512
# Poissons Ratio (z) = 0.43471 0.48562
#
# Static dielectric constant tensor:
#      x y z
#    x 3.456380 0.000000 0.031440 
#    y 0.000000 3.406630 0.000000 
#    z 0.031440 0.000000 3.204900 
# 
# 
# High freq. dielectric constant tensor:
#      x y z
#    x 1.757200 0.000000 -0.000620 
#    y 0.000000 1.725320 0.000000 
#    z -0.000620 0.000000 1.733490 
# 
# From -- ./inp_files/108632.got.cif
#   From: 2010.06.25/outbox.cif.g09.slc.cpg/sg12_55_cif.got.tgz:108632.got - 2010.06.28 00:19:55.
