data_PCOD8108641
_publ_section_title
;
Structure prediction by ZEFSAII (Michael W. Deem and Ramdas Pophale) SiO2 
 PCOD8108641
Probable space group: C 2/M
;
_chemical_formula_sum "Si O2"
_cell_formula_units_Z 64
_cell_length_a 17.339998
_cell_length_b 15.140190
_cell_length_c 16.183071
_cell_angle_alpha 90.000000
_cell_angle_beta 44.444388
_cell_angle_gamma 90.000000
_cell_volume 2974.909358
_symmetry_space_group_name_H-M "C 2/M"
_symmetry_group_IT_number 12
_symmetry_cell_setting 'monoclinic'
loop_
_space_group_symop_operation_xyz
x,y,z
-x,y,-z
-x,-y,-z
x,-y,z
1/2+x,1/2+y,z
1/2-x,1/2+y,-z
1/2-x,1/2-y,-z
1/2+x,1/2-y,z
loop_
_atom_site_type_symbol
_atom_site_label
_atom_site_fract_x
_atom_site_fract_y
_atom_site_fract_z
Si Si1 0.543153 0.895132 0.300072
Si Si2 0.315163 0.809229 0.515678
Si Si3 0.106994 0.900812 0.068241
Si Si4 0.903022 0.898400 0.323408
Si Si5 0.161039 0.598450 0.038125
Si Si6 0.666993 0.760202 0.316015
Si Si7 0.121056 0.251287 0.938392
Si Si8 0.969979 0.098463 0.617721
O O1 0.418079 0.857796 0.394146
O O2 0.600406 0.872678 0.169267
O O3 0.612427 0.848383 0.319872
O O4 0.541728 0.000000 0.318844
O O5 0.250000 0.750000 0.500000
O O6 0.219598 0.878142 0.614487
O O7 0.355896 0.759276 0.567713
O O8 0.999503 0.855763 0.193104
O O9 0.085801 0.000000 0.051100
O O10 0.207218 0.900801 0.055864
O O11 0.144794 0.841129 0.963996
O O12 0.926597 0.872930 0.402151
O O13 0.923407 0.000000 0.295965
O O14 0.120372 0.500000 0.045151
O O15 0.132730 0.665091 0.988028
O O16 0.796988 0.751034 0.202020
O O17 0.620516 0.674177 0.304456
O O18 0.000000 0.254977 0.000000
O O19 0.000000 0.093398 0.500000
O O20 0.927289 0.000000 0.677756
#
# Coordination Sequence:
#
# PCOD8108641 Si02
#       8
#     8   8   8   8   8   8   8   8
#     4  11  25  45  70  98 135 180 226 274 329 398
#     4  12  26  41  65  95 137 174 216 267 330 398
#     4  10  21  41  67  95 126 167 219 269 321 388
#     4  10  21  38  63  91 123 165 211 264 326 378
#     4  10  23  44  69  97 130 177 226 270 328 400
#     4  12  25  42  66  98 127 174 224 271 328 393
#     4  12  26  40  65  96 136 170 215 274 340 394
#     4  10  21  40  64  92 125 164 219 272 316 378
#
# _framework density 21.513259999999999
#
# number of rings (size 3 to 8) (size 9 to 14) (size 15 to 20)
#    0.000    1.125    1.250    4.875    5.250    3.500 
#    0.000    0.625    0.000    0.000    0.000    0.000 
#    0.000    0.000    0.000    0.000    0.000    0.000 
#
# Total GULP energy -396670.117394 kJ/mol
# GULP energy per Si atom -12395.941169 kJ/mol
# Density = 2.146429 g / cm^3
# Si number density = 21.513260 Si / 1000 Ang^3
#
#
#
# Elastic Constant Matrix: (Units=GPa)
#
#
# Indices 1 2 3 4 5 6 
#
# 1 78.5094 35.0681 14.5982 -0.0001 -11.3011 -0.0001
# 2 35.0681 91.9577 18.2521 0.0000 1.2664 -0.0001
# 3 14.5982 18.2521 108.5375 -0.0001 -19.5588 -0.0002
# 4 -0.0001 0.0000 -0.0001 962.7352 0.0000 1462.9577
# 5 -11.3011 1.2664 -19.5588 0.0000 43.3137 0.0001
# 6 -0.0001 -0.0001 -0.0002 1462.9577 0.0001 2328.6325
#
#
#
# Elastic Compliance Matrix: (Units=1/GPa)
#
#
# Indices 1 2 3 4 5 6 
#
# 1 0.016161 -0.006146 -0.000379 0.000000 0.004225 0.000000
# 2 -0.006146 0.013654 -0.001992 0.000000 -0.002903 0.000000
# 3 -0.000379 -0.001992 0.010442 0.000000 0.004675 0.000000
# 4 0.000000 0.000000 0.000000 0.022917 0.000000 -0.014398
# 5 0.004225 -0.002903 0.004675 0.000000 0.026386 0.000000
# 6 0.000000 0.000000 0.000000 -0.014398 0.000000 0.009475
#
#
# Mechanical properties :
#
#
# Convention : Reuss Voigt Hill
#
# Bulk Modulus (GPa) = 43.06209 46.09349 44.57779
# Shear Modulus (GPa) = 40.38457 681.00867 360.69662
#
# Velocity S-wave (km/s) = 4.33736 17.81124 12.96250
# Velocity P-wave (km/s) = 6.71890 21.08220 15.64613
#
# Compressibility (1/GPa) = 0.02322228
#
# Stress axis : x y z
#
# Youngs Moduli (GPa) = 61.87624 73.23941 95.76912
#
# Poissons Ratio (x) = 0.45014 0.03627
# Poissons Ratio (y) = 0.38030 0.19082
# Poissons Ratio (z) = 0.02343 0.14593
#
# Static dielectric constant tensor:
#      x y z
#    x 4.213860 0.000000 -0.380680 
#    y 0.000000 3.925300 0.000000 
#    z -0.380680 0.000000 4.180020 
# 
# 
# High freq. dielectric constant tensor:
#      x y z
#    x 1.836350 0.000000 -0.004740 
#    y 0.000000 1.856190 0.000000 
#    z -0.004740 0.000000 1.855660 
# 
# From -- ./inp_files/278161.got.cif
#   From: 2010.06.25/outbox.cif.g09.slc.cpg/sg12_140_cif.got.tgz:278161.got - 2010.06.28 00:19:55.
