data_PCOD8108504
_publ_section_title
;
Structure prediction by ZEFSAII (Michael W. Deem and Ramdas Pophale) SiO2 
 PCOD8108504
Probable space group: C 2/M
;
_chemical_formula_sum "Si O2"
_cell_formula_units_Z 56
_cell_length_a 23.970696
_cell_length_b 14.227841
_cell_length_c 12.283357
_cell_angle_alpha 90.000000
_cell_angle_beta 139.977024
_cell_angle_gamma 90.000000
_cell_volume 2694.087419
_symmetry_space_group_name_H-M "C 2/M"
_symmetry_group_IT_number 12
_symmetry_cell_setting 'monoclinic'
loop_
_space_group_symop_operation_xyz
x,y,z
-x,y,-z
-x,-y,-z
x,-y,z
1/2+x,1/2+y,z
1/2-x,1/2+y,-z
1/2-x,1/2-y,-z
1/2+x,1/2-y,z
loop_
_atom_site_type_symbol
_atom_site_label
_atom_site_fract_x
_atom_site_fract_y
_atom_site_fract_z
Si Si1 0.040521 0.387913 0.763759
Si Si2 0.155819 0.394556 0.583944
Si Si3 0.063027 0.736260 0.997649
Si Si4 0.330515 0.773863 0.194256
Si Si5 0.410650 0.602475 0.426992
Si Si6 0.797138 0.820632 0.649082
Si Si7 0.553353 0.391950 0.275696
O O1 0.057140 0.500000 0.780218
O O2 0.071374 0.351192 0.927737
O O3 0.093448 0.331414 0.751619
O O4 0.939670 0.360945 0.596322
O O5 0.148738 0.500000 0.615894
O O6 0.196066 0.333887 0.741086
O O7 0.222922 0.388716 0.584628
O O8 0.026620 0.828728 0.882887
O O9 0.156998 0.761729 0.185828
O O10 0.000000 0.703275 0.000000
O O11 0.356149 0.671580 0.272492
O O12 0.250000 0.750000 0.000000
O O13 0.500000 0.590085 0.500000
O O14 0.364333 0.500000 0.363005
O O15 0.420636 0.641939 0.564640
O O16 0.750000 0.750000 0.500000
O O17 0.866324 0.882345 0.686470
O O18 0.521870 0.500000 0.229925
#
# Coordination Sequence:
#
# PCOD8108504 Si02
#       7
#     8   8   8   8   8   8   8
#     4  11  24  43  65  88 118 159 204 249 301 361
#     4  11  23  39  61  88 120 161 205 249 298 358
#     4  10  21  38  62  89 121 159 200 252 304 355
#     4  12  24  40  62  88 120 155 195 246 299 358
#     4  10  21  38  62  89 118 154 195 243 301 360
#     4  11  22  38  59  87 125 164 203 249 303 364
#     4  10  21  38  62  90 121 161 206 255 310 362
#
# _framework density 20.786259999999999
#
# number of rings (size 3 to 8) (size 9 to 14) (size 15 to 20)
#    0.000    1.286    0.000    7.286    0.000    5.714 
#    0.000    4.286    0.000    0.000    0.000    0.000 
#    0.000    0.000    0.000    0.000    0.000    0.000 
#
# Total GULP energy -347242.663120 kJ/mol
# GULP energy per Si atom -12401.523683 kJ/mol
# Density = 2.073895 g / cm^3
# Si number density = 20.786260 Si / 1000 Ang^3
#
#
#
# Elastic Constant Matrix: (Units=GPa)
#
#
# Indices 1 2 3 4 5 6 
#
# 1 100.6598 32.7690 41.9537 0.0000 -5.6607 0.0000
# 2 32.7690 115.1033 71.9060 0.0000 -7.5456 0.0000
# 3 41.9537 71.9060 154.9673 0.0000 -3.5770 0.0000
# 4 0.0000 0.0000 0.0000 28.3235 0.0000 -5.9326
# 5 -5.6607 -7.5456 -3.5770 0.0000 36.1244 0.0000
# 6 0.0000 0.0000 0.0000 -5.9326 0.0000 35.2669
#
#
#
# Elastic Compliance Matrix: (Units=1/GPa)
#
#
# Indices 1 2 3 4 5 6 
#
# 1 0.011528 -0.001789 -0.002263 0.000000 0.001209 0.000000
# 2 -0.001789 0.012657 -0.005346 0.000000 0.001834 0.000000
# 3 -0.002263 -0.005346 0.009534 0.000000 -0.000527 0.000000
# 4 0.000000 0.000000 0.000000 0.036596 0.000000 0.006156
# 5 0.001209 0.001834 -0.000527 0.000000 0.028202 0.000000
# 6 0.000000 0.000000 0.000000 0.006156 0.000000 0.029391
#
#
# Mechanical properties :
#
#
# Convention : Reuss Voigt Hill
#
# Bulk Modulus (GPa) = 67.01150 73.77642 70.39396
# Shear Modulus (GPa) = 32.96421 34.88307 33.92364
#
# Velocity S-wave (km/s) = 3.98661 4.10100 4.04421
# Velocity P-wave (km/s) = 7.31431 7.61539 7.46637
#
# Compressibility (1/GPa) = 0.01492281
#
# Stress axis : x y z
#
# Youngs Moduli (GPa) = 86.74549 79.00524 104.88535
#
# Poissons Ratio (x) = 0.14134 0.23734
# Poissons Ratio (y) = 0.15519 0.56076
# Poissons Ratio (z) = 0.19630 0.42240
#
# Static dielectric constant tensor:
#      x y z
#    x 4.336380 0.000000 0.045070 
#    y 0.000000 3.859350 0.000000 
#    z 0.045070 0.000000 4.039510 
# 
# 
# High freq. dielectric constant tensor:
#      x y z
#    x 1.823240 0.000000 -0.012860 
#    y 0.000000 1.821070 0.000000 
#    z -0.012860 0.000000 1.814340 
# 
# From -- ./inp_files/183544.got.cif
#   From: 2010.06.25/outbox.cif.g09.slc.cpg/sg12_92_cif.got.tgz:183544.got - 2010.06.28 00:19:55.
