data_PCOD8108363
_publ_section_title
;
Structure prediction by ZEFSAII (Michael W. Deem and Ramdas Pophale) SiO2 
 PCOD8108363
Probable space group: C 2/M
;
_chemical_formula_sum "Si O2"
_cell_formula_units_Z 48
_cell_length_a 27.459994
_cell_length_b 11.036073
_cell_length_c 22.394391
_cell_angle_alpha 90.000000
_cell_angle_beta 161.178229
_cell_angle_gamma 90.000000
_cell_volume 2189.539489
_symmetry_space_group_name_H-M "C 2/M"
_symmetry_group_IT_number 12
_symmetry_cell_setting 'monoclinic'
loop_
_space_group_symop_operation_xyz
x,y,z
-x,y,-z
-x,-y,-z
x,-y,z
1/2+x,1/2+y,z
1/2-x,1/2+y,-z
1/2-x,1/2-y,-z
1/2+x,1/2-y,z
loop_
_atom_site_type_symbol
_atom_site_label
_atom_site_fract_x
_atom_site_fract_y
_atom_site_fract_z
Si Si1 0.160414 0.863313 0.011086
Si Si2 0.462191 0.203526 0.701884
Si Si3 0.812189 0.371565 0.641993
Si Si4 0.442815 0.768617 0.996043
Si Si5 0.874744 0.137973 0.405012
Si Si6 0.999824 0.636043 0.382952
O O1 0.079697 0.834596 0.980260
O O2 0.337882 0.840036 0.224802
O O3 0.123005 0.000000 0.951693
O O4 0.095391 0.789403 0.879788
O O5 0.312410 0.270143 0.505949
O O6 0.414616 0.118537 0.701262
O O7 0.521004 0.130466 0.712856
O O8 0.729741 0.500000 0.554696
O O9 0.920736 0.354175 0.824654
O O10 0.291690 0.848611 0.815466
O O11 0.500000 0.710054 0.000000
O O12 0.000000 0.154782 0.500000
O O13 0.895327 0.249811 0.476043
O O14 0.889589 0.000000 0.449509
O O15 0.059204 0.500000 0.471556
#
# Coordination Sequence:
#
# PCOD8108363 Si02
#       6
#     8   8   8   8   8   8
#     4  10  22  40  62  91 129 168 210 263 318 377
#     4  10  21  38  61  92 124 161 210 259 314 381
#     4  10  21  38  61  88 124 164 206 262 319 375
#     4  11  23  40  62  92 126 165 214 264 316 375
#     4  11  24  43  65  93 128 167 214 264 314 373
#     4  11  23  41  66  94 127 169 213 260 318 380
#
# _framework density 21.922418
#
# number of rings (size 3 to 8) (size 9 to 14) (size 15 to 20)
#    0.000    1.500    1.667    3.000    0.000    5.333 
#    0.000    6.667    0.000    0.000    0.000    0.000 
#    0.000    0.000    0.000    0.000    0.000    0.000 
#
# Total GULP energy -297443.286624 kJ/mol
# GULP energy per Si atom -12393.470276 kJ/mol
# Density = 2.187252 g / cm^3
# Si number density = 21.922418 Si / 1000 Ang^3
#
#
#
# Elastic Constant Matrix: (Units=GPa)
#
#
# Indices 1 2 3 4 5 6 
#
# 1 80.6311 4.7648 5.6931 0.0015 -12.9996 0.0003
# 2 4.7648 127.5623 44.4468 0.0011 -12.1399 0.0009
# 3 5.6931 44.4468 100.5811 0.0047 -11.4995 0.0019
# 4 0.0015 0.0011 0.0047 -17.7993 0.0022 -0.1988
# 5 -12.9996 -12.1399 -11.4995 0.0022 28.8477 0.0009
# 6 0.0003 0.0009 0.0019 -0.1988 0.0009 9.2205
#
#
#
# Elastic Compliance Matrix: (Units=1/GPa)
#
#
# Indices 1 2 3 4 5 6 
#
# 1 0.013376 0.000116 -0.000119 0.000002 0.006029 -0.000001
# 2 0.000116 0.009425 -0.003889 0.000000 0.002468 0.000000
# 3 -0.000119 -0.003889 0.012022 0.000003 0.003102 -0.000002
# 4 0.000002 0.000000 0.000003 -0.056168 0.000006 -0.001211
# 5 0.006029 0.002468 0.003102 0.000006 0.039657 -0.000005
# 6 -0.000001 0.000000 -0.000002 -0.001211 -0.000005 0.108428
#
#
# Mechanical properties :
#
#
# Convention : Reuss Voigt Hill
#
# Bulk Modulus (GPa) = 36.98533 46.50931 41.74732
# Shear Modulus (GPa) = 34.83411 20.97843 27.90627
#
# Velocity S-wave (km/s) = 3.99052 3.09680 3.57172
# Velocity P-wave (km/s) = 6.17575 5.83510 6.00784
#
# Compressibility (1/GPa) = 0.02703775
#
# Stress axis : x y z
#
# Youngs Moduli (GPa) = 74.76251 106.10059 83.17875
#
# Poissons Ratio (x) = -0.01226 0.00989
# Poissons Ratio (y) = -0.00864 0.32351
# Poissons Ratio (z) = 0.00889 0.41266
#
# Static dielectric constant tensor:
#      x y z
#    x 4.090500 0.000000 0.056070 
#    y 0.000000 3.859700 0.000000 
#    z 0.056070 0.000000 3.899110 
# 
# 
# High freq. dielectric constant tensor:
#      x y z
#    x 1.872840 0.000000 0.003880 
#    y 0.000000 1.854700 0.000000 
#    z 0.003880 0.000000 1.859380 
# 
# From -- ./inp_files/327957.got.cif
#   From: 2010.06.25/outbox.cif.g09.slc.cpg/sg12_164_cif.got.tgz:327957.got - 2010.06.28 00:19:55.
