data_PCOD8108870
_publ_section_title
;
Structure prediction by ZEFSAII (Michael W. Deem and Ramdas Pophale) SiO2 
 PCOD8108870
Probable space group: C 2/M
;
_chemical_formula_sum "Si O2"
_cell_formula_units_Z 56
_cell_length_a 14.987357
_cell_length_b 8.827449
_cell_length_c 24.132347
_cell_angle_alpha 90.000000
_cell_angle_beta 63.081696
_cell_angle_gamma 90.000000
_cell_volume 2846.791630
_symmetry_space_group_name_H-M "C 2/M"
_symmetry_group_IT_number 12
_symmetry_cell_setting 'monoclinic'
loop_
_space_group_symop_operation_xyz
x,y,z
-x,y,-z
-x,-y,-z
x,-y,z
1/2+x,1/2+y,z
1/2-x,1/2+y,-z
1/2-x,1/2-y,-z
1/2+x,1/2-y,z
loop_
_atom_site_type_symbol
_atom_site_label
_atom_site_fract_x
_atom_site_fract_y
_atom_site_fract_z
Si Si1 0.892952 0.678802 0.505315
Si Si2 0.657667 0.828332 0.819422
Si Si3 0.311946 0.178682 0.409130
Si Si4 0.008925 0.824634 0.933327
Si Si5 0.565847 0.820981 0.730646
Si Si6 0.640150 0.671382 0.187680
Si Si7 0.823698 0.677697 0.934990
O O1 0.889103 0.500000 0.514314
O O2 0.798401 0.748667 0.564236
O O3 0.876321 0.725171 0.445527
O O4 0.000000 0.739377 0.500000
O O5 0.617582 0.718134 0.879407
O O6 0.622983 0.766622 0.769659
O O7 0.777743 0.824172 0.786735
O O8 0.619117 0.000000 0.840324
O O9 0.374273 0.240319 0.339293
O O10 0.296432 0.000000 0.411405
O O11 0.936503 0.714315 0.920035
O O12 0.983206 0.000000 0.929777
O O13 0.000000 0.785205 0.000000
O O14 0.455378 0.754548 0.761269
O O15 0.556585 0.000000 0.730780
O O16 0.611913 0.500000 0.178824
O O17 0.692015 0.752838 0.120961
O O18 0.803245 0.500000 0.938427
O O19 0.750000 0.750000 0.000000
#
# Coordination Sequence:
#
# PCOD8108870 Si02
#       7
#     8   8   8   8   8   8   8
#     4   9  18  34  56  84 119 155 195 242 290 338
#     4  10  22  39  58  81 112 150 189 236 293 352
#     4   9  19  35  56  83 116 155 198 240 287 345
#     4  11  23  38  58  85 113 143 187 238 290 351
#     4  10  21  39  59  82 116 157 195 238 296 353
#     4  11  23  39  59  85 114 148 193 241 292 350
#     4  12  24  39  59  83 113 148 188 238 296 352
#
# _framework density 19.671268000000001
#
# number of rings (size 3 to 8) (size 9 to 14) (size 15 to 20)
#    0.000    1.714    1.429    3.000    0.000    6.571 
#    0.000    0.000    0.000    0.000    0.000    0.000 
#    0.000    0.000    0.000    0.000    0.000    0.000 
#
# Total GULP energy -347203.122076 kJ/mol
# GULP energy per Si atom -12400.111503 kJ/mol
# Density = 1.962650 g / cm^3
# Si number density = 19.671268 Si / 1000 Ang^3
#
#
#
# Elastic Constant Matrix: (Units=GPa)
#
#
# Indices 1 2 3 4 5 6 
#
# 1 129.8318 16.6880 57.2373 0.0000 -8.9769 0.0000
# 2 16.6880 37.6191 34.9365 0.0000 -0.5771 0.0000
# 3 57.2373 34.9365 159.8948 0.0000 -11.3178 0.0000
# 4 0.0000 0.0000 0.0000 26.5387 0.0000 -8.3499
# 5 -8.9769 -0.5771 -11.3178 0.0000 25.6952 0.0000
# 6 0.0000 0.0000 0.0000 -8.3499 0.0000 30.8924
#
#
#
# Elastic Compliance Matrix: (Units=1/GPa)
#
#
# Indices 1 2 3 4 5 6 
#
# 1 0.009287 -0.001418 -0.002877 0.000000 0.001946 0.000000
# 2 -0.001418 0.033727 -0.007063 0.000000 -0.002849 0.000000
# 3 -0.002877 -0.007063 0.009026 0.000000 0.002812 0.000000
# 4 0.000000 0.000000 0.000000 0.041183 0.000000 0.011131
# 5 0.001946 -0.002849 0.002812 0.000000 0.040772 0.000000
# 6 0.000000 0.000000 0.000000 0.011131 0.000000 0.035379
#
#
# Mechanical properties :
#
#
# Convention : Reuss Voigt Hill
#
# Bulk Modulus (GPa) = 34.10180 60.56327 47.33254
# Shear Modulus (GPa) = 24.76877 31.19085 27.97981
#
# Velocity S-wave (km/s) = 3.55228 3.98628 3.77552
# Velocity P-wave (km/s) = 5.84794 7.21400 6.56659
#
# Compressibility (1/GPa) = 0.02932396
#
# Stress axis : x y z
#
# Youngs Moduli (GPa) = 107.67224 29.64958 110.78687
#
# Poissons Ratio (x) = 0.04205 0.31874
# Poissons Ratio (y) = 0.15271 0.78252
# Poissons Ratio (z) = 0.30977 0.20942
#
# Static dielectric constant tensor:
#      x y z
#    x 3.789110 0.000000 0.005440 
#    y 0.000000 3.515440 0.000000 
#    z 0.005440 0.000000 3.618180 
# 
# 
# High freq. dielectric constant tensor:
#      x y z
#    x 1.776850 0.000000 -0.001720 
#    y 0.000000 1.762460 0.000000 
#    z -0.001720 0.000000 1.762280 
# 
# From -- ./inp_files/308935.got.cif
#   From: 2010.06.25/outbox.cif.g09.slc.cpg/sg12_155_cif.got.tgz:308935.got - 2010.06.28 00:19:55.
