data_PCOD8108111
_publ_section_title
;
Structure prediction by ZEFSAII (Michael W. Deem and Ramdas Pophale) SiO2 
 PCOD8108111
Probable space group: C 2/M
;
_chemical_formula_sum "Si O2"
_cell_formula_units_Z 48
_cell_length_a 31.888097
_cell_length_b 8.699319
_cell_length_c 15.927664
_cell_angle_alpha 90.000000
_cell_angle_beta 33.006265
_cell_angle_gamma 90.000000
_cell_volume 2406.843351
_symmetry_space_group_name_H-M "C 2/M"
_symmetry_group_IT_number 12
_symmetry_cell_setting 'monoclinic'
loop_
_space_group_symop_operation_xyz
x,y,z
-x,y,-z
-x,-y,-z
x,-y,z
1/2+x,1/2+y,z
1/2-x,1/2+y,-z
1/2-x,1/2-y,-z
1/2+x,1/2-y,z
loop_
_atom_site_type_symbol
_atom_site_label
_atom_site_fract_x
_atom_site_fract_y
_atom_site_fract_z
Si Si1 0.812194 0.680162 0.457046
Si Si2 0.051610 0.319823 0.301988
Si Si3 0.602880 0.319248 0.384418
Si Si4 0.396685 0.676831 0.951102
Si Si5 0.725908 0.178716 0.293522
Si Si6 0.528670 0.320949 0.860103
O O1 0.800330 0.500000 0.475346
O O2 0.750000 0.750000 0.500000
O O3 0.798104 0.741462 0.574872
O O4 0.897159 0.722054 0.285542
O O5 0.037043 0.500000 0.334190
O O6 0.102131 0.263545 0.295641
O O7 0.097487 0.282452 0.140509
O O8 0.969219 0.235218 0.438398
O O9 0.597733 0.500000 0.378600
O O10 0.681552 0.276595 0.298298
O O11 0.404341 0.500000 0.910545
O O12 0.462611 0.723247 0.905561
O O13 0.316175 0.708541 0.131446
O O14 0.704579 0.000000 0.318181
O O15 0.550454 0.500000 0.819592
O O16 0.500000 0.274132 0.000000
#
# Coordination Sequence:
#
# PCOD8108111 Si02
#       6
#     8   8   8   8   8   8
#     4  11  23  39  61  88 118 153 193 238 287 340
#     4  11  22  38  60  85 116 152 192 239 290 343
#     4  11  22  38  61  87 115 150 194 239 287 344
#     4  10  21  38  60  85 116 153 193 237 285 342
#     4  10  22  40  60  85 118 154 192 236 288 342
#     4  10  21  39  62  87 117 154 193 235 288 344
#
# _framework density 19.943133
#
# number of rings (size 3 to 8) (size 9 to 14) (size 15 to 20)
#    0.000    1.500    0.000    6.500    0.000    9.000 
#    0.000    1.667    0.000    0.000    0.000    0.000 
#    0.000    0.000    0.000    0.000    0.000    0.000 
#
# Total GULP energy -297762.019286 kJ/mol
# GULP energy per Si atom -12406.750804 kJ/mol
# Density = 1.989774 g / cm^3
# Si number density = 19.943133 Si / 1000 Ang^3
#
#
#
# Elastic Constant Matrix: (Units=GPa)
#
#
# Indices 1 2 3 4 5 6 
#
# 1 133.9797 33.4594 59.2070 0.0000 -5.5059 0.0000
# 2 33.4594 64.0025 26.1665 -0.0001 -0.1370 -0.0001
# 3 59.2070 26.1665 109.2614 0.0001 6.3881 0.0000
# 4 0.0000 -0.0001 0.0001 30.3036 0.0000 -3.0784
# 5 -5.5059 -0.1370 6.3881 0.0000 41.4764 0.0000
# 6 0.0000 -0.0001 0.0000 -3.0784 0.0000 32.3670
#
#
#
# Elastic Compliance Matrix: (Units=1/GPa)
#
#
# Indices 1 2 3 4 5 6 
#
# 1 0.010668 -0.003499 -0.005071 0.000000 0.002186 0.000000
# 2 -0.003499 0.018488 -0.002531 0.000000 -0.000014 0.000000
# 3 -0.005071 -0.002531 0.012660 0.000000 -0.002631 0.000000
# 4 0.000000 0.000000 0.000000 0.033321 0.000000 0.003169
# 5 0.002186 -0.000014 -0.002631 0.000000 0.024805 0.000000
# 6 0.000000 0.000000 0.000000 0.003169 0.000000 0.031197
#
#
# Mechanical properties :
#
#
# Convention : Reuss Voigt Hill
#
# Bulk Modulus (GPa) = 50.98090 60.54550 55.76320
# Shear Modulus (GPa) = 31.27330 33.39010 32.33170
#
# Velocity S-wave (km/s) = 3.96425 4.09622 4.03077
# Velocity P-wave (km/s) = 6.82439 7.26615 7.04873
#
# Compressibility (1/GPa) = 0.01961519
#
# Stress axis : x y z
#
# Youngs Moduli (GPa) = 93.73490 54.08791 78.98897
#
# Poissons Ratio (x) = 0.18928 0.40053
# Poissons Ratio (y) = 0.32802 0.19989
# Poissons Ratio (z) = 0.47531 0.13687
#
# Static dielectric constant tensor:
#      x y z
#    x 3.721690 0.000000 0.063810 
#    y 0.000000 3.617480 0.000000 
#    z 0.063810 0.000000 3.864090 
# 
# 
# High freq. dielectric constant tensor:
#      x y z
#    x 1.792890 0.000000 0.002620 
#    y 0.000000 1.776460 0.000000 
#    z 0.002620 0.000000 1.783110 
# 
# From -- ./inp_files/244760.got.cif
#   From: 2010.06.25/outbox.cif.g09.slc.cpg/sg12_123_cif.got.tgz:244760.got - 2010.06.28 00:19:55.
