data_PCOD8108039
_publ_section_title
;
Structure prediction by ZEFSAII (Michael W. Deem and Ramdas Pophale) SiO2 
 PCOD8108039
Probable space group: C 2/M
;
_chemical_formula_sum "Si O2"
_cell_formula_units_Z 64
_cell_length_a 20.697846
_cell_length_b 30.681669
_cell_length_c 9.036730
_cell_angle_alpha 90.000000
_cell_angle_beta 35.178441
_cell_angle_gamma 90.000000
_cell_volume 3306.222000
_symmetry_space_group_name_H-M "C 2/M"
_symmetry_group_IT_number 12
_symmetry_cell_setting 'monoclinic'
loop_
_space_group_symop_operation_xyz
x,y,z
-x,y,-z
-x,-y,-z
x,-y,z
1/2+x,1/2+y,z
1/2-x,1/2+y,-z
1/2-x,1/2-y,-z
1/2+x,1/2-y,z
loop_
_atom_site_type_symbol
_atom_site_label
_atom_site_fract_x
_atom_site_fract_y
_atom_site_fract_z
Si Si1 0.909769 0.757611 0.780163
Si Si2 0.079785 0.951392 0.476993
Si Si3 0.725319 0.311572 0.191672
Si Si4 0.941438 0.909749 0.954606
Si Si5 0.013770 0.450499 0.140574
Si Si6 0.221726 0.549894 0.262763
Si Si7 0.974805 0.180903 0.222182
Si Si8 0.299116 0.906573 0.016538
O O1 0.858255 0.797742 0.782955
O O2 0.000000 0.734041 0.500000
O O3 0.969440 0.776991 0.811205
O O4 0.819480 0.725690 0.022519
O O5 0.000000 0.930908 0.500000
O O6 0.005103 0.950522 0.762821
O O7 0.117000 0.000000 0.365051
O O8 0.187794 0.922568 0.307131
O O9 0.656764 0.318200 0.475940
O O10 0.792941 0.354722 0.017978
O O11 0.966392 0.863549 0.826693
O O12 0.810060 0.921773 0.194184
O O13 0.000000 0.903916 0.000000
O O14 0.061654 0.500000 0.050498
O O15 0.891902 0.449180 0.436499
O O16 0.093960 0.419931 0.086626
O O17 0.000000 0.432486 0.000000
O O18 0.263409 0.500000 0.162848
O O19 0.199009 0.571540 0.147429
O O20 0.000000 0.185055 0.000000
#
# Coordination Sequence:
#
# PCOD8108039 Si02
#       8
#     8   8   8   8   8   8   8   8
#     4   9  20  38  61  87 116 149 191 241 297 366
#     4  11  22  35  56  90 121 152 197 245 293 350
#     4  10  21  38  61  88 116 150 194 245 297 356
#     4  11  23  37  58  89 123 157 193 242 299 356
#     4  10  24  42  58  79 113 161 207 250 298 347
#     4  11  23  39  58  84 117 157 206 248 292 353
#     4  10  21  38  59  87 121 155 191 236 304 365
#     4  12  22  38  62  85 117 156 199 250 296 347
#
# _framework density 19.357441000000001
#
# number of rings (size 3 to 8) (size 9 to 14) (size 15 to 20)
#    0.000    1.500    2.500    2.625    1.750    3.500 
#    0.000    1.875    0.000    0.000    0.000    0.000 
#    0.000    0.000    0.000    0.000    0.000    0.000 
#
# Total GULP energy -396557.276078 kJ/mol
# GULP energy per Si atom -12392.414877 kJ/mol
# Density = 1.931338 g / cm^3
# Si number density = 19.357441 Si / 1000 Ang^3
#
#
#
# Elastic Constant Matrix: (Units=GPa)
#
#
# Indices 1 2 3 4 5 6 
#
# 1 97.1723 44.0495 42.5435 0.0000 -5.0075 0.0000
# 2 44.0495 97.8018 48.8070 0.0000 -0.4973 0.0000
# 3 42.5435 48.8070 106.2479 0.0000 1.2763 0.0000
# 4 0.0000 0.0000 0.0000 26.5778 0.0000 -4.4629
# 5 -5.0075 -0.4973 1.2763 0.0000 26.0347 0.0000
# 6 0.0000 0.0000 0.0000 -4.4629 0.0000 24.1157
#
#
#
# Elastic Compliance Matrix: (Units=1/GPa)
#
#
# Indices 1 2 3 4 5 6 
#
# 1 0.014056 -0.004529 -0.003581 0.000000 0.002793 0.000000
# 2 -0.004529 0.014733 -0.004950 0.000000 -0.000347 0.000000
# 3 -0.003581 -0.004950 0.013137 0.000000 -0.001427 0.000000
# 4 0.000000 0.000000 0.000000 0.038832 0.000000 0.007186
# 5 0.002793 -0.000347 -0.001427 0.000000 0.039011 0.000000
# 6 0.000000 0.000000 0.000000 0.007186 0.000000 0.042797
#
#
# Mechanical properties :
#
#
# Convention : Reuss Voigt Hill
#
# Bulk Modulus (GPa) = 63.27178 63.55801 63.41489
# Shear Modulus (GPa) = 25.77904 26.40043 26.08974
#
# Velocity S-wave (km/s) = 3.65326 3.69703 3.67521
# Velocity P-wave (km/s) = 7.11000 7.15047 7.13026
#
# Compressibility (1/GPa) = 0.01580484
#
# Stress axis : x y z
#
# Youngs Moduli (GPa) = 71.14377 67.87295 76.12068
#
# Poissons Ratio (x) = 0.30743 0.27260
# Poissons Ratio (y) = 0.32224 0.37682
# Poissons Ratio (z) = 0.25478 0.33599
#
# Static dielectric constant tensor:
#      x y z
#    x 3.333760 0.000000 -0.050800 
#    y 0.000000 3.559320 0.000000 
#    z -0.050800 0.000000 3.604640 
# 
# 
# High freq. dielectric constant tensor:
#      x y z
#    x 1.743860 0.000000 -0.001270 
#    y 0.000000 1.749000 0.000000 
#    z -0.001270 0.000000 1.767130 
# 
# From -- ./inp_files/80711.got.cif
#   From: 2010.06.25/outbox.cif.g09.slc.cpg/sg12_41_cif.got.tgz:80711.got - 2010.06.28 00:19:55.
