data_PCOD8108898
_publ_section_title
;
Structure prediction by ZEFSAII (Michael W. Deem and Ramdas Pophale) SiO2 
 PCOD8108898
Probable space group: C 2/M
;
_chemical_formula_sum "Si O2"
_cell_formula_units_Z 56
_cell_length_a 9.958812
_cell_length_b 23.955318
_cell_length_c 15.736793
_cell_angle_alpha 90.000000
_cell_angle_beta 49.961905
_cell_angle_gamma 90.000000
_cell_volume 2874.333888
_symmetry_space_group_name_H-M "C 2/M"
_symmetry_group_IT_number 12
_symmetry_cell_setting 'monoclinic'
loop_
_space_group_symop_operation_xyz
x,y,z
-x,y,-z
-x,-y,-z
x,-y,z
1/2+x,1/2+y,z
1/2-x,1/2+y,-z
1/2-x,1/2-y,-z
1/2+x,1/2-y,z
loop_
_atom_site_type_symbol
_atom_site_label
_atom_site_fract_x
_atom_site_fract_y
_atom_site_fract_z
Si Si1 0.639904 0.723101 0.621753
Si Si2 0.488273 0.388686 0.736131
Si Si3 0.046705 0.000000 0.623149
Si Si4 0.574319 0.062656 0.186278
Si Si5 0.596940 0.857460 0.873507
Si Si6 0.118070 0.129848 0.870376
Si Si7 0.224474 0.500000 0.627038
Si Si8 0.254571 0.757051 0.757996
O O1 0.750000 0.750000 0.500000
O O2 0.588934 0.657327 0.636315
O O3 0.454097 0.753537 0.708129
O O4 0.758593 0.729805 0.656528
O O5 0.563455 0.447386 0.677102
O O6 0.279786 0.389715 0.807935
O O7 0.515913 0.381199 0.825002
O O8 0.873599 0.000000 0.637125
O O9 0.212107 0.000000 0.494360
O O10 0.540304 0.105402 0.123634
O O11 0.717039 0.088292 0.191785
O O12 0.392862 0.055797 0.312635
O O13 0.631705 0.000000 0.130192
O O14 0.636646 0.797749 0.816129
O O15 0.500000 0.845407 0.000000
O O16 0.173416 0.194356 0.848613
O O17 0.000000 0.117233 0.000000
#
# Coordination Sequence:
#
# PCOD8108898 Si02
#       8
#     8   8   4   8   8   8   4   8
#     4  10  21  39  59  91 118 157 193 250 307 352
#     4  10  23  38  60  92 119 155 207 243 297 364
#     4  11  20  43  64  87 121 155 199 259 300 363
#     4  10  22  41  59  91 119 155 211 242 298 366
#     4  11  21  39  62  89 119 157 201 257 299 347
#     4  11  23  41  60  88 126 167 199 247 306 359
#     4   9  22  41  64  87 115 159 199 247 314 345
#     4  10  22  38  62  87 123 153 208 244 297 373
#
# _framework density 19.482775
#
# number of rings (size 3 to 8) (size 9 to 14) (size 15 to 20)
#    0.429    1.286    1.429    2.571    1.000    2.857 
#    5.143    8.571    0.000    0.000    0.000    0.000 
#    0.000    0.000    0.000    0.000    0.000    0.000 
#
# Total GULP energy -347100.155040 kJ/mol
# GULP energy per Si atom -12396.434109 kJ/mol
# Density = 1.943843 g / cm^3
# Si number density = 19.482775 Si / 1000 Ang^3
#
#
#
# Elastic Constant Matrix: (Units=GPa)
#
#
# Indices 1 2 3 4 5 6 
#
# 1 62.7049 26.6219 3.1801 0.0000 0.3140 0.0000
# 2 26.6219 118.3215 36.1652 0.0000 -0.2764 0.0000
# 3 3.1801 36.1652 99.1200 0.0000 1.8768 0.0000
# 4 0.0000 0.0000 0.0000 19.1042 0.0000 4.2629
# 5 0.3140 -0.2764 1.8768 0.0000 18.5741 0.0000
# 6 0.0000 0.0000 0.0000 4.2629 0.0000 30.0564
#
#
#
# Elastic Compliance Matrix: (Units=1/GPa)
#
#
# Indices 1 2 3 4 5 6 
#
# 1 0.017723 -0.004297 0.001008 0.000000 -0.000465 0.000000
# 2 -0.004297 0.010559 -0.003726 0.000000 0.000606 0.000000
# 3 0.001008 -0.003726 0.011439 0.000000 -0.001228 0.000000
# 4 0.000000 0.000000 0.000000 0.054055 0.000000 -0.007667
# 5 -0.000465 0.000606 -0.001228 0.000000 0.053979 0.000000
# 6 0.000000 0.000000 0.000000 -0.007667 0.000000 0.034358
#
#
# Mechanical properties :
#
#
# Convention : Reuss Voigt Hill
#
# Bulk Modulus (GPa) = 38.92397 45.78677 42.35537
# Shear Modulus (GPa) = 24.42508 27.82554 26.12531
#
# Velocity S-wave (km/s) = 3.54457 3.78327 3.66586
# Velocity P-wave (km/s) = 6.06416 6.52965 6.30120
#
# Compressibility (1/GPa) = 0.02569111
#
# Stress axis : x y z
#
# Youngs Moduli (GPa) = 56.42328 94.70938 87.41865
#
# Poissons Ratio (x) = 0.40695 -0.08811
# Poissons Ratio (y) = 0.24244 0.32573
# Poissons Ratio (z) = -0.05687 0.35289
#
# Static dielectric constant tensor:
#      x y z
#    x 3.602980 0.000000 -0.076180 
#    y 0.000000 3.610210 0.000000 
#    z -0.076180 0.000000 3.382030 
# 
# 
# High freq. dielectric constant tensor:
#      x y z
#    x 1.768160 0.000000 -0.003020 
#    y 0.000000 1.765910 0.000000 
#    z -0.003020 0.000000 1.749220 
# 
# From -- ./inp_files/198830.got.cif
#   From: 2010.06.25/outbox.cif.g09.slc.cpg/sg12_100_cif.got.tgz:198830.got - 2010.06.28 00:19:55.
