data_PCOD8108927
_publ_section_title
;
Structure prediction by ZEFSAII (Michael W. Deem and Ramdas Pophale) SiO2 
 PCOD8108927
Probable space group: C 2/M
;
_chemical_formula_sum "Si O2"
_cell_formula_units_Z 48
_cell_length_a 14.096700
_cell_length_b 8.450167
_cell_length_c 20.145291
_cell_angle_alpha 90.000000
_cell_angle_beta 110.015540
_cell_angle_gamma 90.000000
_cell_volume 2254.754282
_symmetry_space_group_name_H-M "C 2/M"
_symmetry_group_IT_number 12
_symmetry_cell_setting 'monoclinic'
loop_
_space_group_symop_operation_xyz
x,y,z
-x,y,-z
-x,-y,-z
x,-y,z
1/2+x,1/2+y,z
1/2-x,1/2+y,-z
1/2-x,1/2-y,-z
1/2+x,1/2-y,z
loop_
_atom_site_type_symbol
_atom_site_label
_atom_site_fract_x
_atom_site_fract_y
_atom_site_fract_z
Si Si1 0.544696 0.684304 0.605096
Si Si2 0.924617 0.180728 0.134001
Si Si3 0.883566 0.324968 0.992221
Si Si4 0.648089 0.814866 0.505889
Si Si5 0.140731 0.314080 0.157678
Si Si6 0.343132 0.816462 0.245471
O O1 0.519031 0.500000 0.594517
O O2 0.629605 0.728034 0.571433
O O3 0.442983 0.781815 0.566686
O O4 0.582549 0.726816 0.687066
O O5 0.042822 0.213794 0.152862
O O6 0.863791 0.209890 0.050056
O O7 0.884440 0.295020 0.181349
O O8 0.907023 0.000000 0.151132
O O9 0.852213 0.500000 0.008033
O O10 0.824580 0.277012 0.910528
O O11 0.000000 0.321951 0.000000
O O12 0.750000 0.750000 0.500000
O O13 0.656986 0.000000 0.521497
O O14 0.117305 0.500000 0.160882
O O15 0.231883 0.259316 0.226438
O O16 0.338153 0.000000 0.262692
#
# Coordination Sequence:
#
# PCOD8108927 Si02
#       6
#     8   8   8   8   8   8
#     4  11  23  42  64  92 126 158 195 243 292 344
#     4  11  22  37  58  85 116 154 199 247 300 357
#     4   8  16  33  56  80 110 149 195 248 300 350
#     4  11  22  41  68  98 126 159 198 236 283 340
#     4  10  21  39  60  84 115 153 198 249 302 356
#     4  12  25  41  60  86 120 159 199 243 296 353
#
# _framework density 21.288350000000001
#
# number of rings (size 3 to 8) (size 9 to 14) (size 15 to 20)
#    0.000    1.500    0.000    8.500    0.000    5.667 
#    0.000    6.667    0.000    0.000    0.000    0.000 
#    0.000    0.000    0.000    0.000    0.000    0.000 
#
# Total GULP energy -297670.642023 kJ/mol
# GULP energy per Si atom -12402.943418 kJ/mol
# Density = 2.123990 g / cm^3
# Si number density = 21.288350 Si / 1000 Ang^3
#
#
#
# Elastic Constant Matrix: (Units=GPa)
#
#
# Indices 1 2 3 4 5 6 
#
# 1 54.5428 6.5535 13.5546 0.0000 -3.9852 0.0000
# 2 6.5535 94.7603 12.9793 0.0000 -0.1235 0.0000
# 3 13.5546 12.9793 88.1241 0.0000 7.8867 0.0000
# 4 0.0000 0.0000 0.0000 36.0219 0.0000 -0.2122
# 5 -3.9852 -0.1235 7.8867 0.0000 21.1443 0.0000
# 6 0.0000 0.0000 0.0000 -0.2122 0.0000 33.9561
#
#
#
# Elastic Compliance Matrix: (Units=1/GPa)
#
#
# Indices 1 2 3 4 5 6 
#
# 1 0.019630 -0.000895 -0.003329 0.000000 0.004936 0.000000
# 2 -0.000895 0.010820 -0.001497 0.000000 0.000453 0.000000
# 3 -0.003329 -0.001497 0.012556 0.000000 -0.005320 0.000000
# 4 0.000000 0.000000 0.000000 0.027762 0.000000 0.000173
# 5 0.004936 0.000453 -0.005320 0.000000 0.050211 0.000000
# 6 0.000000 0.000000 0.000000 0.000173 0.000000 0.029451
#
#
# Mechanical properties :
#
#
# Convention : Reuss Voigt Hill
#
# Bulk Modulus (GPa) = 31.68099 33.73354 32.70726
# Shear Modulus (GPa) = 29.00333 31.84710 30.42521
#
# Velocity S-wave (km/s) = 3.69508 3.87200 3.78457
# Velocity P-wave (km/s) = 5.75491 5.98917 5.87321
#
# Compressibility (1/GPa) = 0.03156467
#
# Stress axis : x y z
#
# Youngs Moduli (GPa) = 50.94287 92.41791 79.64188
#
# Poissons Ratio (x) = 0.08273 0.26515
# Poissons Ratio (y) = 0.04560 0.11918
# Poissons Ratio (z) = 0.16960 0.13830
#
# Static dielectric constant tensor:
#      x y z
#    x 3.726990 0.000000 0.087360 
#    y 0.000000 3.862430 0.000000 
#    z 0.087360 0.000000 3.996560 
# 
# 
# High freq. dielectric constant tensor:
#      x y z
#    x 1.834940 0.000000 0.007170 
#    y 0.000000 1.842160 0.000000 
#    z 0.007170 0.000000 1.833930 
# 
# From -- ./inp_files/308592.got.cif
#   From: 2010.06.25/outbox.cif.g09.slc.cpg/sg12_155_cif.got.tgz:308592.got - 2010.06.28 00:19:55.
