data_PCOD8108263
_publ_section_title
;
Structure prediction by ZEFSAII (Michael W. Deem and Ramdas Pophale) SiO2 
 PCOD8108263
Probable space group: C 2/M
;
_chemical_formula_sum "Si O2"
_cell_formula_units_Z 40
_cell_length_a 16.335646
_cell_length_b 13.396742
_cell_length_c 18.634536
_cell_angle_alpha 90.000000
_cell_angle_beta 152.097319
_cell_angle_gamma 90.000000
_cell_volume 1908.416604
_symmetry_space_group_name_H-M "C 2/M"
_symmetry_group_IT_number 12
_symmetry_cell_setting 'monoclinic'
loop_
_space_group_symop_operation_xyz
x,y,z
-x,y,-z
-x,-y,-z
x,-y,z
1/2+x,1/2+y,z
1/2-x,1/2+y,-z
1/2-x,1/2-y,-z
1/2+x,1/2-y,z
loop_
_atom_site_type_symbol
_atom_site_label
_atom_site_fract_x
_atom_site_fract_y
_atom_site_fract_z
Si Si1 0.834131 0.386844 0.419636
Si Si2 0.176809 0.240999 0.094562
Si Si3 0.436007 0.788150 0.789687
Si Si4 0.331154 0.613678 0.326253
Si Si5 0.519836 0.112332 0.709788
O O1 0.778462 0.500000 0.356250
O O2 0.672661 0.313504 0.279598
O O3 0.000000 0.354307 0.500000
O O4 0.877622 0.379960 0.537237
O O5 0.296150 0.323105 0.227208
O O6 0.290471 0.141135 0.174622
O O7 0.000000 0.215506 0.000000
O O8 0.124017 0.280258 0.974487
O O9 0.331920 0.879293 0.745796
O O10 0.463201 0.810301 0.727393
O O11 0.500000 0.654460 0.500000
O O12 0.359381 0.500000 0.323768
O O13 0.531192 0.000000 0.748948
#
# Coordination Sequence:
#
# PCOD8108263 Si02
#       5
#     8   8   8   8   8
#     4  10  21  38  61  86 115 155 197 235 279 336
#     4  10  22  38  59  84 112 151 192 237 288 342
#     4  11  21  37  59  86 119 149 186 239 290 338
#     4  10  21  38  61  86 113 150 191 230 278 341
#     4  11  23  38  57  83 116 153 192 238 291 341
#
# _framework density 20.959785
#
# number of rings (size 3 to 8) (size 9 to 14) (size 15 to 20)
#    0.000    1.600    0.000    6.000    0.000    5.600 
#    0.000    3.000    0.000    0.000    0.000    0.000 
#    0.000    0.000    0.000    0.000    0.000    0.000 
#
# Total GULP energy -248026.054635 kJ/mol
# GULP energy per Si atom -12401.302732 kJ/mol
# Density = 2.091208 g / cm^3
# Si number density = 20.959785 Si / 1000 Ang^3
#
#
#
# Elastic Constant Matrix: (Units=GPa)
#
#
# Indices 1 2 3 4 5 6 
#
# 1 82.4929 42.8730 22.9365 0.0062 -16.5432 0.0036
# 2 42.8730 111.7747 55.0689 0.0020 -2.6459 -0.0012
# 3 22.9365 55.0689 126.3880 -0.0053 -18.2282 0.0006
# 4 0.0062 0.0020 -0.0053 13.6577 -0.0018 5.3185
# 5 -16.5432 -2.6459 -18.2282 -0.0018 31.5131 0.0016
# 6 0.0036 -0.0012 0.0006 5.3185 0.0016 32.9685
#
#
#
# Elastic Compliance Matrix: (Units=1/GPa)
#
#
# Indices 1 2 3 4 5 6 
#
# 1 0.017269 -0.007024 0.001253 -0.000004 0.009201 -0.000002
# 2 -0.007024 0.014376 -0.005834 -0.000003 -0.005854 0.000002
# 3 0.001253 -0.005834 0.011184 0.000006 0.006637 -0.000002
# 4 -0.000004 -0.000003 0.000006 0.078127 0.000006 -0.012604
# 5 0.009201 -0.005854 0.006637 0.000006 0.039911 -0.000004
# 6 -0.000002 0.000002 -0.000002 -0.012604 -0.000004 0.032365
#
#
# Mechanical properties :
#
#
# Convention : Reuss Voigt Hill
#
# Bulk Modulus (GPa) = 50.96506 62.49027 56.72767
# Shear Modulus (GPa) = 22.42355 28.94634 25.68494
#
# Velocity S-wave (km/s) = 3.27438 3.72027 3.50443
# Velocity P-wave (km/s) = 6.21803 6.95219 6.59533
#
# Compressibility (1/GPa) = 0.01962128
#
# Stress axis : x y z
#
# Youngs Moduli (GPa) = 57.90660 69.56022 89.41589
#
# Poissons Ratio (x) = 0.48856 -0.11206
# Poissons Ratio (y) = 0.40671 0.52161
# Poissons Ratio (z) = -0.07257 0.40578
#
# Static dielectric constant tensor:
#      x y z
#    x 3.654680 -0.000010 -0.193990 
#    y -0.000010 3.686090 -0.000010 
#    z -0.193990 -0.000010 3.947050 
# 
# 
# High freq. dielectric constant tensor:
#      x y z
#    x 1.815670 0.000000 -0.014750 
#    y 0.000000 1.818930 0.000000 
#    z -0.014750 0.000000 1.826370 
# 
# From -- ./inp_files/96062.got.cif
#   From: 2010.06.25/outbox.cif.g09.slc.cpg/sg12_49_cif.got.tgz:96062.got - 2010.06.28 00:19:55.
