data_PCOD8108299
_publ_section_title
;
Structure prediction by ZEFSAII (Michael W. Deem and Ramdas Pophale) SiO2 
 PCOD8108299
Probable space group: C 2/M
;
_chemical_formula_sum "Si O2"
_cell_formula_units_Z 48
_cell_length_a 20.392244
_cell_length_b 13.467490
_cell_length_c 11.509760
_cell_angle_alpha 90.000000
_cell_angle_beta 45.982761
_cell_angle_gamma 90.000000
_cell_volume 2273.138066
_symmetry_space_group_name_H-M "C 2/M"
_symmetry_group_IT_number 12
_symmetry_cell_setting 'monoclinic'
loop_
_space_group_symop_operation_xyz
x,y,z
-x,y,-z
-x,-y,-z
x,-y,z
1/2+x,1/2+y,z
1/2-x,1/2+y,-z
1/2-x,1/2-y,-z
1/2+x,1/2-y,z
loop_
_atom_site_type_symbol
_atom_site_label
_atom_site_fract_x
_atom_site_fract_y
_atom_site_fract_z
Si Si1 0.035299 0.694508 0.084632
Si Si2 0.913221 0.185292 0.541723
Si Si3 0.416840 0.889668 0.428912
Si Si4 0.234657 0.727583 0.884407
Si Si5 0.440958 0.614577 0.257597
Si Si6 0.716697 0.389047 0.718622
O O1 0.974542 0.626241 0.242002
O O2 0.025934 0.812146 0.129333
O O3 0.141413 0.666229 0.975175
O O4 0.000000 0.670818 0.000000
O O5 0.936444 0.302691 0.497463
O O6 0.821808 0.166694 0.729036
O O7 0.900414 0.129266 0.435770
O O8 0.000000 0.137449 0.500000
O O9 0.309538 0.883384 0.529108
O O10 0.439297 0.000000 0.452329
O O11 0.226800 0.830115 0.825183
O O12 0.250000 0.750000 0.000000
O O13 0.469555 0.500000 0.202569
O O14 0.363899 0.652260 0.262861
O O15 0.693384 0.500000 0.785498
#
# Coordination Sequence:
#
# PCOD8108299 Si02
#       6
#     8   8   8   8   8   8
#     4  11  22  35  58  89 123 156 187 237 302 355
#     4  10  22  40  63  85 115 157 203 244 291 348
#     4   9  20  37  59  83 112 151 200 243 283 340
#     4  11  22  38  58  86 122 155 192 242 301 354
#     4  10  21  38  61  87 118 156 201 243 290 349
#     4   9  19  37  62  87 110 153 206 246 281 345
#
# _framework density 21.116182999999999
#
# number of rings (size 3 to 8) (size 9 to 14) (size 15 to 20)
#    0.000    2.000    1.667    2.000    2.333    4.000 
#    0.000    5.833    0.000    0.000    0.000    0.000 
#    0.000    0.000    0.000    0.000    0.000    0.000 
#
# Total GULP energy -297515.931965 kJ/mol
# GULP energy per Si atom -12396.497165 kJ/mol
# Density = 2.106812 g / cm^3
# Si number density = 21.116183 Si / 1000 Ang^3
#
#
#
# Elastic Constant Matrix: (Units=GPa)
#
#
# Indices 1 2 3 4 5 6 
#
# 1 138.5349 7.5736 54.8988 0.0000 1.8190 0.0000
# 2 7.5736 58.9285 2.8031 0.0000 -5.1000 0.0000
# 3 54.8988 2.8031 128.6325 0.0000 -5.5485 0.0000
# 4 0.0000 0.0000 0.0000 17.3181 0.0000 -1.2257
# 5 1.8190 -5.1000 -5.5485 0.0000 36.7989 0.0000
# 6 0.0000 0.0000 0.0000 -1.2257 0.0000 12.9381
#
#
#
# Elastic Compliance Matrix: (Units=1/GPa)
#
#
# Indices 1 2 3 4 5 6 
#
# 1 0.008788 -0.001049 -0.003777 0.000000 -0.001149 0.000000
# 2 -0.001049 0.017311 0.000177 0.000000 0.002478 0.000000
# 3 -0.003777 0.000177 0.009453 0.000000 0.001637 0.000000
# 4 0.000000 0.000000 0.000000 0.058133 0.000000 0.005507
# 5 -0.001149 0.002478 0.001637 0.000000 0.027822 0.000000
# 6 0.000000 0.000000 0.000000 0.005507 0.000000 0.077813
#
#
# Mechanical properties :
#
#
# Convention : Reuss Voigt Hill
#
# Bulk Modulus (GPa) = 38.09058 50.73854 44.41456
# Shear Modulus (GPa) = 23.00251 30.79903 26.90077
#
# Velocity S-wave (km/s) = 3.30408 3.82324 3.57310
# Velocity P-wave (km/s) = 5.71259 6.60076 6.17267
#
# Compressibility (1/GPa) = 0.02625321
#
# Stress axis : x y z
#
# Youngs Moduli (GPa) = 113.79577 57.76818 105.78795
#
# Poissons Ratio (x) = 0.06061 0.39958
# Poissons Ratio (y) = 0.11940 -0.01877
# Poissons Ratio (z) = 0.42983 -0.01025
#
# Static dielectric constant tensor:
#      x y z
#    x 3.767910 0.000000 -0.176600 
#    y 0.000000 3.642480 0.000000 
#    z -0.176600 0.000000 4.003970 
# 
# 
# High freq. dielectric constant tensor:
#      x y z
#    x 1.825580 0.000000 -0.007110 
#    y 0.000000 1.802370 0.000000 
#    z -0.007110 0.000000 1.840440 
# 
# From -- ./inp_files/167525.got.cif
#   From: 2010.06.25/outbox.cif.g09.slc.cpg/sg12_84_cif.got.tgz:167525.got - 2010.06.28 00:19:55.
