data_PCOD8108833
_publ_section_title
;
Structure prediction by ZEFSAII (Michael W. Deem and Ramdas Pophale) SiO2 
 PCOD8108833
Probable space group: C 2/M
;
_chemical_formula_sum "Si O2"
_cell_formula_units_Z 56
_cell_length_a 14.341737
_cell_length_b 13.627375
_cell_length_c 17.551364
_cell_angle_alpha 90.000000
_cell_angle_beta 114.130871
_cell_angle_gamma 90.000000
_cell_volume 3130.487531
_symmetry_space_group_name_H-M "C 2/M"
_symmetry_group_IT_number 12
_symmetry_cell_setting 'monoclinic'
loop_
_space_group_symop_operation_xyz
x,y,z
-x,y,-z
-x,-y,-z
x,-y,z
1/2+x,1/2+y,z
1/2-x,1/2+y,-z
1/2-x,1/2-y,-z
1/2+x,1/2-y,z
loop_
_atom_site_type_symbol
_atom_site_label
_atom_site_fract_x
_atom_site_fract_y
_atom_site_fract_z
Si Si1 0.682296 0.887419 0.364697
Si Si2 0.315872 0.767366 0.337936
Si Si3 0.898128 0.116108 0.999975
Si Si4 0.977985 0.767478 0.662110
Si Si5 0.298385 0.388096 0.819821
Si Si6 0.521530 0.388093 0.819894
Si Si7 0.781150 0.112357 0.562414
O O1 0.756494 0.835592 0.328350
O O2 0.571758 0.835537 0.328387
O O3 0.732000 0.875576 0.463957
O O4 0.667895 0.000000 0.336003
O O5 0.437202 0.749881 0.374408
O O6 0.281635 0.817458 0.247761
O O7 0.293363 0.837806 0.401539
O O8 0.805102 0.145091 0.911915
O O9 0.911195 0.000000 0.000028
O O10 0.893114 0.145137 0.087990
O O11 0.000000 0.165787 0.000000
O O12 0.033988 0.817464 0.752331
O O13 0.891817 0.837977 0.598603
O O14 0.259312 0.500000 0.800683
O O15 0.408112 0.378135 0.816167
O O16 0.541497 0.500000 0.800796
O O17 0.795398 0.000000 0.591140
#
# Coordination Sequence:
#
# PCOD8108833 Si02
#       7
#     8   8   8   8   8   8   8
#     4  10  23  39  52  71 103 138 169 207 255 306
#     4  11  21  33  53  80 104 132 168 209 254 304
#     4   7  12  22  43  76 104 127 161 207 252 290
#     4  11  21  33  53  80 104 132 168 209 254 304
#     4   9  15  28  51  77 104 132 166 209 253 294
#     4   9  15  28  51  77 104 132 166 209 253 294
#     4  10  21  39  58  73  96 132 172 215 258 300
#
# _framework density 17.888587000000001
#
# number of rings (size 3 to 8) (size 9 to 14) (size 15 to 20)
#    0.000    2.429    2.857    4.286    0.000    4.571 
#    0.000    3.571    0.000    0.000    0.000    2.000 
#    0.000    0.000    0.000    0.000    0.000    0.000 
#
# Total GULP energy -347001.567996 kJ/mol
# GULP energy per Si atom -12392.913143 kJ/mol
# Density = 1.784787 g / cm^3
# Si number density = 17.888587 Si / 1000 Ang^3
#
#
#
# Elastic Constant Matrix: (Units=GPa)
#
#
# Indices 1 2 3 4 5 6 
#
# 1 108.4377 46.4280 20.8738 0.0000 3.5988 0.0000
# 2 46.4280 116.6439 43.3073 0.0000 0.0320 0.0000
# 3 20.8738 43.3073 87.9780 0.0000 -2.8309 0.0000
# 4 0.0000 0.0000 0.0000 27.4605 0.0000 -0.9063
# 5 3.5988 0.0320 -2.8309 0.0000 3.8864 0.0000
# 6 0.0000 0.0000 0.0000 -0.9063 0.0000 8.1884
#
#
#
# Elastic Compliance Matrix: (Units=1/GPa)
#
#
# Indices 1 2 3 4 5 6 
#
# 1 0.011616 -0.004234 -0.001041 0.000000 -0.011480 0.000000
# 2 -0.004234 0.012093 -0.004941 0.000000 0.000222 0.000000
# 3 -0.001041 -0.004941 0.014416 0.000000 0.011506 0.000000
# 4 0.000000 0.000000 0.000000 0.036549 0.000000 0.004045
# 5 -0.011480 0.000222 0.011506 0.000000 0.276315 0.000000
# 6 0.000000 0.000000 0.000000 0.004045 0.000000 0.122571
#
#
# Mechanical properties :
#
#
# Convention : Reuss Voigt Hill
#
# Bulk Modulus (GPa) = 56.52122 59.36421 57.94272
# Shear Modulus (GPa) = 10.00219 21.40377 15.70298
#
# Velocity S-wave (km/s) = 2.36718 3.46280 2.96602
# Velocity P-wave (km/s) = 6.25589 7.01752 6.64762
#
# Compressibility (1/GPa) = 0.01769247
#
# Stress axis : x y z
#
# Youngs Moduli (GPa) = 86.08774 82.69452 69.36750
#
# Poissons Ratio (x) = 0.35011 0.07224
# Poissons Ratio (y) = 0.36448 0.34274
# Poissons Ratio (z) = 0.08965 0.40859
#
# Static dielectric constant tensor:
#      x y z
#    x 2.965330 0.000000 -0.035000 
#    y 0.000000 3.333650 0.000000 
#    z -0.035000 0.000000 3.705240 
# 
# 
# High freq. dielectric constant tensor:
#      x y z
#    x 1.653820 0.000000 -0.002390 
#    y 0.000000 1.678910 0.000000 
#    z -0.002390 0.000000 1.704460 
# 
# From -- ./inp_files/269952.got.cif
#   From: 2010.06.25/outbox.cif.g09.slc.cpg/sg12_135_cif.got.tgz:269952.got - 2010.06.28 00:19:55.
