data_PCOD8108744
_publ_section_title
;
Structure prediction by ZEFSAII (Michael W. Deem and Ramdas Pophale) SiO2 
 PCOD8108744
Probable space group: C 2/M
;
_chemical_formula_sum "Si O2"
_cell_formula_units_Z 48
_cell_length_a 9.117792
_cell_length_b 19.383545
_cell_length_c 12.737607
_cell_angle_alpha 90.000000
_cell_angle_beta 76.495433
_cell_angle_gamma 90.000000
_cell_volume 2188.940396
_symmetry_space_group_name_H-M "C 2/M"
_symmetry_group_IT_number 12
_symmetry_cell_setting 'monoclinic'
loop_
_space_group_symop_operation_xyz
x,y,z
-x,y,-z
-x,-y,-z
x,-y,z
1/2+x,1/2+y,z
1/2-x,1/2+y,-z
1/2-x,1/2-y,-z
1/2+x,1/2-y,z
loop_
_atom_site_type_symbol
_atom_site_label
_atom_site_fract_x
_atom_site_fract_y
_atom_site_fract_z
Si Si1 0.574714 0.185356 0.376150
Si Si2 0.700499 0.076481 0.053114
Si Si3 0.442392 0.076926 0.239641
Si Si4 0.641827 0.579772 0.191183
Si Si5 0.342226 0.708143 0.071756
Si Si6 0.411774 0.300849 0.279948
O O1 0.500000 0.173199 0.500000
O O2 0.523010 0.125683 0.307898
O O3 0.522008 0.258185 0.336305
O O4 0.754985 0.183050 0.364610
O O5 0.520414 0.079878 0.108585
O O6 0.765334 0.135933 0.118125
O O7 0.762570 0.000000 0.070905
O O8 0.759132 0.097807 0.928577
O O9 0.264089 0.092615 0.262695
O O10 0.465263 0.000000 0.279862
O O11 0.586763 0.500000 0.198731
O O12 0.498974 0.629171 0.231318
O O13 0.368390 0.744301 0.181254
O O14 0.500000 0.687687 0.000000
O O15 0.250000 0.750000 0.000000
#
# Coordination Sequence:
#
# PCOD8108744 Si02
#       6
#     8   8   8   8   8   8
#     4  12  27  46  70  93 122 167 224 283 331 380
#     4  10  21  38  64  96 134 172 209 247 305 383
#     4  10  22  42  67  97 133 171 213 266 324 383
#     4  10  22  40  67 101 137 173 209 253 317 396
#     4  12  25  39  60  97 133 171 208 259 314 387
#     4  12  25  45  66  94 130 173 214 270 327 384
#
# _framework density 21.928417
#
# number of rings (size 3 to 8) (size 9 to 14) (size 15 to 20)
#    0.000    1.000    3.333    3.000    2.333    4.000 
#    0.000    0.000    0.000    2.500    0.000    0.000 
#    0.000    0.000    0.000    0.000    0.000    0.000 
#
# Total GULP energy -297320.415460 kJ/mol
# GULP energy per Si atom -12388.350644 kJ/mol
# Density = 2.187851 g / cm^3
# Si number density = 21.928417 Si / 1000 Ang^3
#
#
#
# Elastic Constant Matrix: (Units=GPa)
#
#
# Indices 1 2 3 4 5 6 
#
# 1 131.4457 60.4694 43.6581 0.0000 -26.2408 0.0000
# 2 60.4694 109.2644 40.3042 0.0000 -6.9418 0.0000
# 3 43.6581 40.3042 112.8326 0.0000 -22.9426 0.0000
# 4 0.0000 0.0000 0.0000 15.5992 0.0000 -2.9575
# 5 -26.2408 -6.9418 -22.9426 0.0000 26.4403 0.0000
# 6 0.0000 0.0000 0.0000 -2.9575 0.0000 27.4796
#
#
#
# Elastic Compliance Matrix: (Units=1/GPa)
#
#
# Indices 1 2 3 4 5 6 
#
# 1 0.012738 -0.006164 -0.000589 0.000000 0.010512 0.000000
# 2 -0.006164 0.013532 -0.003606 0.000000 -0.005694 0.000000
# 3 -0.000589 -0.003606 0.012224 0.000000 0.009075 0.000000
# 4 0.000000 0.000000 0.000000 0.065441 0.000000 0.007043
# 5 0.010512 -0.005694 0.009075 0.000000 0.054634 0.000000
# 6 0.000000 0.000000 0.000000 0.007043 0.000000 0.037149
#
#
# Mechanical properties :
#
#
# Convention : Reuss Voigt Hill
#
# Bulk Modulus (GPa) = 56.26113 71.37845 63.81979
# Shear Modulus (GPa) = 22.48587 27.84452 25.16519
#
# Velocity S-wave (km/s) = 3.20569 3.56728 3.39131
# Velocity P-wave (km/s) = 6.27809 7.04192 6.67095
#
# Compressibility (1/GPa) = 0.01777426
#
# Stress axis : x y z
#
# Youngs Moduli (GPa) = 78.50760 73.89896 81.80441
#
# Poissons Ratio (x) = 0.45552 0.04821
# Poissons Ratio (y) = 0.48393 0.29502
# Poissons Ratio (z) = 0.04627 0.26651
#
# Static dielectric constant tensor:
#      x y z
#    x 3.204270 0.000000 -0.458480 
#    y 0.000000 4.068720 0.000000 
#    z -0.458480 0.000000 3.675170 
# 
# 
# High freq. dielectric constant tensor:
#      x y z
#    x 1.874640 0.000000 -0.013660 
#    y 0.000000 1.868170 0.000000 
#    z -0.013660 0.000000 1.834290 
# 
# From -- ./inp_files/196917.got.cif
#   From: 2010.06.25/outbox.cif.g09.slc.cpg/sg12_99_cif.got.tgz:196917.got - 2010.06.28 00:19:55.
