data_PCOD8108767
_publ_section_title
;
Structure prediction by ZEFSAII (Michael W. Deem and Ramdas Pophale) SiO2 
 PCOD8108767
Probable space group: C 2/M
;
_chemical_formula_sum "Si O2"
_cell_formula_units_Z 64
_cell_length_a 9.710679
_cell_length_b 28.124368
_cell_length_c 18.267670
_cell_angle_alpha 90.000000
_cell_angle_beta 142.549644
_cell_angle_gamma 90.000000
_cell_volume 3033.694318
_symmetry_space_group_name_H-M "C 2/M"
_symmetry_group_IT_number 12
_symmetry_cell_setting 'monoclinic'
loop_
_space_group_symop_operation_xyz
x,y,z
-x,y,-z
-x,-y,-z
x,-y,z
1/2+x,1/2+y,z
1/2-x,1/2+y,-z
1/2-x,1/2-y,-z
1/2+x,1/2-y,z
loop_
_atom_site_type_symbol
_atom_site_label
_atom_site_fract_x
_atom_site_fract_y
_atom_site_fract_z
Si Si1 0.163643 0.384377 0.004133
Si Si2 0.151272 0.899550 0.407692
Si Si3 0.534800 0.052308 0.347798
Si Si4 0.226037 0.207142 0.046115
Si Si5 0.142960 0.800855 0.463586
Si Si6 0.342767 0.084168 0.755890
Si Si7 0.088474 0.944530 0.233629
Si Si8 0.838554 0.686961 0.694886
O O1 0.368670 0.413232 0.126243
O O2 0.260230 0.341405 0.995291
O O3 0.000000 0.364422 0.000000
O O4 0.022590 0.423565 0.897335
O O5 0.324376 0.910862 0.545290
O O6 0.144762 0.841165 0.400219
O O7 0.220327 0.922226 0.359580
O O8 0.913226 0.924734 0.327189
O O9 0.597305 0.052629 0.288712
O O10 0.265556 0.061978 0.241794
O O11 0.590186 0.000000 0.401882
O O12 0.431540 0.215483 0.191089
O O13 0.250000 0.250000 0.000000
O O14 0.000000 0.208235 0.000000
O O15 0.250000 0.750000 0.500000
O O16 0.288924 0.825033 0.589719
O O17 0.884068 0.786290 0.370045
O O18 0.371015 0.138825 0.750809
O O19 0.025621 0.000000 0.219476
#
# Coordination Sequence:
#
# PCOD8108767 Si02
#       8
#     8   8   8   8   8   8   8   8
#     4  11  24  46  69  96 134 176 227 283 340 398
#     4  11  21  42  68  94 134 175 217 276 340 402
#     4  11  24  41  64  94 130 170 221 278 337 411
#     4  11  26  43  72 101 136 184 225 276 335 411
#     4  10  21  38  65  93 130 174 219 275 330 393
#     4  10  21  41  68  92 126 173 215 273 341 394
#     4  11  26  44  65  97 138 180 226 283 344 409
#     4   9  21  41  58  91 134 164 216 277 325 387
#
# _framework density 21.09639
#
# number of rings (size 3 to 8) (size 9 to 14) (size 15 to 20)
#    0.000    1.500    2.500    1.500    5.250    4.250 
#    4.500    1.250    0.000    0.000    0.000    0.000 
#    0.000    0.000    0.000    0.000    0.000    0.000 
#
# Total GULP energy -396495.374295 kJ/mol
# GULP energy per Si atom -12390.480447 kJ/mol
# Density = 2.104837 g / cm^3
# Si number density = 21.096390 Si / 1000 Ang^3
#
#
#
# Elastic Constant Matrix: (Units=GPa)
#
#
# Indices 1 2 3 4 5 6 
#
# 1 104.4446 42.7349 28.8891 0.0000 6.1465 0.0000
# 2 42.7349 95.6213 30.1513 0.0000 9.6589 0.0000
# 3 28.8891 30.1513 117.1377 -0.0001 9.3051 -0.0001
# 4 0.0000 0.0000 -0.0001 25.5805 0.0000 -3.1734
# 5 6.1465 9.6589 9.3051 0.0000 28.1027 0.0000
# 6 0.0000 0.0000 -0.0001 -3.1734 0.0000 33.0137
#
#
#
# Elastic Compliance Matrix: (Units=1/GPa)
#
#
# Indices 1 2 3 4 5 6 
#
# 1 0.012033 -0.004800 -0.001699 0.000000 -0.000420 0.000000
# 2 -0.004800 0.013552 -0.002072 0.000000 -0.002922 0.000000
# 3 -0.001699 -0.002072 0.009657 0.000000 -0.002114 0.000000
# 4 0.000000 0.000000 0.000000 0.039564 0.000000 0.003803
# 5 -0.000420 -0.002922 -0.002114 0.000000 0.037380 0.000000
# 6 0.000000 0.000000 0.000000 0.003803 0.000000 0.030656
#
#
# Mechanical properties :
#
#
# Convention : Reuss Voigt Hill
#
# Bulk Modulus (GPa) = 55.24861 57.86157 56.55509
# Shear Modulus (GPa) = 30.11747 31.70125 30.90936
#
# Velocity S-wave (km/s) = 3.78247 3.88066 3.83188
# Velocity P-wave (km/s) = 6.73214 6.89682 6.81497
#
# Compressibility (1/GPa) = 0.01810000
#
# Stress axis : x y z
#
# Youngs Moduli (GPa) = 83.10564 73.79223 103.54877
#
# Poissons Ratio (x) = 0.35418 0.17591
# Poissons Ratio (y) = 0.39888 0.21459
# Poissons Ratio (z) = 0.14118 0.15293
#
# Static dielectric constant tensor:
#      x y z
#    x 3.813260 0.000000 0.219910 
#    y 0.000000 3.616020 0.000000 
#    z 0.219910 0.000000 4.198630 
# 
# 
# High freq. dielectric constant tensor:
#      x y z
#    x 1.826000 0.000000 0.005300 
#    y 0.000000 1.818320 0.000000 
#    z 0.005300 0.000000 1.838680 
# 
# From -- ./inp_files/260355.got.cif
#   From: 2010.06.25/outbox.cif.g09.slc.cpg/sg12_131_cif.got.tgz:260355.got - 2010.06.28 00:19:55.
