data_PCOD8108032
_publ_section_title
;
Structure prediction by ZEFSAII (Michael W. Deem and Ramdas Pophale) SiO2 
 PCOD8108032
Probable space group: C 2/M
;
_chemical_formula_sum "Si O2"
_cell_formula_units_Z 64
_cell_length_a 25.171286
_cell_length_b 9.017937
_cell_length_c 15.087267
_cell_angle_alpha 90.000000
_cell_angle_beta 71.225084
_cell_angle_gamma 90.000000
_cell_volume 3242.477397
_symmetry_space_group_name_H-M "C 2/M"
_symmetry_group_IT_number 12
_symmetry_cell_setting 'monoclinic'
loop_
_space_group_symop_operation_xyz
x,y,z
-x,y,-z
-x,-y,-z
x,-y,z
1/2+x,1/2+y,z
1/2-x,1/2+y,-z
1/2-x,1/2-y,-z
1/2+x,1/2-y,z
loop_
_atom_site_type_symbol
_atom_site_label
_atom_site_fract_x
_atom_site_fract_y
_atom_site_fract_z
Si Si1 0.622134 0.673881 0.083288
Si Si2 0.593238 0.171678 0.585378
Si Si3 0.997287 0.172008 0.100600
Si Si4 0.015316 0.836435 0.389695
Si Si5 0.109565 0.670818 0.768171
Si Si6 0.183461 0.324821 0.890377
Si Si7 0.801231 0.672732 0.817045
Si Si8 0.121627 0.670713 0.378403
O O1 0.637170 0.500000 0.082750
O O2 0.555301 0.699900 0.121870
O O3 0.649257 0.766481 0.147991
O O4 0.644644 0.736609 0.978715
O O5 0.533811 0.250348 0.633654
O O6 0.629057 0.202652 0.655634
O O7 0.625616 0.228175 0.478864
O O8 0.579810 0.000000 0.580973
O O9 0.947249 0.243346 0.181900
O O10 0.983316 0.000000 0.099864
O O11 0.000000 0.240896 0.000000
O O12 0.074815 0.756902 0.347270
O O13 0.000000 0.845227 0.500000
O O14 0.020563 0.000000 0.344537
O O15 0.094694 0.500000 0.789820
O O16 0.160760 0.715680 0.804629
O O17 0.181956 0.500000 0.911187
O O18 0.246532 0.268181 0.865493
O O19 0.790142 0.500000 0.844664
O O20 0.819541 0.694025 0.704220
O O21 0.103686 0.500000 0.386846
#
# Coordination Sequence:
#
# PCOD8108032 Si02
#       8
#     8   8   8   8   8   8   8   8
#     4  11  23  40  62  87 117 152 187 232 288 345
#     4   9  18  35  56  80 112 151 190 228 276 336
#     4  10  21  38  59  86 119 152 185 229 285 341
#     4   9  17  29  48  76 109 143 180 226 278 327
#     4  10  22  37  59  87 116 152 192 233 280 338
#     4  11  23  41  61  84 114 150 191 239 289 340
#     4  11  24  40  60  85 112 150 197 242 285 335
#     4   9  19  36  56  78 110 150 192 233 277 333
#
# _framework density 19.737995000000002
#
# number of rings (size 3 to 8) (size 9 to 14) (size 15 to 20)
#    0.000    2.000    1.250    1.875    1.750    4.750 
#    0.000    0.625    0.000    0.000    0.000    0.000 
#    0.000    0.000    0.000    0.000    0.000    0.000 
#
# Total GULP energy -396726.240768 kJ/mol
# GULP energy per Si atom -12397.695024 kJ/mol
# Density = 1.969307 g / cm^3
# Si number density = 19.737995 Si / 1000 Ang^3
#
#
#
# Elastic Constant Matrix: (Units=GPa)
#
#
# Indices 1 2 3 4 5 6 
#
# 1 73.4673 22.3615 20.5200 0.0000 10.5438 0.0000
# 2 22.3615 55.7851 20.1446 0.0000 -1.0441 0.0000
# 3 20.5200 20.1446 73.2571 0.0000 17.3851 0.0000
# 4 0.0000 0.0000 0.0000 21.9980 0.0000 -3.1458
# 5 10.5438 -1.0441 17.3851 0.0000 26.8407 0.0000
# 6 0.0000 0.0000 0.0000 -3.1458 0.0000 24.0711
#
#
#
# Elastic Compliance Matrix: (Units=1/GPa)
#
#
# Indices 1 2 3 4 5 6 
#
# 1 0.016799 -0.006262 -0.001607 0.000000 -0.005802 0.000000
# 2 -0.006262 0.022846 -0.006290 0.000000 0.007423 0.000000
# 3 -0.001607 -0.006290 0.018597 0.000000 -0.011659 0.000000
# 4 0.000000 0.000000 0.000000 0.046324 0.000000 0.006054
# 5 -0.005802 0.007423 -0.011659 0.000000 0.047377 0.000000
# 6 0.000000 0.000000 0.000000 0.006054 0.000000 0.042335
#
#
# Mechanical properties :
#
#
# Convention : Reuss Voigt Hill
#
# Bulk Modulus (GPa) = 33.41679 36.50686 34.96183
# Shear Modulus (GPa) = 21.49883 23.88085 22.68984
#
# Velocity S-wave (km/s) = 3.30390 3.48212 3.39418
# Velocity P-wave (km/s) = 5.61438 5.89091 5.75431
#
# Compressibility (1/GPa) = 0.02992507
#
# Stress axis : x y z
#
# Youngs Moduli (GPa) = 59.52728 43.77047 53.77189
#
# Poissons Ratio (x) = 0.27411 0.08639
# Poissons Ratio (y) = 0.37278 0.33822
# Poissons Ratio (z) = 0.09563 0.27531
#
# Static dielectric constant tensor:
#      x y z
#    x 3.460940 0.000000 0.183250 
#    y 0.000000 3.686370 0.000000 
#    z 0.183250 0.000000 3.827350 
# 
# 
# High freq. dielectric constant tensor:
#      x y z
#    x 1.750670 0.000000 0.010090 
#    y 0.000000 1.771100 0.000000 
#    z 0.010090 0.000000 1.779490 
# 
# From -- ./inp_files/243905.got.cif
#   From: 2010.06.25/outbox.cif.g09.slc.cpg/sg12_122_cif.got.tgz:243905.got - 2010.06.28 00:19:55.
