data_PCOD8108182
_publ_section_title
;
Structure prediction by ZEFSAII (Michael W. Deem and Ramdas Pophale) SiO2 
 PCOD8108182
Probable space group: C 2/M
;
_chemical_formula_sum "Si O2"
_cell_formula_units_Z 56
_cell_length_a 15.882650
_cell_length_b 8.919850
_cell_length_c 22.730248
_cell_angle_alpha 90.000000
_cell_angle_beta 121.685724
_cell_angle_gamma 90.000000
_cell_volume 2740.215107
_symmetry_space_group_name_H-M "C 2/M"
_symmetry_group_IT_number 12
_symmetry_cell_setting 'monoclinic'
loop_
_space_group_symop_operation_xyz
x,y,z
-x,y,-z
-x,-y,-z
x,-y,z
1/2+x,1/2+y,z
1/2-x,1/2+y,-z
1/2-x,1/2-y,-z
1/2+x,1/2-y,z
loop_
_atom_site_type_symbol
_atom_site_label
_atom_site_fract_x
_atom_site_fract_y
_atom_site_fract_z
Si Si1 0.721146 0.324601 0.333493
Si Si2 0.180135 0.330085 0.201243
Si Si3 0.663865 0.175845 0.931112
Si Si4 0.369191 0.668424 0.199014
Si Si5 0.958145 0.173536 0.655029
Si Si6 0.053003 0.322411 0.577877
Si Si7 0.983917 0.174773 0.926226
O O1 0.720031 0.500000 0.317490
O O2 0.667428 0.237087 0.261247
O O3 0.656179 0.293849 0.368685
O O4 0.833319 0.264969 0.382296
O O5 0.139139 0.500000 0.185261
O O6 0.295140 0.324583 0.226865
O O7 0.123990 0.229312 0.132460
O O8 0.669625 0.219538 0.864984
O O9 0.558919 0.228860 0.915743
O O10 0.676326 0.000000 0.942070
O O11 0.750000 0.250000 0.000000
O O12 0.373709 0.500000 0.174173
O O13 0.475208 0.717257 0.263803
O O14 0.990156 0.267989 0.610486
O O15 0.974420 0.000000 0.645251
O O16 0.051793 0.500000 0.578835
O O17 0.000000 0.260209 0.500000
O O18 0.998316 0.000000 0.918100
O O19 0.000000 0.211330 0.000000
#
# Coordination Sequence:
#
# PCOD8108182 Si02
#       7
#     8   8   8   8   8   8   8
#     4  10  21  38  62  89 123 166 209 255 313 378
#     4  11  22  37  61  91 120 155 201 254 310 370
#     4  12  25  40  60  86 118 158 205 255 311 371
#     4  10  21  38  60  87 122 157 198 257 314 371
#     4  10  21  39  62  90 121 160 207 255 311 375
#     4  10  22  40  61  90 128 166 207 259 315 374
#     4  11  24  41  60  84 116 157 203 251 308 374
#
# _framework density 20.436350999999998
#
# number of rings (size 3 to 8) (size 9 to 14) (size 15 to 20)
#    0.000    1.429    1.429    3.857    0.000    7.714 
#    0.000    0.000    0.000    0.000    0.000    0.000 
#    0.000    0.000    0.000    0.000    0.000    0.000 
#
# Total GULP energy -347287.727071 kJ/mol
# GULP energy per Si atom -12403.133110 kJ/mol
# Density = 2.038984 g / cm^3
# Si number density = 20.436351 Si / 1000 Ang^3
#
#
#
# Elastic Constant Matrix: (Units=GPa)
#
#
# Indices 1 2 3 4 5 6 
#
# 1 115.8916 29.2312 44.9947 0.0000 -3.3501 0.0000
# 2 29.2312 77.6519 43.6747 0.0000 -5.8216 0.0000
# 3 44.9947 43.6747 120.8356 0.0000 -0.4602 0.0000
# 4 0.0000 0.0000 0.0000 -17.0820 0.0000 -54.2322
# 5 -3.3501 -5.8216 -0.4602 0.0000 26.0384 0.0000
# 6 0.0000 0.0000 0.0000 -54.2322 0.0000 -21.3609
#
#
#
# Elastic Compliance Matrix: (Units=1/GPa)
#
#
# Indices 1 2 3 4 5 6 
#
# 1 0.010388 -0.002103 -0.003105 0.000000 0.000811 0.000000
# 2 -0.002103 0.016917 -0.005318 0.000000 0.003418 0.000000
# 3 -0.003105 -0.005318 0.011349 0.000000 -0.001388 0.000000
# 4 0.000000 0.000000 0.000000 0.008291 0.000000 -0.021051
# 5 0.000811 0.003418 -0.001388 0.000000 0.039249 0.000000
# 6 0.000000 0.000000 0.000000 -0.021051 0.000000 0.006631
#
#
# Mechanical properties :
#
#
# Convention : Reuss Voigt Hill
#
# Bulk Modulus (GPa) = 56.81451 61.13115 58.97283
# Shear Modulus (GPa) = 41.75533 10.61768 26.18650
#
# Velocity S-wave (km/s) = 4.52507 2.28183 3.58350
# Velocity P-wave (km/s) = 7.42716 6.07620 6.78539
#
# Compressibility (1/GPa) = 0.01760114
#
# Stress axis : x y z
#
# Youngs Moduli (GPa) = 96.26312 59.11130 88.11516
#
# Poissons Ratio (x) = 0.12434 0.27358
# Poissons Ratio (y) = 0.20248 0.46862
# Poissons Ratio (z) = 0.29888 0.31437
#
# Static dielectric constant tensor:
#      x y z
#    x 3.822230 0.000000 0.151370 
#    y 0.000000 3.647420 0.000000 
#    z 0.151370 0.000000 3.908590 
# 
# 
# High freq. dielectric constant tensor:
#      x y z
#    x 1.811570 0.000000 0.004390 
#    y 0.000000 1.793510 0.000000 
#    z 0.004390 0.000000 1.796220 
# 
# From -- ./inp_files/338994.got.cif
#   From: 2010.06.25/outbox.cif.g09.slc.cpg/sg12_170_cif.got.tgz:338994.got - 2010.06.28 00:19:55.
