data_PCOD8108273
_publ_section_title
;
Structure prediction by ZEFSAII (Michael W. Deem and Ramdas Pophale) SiO2 
 PCOD8108273
Probable space group: C 2/M
;
_chemical_formula_sum "Si O2"
_cell_formula_units_Z 56
_cell_length_a 20.422866
_cell_length_b 8.856146
_cell_length_c 17.685774
_cell_angle_alpha 90.000000
_cell_angle_beta 116.393716
_cell_angle_gamma 90.000000
_cell_volume 2865.348456
_symmetry_space_group_name_H-M "C 2/M"
_symmetry_group_IT_number 12
_symmetry_cell_setting 'monoclinic'
loop_
_space_group_symop_operation_xyz
x,y,z
-x,y,-z
-x,-y,-z
x,-y,z
1/2+x,1/2+y,z
1/2-x,1/2+y,-z
1/2-x,1/2-y,-z
1/2+x,1/2-y,z
loop_
_atom_site_type_symbol
_atom_site_label
_atom_site_fract_x
_atom_site_fract_y
_atom_site_fract_z
Si Si1 0.559619 0.176120 0.809687
Si Si2 0.903838 0.176071 0.739997
Si Si3 0.581317 0.820584 0.533529
Si Si4 0.322453 0.176021 0.004078
Si Si5 0.317721 0.676852 0.844862
Si Si6 0.326427 0.821324 0.561209
Si Si7 0.158312 0.320832 0.721433
O O1 0.486917 0.273140 0.777285
O O2 0.602670 0.231441 0.757716
O O3 0.538879 0.000000 0.793191
O O4 0.608952 0.211018 0.907452
O O5 0.876045 0.212588 0.809836
O O6 0.852367 0.264487 0.655642
O O7 0.896953 0.000000 0.717965
O O8 0.500000 0.753029 0.500000
O O9 0.614168 0.769148 0.470448
O O10 0.631041 0.755713 0.627151
O O11 0.578588 0.000000 0.537995
O O12 0.344063 0.239824 0.933622
O O13 0.306783 0.000000 0.990823
O O14 0.250000 0.250000 0.000000
O O15 0.312107 0.500000 0.859721
O O16 0.238869 0.742872 0.779767
O O17 0.250000 0.750000 0.500000
O O18 0.317833 0.000000 0.558272
O O19 0.162438 0.500000 0.720876
#
# Coordination Sequence:
#
# PCOD8108273 Si02
#       7
#     8   8   8   8   8   8   8
#     4  10  21  38  61  86 117 156 194 242 297 355
#     4  11  24  40  60  87 120 158 199 246 299 355
#     4   9  17  30  54  84 110 146 196 242 283 338
#     4  11  22  38  62  91 120 153 196 244 297 356
#     4  10  21  39  60  83 115 155 201 246 291 353
#     4  11  22  38  61  87 119 157 199 246 297 356
#     4   9  16  32  57  82 109 147 197 241 284 345
#
# _framework density 19.543870999999999
#
# number of rings (size 3 to 8) (size 9 to 14) (size 15 to 20)
#    0.000    1.857    1.429    3.000    0.000    7.429 
#    0.000    2.857    0.000    9.429    0.000    0.000 
#    0.000    0.000    0.000    0.000    0.000    0.000 
#
# Total GULP energy -347288.780499 kJ/mol
# GULP energy per Si atom -12403.170732 kJ/mol
# Density = 1.949939 g / cm^3
# Si number density = 19.543871 Si / 1000 Ang^3
#
#
#
# Elastic Constant Matrix: (Units=GPa)
#
#
# Indices 1 2 3 4 5 6 
#
# 1 101.7983 40.4183 22.0821 0.0000 2.5911 0.0000
# 2 40.4183 61.8611 42.8152 0.0000 -2.6123 0.0000
# 3 22.0821 42.8152 107.3088 0.0000 -8.8900 0.0000
# 4 0.0000 0.0000 0.0000 31.1562 0.0000 0.8300
# 5 2.5911 -2.6123 -8.8900 0.0000 32.4161 0.0000
# 6 0.0000 0.0000 0.0000 0.8300 0.0000 32.2435
#
#
#
# Elastic Compliance Matrix: (Units=1/GPa)
#
#
# Indices 1 2 3 4 5 6 
#
# 1 0.013423 -0.009442 0.000873 0.000000 -0.001594 0.000000
# 2 -0.009442 0.028987 -0.009584 0.000000 0.000462 0.000000
# 3 0.000873 -0.009584 0.013193 0.000000 0.002776 0.000000
# 4 0.000000 0.000000 0.000000 0.032118 0.000000 -0.000827
# 5 -0.001594 0.000462 0.002776 0.000000 0.031775 0.000000
# 6 0.000000 0.000000 0.000000 -0.000827 0.000000 0.031035
#
#
# Mechanical properties :
#
#
# Convention : Reuss Voigt Hill
#
# Bulk Modulus (GPa) = 51.82102 53.51104 52.66603
# Shear Modulus (GPa) = 25.87023 30.20667 28.03845
#
# Velocity S-wave (km/s) = 3.64222 3.93566 3.79178
# Velocity P-wave (km/s) = 6.65285 6.93483 6.79531
#
# Compressibility (1/GPa) = 0.01929719
#
# Stress axis : x y z
#
# Youngs Moduli (GPa) = 74.49651 34.49765 75.79560
#
# Poissons Ratio (x) = 0.32573 -0.06616
# Poissons Ratio (y) = 0.70339 0.72646
# Poissons Ratio (z) = -0.06503 0.33064
#
# Static dielectric constant tensor:
#      x y z
#    x 3.719370 0.000000 -0.089470 
#    y 0.000000 3.293050 0.000000 
#    z -0.089470 0.000000 4.920580 
# 
# 
# High freq. dielectric constant tensor:
#      x y z
#    x 1.772720 0.000000 -0.002400 
#    y 0.000000 1.732220 0.000000 
#    z -0.002400 0.000000 1.778880 
# 
# From -- ./inp_files/280883.got.cif
#   From: 2010.06.25/outbox.cif.g09.slc.cpg/sg12_141_cif.got.tgz:280883.got - 2010.06.28 00:19:55.
