data_PCOD8108571
_publ_section_title
;
Structure prediction by ZEFSAII (Michael W. Deem and Ramdas Pophale) SiO2 
 PCOD8108571
Probable space group: C 2/M
;
_chemical_formula_sum "Si O2"
_cell_formula_units_Z 32
_cell_length_a 5.246642
_cell_length_b 24.381716
_cell_length_c 12.798326
_cell_angle_alpha 90.000000
_cell_angle_beta 105.031988
_cell_angle_gamma 90.000000
_cell_volume 1581.166504
_symmetry_space_group_name_H-M "C 2/M"
_symmetry_group_IT_number 12
_symmetry_cell_setting 'monoclinic'
loop_
_space_group_symop_operation_xyz
x,y,z
-x,y,-z
-x,-y,-z
x,-y,z
1/2+x,1/2+y,z
1/2-x,1/2+y,-z
1/2-x,1/2-y,-z
1/2+x,1/2-y,z
loop_
_atom_site_type_symbol
_atom_site_label
_atom_site_fract_x
_atom_site_fract_y
_atom_site_fract_z
Si Si1 0.979359 0.562422 0.112976
Si Si2 0.981864 0.107764 0.795991
Si Si3 0.344501 0.273370 0.123355
Si Si4 0.207838 0.936850 0.430447
O O1 0.886011 0.500000 0.099114
O O2 0.750015 0.593487 0.149060
O O3 0.273142 0.565846 0.191943
O O4 0.000000 0.588414 0.000000
O O5 0.853023 0.107144 0.667430
O O6 0.111763 0.162452 0.856766
O O7 0.619733 0.243853 0.181999
O O8 0.250000 0.250000 0.000000
O O9 0.500000 0.923033 0.500000
O O10 0.000000 0.927479 0.500000
O O11 0.196261 0.000000 0.387891
#
# Coordination Sequence:
#
# PCOD8108571 Si02
#       4
#     8   8   8   8
#     4  11  24  37  56  91 130 165 201 240 304 396
#     4  12  23  39  66  86 126 171 204 255 319 365
#     4  10  23  39  60  88 117 158 214 263 304 362
#     4  10  21  38  62  92 123 158 207 256 303 372
#
# _framework density 20.238222
#
# number of rings (size 3 to 8) (size 9 to 14) (size 15 to 20)
#    0.000    1.250    0.000    6.000   10.500    4.000 
#    0.000    0.000    0.000    4.500    0.000    0.000 
#    0.000    0.000    0.000    0.000    0.000    0.000 
#
# Total GULP energy -198239.242682 kJ/mol
# GULP energy per Si atom -12389.952668 kJ/mol
# Density = 2.019216 g / cm^3
# Si number density = 20.238222 Si / 1000 Ang^3
#
#
#
# Elastic Constant Matrix: (Units=GPa)
#
#
# Indices 1 2 3 4 5 6 
#
# 1 196.2120 40.5571 37.6398 0.0000 0.1426 0.0000
# 2 40.5571 70.3389 66.9727 0.0000 -1.9518 0.0000
# 3 37.6398 66.9727 92.1541 0.0000 3.4121 0.0000
# 4 0.0000 0.0000 0.0000 30.0262 0.0000 10.0266
# 5 0.1426 -1.9518 3.4121 0.0000 29.7912 0.0000
# 6 0.0000 0.0000 0.0000 10.0266 0.0000 54.7493
#
#
#
# Elastic Compliance Matrix: (Units=1/GPa)
#
#
# Indices 1 2 3 4 5 6 
#
# 1 0.005790 -0.003588 0.000253 0.000000 -0.000292 0.000000
# 2 -0.003588 0.049831 -0.035019 0.000000 0.007293 0.000000
# 3 0.000253 -0.035019 0.036438 0.000000 -0.006469 0.000000
# 4 0.000000 0.000000 0.000000 0.035474 0.000000 -0.006496
# 5 -0.000292 0.007293 -0.006469 0.000000 0.034787 0.000000
# 6 0.000000 0.000000 0.000000 -0.006496 0.000000 0.019455
#
#
# Mechanical properties :
#
#
# Convention : Reuss Voigt Hill
#
# Bulk Modulus (GPa) = 65.14116 72.11603 68.62859
# Shear Modulus (GPa) = 18.96825 37.14905 28.05865
#
# Velocity S-wave (km/s) = 3.06477 4.28903 3.72750
# Velocity P-wave (km/s) = 6.69185 7.76135 7.24636
#
# Compressibility (1/GPa) = 0.01535128
#
# Stress axis : x y z
#
# Youngs Moduli (GPa) = 172.72036 20.06773 27.44415
#
# Poissons Ratio (x) = 0.07199 -0.00695
# Poissons Ratio (y) = 0.61965 0.96108
# Poissons Ratio (z) = -0.04375 0.70276
#
# Static dielectric constant tensor:
#      x y z
#    x 5.082780 0.000000 0.232110 
#    y 0.000000 3.472460 0.000000 
#    z 0.232110 0.000000 3.601380 
# 
# 
# High freq. dielectric constant tensor:
#      x y z
#    x 1.835920 0.000000 0.006940 
#    y 0.000000 1.767770 0.000000 
#    z 0.006940 0.000000 1.760340 
# 
# From -- ./inp_files/114515.got.cif
#   From: 2010.06.25/outbox.cif.g09.slc.cpg/sg12_58_cif.got.tgz:114515.got - 2010.06.28 00:19:55.
