data_PCOD8108391
_publ_section_title
;
Structure prediction by ZEFSAII (Michael W. Deem and Ramdas Pophale) SiO2 
 PCOD8108391
Probable space group: C 2/M
;
_chemical_formula_sum "Si O2"
_cell_formula_units_Z 40
_cell_length_a 9.990234
_cell_length_b 21.264812
_cell_length_c 11.368636
_cell_angle_alpha 90.000000
_cell_angle_beta 59.235353
_cell_angle_gamma 90.000000
_cell_volume 2075.286632
_symmetry_space_group_name_H-M "C 2/M"
_symmetry_group_IT_number 12
_symmetry_cell_setting 'monoclinic'
loop_
_space_group_symop_operation_xyz
x,y,z
-x,y,-z
-x,-y,-z
x,-y,z
1/2+x,1/2+y,z
1/2-x,1/2+y,-z
1/2-x,1/2-y,-z
1/2+x,1/2-y,z
loop_
_atom_site_type_symbol
_atom_site_label
_atom_site_fract_x
_atom_site_fract_y
_atom_site_fract_z
Si Si1 0.317362 0.929133 0.607185
Si Si2 0.135551 0.251177 0.220426
Si Si3 0.640402 0.838978 0.012564
Si Si4 0.699052 0.298902 0.619862
Si Si5 0.827126 0.928221 0.073052
O O1 0.500000 0.923959 0.500000
O O2 0.235884 0.872255 0.571078
O O3 0.272620 0.918104 0.763808
O O4 0.260688 0.000000 0.594940
O O5 0.083158 0.308204 0.160145
O O6 0.199046 0.280869 0.312107
O O7 0.987554 0.205099 0.292411
O O8 0.278596 0.213538 0.102634
O O9 0.749244 0.897009 0.994992
O O10 0.500000 0.867059 0.000000
O O11 0.750000 0.250000 0.500000
O O12 0.842914 0.000000 0.031503
O O13 0.000000 0.897758 0.000000
#
# Coordination Sequence:
#
# PCOD8108391 Si02
#       5
#     8   8   8   8   8
#     4  10  21  38  61  89 121 161 207 251 302 368
#     4  11  23  38  56  91 118 156 199 252 309 367
#     4  11  22  36  59  85 124 157 196 253 311 364
#     4  12  23  39  63  89 123 157 205 257 308 369
#     4  10  21  38  62  89 120 163 210 254 303 371
#
# _framework density 19.274446999999999
#
# number of rings (size 3 to 8) (size 9 to 14) (size 15 to 20)
#    0.000    1.200    4.000    3.000    0.000    0.400 
#    0.000    0.000    0.000    3.600    0.000    0.000 
#    0.000    0.000    0.000    0.000    0.000    0.000 
#
# Total GULP energy -247864.393531 kJ/mol
# GULP energy per Si atom -12393.219677 kJ/mol
# Density = 1.923058 g / cm^3
# Si number density = 19.274447 Si / 1000 Ang^3
#
#
#
# Elastic Constant Matrix: (Units=GPa)
#
#
# Indices 1 2 3 4 5 6 
#
# 1 141.2462 53.1452 40.2288 0.0000 -2.1939 0.0000
# 2 53.1452 130.4954 28.2447 0.0000 4.6881 0.0000
# 3 40.2288 28.2447 86.9434 0.0000 -1.6933 0.0000
# 4 0.0000 0.0000 0.0000 8.8045 0.0000 -6.9898
# 5 -2.1939 4.6881 -1.6933 0.0000 30.2253 0.0000
# 6 0.0000 0.0000 0.0000 -6.9898 0.0000 33.4554
#
#
#
# Elastic Compliance Matrix: (Units=1/GPa)
#
#
# Indices 1 2 3 4 5 6 
#
# 1 0.009169 -0.003070 -0.003226 0.000000 0.000961 0.000000
# 2 -0.003070 0.009333 -0.001646 0.000000 -0.001763 0.000000
# 3 -0.003226 -0.001646 0.013544 0.000000 0.000780 0.000000
# 4 0.000000 0.000000 0.000000 0.136164 0.000000 0.028449
# 5 0.000961 -0.001763 0.000780 0.000000 0.033472 0.000000
# 6 0.000000 0.000000 0.000000 0.028449 0.000000 0.035834
#
#
# Mechanical properties :
#
#
# Convention : Reuss Voigt Hill
#
# Bulk Modulus (GPa) = 61.87456 66.88027 64.37741
# Shear Modulus (GPa) = 19.32084 30.30145 24.81115
#
# Velocity S-wave (km/s) = 3.16952 3.96928 3.59173
# Velocity P-wave (km/s) = 6.75026 7.46868 7.11854
#
# Compressibility (1/GPa) = 0.01616173
#
# Stress axis : x y z
#
# Youngs Moduli (GPa) = 109.06440 107.14635 73.83148
#
# Poissons Ratio (x) = 0.32897 0.23820
# Poissons Ratio (y) = 0.33486 0.12150
# Poissons Ratio (z) = 0.35188 0.17633
#
# Static dielectric constant tensor:
#      x y z
#    x 3.128270 0.000000 -0.106500 
#    y 0.000000 3.842630 0.000000 
#    z -0.106500 0.000000 3.635060 
# 
# 
# High freq. dielectric constant tensor:
#      x y z
#    x 1.738950 0.000000 -0.016150 
#    y 0.000000 1.759280 0.000000 
#    z -0.016150 0.000000 1.752690 
# 
# From -- ./inp_files/120045.got.cif
#   From: 2010.06.25/outbox.cif.g09.slc.cpg/sg12_61_cif.got.tgz:120045.got - 2010.06.28 00:19:55.
