data_PCOD8108220
_publ_section_title
;
Structure prediction by ZEFSAII (Michael W. Deem and Ramdas Pophale) SiO2 
 PCOD8108220
Probable space group: C 2/M
;
_chemical_formula_sum "Si O2"
_cell_formula_units_Z 56
_cell_length_a 22.073170
_cell_length_b 8.588646
_cell_length_c 14.722883
_cell_angle_alpha 90.000000
_cell_angle_beta 112.810075
_cell_angle_gamma 90.000000
_cell_volume 2572.862741
_symmetry_space_group_name_H-M "C 2/M"
_symmetry_group_IT_number 12
_symmetry_cell_setting 'monoclinic'
loop_
_space_group_symop_operation_xyz
x,y,z
-x,y,-z
-x,-y,-z
x,-y,z
1/2+x,1/2+y,z
1/2-x,1/2+y,-z
1/2-x,1/2-y,-z
1/2+x,1/2-y,z
loop_
_atom_site_type_symbol
_atom_site_label
_atom_site_fract_x
_atom_site_fract_y
_atom_site_fract_z
Si Si1 0.664398 0.179118 0.251454
Si Si2 0.575622 0.684511 0.058013
Si Si3 0.202149 0.320952 0.667679
Si Si4 0.176744 0.681288 0.967590
Si Si5 0.857358 0.325493 0.554252
Si Si6 0.113251 0.819129 0.759000
Si Si7 0.511238 0.320445 0.409039
O O1 0.598820 0.255869 0.170870
O O2 0.727431 0.271497 0.250978
O O3 0.671755 0.197976 0.363444
O O4 0.667302 0.000000 0.222885
O O5 0.576116 0.500000 0.054510
O O6 0.500000 0.744298 0.000000
O O7 0.629425 0.745258 0.016914
O O8 0.189447 0.500000 0.686255
O O9 0.196695 0.294042 0.555433
O O10 0.149890 0.208691 0.684989
O O11 0.183651 0.500000 0.993463
O O12 0.141518 0.707376 0.851752
O O13 0.250000 0.750000 0.000000
O O14 0.885957 0.500000 0.560081
O O15 0.915365 0.202530 0.580873
O O16 0.038606 0.761617 0.697945
O O17 0.118995 0.000000 0.791993
O O18 0.500000 0.235735 0.500000
O O19 0.494293 0.500000 0.411702
#
# Coordination Sequence:
#
# PCOD8108220 Si02
#       7
#     8   8   8   8   8   8   8
#     4  11  24  42  64  92 126 166 211 260 317 376
#     4  11  26  48  71  97 131 171 219 273 331 394
#     4  11  22  39  62  93 129 169 212 257 312 373
#     4  12  26  46  72 100 132 170 218 274 332 392
#     4  10  23  39  60  91 127 166 210 257 309 372
#     4  11  23  40  64  94 129 167 210 259 316 378
#     4  10  21  38  60  89 124 166 209 253 309 372
#
# _framework density 21.765637999999999
#
# number of rings (size 3 to 8) (size 9 to 14) (size 15 to 20)
#    0.000    1.143    1.429    4.286    2.000    4.286 
#    0.000    0.000    0.000    0.000    0.000    0.000 
#    0.000    0.000    0.000    0.000    0.000    0.000 
#
# Total GULP energy -347117.321905 kJ/mol
# GULP energy per Si atom -12397.047211 kJ/mol
# Density = 2.171610 g / cm^3
# Si number density = 21.765638 Si / 1000 Ang^3
#
#
#
# Elastic Constant Matrix: (Units=GPa)
#
#
# Indices 1 2 3 4 5 6 
#
# 1 101.6464 32.8878 33.7540 0.0000 22.0212 0.0000
# 2 32.8878 72.1438 31.6720 0.0000 8.1346 0.0000
# 3 33.7540 31.6720 117.5727 0.0000 19.6892 0.0000
# 4 0.0000 0.0000 0.0000 31.5438 0.0000 0.3949
# 5 22.0212 8.1346 19.6892 0.0000 44.3963 0.0000
# 6 0.0000 0.0000 0.0000 0.3949 0.0000 34.3133
#
#
#
# Elastic Compliance Matrix: (Units=1/GPa)
#
#
# Indices 1 2 3 4 5 6 
#
# 1 0.012931 -0.004622 -0.001658 0.000000 -0.004832 0.000000
# 2 -0.004622 0.017421 -0.003473 0.000000 0.000641 0.000000
# 3 -0.001658 -0.003473 0.010449 0.000000 -0.003175 0.000000
# 4 0.000000 0.000000 0.000000 0.031707 0.000000 -0.000365
# 5 -0.004832 0.000641 -0.003175 0.000000 0.026212 0.000000
# 6 0.000000 0.000000 0.000000 -0.000365 0.000000 0.029147
#
#
# Mechanical properties :
#
#
# Convention : Reuss Voigt Hill
#
# Bulk Modulus (GPa) = 46.96243 54.22119 50.59181
# Shear Modulus (GPa) = 32.36865 34.92061 33.64463
#
# Velocity S-wave (km/s) = 3.86053 4.00983 3.93589
# Velocity P-wave (km/s) = 6.44165 6.81203 6.62943
#
# Compressibility (1/GPa) = 0.02129362
#
# Stress axis : x y z
#
# Youngs Moduli (GPa) = 77.33446 57.40289 95.70531
#
# Poissons Ratio (x) = 0.26532 0.15869
# Poissons Ratio (y) = 0.35744 0.33241
# Poissons Ratio (z) = 0.12823 0.19937
#
# Static dielectric constant tensor:
#      x y z
#    x 3.851800 0.000000 0.106500 
#    y 0.000000 3.831210 0.000000 
#    z 0.106500 0.000000 4.177480 
# 
# 
# High freq. dielectric constant tensor:
#      x y z
#    x 1.851210 0.000000 0.009210 
#    y 0.000000 1.851840 0.000000 
#    z 0.009210 0.000000 1.873780 
# 
# From -- ./inp_files/239049.got.cif
#   From: 2010.06.25/outbox.cif.g09.slc.cpg/sg12_120_cif.got.tgz:239049.got - 2010.06.28 00:19:55.
