data_PCOD8108699
_publ_section_title
;
Structure prediction by ZEFSAII (Michael W. Deem and Ramdas Pophale) SiO2 
 PCOD8108699
Probable space group: C 2/M
;
_chemical_formula_sum "Si O2"
_cell_formula_units_Z 56
_cell_length_a 8.553063
_cell_length_b 22.227276
_cell_length_c 14.545314
_cell_angle_alpha 90.000000
_cell_angle_beta 99.646709
_cell_angle_gamma 90.000000
_cell_volume 2726.127429
_symmetry_space_group_name_H-M "C 2/M"
_symmetry_group_IT_number 12
_symmetry_cell_setting 'monoclinic'
loop_
_space_group_symop_operation_xyz
x,y,z
-x,y,-z
-x,-y,-z
x,-y,z
1/2+x,1/2+y,z
1/2-x,1/2+y,-z
1/2-x,1/2-y,-z
1/2+x,1/2-y,z
loop_
_atom_site_type_symbol
_atom_site_label
_atom_site_fract_x
_atom_site_fract_y
_atom_site_fract_z
Si Si1 0.899549 0.854336 0.400743
Si Si2 0.034903 0.664784 0.906137
Si Si3 0.383967 0.286882 0.905213
Si Si4 0.895428 0.565510 0.226965
Si Si5 0.604143 0.066427 0.423931
Si Si6 0.864139 0.857488 0.724284
Si Si7 0.146982 0.276625 0.570360
O O1 0.730683 0.883531 0.405856
O O2 0.898621 0.782919 0.375566
O O3 0.000000 0.867632 0.500000
O O4 0.989374 0.882856 0.321599
O O5 0.205350 0.697533 0.917422
O O6 0.015531 0.613910 0.827792
O O7 0.899868 0.715923 0.885042
O O8 0.000000 0.632472 0.000000
O O9 0.431251 0.317087 0.813319
O O10 0.500000 0.306915 0.000000
O O11 0.885573 0.500000 0.177037
O O12 0.718276 0.586144 0.234696
O O13 0.987780 0.559226 0.329048
O O14 0.500000 0.088518 0.500000
O O15 0.680906 0.000000 0.451965
O O16 0.735278 0.823499 0.645524
O O17 0.250000 0.250000 0.500000
O O18 0.000000 0.307085 0.500000
#
# Coordination Sequence:
#
# PCOD8108699 Si02
#       7
#     8   8   8   8   8   8   8
#     4  11  23  36  57  88 119 157 204 248 303 361
#     4  10  21  38  64  89 120 158 190 251 306 359
#     4  10  22  38  59  93 127 154 197 243 306 372
#     4  10  24  42  61  87 117 159 211 249 297 361
#     4  10  23  40  60  82 114 162 206 252 296 351
#     4  11  24  38  62  89 122 171 189 254 313 354
#     4  11  23  37  55  89 128 156 199 248 302 367
#
# _framework density 20.54196
#
# number of rings (size 3 to 8) (size 9 to 14) (size 15 to 20)
#    0.000    1.571    2.857    2.571    8.000    2.286 
#    0.000    0.000    0.000    6.857    0.000    0.000 
#    0.000    0.571    0.000    0.000    0.000    0.000 
#
# Total GULP energy -346940.364135 kJ/mol
# GULP energy per Si atom -12390.727291 kJ/mol
# Density = 2.049521 g / cm^3
# Si number density = 20.541960 Si / 1000 Ang^3
#
#
#
# Elastic Constant Matrix: (Units=GPa)
#
#
# Indices 1 2 3 4 5 6 
#
# 1 71.9490 27.7629 41.6791 0.0000 -20.0817 0.0000
# 2 27.7629 100.9817 46.8139 0.0000 -2.1809 0.0000
# 3 41.6791 46.8139 127.1939 0.0000 -16.7572 0.0000
# 4 0.0000 0.0000 0.0000 24.6620 0.0000 -12.2805
# 5 -20.0817 -2.1809 -16.7572 0.0000 41.7847 0.0000
# 6 0.0000 0.0000 0.0000 -12.2805 0.0000 18.9571
#
#
#
# Elastic Compliance Matrix: (Units=1/GPa)
#
#
# Indices 1 2 3 4 5 6 
#
# 1 0.019764 -0.003294 -0.004260 0.000000 0.007618 0.000000
# 2 -0.003294 0.012547 -0.003865 0.000000 -0.002478 0.000000
# 3 -0.004260 -0.003865 0.010963 0.000000 0.002148 0.000000
# 4 0.000000 0.000000 0.000000 0.059857 0.000000 0.038775
# 5 0.007618 -0.002478 0.002148 0.000000 0.028325 0.000000
# 6 0.000000 0.000000 0.000000 0.038775 0.000000 0.077869
#
#
# Mechanical properties :
#
#
# Convention : Reuss Voigt Hill
#
# Bulk Modulus (GPa) = 48.93444 59.18183 54.05814
# Shear Modulus (GPa) = 20.92262 29.33867 25.13064
#
# Velocity S-wave (km/s) = 3.19491 3.78329 3.50148
# Velocity P-wave (km/s) = 6.12236 6.92511 6.53607
#
# Compressibility (1/GPa) = 0.02043550
#
# Stress axis : x y z
#
# Youngs Moduli (GPa) = 50.59685 79.70249 91.21249
#
# Poissons Ratio (x) = 0.26256 0.38859
# Poissons Ratio (y) = 0.16668 0.35252
# Poissons Ratio (z) = 0.21555 0.30804
#
# Static dielectric constant tensor:
#      x y z
#    x 4.830020 0.000000 0.009470 
#    y 0.000000 0.001070 0.000000 
#    z 0.009470 0.000000 3.944090 
# 
# 
# High freq. dielectric constant tensor:
#      x y z
#    x 1.801350 0.000000 -0.016290 
#    y 0.000000 1.792900 0.000000 
#    z -0.016290 0.000000 1.807540 
# 
# From -- ./inp_files/197545.got.cif
#   From: 2010.06.25/outbox.cif.g09.slc.cpg/sg12_99_cif.got.tgz:197545.got - 2010.06.28 00:19:55.
