data_PCOD8108089
_publ_section_title
;
Structure prediction by ZEFSAII (Michael W. Deem and Ramdas Pophale) SiO2 
 PCOD8108089
Probable space group: C 2/M
;
_chemical_formula_sum "Si O2"
_cell_formula_units_Z 56
_cell_length_a 29.043217
_cell_length_b 8.781491
_cell_length_c 11.122384
_cell_angle_alpha 90.000000
_cell_angle_beta 78.366819
_cell_angle_gamma 90.000000
_cell_volume 2778.414046
_symmetry_space_group_name_H-M "C 2/M"
_symmetry_group_IT_number 12
_symmetry_cell_setting 'monoclinic'
loop_
_space_group_symop_operation_xyz
x,y,z
-x,y,-z
-x,-y,-z
x,-y,z
1/2+x,1/2+y,z
1/2-x,1/2+y,-z
1/2-x,1/2-y,-z
1/2+x,1/2-y,z
loop_
_atom_site_type_symbol
_atom_site_label
_atom_site_fract_x
_atom_site_fract_y
_atom_site_fract_z
Si Si1 0.266046 0.679720 0.866451
Si Si2 0.556443 0.821300 0.206358
Si Si3 0.865855 0.177707 0.443716
Si Si4 0.683919 0.322125 0.775843
Si Si5 0.452805 0.175840 0.284096
Si Si6 0.647276 0.178313 0.300621
Si Si7 0.097288 0.323978 0.937021
O O1 0.265678 0.500000 0.878158
O O2 0.231654 0.732010 0.777282
O O3 0.318165 0.735743 0.808127
O O4 0.250000 0.750000 0.000000
O O5 0.505462 0.756556 0.271525
O O6 0.594109 0.781281 0.289157
O O7 0.549866 0.000000 0.192182
O O8 0.573156 0.755700 0.069060
O O9 0.832353 0.220113 0.349914
O O10 0.919064 0.227828 0.388046
O O11 0.845087 0.267234 0.567692
O O12 0.865344 0.000000 0.472523
O O13 0.693466 0.500000 0.785957
O O14 0.644236 0.272515 0.891151
O O15 0.439100 0.195830 0.152322
O O16 0.448951 0.000000 0.326374
O O17 0.657564 0.000000 0.285616
O O18 0.112216 0.500000 0.945705
#
# Coordination Sequence:
#
# PCOD8108089 Si02
#       7
#     8   8   8   8   8   8   8
#     4  12  25  42  64  90 119 148 182 225 278 339
#     4   9  18  32  53  82 113 147 188 234 283 337
#     4  10  22  40  58  81 114 150 192 239 286 337
#     4  10  21  38  60  84 113 150 190 235 286 338
#     4   9  17  32  56  83 111 147 190 234 282 339
#     4  11  23  39  59  83 114 152 194 238 283 335
#     4   9  16  30  55  85 115 146 184 233 288 344
#
# _framework density 20.155384999999999
#
# number of rings (size 3 to 8) (size 9 to 14) (size 15 to 20)
#    0.000    2.000    0.000    3.857    0.000    5.714 
#    0.000    5.714    0.000    3.429    0.000    0.000 
#    0.000    0.000    0.000    0.000    0.000    0.000 
#
# Total GULP energy -347307.776153 kJ/mol
# GULP energy per Si atom -12403.849148 kJ/mol
# Density = 2.010951 g / cm^3
# Si number density = 20.155385 Si / 1000 Ang^3
#
#
#
# Elastic Constant Matrix: (Units=GPa)
#
#
# Indices 1 2 3 4 5 6 
#
# 1 99.4435 42.5987 26.6767 0.0000 -1.4221 0.0000
# 2 42.5987 94.0638 38.9715 0.0000 1.1582 0.0000
# 3 26.6767 38.9715 107.0235 0.0000 0.0143 0.0000
# 4 0.0000 0.0000 0.0000 29.9606 0.0000 -3.1232
# 5 -1.4221 1.1582 0.0143 0.0000 20.2600 0.0000
# 6 0.0000 0.0000 0.0000 -3.1232 0.0000 28.7096
#
#
#
# Elastic Compliance Matrix: (Units=1/GPa)
#
#
# Indices 1 2 3 4 5 6 
#
# 1 0.012646 -0.005224 -0.001250 0.000000 0.001187 0.000000
# 2 -0.005224 0.014688 -0.004046 0.000000 -0.001203 0.000000
# 3 -0.001250 -0.004046 0.011129 0.000000 0.000136 0.000000
# 4 0.000000 0.000000 0.000000 0.033760 0.000000 0.003673
# 5 0.001187 -0.001203 0.000136 0.000000 0.049510 0.000000
# 6 0.000000 0.000000 0.000000 0.003673 0.000000 0.035231
#
#
# Mechanical properties :
#
#
# Convention : Reuss Voigt Hill
#
# Bulk Modulus (GPa) = 57.39695 57.44718 57.42206
# Shear Modulus (GPa) = 27.20174 28.60496 27.90335
#
# Velocity S-wave (km/s) = 3.67768 3.77134 3.72480
# Velocity P-wave (km/s) = 6.82443 6.89406 6.85933
#
# Compressibility (1/GPa) = 0.01742253
#
# Stress axis : x y z
#
# Youngs Moduli (GPa) = 79.07656 68.08306 89.85740
#
# Poissons Ratio (x) = 0.35564 0.11234
# Poissons Ratio (y) = 0.41307 0.36359
# Poissons Ratio (z) = 0.09886 0.27548
#
# Static dielectric constant tensor:
#      x y z
#    x 3.833600 0.000000 -0.013960 
#    y 0.000000 3.510580 0.000000 
#    z -0.013960 0.000000 3.636040 
# 
# 
# High freq. dielectric constant tensor:
#      x y z
#    x 1.794740 0.000000 -0.000170 
#    y 0.000000 1.771370 0.000000 
#    z -0.000170 0.000000 1.788160 
# 
# From -- ./inp_files/180714.got.cif
#   From: 2010.06.25/outbox.cif.g09.slc.cpg/sg12_91_cif.got.tgz:180714.got - 2010.06.28 00:19:55.
