data_PCOD8108936
_publ_section_title
;
Structure prediction by ZEFSAII (Michael W. Deem and Ramdas Pophale) SiO2 
 PCOD8108936
Probable space group: C 2/M
;
_chemical_formula_sum "Si O2"
_cell_formula_units_Z 56
_cell_length_a 18.298699
_cell_length_b 9.094345
_cell_length_c 18.175191
_cell_angle_alpha 90.000000
_cell_angle_beta 68.005479
_cell_angle_gamma 90.000000
_cell_volume 2804.485893
_symmetry_space_group_name_H-M "C 2/M"
_symmetry_group_IT_number 12
_symmetry_cell_setting 'monoclinic'
loop_
_space_group_symop_operation_xyz
x,y,z
-x,y,-z
-x,-y,-z
x,-y,z
1/2+x,1/2+y,z
1/2-x,1/2+y,-z
1/2-x,1/2-y,-z
1/2+x,1/2-y,z
loop_
_atom_site_type_symbol
_atom_site_label
_atom_site_fract_x
_atom_site_fract_y
_atom_site_fract_z
Si Si1 0.131733 0.831129 0.844855
Si Si2 0.718672 0.829116 0.303761
Si Si3 0.030219 0.325037 0.124694
Si Si4 0.435232 0.170885 0.723474
Si Si5 0.174249 0.828868 0.994003
Si Si6 0.299525 0.662444 0.538787
Si Si7 0.525104 0.663230 0.567150
O O1 0.195013 0.786443 0.758573
O O2 0.056718 0.725791 0.866150
O O3 0.104074 0.000000 0.845630
O O4 0.176410 0.811549 0.905346
O O5 0.654096 0.790824 0.265757
O O6 0.696430 0.738931 0.384014
O O7 0.715180 0.000000 0.325704
O O8 0.036720 0.500000 0.112548
O O9 0.049316 0.273073 0.200106
O O10 0.093683 0.246862 0.049488
O O11 0.498147 0.246099 0.647131
O O12 0.452437 0.000000 0.711649
O O13 0.175346 0.000000 0.016717
O O14 0.250000 0.750000 0.000000
O O15 0.264094 0.500000 0.564150
O O16 0.250000 0.750000 0.500000
O O17 0.382038 0.652331 0.466811
O O18 0.500000 0.741100 0.500000
O O19 0.486358 0.500000 0.585515
#
# Coordination Sequence:
#
# PCOD8108936 Si02
#       7
#     8   8   8   8   8   8   8
#     4  10  23  42  63  89 125 163 202 248 303 362
#     4  10  21  40  62  85 117 159 201 247 302 358
#     4  11  24  41  62  94 129 160 202 252 299 357
#     4  10  22  39  61  88 120 158 202 251 300 357
#     4  11  23  42  68  95 125 163 204 248 300 360
#     4  11  24  40  59  85 119 156 199 251 304 361
#     4  10  21  39  60  85 117 154 199 253 303 354
#
# _framework density 19.96801
#
# number of rings (size 3 to 8) (size 9 to 14) (size 15 to 20)
#    0.000    1.571    1.429    2.571    2.000    8.286 
#    0.000    1.429    0.000    0.000    0.000    0.000 
#    0.000    0.000    0.000    0.000    0.000    0.000 
#
# Total GULP energy -347250.721612 kJ/mol
# GULP energy per Si atom -12401.811486 kJ/mol
# Density = 1.992256 g / cm^3
# Si number density = 19.968010 Si / 1000 Ang^3
#
#
#
# Elastic Constant Matrix: (Units=GPa)
#
#
# Indices 1 2 3 4 5 6 
#
# 1 103.3525 47.4668 19.0735 0.0000 -1.7438 0.0000
# 2 47.4668 85.6822 38.2594 0.0000 -1.6113 -0.0001
# 3 19.0735 38.2594 83.0981 0.0000 -7.6861 0.0000
# 4 0.0000 0.0000 0.0000 28.3980 0.0000 0.3880
# 5 -1.7438 -1.6113 -7.6861 0.0000 38.1944 0.0000
# 6 0.0000 -0.0001 0.0000 0.3880 0.0000 36.7747
#
#
#
# Elastic Compliance Matrix: (Units=1/GPa)
#
#
# Indices 1 2 3 4 5 6 
#
# 1 0.012994 -0.007396 0.000457 0.000000 0.000373 0.000000
# 2 -0.007396 0.018922 -0.007104 0.000000 -0.000969 0.000000
# 3 0.000457 -0.007104 0.015462 0.000000 0.002833 0.000000
# 4 0.000000 0.000000 0.000000 0.035219 0.000000 -0.000372
# 5 0.000373 -0.000969 0.002833 0.000000 0.026728 0.000000
# 6 0.000000 0.000000 0.000000 -0.000372 0.000000 0.027196
#
#
# Mechanical properties :
#
#
# Convention : Reuss Voigt Hill
#
# Bulk Modulus (GPa) = 51.83297 53.52578 52.67938
# Shear Modulus (GPa) = 29.23330 31.82896 30.53113
#
# Velocity S-wave (km/s) = 3.83038 3.99682 3.91449
# Velocity P-wave (km/s) = 6.75106 6.93999 6.84617
#
# Compressibility (1/GPa) = 0.01929274
#
# Stress axis : x y z
#
# Youngs Moduli (GPa) = 76.95752 52.84835 64.67527
#
# Poissons Ratio (x) = 0.39085 -0.02956
# Poissons Ratio (y) = 0.56915 0.45946
# Poissons Ratio (z) = -0.03517 0.37544
#
# Static dielectric constant tensor:
#      x y z
#    x 3.562940 0.000000 -0.041370 
#    y 0.000000 3.745000 0.000000 
#    z -0.041370 0.000000 3.574390 
# 
# 
# High freq. dielectric constant tensor:
#      x y z
#    x 1.789270 0.000000 0.001120 
#    y 0.000000 1.780090 0.000000 
#    z 0.001120 0.000000 1.788530 
# 
# From -- ./inp_files/275284.got.cif
#   From: 2010.06.25/outbox.cif.g09.slc.cpg/sg12_138_cif.got.tgz:275284.got - 2010.06.28 00:19:55.
