data_PCOD8108455
_publ_section_title
;
Structure prediction by ZEFSAII (Michael W. Deem and Ramdas Pophale) SiO2 
 PCOD8108455
Probable space group: C 2/M
;
_chemical_formula_sum "Si O2"
_cell_formula_units_Z 32
_cell_length_a 5.143083
_cell_length_b 19.345657
_cell_length_c 13.296995
_cell_angle_alpha 90.000000
_cell_angle_beta 108.589432
_cell_angle_gamma 90.000000
_cell_volume 1253.977375
_symmetry_space_group_name_H-M "C 2/M"
_symmetry_group_IT_number 12
_symmetry_cell_setting 'monoclinic'
loop_
_space_group_symop_operation_xyz
x,y,z
-x,y,-z
-x,-y,-z
x,-y,z
1/2+x,1/2+y,z
1/2-x,1/2+y,-z
1/2-x,1/2-y,-z
1/2+x,1/2-y,z
loop_
_atom_site_type_symbol
_atom_site_label
_atom_site_fract_x
_atom_site_fract_y
_atom_site_fract_z
Si Si1 0.295524 0.709999 0.337915
Si Si2 0.928154 0.421759 0.605164
Si Si3 0.306367 0.578167 0.832045
Si Si4 0.856299 0.342510 0.886161
O O1 0.598618 0.741419 0.380941
O O2 0.180733 0.711697 0.209193
O O3 0.301700 0.632047 0.383178
O O4 0.812574 0.500000 0.604973
O O5 0.204413 0.410995 0.704498
O O6 0.000000 0.405861 0.500000
O O7 0.397166 0.500000 0.863130
O O8 0.564577 0.626848 0.883013
O O9 0.057604 0.595814 0.876206
O O10 0.000000 0.305255 0.000000
#
# Coordination Sequence:
#
# PCOD8108455 Si02
#       4
#     8   8   8   8
#     4  11  24  43  65  94 131 169 214 265 318 380
#     4   9  20  42  70  98 130 170 214 263 322 384
#     4  10  21  38  61  93 131 167 210 264 319 381
#     4  11  23  39  61  90 126 170 216 263 317 377
#
# _framework density 25.518799999999999
#
# number of rings (size 3 to 8) (size 9 to 14) (size 15 to 20)
#    0.000    1.750    0.000    4.500    0.000    6.000 
#    0.000   11.250    0.000   34.500    0.000    0.000 
#    0.000    0.000    0.000    0.000    0.000    0.000 
#
# Total GULP energy -198438.818451 kJ/mol
# GULP energy per Si atom -12402.426153 kJ/mol
# Density = 2.546072 g / cm^3
# Si number density = 25.518800 Si / 1000 Ang^3
#
#
#
# Elastic Constant Matrix: (Units=GPa)
#
#
# Indices 1 2 3 4 5 6 
#
# 1 108.8113 20.2064 -4.6445 0.0000 -4.0799 0.0000
# 2 20.2064 83.8852 -7.5095 0.0000 -7.9672 0.0000
# 3 -4.6445 -7.5095 101.8108 0.0000 -5.2076 0.0000
# 4 0.0000 0.0000 0.0000 15.7189 0.0000 -5.5933
# 5 -4.0799 -7.9672 -5.2076 0.0000 26.1667 0.0000
# 6 0.0000 0.0000 0.0000 -5.5933 0.0000 21.2047
#
#
#
# Elastic Compliance Matrix: (Units=1/GPa)
#
#
# Indices 1 2 3 4 5 6 
#
# 1 0.009648 -0.002210 0.000323 0.000000 0.000896 0.000000
# 2 -0.002210 0.012907 0.001045 0.000000 0.003793 0.000000
# 3 0.000323 0.001045 0.010035 0.000000 0.002366 0.000000
# 4 0.000000 0.000000 0.000000 0.070208 0.000000 0.018519
# 5 0.000896 0.003793 0.002366 0.000000 0.039982 0.000000
# 6 0.000000 0.000000 0.000000 0.018519 0.000000 0.052044
#
#
# Mechanical properties :
#
#
# Convention : Reuss Voigt Hill
#
# Bulk Modulus (GPa) = 32.35564 34.51244 33.43404
# Shear Modulus (GPa) = 24.17679 31.71505 27.94592
#
# Velocity S-wave (km/s) = 3.08134 3.52918 3.31284
# Velocity P-wave (km/s) = 5.03649 5.49185 5.26909
#
# Compressibility (1/GPa) = 0.03090651
#
# Stress axis : x y z
#
# Youngs Moduli (GPa) = 103.64846 77.47568 99.65149
#
# Poissons Ratio (x) = 0.17122 -0.03218
# Poissons Ratio (y) = 0.22907 -0.10416
# Poissons Ratio (z) = -0.03347 -0.08098
#
# Static dielectric constant tensor:
#      x y z
#    x 4.350380 0.000000 -0.119950 
#    y 0.000000 4.509720 0.000000 
#    z -0.119950 0.000000 4.934880 
# 
# 
# High freq. dielectric constant tensor:
#      x y z
#    x 2.011800 0.000000 -0.005470 
#    y 0.000000 2.010830 0.000000 
#    z -0.005470 0.000000 2.029140 
# 
# From -- ./inp_files/191234.got.cif
#   From: 2010.06.25/outbox.cif.g09.slc.cpg/sg12_96_cif.got.tgz:191234.got - 2010.06.28 00:19:55.
