data_PCOD8108333
_publ_section_title
;
Structure prediction by ZEFSAII (Michael W. Deem and Ramdas Pophale) SiO2 
 PCOD8108333
Probable space group: C 2/M
;
_chemical_formula_sum "Si O2"
_cell_formula_units_Z 48
_cell_length_a 28.342230
_cell_length_b 8.683879
_cell_length_c 9.812665
_cell_angle_alpha 90.000000
_cell_angle_beta 99.415922
_cell_angle_gamma 90.000000
_cell_volume 2382.558725
_symmetry_space_group_name_H-M "C 2/M"
_symmetry_group_IT_number 12
_symmetry_cell_setting 'monoclinic'
loop_
_space_group_symop_operation_xyz
x,y,z
-x,y,-z
-x,-y,-z
x,-y,z
1/2+x,1/2+y,z
1/2-x,1/2+y,-z
1/2-x,1/2-y,-z
1/2+x,1/2-y,z
loop_
_atom_site_type_symbol
_atom_site_label
_atom_site_fract_x
_atom_site_fract_y
_atom_site_fract_z
Si Si1 0.138390 0.680137 0.245640
Si Si2 0.786696 0.179380 0.122957
Si Si3 0.065643 0.817692 0.413717
Si Si4 0.111405 0.819970 0.957961
Si Si5 0.739651 0.318435 0.348790
Si Si6 0.460314 0.681706 0.301010
O O1 0.148871 0.500000 0.253082
O O2 0.108656 0.726740 0.364523
O O3 0.188346 0.769225 0.266945
O O4 0.109060 0.726382 0.097105
O O5 0.839961 0.212691 0.099143
O O6 0.780601 0.258496 0.266662
O O7 0.775878 0.000000 0.131962
O O8 0.750000 0.250000 0.000000
O O9 0.062698 0.758804 0.568288
O O10 0.015928 0.772366 0.315449
O O11 0.075177 0.000000 0.408224
O O12 0.068482 0.755179 0.843029
O O13 0.105208 0.000000 0.988850
O O14 0.741929 0.500000 0.358525
O O15 0.750000 0.250000 0.500000
O O16 0.455382 0.500000 0.303986
#
# Coordination Sequence:
#
# PCOD8108333 Si02
#       6
#     8   8   8   8   8   8
#     4  12  25  40  58  87 123 159 202 247 300 361
#     4  11  22  38  62  90 123 161 202 247 299 355
#     4   9  18  37  64  89 118 154 196 251 304 357
#     4  10  21  38  61  88 118 159 204 247 296 356
#     4  12  26  44  64  89 122 159 202 249 302 359
#     4   8  17  36  63  92 115 149 202 248 299 364
#
# _framework density 20.146408000000001
#
# number of rings (size 3 to 8) (size 9 to 14) (size 15 to 20)
#    0.000    1.667    1.667    4.500    2.333    1.333 
#    0.000    6.667    0.000    0.000    0.000    0.000 
#    0.000    0.000    0.000    0.000    0.000    0.000 
#
# Total GULP energy -297672.159642 kJ/mol
# GULP energy per Si atom -12403.006652 kJ/mol
# Density = 2.010055 g / cm^3
# Si number density = 20.146408 Si / 1000 Ang^3
#
#
#
# Elastic Constant Matrix: (Units=GPa)
#
#
# Indices 1 2 3 4 5 6 
#
# 1 42.0945 13.1909 1.5934 0.0000 -0.6928 0.0000
# 2 13.1909 90.6427 19.6265 0.0000 -8.1505 0.0000
# 3 1.5934 19.6265 90.5889 0.0000 2.9242 0.0000
# 4 0.0000 0.0000 0.0000 34.0585 0.0000 -5.4871
# 5 -0.6928 -8.1505 2.9242 0.0000 40.9116 0.0000
# 6 0.0000 0.0000 0.0000 -5.4871 0.0000 23.6749
#
#
#
# Elastic Compliance Matrix: (Units=1/GPa)
#
#
# Indices 1 2 3 4 5 6 
#
# 1 0.024908 -0.003739 0.000383 0.000000 -0.000351 0.000000
# 2 -0.003739 0.012396 -0.002704 0.000000 0.002599 0.000000
# 3 0.000383 -0.002704 0.011662 0.000000 -0.001366 0.000000
# 4 0.000000 0.000000 0.000000 0.030500 0.000000 0.007069
# 5 -0.000351 0.002599 -0.001366 0.000000 0.025052 0.000000
# 6 0.000000 0.000000 0.000000 0.007069 0.000000 0.043877
#
#
# Mechanical properties :
#
#
# Convention : Reuss Voigt Hill
#
# Bulk Modulus (GPa) = 27.14002 32.46086 29.80044
# Shear Modulus (GPa) = 28.93581 32.32333 30.62957
#
# Velocity S-wave (km/s) = 3.79394 4.00987 3.90340
# Velocity P-wave (km/s) = 5.71774 6.13076 5.92785
#
# Compressibility (1/GPa) = 0.03684595
#
# Stress axis : x y z
#
# Youngs Moduli (GPa) = 40.14849 80.67357 85.74862
#
# Poissons Ratio (x) = 0.30166 -0.03287
# Poissons Ratio (y) = 0.15012 0.23184
# Poissons Ratio (z) = -0.01539 0.21812
#
# Static dielectric constant tensor:
#      x y z
#    x 3.630670 0.000000 0.199630 
#    y 0.000000 158.231230 0.000000 
#    z 0.199630 0.000000 3.970010 
# 
# 
# High freq. dielectric constant tensor:
#      x y z
#    x 1.789560 0.000000 -0.000660 
#    y 0.000000 1.767150 0.000000 
#    z -0.000660 0.000000 1.800540 
# 
# From -- ./inp_files/108644.got.cif
#   From: 2010.06.25/outbox.cif.g09.slc.cpg/sg12_55_cif.got.tgz:108644.got - 2010.06.28 00:19:55.
