data_PCOD8108854
_publ_section_title
;
Structure prediction by ZEFSAII (Michael W. Deem and Ramdas Pophale) SiO2 
 PCOD8108854
Probable space group: C 2/M
;
_chemical_formula_sum "Si O2"
_cell_formula_units_Z 48
_cell_length_a 10.187685
_cell_length_b 14.913330
_cell_length_c 16.531577
_cell_angle_alpha 90.000000
_cell_angle_beta 98.298230
_cell_angle_gamma 90.000000
_cell_volume 2485.383981
_symmetry_space_group_name_H-M "C 2/M"
_symmetry_group_IT_number 12
_symmetry_cell_setting 'monoclinic'
loop_
_space_group_symop_operation_xyz
x,y,z
-x,y,-z
-x,-y,-z
x,-y,z
1/2+x,1/2+y,z
1/2-x,1/2+y,-z
1/2-x,1/2-y,-z
1/2+x,1/2-y,z
loop_
_atom_site_type_symbol
_atom_site_label
_atom_site_fract_x
_atom_site_fract_y
_atom_site_fract_z
Si Si1 0.875608 0.896367 0.542884
Si Si2 0.882825 0.602679 0.100363
Si Si3 0.682410 0.102841 0.086521
Si Si4 0.174077 0.240089 0.793326
Si Si5 0.401579 0.256900 0.685350
Si Si6 0.901543 0.397349 0.563520
O O1 0.869704 0.838188 0.622786
O O2 0.747201 0.877184 0.477684
O O3 0.000000 0.866967 0.500000
O O4 0.884191 0.000000 0.569942
O O5 0.865798 0.500000 0.125839
O O6 0.816059 0.663582 0.162591
O O7 0.037247 0.628064 0.106599
O O8 0.810124 0.619503 0.008724
O O9 0.791489 0.163362 0.139231
O O10 0.714777 0.000000 0.109532
O O11 0.272328 0.239314 0.726856
O O12 0.026389 0.217325 0.751173
O O13 0.436668 0.165146 0.641968
O O14 0.919591 0.500000 0.593203
O O15 0.000000 0.373383 0.500000
#
# Coordination Sequence:
#
# PCOD8108854 Si02
#       6
#     8   8   8   8   8   8
#     4  10  21  39  59  78 107 151 197 238 285 342
#     4   9  19  39  64  85 113 159 205 239 279 346
#     4   9  19  39  64  85 113 159 205 238 280 348
#     4  12  23  37  56  92 125 152 189 241 301 352
#     4  12  24  35  57  86 123 152 183 241 304 349
#     4  10  21  39  61  82 107 151 206 243 274 339
#
# _framework density 19.312912000000001
#
# number of rings (size 3 to 8) (size 9 to 14) (size 15 to 20)
#    0.000    1.667    1.667    4.500    0.000    2.667 
#    0.000    0.000    0.000    2.000    0.000    0.000 
#    0.000    0.000    0.000    0.000    0.000    0.000 
#
# Total GULP energy -297737.178671 kJ/mol
# GULP energy per Si atom -12405.715778 kJ/mol
# Density = 1.926896 g / cm^3
# Si number density = 19.312912 Si / 1000 Ang^3
#
#
#
# Elastic Constant Matrix: (Units=GPa)
#
#
# Indices 1 2 3 4 5 6 
#
# 1 67.3097 10.1724 8.3146 0.0000 1.8148 0.0000
# 2 10.1724 90.2906 40.3244 0.0000 5.5446 0.0000
# 3 8.3146 40.3244 63.8052 0.0000 4.2485 0.0000
# 4 0.0000 0.0000 0.0000 20.5144 0.0000 -3.7701
# 5 1.8148 5.5446 4.2485 0.0000 31.2538 0.0000
# 6 0.0000 0.0000 0.0000 -3.7701 0.0000 40.6477
#
#
#
# Elastic Compliance Matrix: (Units=1/GPa)
#
#
# Indices 1 2 3 4 5 6 
#
# 1 0.015193 -0.001130 -0.001231 0.000000 -0.000514 0.000000
# 2 -0.001130 0.015578 -0.009605 0.000000 -0.001392 0.000000
# 3 -0.001231 -0.009605 0.021984 0.000000 -0.001213 0.000000
# 4 0.000000 0.000000 0.000000 0.049592 0.000000 0.004600
# 5 -0.000514 -0.001392 -0.001213 0.000000 0.032438 0.000000
# 6 0.000000 0.000000 0.000000 0.004600 0.000000 0.025028
#
#
# Mechanical properties :
#
#
# Convention : Reuss Voigt Hill
#
# Bulk Modulus (GPa) = 34.69538 37.66981 36.18260
# Shear Modulus (GPa) = 25.85926 29.32278 27.59102
#
# Velocity S-wave (km/s) = 3.66315 3.90076 3.78382
# Velocity P-wave (km/s) = 5.99128 6.31152 6.15348
#
# Compressibility (1/GPa) = 0.02882228
#
# Stress axis : x y z
#
# Youngs Moduli (GPa) = 65.81768 64.19351 45.48698
#
# Poissons Ratio (x) = 0.07255 0.05601
# Poissons Ratio (y) = 0.07439 0.43691
# Poissons Ratio (z) = 0.08104 0.61659
#
# Static dielectric constant tensor:
#      x y z
#    x 3.485360 0.000000 0.026390 
#    y 0.000000 3.573990 0.000000 
#    z 0.026390 0.000000 3.471170 
# 
# 
# High freq. dielectric constant tensor:
#      x y z
#    x 1.750280 0.000000 0.003240 
#    y 0.000000 1.760910 0.000000 
#    z 0.003240 0.000000 1.754270 
# 
# From -- ./inp_files/251416.got.cif
#   From: 2010.06.25/outbox.cif.g09.slc.cpg/sg12_126_cif.got.tgz:251416.got - 2010.06.28 00:19:55.
