data_PCOD8108203
_publ_section_title
;
Structure prediction by ZEFSAII (Michael W. Deem and Ramdas Pophale) SiO2 
 PCOD8108203
Probable space group: C 2/M
;
_chemical_formula_sum "Si O2"
_cell_formula_units_Z 64
_cell_length_a 17.519212
_cell_length_b 29.200910
_cell_length_c 8.015840
_cell_angle_alpha 90.000000
_cell_angle_beta 47.139861
_cell_angle_gamma 90.000000
_cell_volume 3005.893764
_symmetry_space_group_name_H-M "C 2/M"
_symmetry_group_IT_number 12
_symmetry_cell_setting 'monoclinic'
loop_
_space_group_symop_operation_xyz
x,y,z
-x,y,-z
-x,-y,-z
x,-y,z
1/2+x,1/2+y,z
1/2-x,1/2+y,-z
1/2-x,1/2-y,-z
1/2+x,1/2-y,z
loop_
_atom_site_type_symbol
_atom_site_label
_atom_site_fract_x
_atom_site_fract_y
_atom_site_fract_z
Si Si1 0.826307 0.697379 0.549254
Si Si2 0.112803 0.947324 0.881057
Si Si3 0.200630 0.613996 0.903691
Si Si4 0.833343 0.710730 0.897855
Si Si5 0.610129 0.745200 0.862719
Si Si6 0.012670 0.449082 0.285124
Si Si7 0.386518 0.447553 0.728780
Si Si8 0.684879 0.100259 0.550329
O O1 0.703211 0.709466 0.741333
O O2 0.875337 0.721378 0.316684
O O3 0.835396 0.642970 0.538794
O O4 0.885799 0.709749 0.634947
O O5 0.202485 0.921304 0.648659
O O6 0.118094 0.000000 0.816928
O O7 0.129429 0.941493 0.051805
O O8 0.000000 0.926833 0.000000
O O9 0.216577 0.661546 0.979126
O O10 0.304473 0.584313 0.759870
O O11 0.179943 0.622230 0.740525
O O12 0.102459 0.586974 0.119274
O O13 0.906845 0.724739 0.943031
O O14 0.750000 0.750000 0.000000
O O15 0.500000 0.718958 0.000000
O O16 0.044176 0.500000 0.175101
O O17 0.000000 0.450225 0.500000
O O18 0.905885 0.436394 0.348686
O O19 0.500000 0.431544 0.500000
O O20 0.367316 0.500000 0.702720
#
# Coordination Sequence:
#
# PCOD8108203 Si02
#       8
#     8   8   8   8   8   8   8   8
#     4  10  22  41  63  90 127 160 210 264 318 390
#     4  10  21  38  60  88 122 167 215 260 320 383
#     4  12  24  40  64  94 130 170 219 268 327 396
#     4  10  22  42  66  90 126 167 213 266 327 388
#     4  10  22  41  66  92 122 161 210 265 326 386
#     4  11  25  43  64  97 134 175 223 271 331 400
#     4  10  21  39  63  91 125 167 213 265 321 381
#     4  12  24  39  64  92 131 170 214 270 324 393
#
# _framework density 21.291502999999999
#
# number of rings (size 3 to 8) (size 9 to 14) (size 15 to 20)
#    0.000    1.375    1.250    4.125    1.750    6.500 
#    0.000    2.500    0.000    0.000    0.000    0.000 
#    0.000    0.000    0.000    0.000    0.000    0.000 
#
# Total GULP energy -396665.032754 kJ/mol
# GULP energy per Si atom -12395.782274 kJ/mol
# Density = 2.124304 g / cm^3
# Si number density = 21.291503 Si / 1000 Ang^3
#
#
#
# Elastic Constant Matrix: (Units=GPa)
#
#
# Indices 1 2 3 4 5 6 
#
# 1 105.7258 31.4344 44.8461 0.0000 9.4516 0.0000
# 2 31.4344 104.2309 37.5983 0.0000 -2.6347 0.0000
# 3 44.8461 37.5983 81.6440 0.0000 0.5599 0.0000
# 4 0.0000 0.0000 0.0000 16.3602 0.0000 7.1462
# 5 9.4516 -2.6347 0.5599 0.0000 53.8653 0.0000
# 6 0.0000 0.0000 0.0000 7.1462 0.0000 27.3321
#
#
#
# Elastic Compliance Matrix: (Units=1/GPa)
#
#
# Indices 1 2 3 4 5 6 
#
# 1 0.012808 -0.001664 -0.006253 0.000000 -0.002264 0.000000
# 2 -0.001664 0.011742 -0.004500 0.000000 0.000913 0.000000
# 3 -0.006253 -0.004500 0.017751 0.000000 0.000693 0.000000
# 4 0.000000 0.000000 0.000000 0.069005 0.000000 -0.018042
# 5 -0.002264 0.000913 0.000693 0.000000 0.019000 0.000000
# 6 0.000000 0.000000 0.000000 -0.018042 0.000000 0.041304
#
#
# Mechanical properties :
#
#
# Convention : Reuss Voigt Hill
#
# Bulk Modulus (GPa) = 57.25256 57.70647 57.47952
# Shear Modulus (GPa) = 24.71990 31.35963 28.03976
#
# Velocity S-wave (km/s) = 3.41107 3.84196 3.63291
# Velocity P-wave (km/s) = 6.51630 6.84418 6.68225
#
# Compressibility (1/GPa) = 0.01746647
#
# Stress axis : x y z
#
# Youngs Moduli (GPa) = 78.07514 85.16322 56.33604
#
# Poissons Ratio (x) = 0.14173 0.35230
# Poissons Ratio (y) = 0.12993 0.25349
# Poissons Ratio (z) = 0.48824 0.38320
#
# Static dielectric constant tensor:
#      x y z
#    x 4.153290 0.000000 0.266190 
#    y 0.000000 3.841650 0.000000 
#    z 0.266190 0.000000 3.977640 
# 
# 
# High freq. dielectric constant tensor:
#      x y z
#    x 1.850710 0.000000 0.013310 
#    y 0.000000 1.829590 0.000000 
#    z 0.013310 0.000000 1.839440 
# 
# From -- ./inp_files/80737.got.cif
#   From: 2010.06.25/outbox.cif.g09.slc.cpg/sg12_41_cif.got.tgz:80737.got - 2010.06.28 00:19:55.
