data_PCOD8108409
_publ_section_title
;
Structure prediction by ZEFSAII (Michael W. Deem and Ramdas Pophale) SiO2 
 PCOD8108409
Probable space group: C 2/M
;
_chemical_formula_sum "Si O2"
_cell_formula_units_Z 56
_cell_length_a 21.640282
_cell_length_b 16.434874
_cell_length_c 9.010377
_cell_angle_alpha 90.000000
_cell_angle_beta 55.019552
_cell_angle_gamma 90.000000
_cell_volume 2625.672230
_symmetry_space_group_name_H-M "C 2/M"
_symmetry_group_IT_number 12
_symmetry_cell_setting 'monoclinic'
loop_
_space_group_symop_operation_xyz
x,y,z
-x,y,-z
-x,-y,-z
x,-y,z
1/2+x,1/2+y,z
1/2-x,1/2+y,-z
1/2-x,1/2-y,-z
1/2+x,1/2-y,z
loop_
_atom_site_type_symbol
_atom_site_label
_atom_site_fract_x
_atom_site_fract_y
_atom_site_fract_z
Si Si1 0.191863 0.794405 0.970196
Si Si2 0.081157 0.593400 0.713001
Si Si3 0.649963 0.128011 0.922060
Si Si4 0.917490 0.185220 0.638449
Si Si5 0.044680 0.362559 0.309802
Si Si6 0.757826 0.594303 0.632383
Si Si7 0.189969 0.091472 0.415960
O O1 0.153198 0.726125 0.920647
O O2 0.234849 0.857740 0.809599
O O3 0.250000 0.750000 0.000000
O O4 0.127223 0.843429 0.151694
O O5 0.059495 0.500000 0.708417
O O6 0.091492 0.602573 0.875029
O O7 0.157534 0.619014 0.524685
O O8 0.015586 0.652536 0.740766
O O9 0.731799 0.089850 0.783771
O O10 0.616769 0.096349 0.128213
O O11 0.926797 0.282183 0.643089
O O12 0.867272 0.158958 0.566785
O O13 0.000000 0.144709 0.500000
O O14 0.000000 0.414671 0.500000
O O15 0.751451 0.500000 0.678579
O O16 0.704553 0.616118 0.566128
O O17 0.156245 0.000000 0.450560
#
# Coordination Sequence:
#
# PCOD8108409 Si02
#       7
#     8   8   8   8   8   8   8
#     4  11  22  38  62  95 123 156 206 249 306 366
#     4  10  22  40  61  90 126 167 203 246 311 376
#     4  10  21  38  61  90 122 161 208 256 298 370
#     4  10  23  40  60  87 123 161 200 253 306 365
#     4  10  23  36  58  86 128 163 202 250 306 363
#     4   9  22  41  65  93 123 157 205 258 309 365
#     4  10  21  41  64  88 118 164 212 256 311 365
#
# _framework density 21.327870999999998
#
# number of rings (size 3 to 8) (size 9 to 14) (size 15 to 20)
#    0.000    2.000    1.429    1.714    6.000    7.429 
#    0.000    2.143    0.000    1.714    0.000    0.000 
#    0.000    0.000    0.000    0.000    0.000    0.000 
#
# Total GULP energy -346924.297373 kJ/mol
# GULP energy per Si atom -12390.153478 kJ/mol
# Density = 2.127933 g / cm^3
# Si number density = 21.327871 Si / 1000 Ang^3
#
#
#
# Elastic Constant Matrix: (Units=GPa)
#
#
# Indices 1 2 3 4 5 6 
#
# 1 119.4514 46.0497 30.1023 0.0000 6.1215 0.0000
# 2 46.0497 66.0733 30.6812 0.0000 11.4356 0.0000
# 3 30.1023 30.6812 166.0241 0.0000 1.1369 0.0000
# 4 0.0000 0.0000 0.0000 23.1674 0.0000 4.6833
# 5 6.1215 11.4356 1.1369 0.0000 19.5531 0.0000
# 6 0.0000 0.0000 0.0000 4.6833 0.0000 28.1641
#
#
#
# Elastic Compliance Matrix: (Units=1/GPa)
#
#
# Indices 1 2 3 4 5 6 
#
# 1 0.011533 -0.007928 -0.000633 0.000000 0.001063 0.000000
# 2 -0.007928 0.023983 -0.002917 0.000000 -0.011375 0.000000
# 3 -0.000633 -0.002917 0.006667 0.000000 0.001517 0.000000
# 4 0.000000 0.000000 0.000000 0.044666 0.000000 -0.007427
# 5 0.001063 -0.011375 0.001517 0.000000 0.057375 0.000000
# 6 0.000000 0.000000 0.000000 -0.007427 0.000000 0.036741
#
#
# Mechanical properties :
#
#
# Convention : Reuss Voigt Hill
#
# Bulk Modulus (GPa) = 52.01003 62.80170 57.40587
# Shear Modulus (GPa) = 23.77233 30.49129 27.13181
#
# Velocity S-wave (km/s) = 3.34220 3.78517 3.57056
# Velocity P-wave (km/s) = 6.27158 6.97231 6.63120
#
# Compressibility (1/GPa) = 0.01922706
#
# Stress axis : x y z
#
# Youngs Moduli (GPa) = 86.70805 41.69620 149.99969
#
# Poissons Ratio (x) = 0.33056 0.09500
# Poissons Ratio (y) = 0.68740 0.43751
# Poissons Ratio (z) = 0.05491 0.12162
#
# Static dielectric constant tensor:
#      x y z
#    x 3.928930 0.000000 -0.145300 
#    y 0.000000 3.560160 0.000000 
#    z -0.145300 0.000000 4.373040 
# 
# 
# High freq. dielectric constant tensor:
#      x y z
#    x 1.834290 0.000000 -0.002320 
#    y 0.000000 1.802100 0.000000 
#    z -0.002320 0.000000 1.856480 
# 
# From -- ./inp_files/87823.got.cif
#   From: 2010.06.25/outbox.cif.g09.slc.cpg/sg12_44_cif.got.tgz:87823.got - 2010.06.28 00:19:55.
