data_PCOD8108442
_publ_section_title
;
Structure prediction by ZEFSAII (Michael W. Deem and Ramdas Pophale) SiO2 
 PCOD8108442
Probable space group: C 2/M
;
_chemical_formula_sum "Si O2"
_cell_formula_units_Z 64
_cell_length_a 19.078065
_cell_length_b 8.991416
_cell_length_c 30.107513
_cell_angle_alpha 90.000000
_cell_angle_beta 141.352858
_cell_angle_gamma 90.000000
_cell_volume 3225.412934
_symmetry_space_group_name_H-M "C 2/M"
_symmetry_group_IT_number 12
_symmetry_cell_setting 'monoclinic'
loop_
_space_group_symop_operation_xyz
x,y,z
-x,y,-z
-x,-y,-z
x,-y,z
1/2+x,1/2+y,z
1/2-x,1/2+y,-z
1/2-x,1/2-y,-z
1/2+x,1/2-y,z
loop_
_atom_site_type_symbol
_atom_site_label
_atom_site_fract_x
_atom_site_fract_y
_atom_site_fract_z
Si Si1 0.506968 0.176038 0.222128
Si Si2 0.424949 0.824641 0.503815
Si Si3 0.016125 0.826536 0.375899
Si Si4 0.667138 0.675375 0.368847
Si Si5 0.939759 0.172806 0.840849
Si Si6 0.076371 0.172867 0.996839
Si Si7 0.782665 0.830675 0.133414
Si Si8 0.233711 0.167645 0.773785
O O1 0.613605 0.240476 0.300820
O O2 0.506874 0.231603 0.171735
O O3 0.394069 0.233020 0.188890
O O4 0.511129 0.000000 0.225739
O O5 0.500000 0.764309 0.500000
O O6 0.470424 0.758398 0.571691
O O7 0.296512 0.776204 0.433479
O O8 0.435787 0.000000 0.512886
O O9 0.109242 0.773856 0.386307
O O10 0.895148 0.785968 0.296148
O O11 0.029267 0.000000 0.391980
O O12 0.650575 0.500000 0.353397
O O13 0.810987 0.219957 0.784535
O O14 0.012933 0.209257 0.920177
O O15 0.942289 0.000000 0.829628
O O16 0.107117 0.000000 0.016402
O O17 0.191565 0.265659 0.054173
O O18 0.000000 0.224655 0.000000
O O19 0.732773 0.822004 0.158125
O O20 0.811501 0.000000 0.134124
O O21 0.253817 0.000000 0.766145
#
# Coordination Sequence:
#
# PCOD8108442 Si02
#       8
#     8   8   8   8   8   8   8   8
#     4  12  26  42  63  92 126 161 209 260 307 369
#     4  10  23  40  60  92 127 161 205 253 303 363
#     4  10  21  39  63  89 122 163 205 253 302 361
#     4  10  21  42  65  87 124 166 205 251 308 368
#     4  11  24  41  63  89 125 166 203 254 317 370
#     4  10  21  39  62  92 125 160 209 260 308 367
#     4  11  22  40  66  92 125 165 206 253 312 371
#     4  10  21  38  61  92 125 158 206 257 305 366
#
# _framework density 19.842420000000001
#
# number of rings (size 3 to 8) (size 9 to 14) (size 15 to 20)
#    0.000    1.500    2.500    2.250    1.750    4.000 
#    0.000    0.000    0.000    0.000    0.000    0.000 
#    0.000    0.000    0.000    0.000    0.000    0.000 
#
# Total GULP energy -396973.939357 kJ/mol
# GULP energy per Si atom -12405.435605 kJ/mol
# Density = 1.979726 g / cm^3
# Si number density = 19.842420 Si / 1000 Ang^3
#
#
#
# Elastic Constant Matrix: (Units=GPa)
#
#
# Indices 1 2 3 4 5 6 
#
# 1 77.0768 29.6471 40.9009 0.0000 -6.3924 0.0000
# 2 29.6471 70.4001 44.7203 0.0000 -1.4643 -0.0001
# 3 40.9009 44.7203 114.8740 0.0000 2.0537 0.0000
# 4 0.0000 0.0000 0.0000 30.7019 0.0000 -0.1753
# 5 -6.3924 -1.4643 2.0537 0.0000 33.8000 0.0000
# 6 0.0000 -0.0001 0.0000 -0.1753 0.0000 31.2077
#
#
#
# Elastic Compliance Matrix: (Units=1/GPa)
#
#
# Indices 1 2 3 4 5 6 
#
# 1 0.017334 -0.004346 -0.004540 0.000000 0.003366 0.000000
# 2 -0.004346 0.020015 -0.006252 0.000000 0.000425 0.000000
# 3 -0.004540 -0.006252 0.012790 0.000000 -0.001907 0.000000
# 4 0.000000 0.000000 0.000000 0.032572 0.000000 0.000183
# 5 0.003366 0.000425 -0.001907 0.000000 0.030357 0.000000
# 6 0.000000 0.000000 0.000000 0.000183 0.000000 0.032044
#
#
# Mechanical properties :
#
#
# Convention : Reuss Voigt Hill
#
# Bulk Modulus (GPa) = 50.34545 54.76528 52.55537
# Shear Modulus (GPa) = 27.47117 28.94743 28.20930
#
# Velocity S-wave (km/s) = 3.72488 3.82365 3.77459
# Velocity P-wave (km/s) = 6.62777 6.86686 6.74838
#
# Compressibility (1/GPa) = 0.01986277
#
# Stress axis : x y z
#
# Youngs Moduli (GPa) = 57.69005 49.96255 78.18760
#
# Poissons Ratio (x) = 0.21712 0.35499
# Poissons Ratio (y) = 0.25070 0.48884
# Poissons Ratio (z) = 0.26192 0.31237
#
# Static dielectric constant tensor:
#      x y z
#    x 3.645680 0.000000 0.044900 
#    y 0.000000 3.544240 0.000000 
#    z 0.044900 0.000000 3.633470 
# 
# 
# High freq. dielectric constant tensor:
#      x y z
#    x 1.777690 0.000000 0.002220 
#    y 0.000000 1.769330 0.000000 
#    z 0.002220 0.000000 1.783350 
# 
# From -- ./inp_files/378424.got.cif
#   From: 2010.06.25/outbox.cif.g09.slc.cpg/sg12_190_cif.got.tgz:378424.got - 2010.06.28 00:19:55.
