data_PCOD8108232
_publ_section_title
;
Structure prediction by ZEFSAII (Michael W. Deem and Ramdas Pophale) SiO2 
 PCOD8108232
Probable space group: C 2/M
;
_chemical_formula_sum "Si O2"
_cell_formula_units_Z 64
_cell_length_a 29.645451
_cell_length_b 15.082320
_cell_length_c 8.828550
_cell_angle_alpha 90.000000
_cell_angle_beta 126.365155
_cell_angle_gamma 90.000000
_cell_volume 3178.694400
_symmetry_space_group_name_H-M "C 2/M"
_symmetry_group_IT_number 12
_symmetry_cell_setting 'monoclinic'
loop_
_space_group_symop_operation_xyz
x,y,z
-x,y,-z
-x,-y,-z
x,-y,z
1/2+x,1/2+y,z
1/2-x,1/2+y,-z
1/2-x,1/2-y,-z
1/2+x,1/2-y,z
loop_
_atom_site_type_symbol
_atom_site_label
_atom_site_fract_x
_atom_site_fract_y
_atom_site_fract_z
Si Si1 0.060167 0.747085 0.545327
Si Si2 0.358077 0.401863 0.288264
Si Si3 0.440798 0.745210 0.813613
Si Si4 0.261166 0.896685 0.421297
Si Si5 0.253589 0.847178 0.072745
Si Si6 0.127324 0.396308 0.177925
Si Si7 0.150388 0.102141 0.380586
Si Si8 0.132812 0.400392 0.840471
O O1 0.094883 0.832610 0.670132
O O2 0.053178 0.744760 0.352850
O O3 0.092712 0.659476 0.659576
O O4 0.000000 0.751059 0.500000
O O5 0.384398 0.500000 0.326882
O O6 0.338018 0.382382 0.418999
O O7 0.304478 0.397386 0.072657
O O8 0.421620 0.839126 0.843764
O O9 0.398965 0.665742 0.775587
O O10 0.500000 0.718006 0.000000
O O11 0.264181 0.840968 0.273151
O O12 0.314306 0.871006 0.627798
O O13 0.206355 0.869679 0.405301
O O14 0.261116 0.000000 0.379467
O O15 0.303869 0.898921 0.092991
O O16 0.250000 0.750000 0.000000
O O17 0.113025 0.500000 0.170386
O O18 0.131751 0.369021 0.011723
O O19 0.133932 0.000000 0.314432
O O20 0.109824 0.500000 0.780215
#
# Coordination Sequence:
#
# PCOD8108232 Si02
#       8
#     8   8   8   8   8   8   8   8
#     4  11  24  42  63  90 122 157 208 253 300 365
#     4  10  21  41  63  88 123 162 201 248 302 358
#     4  11  24  40  62  88 119 160 201 253 300 354
#     4  10  21  38  60  91 123 157 199 245 297 360
#     4  12  23  35  59  94 128 160 197 246 298 363
#     4  10  23  41  64  90 120 157 201 251 302 357
#     4   9  21  40  63  89 120 158 202 248 299 355
#     4  11  23  42  64  89 123 162 201 250 306 361
#
# _framework density 20.134052000000001
#
# number of rings (size 3 to 8) (size 9 to 14) (size 15 to 20)
#    0.000    1.500    1.250    3.375    3.500    6.000 
#    0.000    0.000    0.000    0.000    0.000    0.000 
#    0.000    0.000    0.000    0.000    0.000    0.000 
#
# Total GULP energy -396989.623314 kJ/mol
# GULP energy per Si atom -12405.925729 kJ/mol
# Density = 2.008823 g / cm^3
# Si number density = 20.134052 Si / 1000 Ang^3
#
#
#
# Elastic Constant Matrix: (Units=GPa)
#
#
# Indices 1 2 3 4 5 6 
#
# 1 515.3931 70.4842 -39.9461 0.0000 -67.1279 0.0000
# 2 70.4842 93.5357 28.4505 0.0000 -3.4866 0.0000
# 3 -39.9461 28.4505 114.9634 0.0000 20.1018 0.0000
# 4 0.0000 0.0000 0.0000 22.3234 0.0000 -7.3864
# 5 -67.1279 -3.4866 20.1018 0.0000 47.8497 0.0000
# 6 0.0000 0.0000 0.0000 -7.3864 0.0000 24.6424
#
#
#
# Elastic Compliance Matrix: (Units=1/GPa)
#
#
# Indices 1 2 3 4 5 6 
#
# 1 0.002747 -0.002230 0.000929 0.000000 0.003301 0.000000
# 2 -0.002230 0.013591 -0.004063 0.000000 -0.000431 0.000000
# 3 0.000929 -0.004063 0.010632 0.000000 -0.003459 0.000000
# 4 0.000000 0.000000 0.000000 0.049728 0.000000 0.014906
# 5 0.003301 -0.000431 -0.003459 0.000000 0.026952 0.000000
# 6 0.000000 0.000000 0.000000 0.014906 0.000000 0.045048
#
#
# Mechanical properties :
#
#
# Convention : Reuss Voigt Hill
#
# Bulk Modulus (GPa) = 61.56543 93.54106 77.55325
# Shear Modulus (GPa) = 30.33262 63.29000 46.81131
#
# Velocity S-wave (km/s) = 3.88562 5.61271 4.82704
# Velocity P-wave (km/s) = 7.12565 9.41081 8.34680
#
# Compressibility (1/GPa) = 0.01624288
#
# Stress axis : x y z
#
# Youngs Moduli (GPa) = 364.01008 73.57794 94.05990
#
# Poissons Ratio (x) = 0.16406 -0.08739
# Poissons Ratio (y) = 0.81163 0.38215
# Poissons Ratio (z) = -0.33821 0.29894
#
# Static dielectric constant tensor:
#      x y z
#    x 3.641040 0.000000 -0.035830 
#    y 0.000000 3.752260 0.000000 
#    z -0.035830 0.000000 3.780070 
# 
# 
# High freq. dielectric constant tensor:
#      x y z
#    x 1.785250 0.000000 -0.006510 
#    y 0.000000 1.796740 0.000000 
#    z -0.006510 0.000000 1.790940 
# 
# From -- ./inp_files/112056.got.cif
#   From: 2010.06.25/outbox.cif.g09.slc.cpg/sg12_57_cif.got.tgz:112056.got - 2010.06.28 00:19:55.
