data_PCOD8108926
_publ_section_title
;
Structure prediction by ZEFSAII (Michael W. Deem and Ramdas Pophale) SiO2 
 PCOD8108926
Probable space group: C 2/M
;
_chemical_formula_sum "Si O2"
_cell_formula_units_Z 56
_cell_length_a 14.341531
_cell_length_b 8.595820
_cell_length_c 27.872822
_cell_angle_alpha 90.000000
_cell_angle_beta 122.154704
_cell_angle_gamma 90.000000
_cell_volume 2909.037404
_symmetry_space_group_name_H-M "C 2/M"
_symmetry_group_IT_number 12
_symmetry_cell_setting 'monoclinic'
loop_
_space_group_symop_operation_xyz
x,y,z
-x,y,-z
-x,-y,-z
x,-y,z
1/2+x,1/2+y,z
1/2-x,1/2+y,-z
1/2-x,1/2-y,-z
1/2+x,1/2-y,z
loop_
_atom_site_type_symbol
_atom_site_label
_atom_site_fract_x
_atom_site_fract_y
_atom_site_fract_z
Si Si1 0.409345 0.817093 0.645139
Si Si2 0.513155 0.318116 0.766439
Si Si3 0.485133 0.315707 0.573014
Si Si4 0.053195 0.683022 0.154181
Si Si5 0.745285 0.817046 0.848775
Si Si6 0.329287 0.683892 0.448382
Si Si7 0.686744 0.182014 0.938017
O O1 0.440076 0.723451 0.700833
O O2 0.492909 0.776137 0.625204
O O3 0.291795 0.750646 0.594935
O O4 0.408823 0.000000 0.656193
O O5 0.538966 0.500000 0.775153
O O6 0.442749 0.269582 0.793756
O O7 0.628067 0.225809 0.793606
O O8 0.483340 0.500000 0.581965
O O9 0.592706 0.262216 0.573590
O O10 0.378085 0.259725 0.512924
O O11 0.052444 0.500000 0.164264
O O12 0.157256 0.726707 0.150688
O O13 0.941158 0.734459 0.096141
O O14 0.743983 0.763613 0.904097
O O15 0.764809 0.000000 0.848525
O O16 0.327798 0.500000 0.449083
O O17 0.694874 0.000000 0.944307
O O18 0.750000 0.250000 0.000000
#
# Coordination Sequence:
#
# PCOD8108926 Si02
#       7
#     8   8   8   8   8   8   8
#     4  11  21  34  52  78 108 138 173 223 279 329
#     4  11  23  39  57  79 107 145 188 234 280 327
#     4   9  17  34  55  76 101 136 179 217 261 328
#     4  10  21  39  60  84 113 149 187 228 276 329
#     4  10  21  39  60  84 112 147 187 230 277 329
#     4   8  17  33  54  75 102 138 174 214 266 326
#     4   9  20  36  56  84 119 151 186 228 269 316
#
# _framework density 19.250354000000002
#
# number of rings (size 3 to 8) (size 9 to 14) (size 15 to 20)
#    0.000    2.286    0.000    4.714    0.000    5.143 
#    0.000   10.714    0.000    0.000    0.000    0.000 
#    0.000    0.000    0.000    0.000    0.000    0.000 
#
# Total GULP energy -347189.923902 kJ/mol
# GULP energy per Si atom -12399.640139 kJ/mol
# Density = 1.920654 g / cm^3
# Si number density = 19.250354 Si / 1000 Ang^3
#
#
#
# Elastic Constant Matrix: (Units=GPa)
#
#
# Indices 1 2 3 4 5 6 
#
# 1 101.3731 13.6597 41.8905 0.0000 -7.5818 0.0000
# 2 13.6597 45.3475 21.3535 0.0000 -5.6554 0.0000
# 3 41.8905 21.3535 105.4186 0.0000 -16.0261 0.0000
# 4 0.0000 0.0000 0.0000 31.8239 0.0000 -2.6627
# 5 -7.5818 -5.6554 -16.0261 0.0000 20.3845 0.0000
# 6 0.0000 0.0000 0.0000 -2.6627 0.0000 31.1983
#
#
#
# Elastic Compliance Matrix: (Units=1/GPa)
#
#
# Indices 1 2 3 4 5 6 
#
# 1 0.011901 -0.001465 -0.004340 0.000000 0.000608 0.000000
# 2 -0.001465 0.024751 -0.003941 0.000000 0.003223 0.000000
# 3 -0.004340 -0.003941 0.013171 0.000000 0.007648 0.000000
# 4 0.000000 0.000000 0.000000 0.031649 0.000000 0.002701
# 5 0.000608 0.003223 0.007648 0.000000 0.056190 0.000000
# 6 0.000000 0.000000 0.000000 0.002701 0.000000 0.032284
#
#
# Mechanical properties :
#
#
# Convention : Reuss Voigt Hill
#
# Bulk Modulus (GPa) = 32.97009 45.10517 39.03763
# Shear Modulus (GPa) = 25.05653 28.36372 26.71013
#
# Velocity S-wave (km/s) = 3.61170 3.84267 3.72898
# Velocity P-wave (km/s) = 5.87850 6.57038 6.23404
#
# Compressibility (1/GPa) = 0.03033052
#
# Stress axis : x y z
#
# Youngs Moduli (GPa) = 84.02787 40.40211 75.92166
#
# Poissons Ratio (x) = 0.05921 0.32948
# Poissons Ratio (y) = 0.12314 0.29923
# Poissons Ratio (z) = 0.36466 0.15923
#
# Static dielectric constant tensor:
#      x y z
#    x 3.636370 0.000000 0.104210 
#    y 0.000000 3.349980 0.000000 
#    z 0.104210 0.000000 3.259840 
# 
# 
# High freq. dielectric constant tensor:
#      x y z
#    x 1.754800 0.000000 -0.004000 
#    y 0.000000 1.740210 0.000000 
#    z -0.004000 0.000000 1.749420 
# 
# From -- ./inp_files/375122.got.cif
#   From: 2010.06.25/outbox.cif.g09.slc.cpg/sg12_188_cif.got.tgz:375122.got - 2010.06.28 00:19:55.
