data_PCOD8108301
_publ_section_title
;
Structure prediction by ZEFSAII (Michael W. Deem and Ramdas Pophale) SiO2 
 PCOD8108301
Probable space group: C 2/M
;
_chemical_formula_sum "Si O2"
_cell_formula_units_Z 48
_cell_length_a 27.502753
_cell_length_b 8.852921
_cell_length_c 11.560138
_cell_angle_alpha 90.000000
_cell_angle_beta 123.052524
_cell_angle_gamma 90.000000
_cell_volume 2359.165307
_symmetry_space_group_name_H-M "C 2/M"
_symmetry_group_IT_number 12
_symmetry_cell_setting 'monoclinic'
loop_
_space_group_symop_operation_xyz
x,y,z
-x,y,-z
-x,-y,-z
x,-y,z
1/2+x,1/2+y,z
1/2-x,1/2+y,-z
1/2-x,1/2-y,-z
1/2+x,1/2-y,z
loop_
_atom_site_type_symbol
_atom_site_label
_atom_site_fract_x
_atom_site_fract_y
_atom_site_fract_z
Si Si1 0.401832 0.175790 0.112377
Si Si2 0.774291 0.673350 0.322504
Si Si3 0.878441 0.674833 0.616420
Si Si4 0.304206 0.322859 0.132514
Si Si5 0.483805 0.175553 0.603546
Si Si6 0.359085 0.322676 0.826988
O O1 0.362652 0.261071 0.153788
O O2 0.467467 0.205377 0.236777
O O3 0.385584 0.000000 0.092355
O O4 0.393144 0.239660 0.973157
O O5 0.776741 0.500000 0.282446
O O6 0.812423 0.694821 0.487137
O O7 0.802820 0.781431 0.264864
O O8 0.708524 0.724049 0.260232
O O9 0.891981 0.500000 0.661945
O O10 0.923406 0.738255 0.578002
O O11 0.887210 0.770909 0.743494
O O12 0.301586 0.500000 0.110562
O O13 0.250000 0.250000 0.000000
O O14 0.500000 0.252196 0.500000
O O15 0.474815 0.000000 0.567323
O O16 0.367129 0.500000 0.853247
#
# Coordination Sequence:
#
# PCOD8108301 Si02
#       6
#     8   8   8   8   8   8
#     4  11  22  38  62  89 119 157 200 248 298 350
#     4  10  21  38  61  87 119 159 201 247 296 350
#     4  10  21  39  63  88 116 156 205 251 294 348
#     4  12  23  36  58  88 121 155 194 241 295 352
#     4   9  19  38  64  90 115 149 199 251 296 348
#     4  11  23  38  57  86 124 160 198 246 301 360
#
# _framework density 20.346178999999999
#
# number of rings (size 3 to 8) (size 9 to 14) (size 15 to 20)
#    0.000    1.500    1.667    4.000    0.000    4.667 
#    0.000    5.000    0.000    3.500    0.000    0.000 
#    0.000    0.000    0.000    0.000    0.000    0.000 
#
# Total GULP energy -297669.341726 kJ/mol
# GULP energy per Si atom -12402.889239 kJ/mol
# Density = 2.029987 g / cm^3
# Si number density = 20.346179 Si / 1000 Ang^3
#
#
#
# Elastic Constant Matrix: (Units=GPa)
#
#
# Indices 1 2 3 4 5 6 
#
# 1 103.0448 26.8294 54.2285 0.0000 -13.4435 0.0000
# 2 26.8294 91.1113 43.8018 0.0000 -4.3748 0.0000
# 3 54.2285 43.8018 110.1397 0.0000 -15.1746 0.0000
# 4 0.0000 0.0000 0.0000 26.8963 0.0000 -3.2896
# 5 -13.4435 -4.3748 -15.1746 0.0000 33.1854 0.0000
# 6 0.0000 0.0000 0.0000 -3.2896 0.0000 28.1113
#
#
#
# Elastic Compliance Matrix: (Units=1/GPa)
#
#
# Indices 1 2 3 4 5 6 
#
# 1 0.013374 -0.001014 -0.005820 0.000000 0.002623 0.000000
# 2 -0.001014 0.013663 -0.005062 0.000000 -0.000924 0.000000
# 3 -0.005820 -0.005062 0.014452 0.000000 0.003583 0.000000
# 4 0.000000 0.000000 0.000000 0.037720 0.000000 0.004414
# 5 0.002623 -0.000924 0.003583 0.000000 0.032713 0.000000
# 6 0.000000 0.000000 0.000000 0.004414 0.000000 0.036089
#
#
# Mechanical properties :
#
#
# Convention : Reuss Voigt Hill
#
# Bulk Modulus (GPa) = 56.50793 61.55725 59.03259
# Shear Modulus (GPa) = 28.13712 29.60101 28.86907
#
# Velocity S-wave (km/s) = 3.72280 3.81841 3.77091
# Velocity P-wave (km/s) = 6.80533 7.05415 6.93085
#
# Compressibility (1/GPa) = 0.01769663
#
# Stress axis : x y z
#
# Youngs Moduli (GPa) = 74.77441 73.18864 69.19643
#
# Poissons Ratio (x) = 0.07423 0.40272
# Poissons Ratio (y) = 0.07584 0.35026
# Poissons Ratio (z) = 0.43518 0.37047
#
# Static dielectric constant tensor:
#      x y z
#    x 608.643630 0.000000 23.161490 
#    y 0.000000 3.635460 0.000000 
#    z 23.161490 0.000000 4.590810 
# 
# 
# High freq. dielectric constant tensor:
#      x y z
#    x 1.799540 0.000000 -0.002340 
#    y 0.000000 1.776100 0.000000 
#    z -0.002340 0.000000 1.804640 
# 
# From -- ./inp_files/179723.got.cif
#   From: 2010.06.25/outbox.cif.g09.slc.cpg/sg12_90_cif.got.tgz:179723.got - 2010.06.28 00:19:55.
