data_PCOD8108589
_publ_section_title
;
Structure prediction by ZEFSAII (Michael W. Deem and Ramdas Pophale) SiO2 
 PCOD8108589
Probable space group: C 2/M
;
_chemical_formula_sum "Si O2"
_cell_formula_units_Z 64
_cell_length_a 16.220563
_cell_length_b 16.064167
_cell_length_c 24.867997
_cell_angle_alpha 90.000000
_cell_angle_beta 28.762005
_cell_angle_gamma 90.000000
_cell_volume 3117.925254
_symmetry_space_group_name_H-M "C 2/M"
_symmetry_group_IT_number 12
_symmetry_cell_setting 'monoclinic'
loop_
_space_group_symop_operation_xyz
x,y,z
-x,y,-z
-x,-y,-z
x,-y,z
1/2+x,1/2+y,z
1/2-x,1/2+y,-z
1/2-x,1/2-y,-z
1/2+x,1/2-y,z
loop_
_atom_site_type_symbol
_atom_site_label
_atom_site_fract_x
_atom_site_fract_y
_atom_site_fract_z
Si Si1 0.191252 0.407820 0.908294
Si Si2 0.147117 0.254575 0.375971
Si Si3 0.439176 0.782844 0.287285
Si Si4 0.713334 0.737437 0.960286
Si Si5 0.098334 0.594310 0.341508
Si Si6 0.459269 0.408663 0.084956
Si Si7 0.950371 0.833050 0.679313
Si Si8 0.290762 0.905455 0.445722
O O1 0.250581 0.500000 0.897474
O O2 0.192529 0.330857 0.948948
O O3 0.304418 0.386933 0.791331
O O4 0.000000 0.419035 0.000000
O O5 0.334922 0.251625 0.295500
O O6 0.121765 0.353006 0.382125
O O7 0.135327 0.213199 0.323094
O O8 0.000000 0.219358 0.500000
O O9 0.629068 0.807564 0.159708
O O10 0.454058 0.723483 0.330823
O O11 0.328314 0.862290 0.367477
O O12 0.750000 0.750000 0.000000
O O13 0.553460 0.674608 0.051094
O O14 0.076874 0.500000 0.372544
O O15 0.257851 0.606529 0.209521
O O16 0.926525 0.629330 0.411584
O O17 0.510908 0.500000 0.081642
O O18 0.500000 0.415841 0.000000
O O19 0.095982 0.894509 0.574650
O O20 0.333439 0.000000 0.410940
#
# Coordination Sequence:
#
# PCOD8108589 Si02
#       8
#     8   8   8   8   8   8   8   8
#     4  10  24  44  67  94 126 175 227 268 319 391
#     4  12  23  39  66  93 131 169 215 269 327 396
#     4  11  23  40  62  98 125 167 220 265 321 395
#     4  11  24  39  64  94 131 172 216 267 332 389
#     4  10  22  38  62  96 129 164 209 266 329 394
#     4  10  21  38  62  93 126 164 212 264 324 388
#     4  11  23  43  66  92 130 172 219 266 330 393
#     4  11  21  39  64  92 127 165 210 266 327 384
#
# _framework density 20.52647
#
# number of rings (size 3 to 8) (size 9 to 14) (size 15 to 20)
#    0.000    1.250    2.500    3.375    5.250    2.250 
#    0.000    6.250    0.000    0.000    0.000    0.000 
#    0.000    0.000    0.000    0.000    0.000    0.000 
#
# Total GULP energy -396476.774693 kJ/mol
# GULP energy per Si atom -12389.899209 kJ/mol
# Density = 2.047975 g / cm^3
# Si number density = 20.526470 Si / 1000 Ang^3
#
#
#
# Elastic Constant Matrix: (Units=GPa)
#
#
# Indices 1 2 3 4 5 6 
#
# 1 115.0666 55.1191 19.9687 -0.0041 -2.9987 0.0011
# 2 55.1191 117.3128 35.5983 -0.0120 0.2898 0.0023
# 3 19.9687 35.5983 88.9558 -0.0874 -6.8414 0.0165
# 4 -0.0041 -0.0120 -0.0874 114.5703 0.0167 -14.7153
# 5 -2.9987 0.2898 -6.8414 0.0167 30.0068 -0.0028
# 6 0.0011 0.0023 0.0165 -14.7153 -0.0028 21.2858
#
#
#
# Elastic Compliance Matrix: (Units=1/GPa)
#
#
# Indices 1 2 3 4 5 6 
#
# 1 0.011267 -0.005184 -0.000371 -0.000001 0.001091 0.000000
# 2 -0.005184 0.012117 -0.003801 -0.000002 -0.001502 0.000001
# 3 -0.000371 -0.003801 0.013075 0.000009 0.002981 -0.000003
# 4 -0.000001 -0.000002 0.000009 0.009579 -0.000003 0.006622
# 5 0.001091 -0.001502 0.002981 -0.000003 0.034129 0.000000
# 6 0.000000 0.000001 -0.000003 0.006622 0.000000 0.051558
#
#
# Mechanical properties :
#
#
# Convention : Reuss Voigt Hill
#
# Bulk Modulus (GPa) = 56.34475 60.30083 58.32279
# Shear Modulus (GPa) = 31.97948 47.21584 39.59766
#
# Velocity S-wave (km/s) = 3.95139 4.80129 4.39692
# Velocity P-wave (km/s) = 6.95179 7.75741 7.36562
#
# Compressibility (1/GPa) = 0.01774788
#
# Stress axis : x y z
#
# Youngs Moduli (GPa) = 88.75860 82.52979 76.48190
#
# Poissons Ratio (x) = 0.42781 0.02835
# Poissons Ratio (y) = 0.46010 0.29069
# Poissons Ratio (z) = 0.03290 0.31368
#
# Static dielectric constant tensor:
#      x y z
#    x 3.699650 -0.000040 -0.127210 
#    y -0.000040 1.895090 -0.000060 
#    z -0.127210 -0.000060 3.846740 
# 
# 
# High freq. dielectric constant tensor:
#      x y z
#    x 1.787300 0.000000 -0.001740 
#    y 0.000000 1.807820 0.000000 
#    z -0.001740 0.000000 1.821040 
# 
# From -- ./inp_files/340803.got.cif
#   From: 2010.06.25/outbox.cif.g09.slc.cpg/sg12_171_cif.got.tgz:340803.got - 2010.06.28 00:19:55.
