data_PCOD8108757
_publ_section_title
;
Structure prediction by ZEFSAII (Michael W. Deem and Ramdas Pophale) SiO2 
 PCOD8108757
Probable space group: C 2/M
;
_chemical_formula_sum "Si O2"
_cell_formula_units_Z 40
_cell_length_a 15.411071
_cell_length_b 18.544700
_cell_length_c 14.961761
_cell_angle_alpha 90.000000
_cell_angle_beta 154.263814
_cell_angle_gamma 90.000000
_cell_volume 1856.749251
_symmetry_space_group_name_H-M "C 2/M"
_symmetry_group_IT_number 12
_symmetry_cell_setting 'monoclinic'
loop_
_space_group_symop_operation_xyz
x,y,z
-x,y,-z
-x,-y,-z
x,-y,z
1/2+x,1/2+y,z
1/2-x,1/2+y,-z
1/2-x,1/2-y,-z
1/2+x,1/2-y,z
loop_
_atom_site_type_symbol
_atom_site_label
_atom_site_fract_x
_atom_site_fract_y
_atom_site_fract_z
Si Si1 0.223356 0.767682 0.746676
Si Si2 0.664082 0.418579 0.926403
Si Si3 0.882359 0.190868 0.731091
Si Si4 0.545374 0.804029 0.744767
Si Si5 0.324756 0.577666 0.266306
O O1 0.379669 0.728191 0.825975
O O2 0.214164 0.724934 0.831951
O O3 0.303662 0.850240 0.832836
O O4 0.000000 0.770742 0.500000
O O5 0.703653 0.500000 0.994135
O O6 0.494419 0.385777 0.834309
O O7 0.587965 0.414302 0.753252
O O8 0.871968 0.375107 0.129935
O O9 0.656918 0.175121 0.492679
O O10 0.004985 0.240852 0.777068
O O11 0.500000 0.573547 0.500000
O O12 0.205827 0.500000 0.161199
#
# Coordination Sequence:
#
# PCOD8108757 Si02
#       5
#     8   8   8   8   8
#     4   9  18  35  60  89 121 157 202 255 301 356
#     4  11  23  40  62  90 126 163 203 254 308 360
#     4  10  21  38  65  90 117 166 208 244 309 365
#     4  10  21  39  60  91 124 157 210 257 295 358
#     4   9  18  34  58  87 123 160 192 246 313 364
#
# _framework density 21.543026999999999
#
# number of rings (size 3 to 8) (size 9 to 14) (size 15 to 20)
#    0.000    2.200    2.000    0.600    2.800    1.600 
#    0.000    3.000    0.000    6.000    0.000    0.000 
#    0.000    0.000    0.000    0.000    0.000    0.000 
#
# Total GULP energy -247906.220611 kJ/mol
# GULP energy per Si atom -12395.311031 kJ/mol
# Density = 2.149399 g / cm^3
# Si number density = 21.543027 Si / 1000 Ang^3
#
#
#
# Elastic Constant Matrix: (Units=GPa)
#
#
# Indices 1 2 3 4 5 6 
#
# 1 132.5901 56.2993 40.8071 -0.0001 5.3212 0.0000
# 2 56.2993 174.1535 56.0421 0.0000 -4.4325 0.0000
# 3 40.8071 56.0421 46.1633 -0.0002 -5.4942 0.0000
# 4 -0.0001 0.0000 -0.0002 10.0911 -0.0001 -7.3860
# 5 5.3212 -4.4325 -5.4942 -0.0001 31.4949 0.0000
# 6 0.0000 0.0000 0.0000 -7.3860 0.0000 29.7744
#
#
#
# Elastic Compliance Matrix: (Units=1/GPa)
#
#
# Indices 1 2 3 4 5 6 
#
# 1 0.010774 -0.000612 -0.009198 0.000000 -0.003511 0.000000
# 2 -0.000612 0.009473 -0.011016 0.000000 -0.000485 0.000000
# 3 -0.009198 -0.011016 0.044083 0.000001 0.007694 0.000000
# 4 0.000000 0.000000 0.000001 0.121081 0.000001 0.030036
# 5 -0.003511 -0.000485 0.007694 0.000001 0.033618 0.000000
# 6 0.000000 0.000000 0.000000 0.030036 0.000000 0.041037
#
#
# Mechanical properties :
#
#
# Convention : Reuss Voigt Hill
#
# Bulk Modulus (GPa) = 44.10059 73.24488 58.67274
# Shear Modulus (GPa) = 16.16666 27.58930 21.87798
#
# Velocity S-wave (km/s) = 2.74238 3.58251 3.19022
# Velocity P-wave (km/s) = 5.52656 7.15442 6.39252
#
# Compressibility (1/GPa) = 0.02267543
#
# Stress axis : x y z
#
# Youngs Moduli (GPa) = 92.81665 105.56695 22.68450
#
# Poissons Ratio (x) = 0.06463 0.20866
# Poissons Ratio (y) = 0.05683 0.24990
# Poissons Ratio (z) = 0.85377 1.16296
#
# Static dielectric constant tensor:
#      x y z
#    x 3.880850 0.000000 -0.194530 
#    y 0.000000 4.205390 0.000000 
#    z -0.194530 0.000000 3.813830 
# 
# 
# High freq. dielectric constant tensor:
#      x y z
#    x 1.837100 0.000000 -0.014490 
#    y 0.000000 1.843640 0.000000 
#    z -0.014490 0.000000 1.852710 
# 
# From -- ./inp_files/75520.got.cif
#   From: 2010.06.25/outbox.cif.g09.slc.cpg/sg12_38_cif.got.tgz:75520.got - 2010.06.28 00:19:55.
