data_PCOD8108820
_publ_section_title
;
Structure prediction by ZEFSAII (Michael W. Deem and Ramdas Pophale) SiO2 
 PCOD8108820
Probable space group: C 2/M
;
_chemical_formula_sum "Si O2"
_cell_formula_units_Z 44
_cell_length_a 13.950593
_cell_length_b 12.680948
_cell_length_c 20.301627
_cell_angle_alpha 90.000000
_cell_angle_beta 137.989099
_cell_angle_gamma 90.000000
_cell_volume 2403.686808
_symmetry_space_group_name_H-M "C 2/M"
_symmetry_group_IT_number 12
_symmetry_cell_setting 'monoclinic'
loop_
_space_group_symop_operation_xyz
x,y,z
-x,y,-z
-x,-y,-z
x,-y,z
1/2+x,1/2+y,z
1/2-x,1/2+y,-z
1/2-x,1/2-y,-z
1/2+x,1/2-y,z
loop_
_atom_site_type_symbol
_atom_site_label
_atom_site_fract_x
_atom_site_fract_y
_atom_site_fract_z
Si Si1 0.051520 0.118290 0.131606
Si Si2 0.231142 0.119980 0.097929
Si Si3 0.479891 0.719917 0.223027
Si Si4 0.045891 0.000000 0.316134
Si Si5 0.668207 0.838479 0.421670
Si Si6 0.615163 0.000000 0.500164
Si Si7 0.608085 0.500000 0.496197
O O1 0.179551 0.138986 0.146321
O O2 0.063249 0.202779 0.196626
O O3 0.064761 0.000000 0.168075
O O4 0.899947 0.129516 0.018655
O O5 0.334560 0.217072 0.132875
O O6 0.296693 0.000000 0.125574
O O7 0.463717 0.603539 0.246850
O O8 0.560069 0.797237 0.312690
O O9 0.025473 0.000000 0.384395
O O10 0.218851 0.000000 0.389022
O O11 0.750000 0.750000 0.500000
O O12 0.788489 0.900940 0.443575
O O13 0.585668 0.901416 0.437130
O O14 0.500000 0.000000 0.500000
O O15 0.500000 0.500000 0.500000
#
# Coordination Sequence:
#
# PCOD8108820 Si02
#       7
#     8   8   8   4   8   4   4
#     4   9  19  39  60  84 115 148 190 237 286 343
#     4   9  21  37  60  89 112 144 193 241 286 338
#     4  12  20  36  61  84 116 150 191 233 291 331
#     4  10  22  38  54  84 116 150 192 236 272 350
#     4  10  21  39  54  82 114 142 190 234 264 345
#     4  10  22  40  58  79 114 152 190 235 290 321
#     4  10  22  40  54  71 112 154 180 225 288 327
#
# _framework density 18.305212999999998
#
# number of rings (size 3 to 8) (size 9 to 14) (size 15 to 20)
#    0.000    2.182    4.545    1.636    2.545    3.636 
#    0.000    0.000    2.000    1.091    0.000    0.000 
#    0.000    0.000    0.000    0.000    0.000    0.000 
#
# Total GULP energy -272588.046619 kJ/mol
# GULP energy per Si atom -12390.365755 kJ/mol
# Density = 1.826355 g / cm^3
# Si number density = 18.305213 Si / 1000 Ang^3
#
#
#
# Elastic Constant Matrix: (Units=GPa)
#
#
# Indices 1 2 3 4 5 6 
#
# 1 120.0559 40.8163 7.6070 0.0000 -14.9040 0.0000
# 2 40.8163 112.4365 20.0264 0.0000 -4.5673 0.0000
# 3 7.6070 20.0264 32.2927 0.0000 -9.6321 0.0000
# 4 0.0000 0.0000 0.0000 40.9948 0.0000 -3.8024
# 5 -14.9040 -4.5673 -9.6321 0.0000 24.6194 0.0000
# 6 0.0000 0.0000 0.0000 -3.8024 0.0000 23.2176
#
#
#
# Elastic Compliance Matrix: (Units=1/GPa)
#
#
# Indices 1 2 3 4 5 6 
#
# 1 0.010279 -0.003797 0.001788 0.000000 0.006218 0.000000
# 2 -0.003797 0.011410 -0.007060 0.000000 -0.002944 0.000000
# 3 0.001788 -0.007060 0.039461 0.000000 0.015211 0.000000
# 4 0.000000 0.000000 0.000000 0.024770 0.000000 0.004057
# 5 0.006218 -0.002944 0.015211 0.000000 0.049788 0.000000
# 6 0.000000 0.000000 0.000000 0.004057 0.000000 0.043735
#
#
# Mechanical properties :
#
#
# Convention : Reuss Voigt Hill
#
# Bulk Modulus (GPa) = 23.24915 44.63163 33.94039
# Shear Modulus (GPa) = 23.59407 30.85540 27.22473
#
# Velocity S-wave (km/s) = 3.59406 4.11007 3.86069
# Velocity P-wave (km/s) = 5.47279 6.85262 6.20120
#
# Compressibility (1/GPa) = 0.04301232
#
# Stress axis : x y z
#
# Youngs Moduli (GPa) = 97.28498 87.64038 25.34160
#
# Poissons Ratio (x) = 0.33281 -0.04532
# Poissons Ratio (y) = 0.36943 0.17890
# Poissons Ratio (z) = -0.17397 0.61872
#
# Static dielectric constant tensor:
#      x y z
#    x 3.246640 0.000000 -0.170560 
#    y 0.000000 3.615630 0.000000 
#    z -0.170560 0.000000 3.289140 
# 
# 
# High freq. dielectric constant tensor:
#      x y z
#    x 1.691980 0.000000 -0.018890 
#    y 0.000000 1.718950 0.000000 
#    z -0.018890 0.000000 1.713350 
# 
# From -- ./inp_files/212007.got.cif
#   From: 2010.06.25/outbox.cif.g09.slc.cpg/sg12_107_cif.got.tgz:212007.got - 2010.06.28 00:19:55.
