data_PCOD8108093
_publ_section_title
;
Structure prediction by ZEFSAII (Michael W. Deem and Ramdas Pophale) SiO2 
 PCOD8108093
Probable space group: C 2/M
;
_chemical_formula_sum "Si O2"
_cell_formula_units_Z 56
_cell_length_a 15.881169
_cell_length_b 24.838067
_cell_length_c 8.958778
_cell_angle_alpha 90.000000
_cell_angle_beta 128.166456
_cell_angle_gamma 90.000000
_cell_volume 2778.385252
_symmetry_space_group_name_H-M "C 2/M"
_symmetry_group_IT_number 12
_symmetry_cell_setting 'monoclinic'
loop_
_space_group_symop_operation_xyz
x,y,z
-x,y,-z
-x,-y,-z
x,-y,z
1/2+x,1/2+y,z
1/2-x,1/2+y,-z
1/2-x,1/2-y,-z
1/2+x,1/2-y,z
loop_
_atom_site_type_symbol
_atom_site_label
_atom_site_fract_x
_atom_site_fract_y
_atom_site_fract_z
Si Si1 0.185218 0.938595 0.039252
Si Si2 0.505054 0.840482 0.182549
Si Si3 0.134311 0.253415 0.800696
Si Si4 0.799867 0.292444 0.443220
Si Si5 0.034110 0.863017 0.699283
Si Si6 0.064543 0.561744 0.717897
Si Si7 0.393438 0.366457 0.808027
O O1 0.311318 0.928733 0.178940
O O2 0.136631 0.923296 0.148005
O O3 0.156125 0.000000 0.971912
O O4 0.132176 0.900523 0.857061
O O5 0.424823 0.800869 0.178374
O O6 0.623774 0.830311 0.374830
O O7 0.472441 0.901809 0.183896
O O8 0.500000 0.831282 0.000000
O O9 0.138367 0.264792 0.627177
O O10 0.068739 0.198795 0.751084
O O11 0.250000 0.250000 0.000000
O O12 0.750000 0.250000 0.500000
O O13 0.704117 0.326743 0.268371
O O14 0.000000 0.880915 0.500000
O O15 0.923938 0.874182 0.669312
O O16 0.039719 0.500000 0.733066
O O17 0.000000 0.579517 0.500000
O O18 0.500000 0.340905 0.000000
#
# Coordination Sequence:
#
# PCOD8108093 Si02
#       7
#     8   8   8   8   8   8   8
#     4  10  22  41  64  87 113 152 202 251 302 366
#     4  12  25  39  60  91 127 166 207 248 304 373
#     4  12  23  39  62  88 124 164 205 252 310 374
#     4  12  24  39  61  90 125 162 204 252 305 371
#     4  11  23  38  58  87 123 157 194 246 306 362
#     4  10  21  41  67  91 118 155 203 260 319 374
#     4  10  21  38  60  84 115 152 199 245 294 359
#
# _framework density 20.155593
#
# number of rings (size 3 to 8) (size 9 to 14) (size 15 to 20)
#    0.000    1.000    0.000    9.000    0.000    6.571 
#    0.000    0.000    0.000    3.429    0.000    0.000 
#    0.000    0.000    0.000    0.000    0.000    0.000 
#
# Total GULP energy -347270.705147 kJ/mol
# GULP energy per Si atom -12402.525184 kJ/mol
# Density = 2.010972 g / cm^3
# Si number density = 20.155593 Si / 1000 Ang^3
#
#
#
# Elastic Constant Matrix: (Units=GPa)
#
#
# Indices 1 2 3 4 5 6 
#
# 1 118.1953 56.5618 57.6977 0.0000 -13.6194 0.0000
# 2 56.5618 121.6290 52.6843 0.0000 -3.2728 0.0000
# 3 57.6977 52.6843 110.3811 0.0000 -13.0422 0.0000
# 4 0.0000 0.0000 0.0000 26.2871 0.0000 -1.0794
# 5 -13.6194 -3.2728 -13.0422 0.0000 48.5054 0.0000
# 6 0.0000 0.0000 0.0000 -1.0794 0.0000 38.0383
#
#
#
# Elastic Compliance Matrix: (Units=1/GPa)
#
#
# Indices 1 2 3 4 5 6 
#
# 1 0.012813 -0.003919 -0.004579 0.000000 0.002102 0.000000
# 2 -0.003919 0.011583 -0.003633 0.000000 -0.001296 0.000000
# 3 -0.004579 -0.003633 0.013433 0.000000 0.002081 0.000000
# 4 0.000000 0.000000 0.000000 0.038086 0.000000 0.001081
# 5 0.002102 -0.001296 0.002081 0.000000 0.021679 0.000000
# 6 0.000000 0.000000 0.000000 0.001081 0.000000 0.026320
#
#
# Mechanical properties :
#
#
# Convention : Reuss Voigt Hill
#
# Bulk Modulus (GPa) = 73.70522 76.01035 74.85778
# Shear Modulus (GPa) = 32.74440 34.78359 33.76400
#
# Velocity S-wave (km/s) = 4.03498 4.15873 4.09732
# Velocity P-wave (km/s) = 7.63908 7.80088 7.72040
#
# Compressibility (1/GPa) = 0.01356756
#
# Stress axis : x y z
#
# Youngs Moduli (GPa) = 78.04394 86.33396 74.44355
#
# Poissons Ratio (x) = 0.33831 0.34087
# Poissons Ratio (y) = 0.30583 0.27047
# Poissons Ratio (z) = 0.35736 0.31367
#
# Static dielectric constant tensor:
#      x y z
#    x 4.017430 0.000000 0.059610 
#    y 0.000000 3.913790 0.000000 
#    z 0.059610 0.000000 3.850870 
# 
# 
# High freq. dielectric constant tensor:
#      x y z
#    x 1.800730 0.000000 0.009110 
#    y 0.000000 1.785100 0.000000 
#    z 0.009110 0.000000 1.796040 
# 
# From -- ./inp_files/65779.got.cif
#   From: 2010.06.25/outbox.cif.g09.slc.cpg/sg12_33_cif.got.tgz:65779.got - 2010.06.28 00:19:55.
