data_PCOD8108825
_publ_section_title
;
Structure prediction by ZEFSAII (Michael W. Deem and Ramdas Pophale) SiO2 
 PCOD8108825
Probable space group: C 2/M
;
_chemical_formula_sum "Si O2"
_cell_formula_units_Z 40
_cell_length_a 16.486485
_cell_length_b 24.810585
_cell_length_c 5.014496
_cell_angle_alpha 90.000000
_cell_angle_beta 73.220277
_cell_angle_gamma 90.000000
_cell_volume 1963.792712
_symmetry_space_group_name_H-M "C 2/M"
_symmetry_group_IT_number 12
_symmetry_cell_setting 'monoclinic'
loop_
_space_group_symop_operation_xyz
x,y,z
-x,y,-z
-x,-y,-z
x,-y,z
1/2+x,1/2+y,z
1/2-x,1/2+y,-z
1/2-x,1/2-y,-z
1/2+x,1/2-y,z
loop_
_atom_site_type_symbol
_atom_site_label
_atom_site_fract_x
_atom_site_fract_y
_atom_site_fract_z
Si Si1 0.826022 0.216196 0.043775
Si Si2 0.404786 0.619118 0.688272
Si Si3 0.668072 0.436458 0.751392
Si Si4 0.596728 0.823789 0.955875
Si Si5 0.803928 0.640826 0.627504
O O1 0.781399 0.178225 0.306299
O O2 0.750000 0.250000 0.000000
O O3 0.870634 0.179577 0.775896
O O4 0.892462 0.259195 0.103745
O O5 0.500000 0.623982 0.500000
O O6 0.350281 0.588514 0.520033
O O7 0.399244 0.584633 0.966214
O O8 0.662485 0.500000 0.740648
O O9 0.765146 0.418285 0.730794
O O10 0.626739 0.840398 0.222423
O O11 0.500000 0.839578 0.000000
O O12 0.652859 0.858299 0.699943
#
# Coordination Sequence:
#
# PCOD8108825 Si02
#       5
#     8   8   8   8   8
#     4   9  20  36  56  81 115 155 191 225 276 343
#     4  11  24  38  57  90 124 152 193 247 292 339
#     4  11  23  41  64  84 111 158 202 241 295 352
#     4  11  22  36  59  87 118 153 189 236 292 347
#     4  10  21  39  57  83 116 150 197 242 282 343
#
# _framework density 20.368751
#
# number of rings (size 3 to 8) (size 9 to 14) (size 15 to 20)
#    0.000    1.600    0.000    6.000    0.000   13.600 
#    0.000    0.000    0.000    3.600    0.000    0.000 
#    0.000    0.000    0.000    0.000    0.000    0.000 
#
# Total GULP energy -247913.392347 kJ/mol
# GULP energy per Si atom -12395.669617 kJ/mol
# Density = 2.032239 g / cm^3
# Si number density = 20.368751 Si / 1000 Ang^3
#
#
#
# Elastic Constant Matrix: (Units=GPa)
#
#
# Indices 1 2 3 4 5 6 
#
# 1 81.2690 42.3383 23.7352 0.0000 -16.1168 0.0000
# 2 42.3383 111.5548 47.4439 0.0000 -20.4783 0.0000
# 3 23.7352 47.4439 111.9695 0.0000 -14.9506 0.0000
# 4 0.0000 0.0000 0.0000 20.4979 0.0000 -0.1531
# 5 -16.1168 -20.4783 -14.9506 0.0000 37.7017 0.0000
# 6 0.0000 0.0000 0.0000 -0.1531 0.0000 14.4460
#
#
#
# Elastic Compliance Matrix: (Units=1/GPa)
#
#
# Indices 1 2 3 4 5 6 
#
# 1 0.015884 -0.005024 -0.000735 0.000000 0.003770 0.000000
# 2 -0.005024 0.013237 -0.004087 0.000000 0.003422 0.000000
# 3 -0.000735 -0.004087 0.011066 0.000000 0.001854 0.000000
# 4 0.000000 0.000000 0.000000 0.048789 0.000000 0.000517
# 5 0.003770 0.003422 0.001854 0.000000 0.030729 0.000000
# 6 0.000000 0.000000 0.000000 0.000517 0.000000 0.069229
#
#
# Mechanical properties :
#
#
# Convention : Reuss Voigt Hill
#
# Bulk Modulus (GPa) = 48.79050 59.09198 53.94124
# Shear Modulus (GPa) = 23.20624 27.28086 25.24355
#
# Velocity S-wave (km/s) = 3.37902 3.66368 3.52423
# Velocity P-wave (km/s) = 6.26333 6.85353 6.56507
#
# Compressibility (1/GPa) = 0.02049579
#
# Stress axis : x y z
#
# Youngs Moduli (GPa) = 62.95482 75.54429 90.36550
#
# Poissons Ratio (x) = 0.37953 0.06642
# Poissons Ratio (y) = 0.31628 0.36933
# Poissons Ratio (z) = 0.04627 0.30875
#
# Static dielectric constant tensor:
#      x y z
#    x 3.703370 0.000000 -0.019610 
#    y 0.000000 4.227280 0.000000 
#    z -0.019610 0.000000 3.770500 
# 
# 
# High freq. dielectric constant tensor:
#      x y z
#    x 1.787660 0.000000 -0.002100 
#    y 0.000000 1.780370 0.000000 
#    z -0.002100 0.000000 1.808150 
# 
# From -- ./inp_files/16526.got.cif
#   From: 2010.06.25/outbox.cif.g09.slc.cpg/sg12_9_cif.got.tgz:16526.got - 2010.06.28 00:19:55.
