data_PCOD8108191
_publ_section_title
;
Structure prediction by ZEFSAII (Michael W. Deem and Ramdas Pophale) SiO2 
 PCOD8108191
Probable space group: C 2/M
;
_chemical_formula_sum "Si O2"
_cell_formula_units_Z 48
_cell_length_a 24.726621
_cell_length_b 8.545048
_cell_length_c 20.181915
_cell_angle_alpha 90.000000
_cell_angle_beta 144.176933
_cell_angle_gamma 90.000000
_cell_volume 2495.792186
_symmetry_space_group_name_H-M "C 2/M"
_symmetry_group_IT_number 12
_symmetry_cell_setting 'monoclinic'
loop_
_space_group_symop_operation_xyz
x,y,z
-x,y,-z
-x,-y,-z
x,-y,z
1/2+x,1/2+y,z
1/2-x,1/2+y,-z
1/2-x,1/2-y,-z
1/2+x,1/2-y,z
loop_
_atom_site_type_symbol
_atom_site_label
_atom_site_fract_x
_atom_site_fract_y
_atom_site_fract_z
Si Si1 0.063767 0.315953 0.504959
Si Si2 0.751783 0.682185 0.867102
Si Si3 0.047437 0.682384 0.115922
Si Si4 0.946926 0.182153 0.276243
Si Si5 0.734004 0.316759 0.260585
Si Si6 0.922648 0.817994 0.102940
O O1 0.066531 0.500000 0.516975
O O2 0.167882 0.251640 0.615552
O O3 0.000000 0.241925 0.500000
O O4 0.024619 0.273519 0.394317
O O5 0.753415 0.500000 0.849400
O O6 0.654377 0.734642 0.800572
O O7 0.774045 0.785609 0.825353
O O8 0.830991 0.716708 0.999256
O O9 0.031765 0.500000 0.114228
O O10 0.155612 0.722049 0.221785
O O11 0.002536 0.780775 0.130160
O O12 0.000000 0.733219 0.000000
O O13 0.960012 0.227149 0.212675
O O14 0.961769 0.000000 0.303716
O O15 0.720736 0.500000 0.260908
O O16 0.896022 0.000000 0.073624
#
# Coordination Sequence:
#
# PCOD8108191 Si02
#       6
#     8   8   8   8   8   8
#     4  10  21  38  60  88 118 152 196 240 285 343
#     4  11  21  35  57  88 122 154 190 236 291 346
#     4  11  23  39  60  87 117 150 196 243 289 345
#     4  10  23  39  58  87 121 157 195 237 289 348
#     4  11  22  37  60  89 118 151 194 240 287 341
#     4  11  23  39  59  86 119 156 197 238 290 349
#
# _framework density 19.23237
#
# number of rings (size 3 to 8) (size 9 to 14) (size 15 to 20)
#    0.000    1.333    3.333    2.500    0.000    4.333 
#    0.000    0.833    0.000    0.000    0.000    0.000 
#    0.000    0.000    0.000    0.000    0.000    0.000 
#
# Total GULP energy -297741.925463 kJ/mol
# GULP energy per Si atom -12405.913561 kJ/mol
# Density = 1.918860 g / cm^3
# Si number density = 19.232370 Si / 1000 Ang^3
#
#
#
# Elastic Constant Matrix: (Units=GPa)
#
#
# Indices 1 2 3 4 5 6 
#
# 1 89.8871 13.8065 46.0758 0.0000 -0.0455 0.0000
# 2 13.8065 27.8741 18.6866 0.0000 1.4559 0.0000
# 3 46.0758 18.6866 132.8410 0.0000 5.9508 0.0000
# 4 0.0000 0.0000 0.0000 31.1375 0.0000 -2.6254
# 5 -0.0455 1.4559 5.9508 0.0000 34.9286 0.0000
# 6 0.0000 0.0000 0.0000 -2.6254 0.0000 26.9601
#
#
#
# Elastic Compliance Matrix: (Units=1/GPa)
#
#
# Indices 1 2 3 4 5 6 
#
# 1 0.013961 -0.004073 -0.004311 0.000000 0.000922 0.000000
# 2 -0.004073 0.040817 -0.004285 0.000000 -0.000977 0.000000
# 3 -0.004311 -0.004285 0.009692 0.000000 -0.001478 0.000000
# 4 0.000000 0.000000 0.000000 0.032381 0.000000 0.003153
# 5 0.000922 -0.000977 -0.001478 0.000000 0.028924 0.000000
# 6 0.000000 0.000000 0.000000 0.003153 0.000000 0.037399
#
#
# Mechanical properties :
#
#
# Convention : Reuss Voigt Hill
#
# Bulk Modulus (GPa) = 25.55485 45.30443 35.42964
# Shear Modulus (GPa) = 24.80705 30.07414 27.44059
#
# Velocity S-wave (km/s) = 3.59536 3.95869 3.78139
# Velocity P-wave (km/s) = 5.52736 6.67101 6.12593
#
# Compressibility (1/GPa) = 0.03913152
#
# Stress axis : x y z
#
# Youngs Moduli (GPa) = 71.62906 24.49964 103.17864
#
# Poissons Ratio (x) = 0.09980 0.44476
# Poissons Ratio (y) = 0.29177 0.44213
# Poissons Ratio (z) = 0.30877 0.10498
#
# Static dielectric constant tensor:
#      x y z
#    x 3.523350 0.000000 0.112780 
#    y 0.000000 3.399230 0.000000 
#    z 0.112780 0.000000 3.571550 
# 
# 
# High freq. dielectric constant tensor:
#      x y z
#    x 1.745790 0.000000 0.006240 
#    y 0.000000 1.747380 0.000000 
#    z 0.006240 0.000000 1.749480 
# 
# From -- ./inp_files/327304.got.cif
#   From: 2010.06.25/outbox.cif.g09.slc.cpg/sg12_164_cif.got.tgz:327304.got - 2010.06.28 00:19:55.
