data_PCOD8108977
_publ_section_title
;
Structure prediction by ZEFSAII (Michael W. Deem and Ramdas Pophale) SiO2 
 PCOD8108977
Probable space group: C 2/M
;
_chemical_formula_sum "Si O2"
_cell_formula_units_Z 56
_cell_length_a 32.115327
_cell_length_b 8.737141
_cell_length_c 21.612176
_cell_angle_alpha 90.000000
_cell_angle_beta 28.238779
_cell_angle_gamma 90.000000
_cell_volume 2869.302978
_symmetry_space_group_name_H-M "C 2/M"
_symmetry_group_IT_number 12
_symmetry_cell_setting 'monoclinic'
loop_
_space_group_symop_operation_xyz
x,y,z
-x,y,-z
-x,-y,-z
x,-y,z
1/2+x,1/2+y,z
1/2-x,1/2+y,-z
1/2-x,1/2-y,-z
1/2+x,1/2-y,z
loop_
_atom_site_type_symbol
_atom_site_label
_atom_site_fract_x
_atom_site_fract_y
_atom_site_fract_z
Si Si1 0.459490 0.681653 0.857584
Si Si2 0.953562 0.821632 0.472718
Si Si3 0.363696 0.321580 0.712354
Si Si4 0.710606 0.176301 0.612672
Si Si5 0.969608 0.181682 0.107143
Si Si6 0.284438 0.679165 0.019104
Si Si7 0.394072 0.676462 0.423833
O O1 0.453492 0.500000 0.866377
O O2 0.464425 0.736704 0.923480
O O3 0.550381 0.743184 0.707004
O O4 0.377333 0.745191 0.924459
O O5 0.897402 0.753759 0.602976
O O6 0.923994 0.740938 0.447937
O O7 0.057661 0.797449 0.341891
O O8 0.931236 0.000000 0.502955
O O9 0.335877 0.500000 0.746272
O O10 0.283440 0.216790 0.837813
O O11 0.750000 0.250000 0.500000
O O12 0.628027 0.261841 0.749655
O O13 0.789764 0.195129 0.557551
O O14 0.686710 0.000000 0.631488
O O15 0.965925 0.000000 0.109380
O O16 0.000000 0.246759 0.000000
O O17 0.292323 0.500000 0.997116
O O18 0.250000 0.750000 0.000000
O O19 0.422079 0.500000 0.390780
#
# Coordination Sequence:
#
# PCOD8108977 Si02
#       7
#     8   8   8   8   8   8   8
#     4   9  18  34  55  78 106 146 186 222 272 338
#     4   8  15  29  52  78 101 138 180 215 260 324
#     4   9  17  32  53  76 105 136 176 222 264 314
#     4  11  21  35  58  83 111 145 186 234 282 332
#     4  10  21  39  61  84 114 152 192 234 286 345
#     4  11  22  35  54  77 106 143 182 221 270 327
#     4   9  16  29  53  79 103 136 183 224 265 324
#
# _framework density 19.516935
#
# number of rings (size 3 to 8) (size 9 to 14) (size 15 to 20)
#    0.000    2.429    1.429    2.571    0.000    3.714 
#    0.000    2.857    0.000    1.714    0.000    0.000 
#    0.000    0.000    0.000    0.000    0.000    0.000 
#
# Total GULP energy -346922.421866 kJ/mol
# GULP energy per Si atom -12390.086495 kJ/mol
# Density = 1.947251 g / cm^3
# Si number density = 19.516935 Si / 1000 Ang^3
#
#
#
# Elastic Constant Matrix: (Units=GPa)
#
#
# Indices 1 2 3 4 5 6 
#
# 1 156.0490 18.4875 55.1309 -0.0128 8.5128 0.0043
# 2 18.4875 23.4908 14.4549 -0.0380 -0.0869 0.0151
# 3 55.1309 14.4549 120.3402 -0.0858 2.6530 0.0210
# 4 -0.0128 -0.0380 -0.0858 31.2144 0.0106 -1.4044
# 5 8.5128 -0.0869 2.6530 0.0106 28.5192 -0.0032
# 6 0.0043 0.0151 0.0210 -1.4044 -0.0032 16.2476
#
#
#
# Elastic Compliance Matrix: (Units=1/GPa)
#
#
# Indices 1 2 3 4 5 6 
#
# 1 0.008174 -0.004499 -0.003157 -0.000010 -0.002160 0.000005
# 2 -0.004499 0.048456 -0.003800 0.000044 0.001844 -0.000035
# 3 -0.003157 -0.003800 0.010213 0.000022 -0.000019 -0.000007
# 4 -0.000010 0.000044 0.000022 0.032162 -0.000011 0.002780
# 5 -0.002160 0.001844 -0.000019 -0.000011 0.035716 0.000005
# 6 0.000005 -0.000035 -0.000007 0.002780 0.000005 0.061788
#
#
# Mechanical properties :
#
#
# Convention : Reuss Voigt Hill
#
# Bulk Modulus (GPa) = 22.76263 52.89185 37.82724
# Shear Modulus (GPa) = 21.36170 29.31670 25.33920
#
# Velocity S-wave (km/s) = 3.31194 3.87992 3.60713
# Velocity P-wave (km/s) = 5.12968 6.87248 6.06402
#
# Compressibility (1/GPa) = 0.04393166
#
# Stress axis : x y z
#
# Youngs Moduli (GPa) = 122.33376 20.63745 97.91528
#
# Poissons Ratio (x) = 0.09284 0.30911
# Poissons Ratio (y) = 0.55035 0.37207
# Poissons Ratio (z) = 0.38619 0.07842
#
# Static dielectric constant tensor:
#      x y z
#    x 4.178290 -0.000010 0.092500 
#    y -0.000010 3.120380 0.000060 
#    z 0.092500 0.000060 3.759840 
# 
# 
# High freq. dielectric constant tensor:
#      x y z
#    x 1.776730 0.000000 0.002480 
#    y 0.000000 1.709120 0.000000 
#    z 0.002480 0.000000 1.763910 
# 
# From -- ./inp_files/329516.got.cif
#   From: 2010.06.25/outbox.cif.g09.slc.cpg/sg12_165_cif.got.tgz:329516.got - 2010.06.28 00:19:55.
