data_PCOD8108683
_publ_section_title
;
Structure prediction by ZEFSAII (Michael W. Deem and Ramdas Pophale) SiO2 
 PCOD8108683
Probable space group: C 2/M
;
_chemical_formula_sum "Si O2"
_cell_formula_units_Z 64
_cell_length_a 20.335706
_cell_length_b 17.372888
_cell_length_c 24.379751
_cell_angle_alpha 90.000000
_cell_angle_beta 158.581600
_cell_angle_gamma 90.000000
_cell_volume 3145.302993
_symmetry_space_group_name_H-M "C 2/M"
_symmetry_group_IT_number 12
_symmetry_cell_setting 'monoclinic'
loop_
_space_group_symop_operation_xyz
x,y,z
-x,y,-z
-x,-y,-z
x,-y,z
1/2+x,1/2+y,z
1/2-x,1/2+y,-z
1/2-x,1/2-y,-z
1/2+x,1/2-y,z
loop_
_atom_site_type_symbol
_atom_site_label
_atom_site_fract_x
_atom_site_fract_y
_atom_site_fract_z
Si Si1 0.816062 0.776401 0.882092
Si Si2 0.195811 0.086605 0.453015
Si Si3 0.879970 0.825474 0.185826
Si Si4 0.610538 0.586904 0.984504
Si Si5 0.636970 0.802613 0.337124
Si Si6 0.972098 0.728164 0.538020
Si Si7 0.763451 0.086417 0.645092
Si Si8 0.370246 0.912912 0.088658
O O1 0.764215 0.722024 0.892074
O O2 0.860165 0.861247 0.939237
O O3 0.660175 0.778787 0.715754
O O4 0.000000 0.742154 0.000000
O O5 0.341791 0.145149 0.591588
O O6 0.197592 0.088991 0.389128
O O7 0.000714 0.120352 0.319298
O O8 0.225974 0.000000 0.499179
O O9 0.010263 0.769118 0.252367
O O10 0.780694 0.884058 0.069385
O O11 0.580848 0.500000 0.982231
O O12 0.790449 0.591689 0.087892
O O13 0.439002 0.614158 0.815228
O O14 0.828279 0.775128 0.462439
O O15 0.543324 0.857190 0.219103
O O16 0.900816 0.642589 0.469535
O O17 0.000000 0.768277 0.500000
O O18 0.708873 0.000000 0.619955
O O19 0.424910 0.000000 0.115690
#
# Coordination Sequence:
#
# PCOD8108683 Si02
#       8
#     8   8   8   8   8   8   8   8
#     4  12  27  42  63  93 125 170 215 261 320 377
#     4  11  21  38  65  97 133 163 206 266 322 376
#     4  12  22  39  68  96 129 168 212 266 310 378
#     4  10  21  39  62  95 134 168 206 253 314 386
#     4  12  23  40  66  98 128 165 217 267 319 369
#     4  12  26  43  64  90 127 169 213 265 319 379
#     4  10  21  38  63  95 131 170 207 251 316 386
#     4  11  23  38  64 101 133 166 207 258 326 378
#
# _framework density 20.347801
#
# number of rings (size 3 to 8) (size 9 to 14) (size 15 to 20)
#    0.000    0.750    5.000    3.000    3.500    1.000 
#    0.000    0.000    0.000    4.500    0.000    0.000 
#    0.000    0.000    0.000    0.000    0.000    0.000 
#
# Total GULP energy -396787.379754 kJ/mol
# GULP energy per Si atom -12399.605617 kJ/mol
# Density = 2.030149 g / cm^3
# Si number density = 20.347801 Si / 1000 Ang^3
#
#
#
# Elastic Constant Matrix: (Units=GPa)
#
#
# Indices 1 2 3 4 5 6 
#
# 1 77.8749 22.4307 23.2348 0.0675 7.9144 -0.0526
# 2 22.4307 99.4803 36.8347 -0.0801 0.9333 0.0093
# 3 23.2348 36.8347 119.9171 0.0182 1.5238 -0.0797
# 4 0.0675 -0.0801 0.0182 33.7050 -0.0156 -2.2992
# 5 7.9144 0.9333 1.5238 -0.0156 33.6619 0.0139
# 6 -0.0526 0.0093 -0.0797 -2.2992 0.0139 19.5193
#
#
#
# Elastic Compliance Matrix: (Units=1/GPa)
#
#
# Indices 1 2 3 4 5 6 
#
# 1 0.014486 -0.002496 -0.001999 -0.000033 -0.003246 0.000030
# 2 -0.002496 0.011773 -0.003138 0.000033 0.000402 -0.000021
# 3 -0.001999 -0.003138 0.009689 -0.000006 0.000118 0.000035
# 4 -0.000033 0.000033 -0.000006 0.029910 0.000020 0.003523
# 5 -0.003246 0.000402 0.000118 0.000020 0.030454 -0.000028
# 6 0.000030 -0.000021 0.000035 0.003523 -0.000028 0.051647
#
#
# Mechanical properties :
#
#
# Convention : Reuss Voigt Hill
#
# Bulk Modulus (GPa) = 48.34881 51.36364 49.85622
# Shear Modulus (GPa) = 29.39138 31.69538 30.54338
#
# Velocity S-wave (km/s) = 3.80471 3.95103 3.87856
# Velocity P-wave (km/s) = 6.56612 6.79057 6.67929
#
# Compressibility (1/GPa) = 0.02068303
#
# Stress axis : x y z
#
# Youngs Moduli (GPa) = 69.03043 84.93930 103.21217
#
# Poissons Ratio (x) = 0.21199 0.20631
# Poissons Ratio (y) = 0.17229 0.32387
# Poissons Ratio (z) = 0.13799 0.26653
#
# Static dielectric constant tensor:
#      x y z
#    x 3.490660 -0.000070 0.014480 
#    y -0.000070 3.975790 -0.000240 
#    z 0.014480 -0.000240 3.847390 
# 
# 
# High freq. dielectric constant tensor:
#      x y z
#    x 1.762710 0.000000 -0.006890 
#    y 0.000000 1.799260 -0.000020 
#    z -0.006890 -0.000020 1.814610 
# 
# From -- ./inp_files/347938.got.cif
#   From: 2010.06.25/outbox.cif.g09.slc.cpg/sg12_174_cif.got.tgz:347938.got - 2010.06.28 00:19:55.
