data_PCOD8108026
_publ_section_title
;
Structure prediction by ZEFSAII (Michael W. Deem and Ramdas Pophale) SiO2 
 PCOD8108026
Probable space group: C 2/M
;
_chemical_formula_sum "Si O2"
_cell_formula_units_Z 48
_cell_length_a 29.154228
_cell_length_b 8.903194
_cell_length_c 16.218665
_cell_angle_alpha 90.000000
_cell_angle_beta 143.130337
_cell_angle_gamma 90.000000
_cell_volume 2525.872153
_symmetry_space_group_name_H-M "C 2/M"
_symmetry_group_IT_number 12
_symmetry_cell_setting 'monoclinic'
loop_
_space_group_symop_operation_xyz
x,y,z
-x,y,-z
-x,-y,-z
x,-y,z
1/2+x,1/2+y,z
1/2-x,1/2+y,-z
1/2-x,1/2-y,-z
1/2+x,1/2-y,z
loop_
_atom_site_type_symbol
_atom_site_label
_atom_site_fract_x
_atom_site_fract_y
_atom_site_fract_z
Si Si1 0.910054 0.175657 0.578357
Si Si2 0.800201 0.672349 0.140556
Si Si3 0.396745 0.821213 0.902995
Si Si4 0.953334 0.821702 0.822169
Si Si5 0.023805 0.672207 0.622198
Si Si6 0.731753 0.323207 0.732197
O O1 0.829796 0.230920 0.424502
O O2 0.912922 0.221083 0.678282
O O3 0.982068 0.246412 0.636445
O O4 0.918913 0.000000 0.580263
O O5 0.776231 0.500000 0.112845
O O6 0.886663 0.691438 0.235150
O O7 0.788003 0.745418 0.211154
O O8 0.750000 0.750000 0.000000
O O9 0.402084 0.753478 0.819152
O O10 0.315260 0.773887 0.822381
O O11 0.407627 0.000000 0.915110
O O12 0.461658 0.748337 0.054052
O O13 0.958723 0.000000 0.843786
O O14 0.997370 0.500000 0.585474
O O15 0.000000 0.744097 0.500000
O O16 0.727700 0.500000 0.740419
#
# Coordination Sequence:
#
# PCOD8108026 Si02
#       6
#     8   8   8   8   8   8
#     4  10  22  38  59  86 115 151 191 233 283 338
#     4  11  24  40  59  85 117 152 192 236 285 338
#     4  10  21  38  60  84 113 150 189 233 284 339
#     4  10  21  38  59  86 115 146 188 235 284 341
#     4  10  21  39  59  83 115 150 190 235 279 333
#     4  10  22  40  59  84 117 151 191 236 283 338
#
# _framework density 19.003336999999998
#
# number of rings (size 3 to 8) (size 9 to 14) (size 15 to 20)
#    0.000    1.833    1.667    2.500    2.333    5.000 
#    0.000    0.000    0.000    0.000    0.000    0.000 
#    0.000    0.000    0.000    0.000    0.000    0.000 
#
# Total GULP energy -297665.091102 kJ/mol
# GULP energy per Si atom -12402.712129 kJ/mol
# Density = 1.896008 g / cm^3
# Si number density = 19.003337 Si / 1000 Ang^3
#
#
#
# Elastic Constant Matrix: (Units=GPa)
#
#
# Indices 1 2 3 4 5 6 
#
# 1 83.4489 40.9677 40.8826 0.0000 4.1230 0.0000
# 2 40.9677 49.6585 45.8127 0.0000 -7.3181 0.0000
# 3 40.8826 45.8127 125.8359 0.0000 -15.1496 0.0000
# 4 0.0000 0.0000 0.0000 28.9271 0.0000 -3.4109
# 5 4.1230 -7.3181 -15.1496 0.0000 32.0095 0.0000
# 6 0.0000 0.0000 0.0000 -3.4109 0.0000 31.3636
#
#
#
# Elastic Compliance Matrix: (Units=1/GPa)
#
#
# Indices 1 2 3 4 5 6 
#
# 1 0.021790 -0.017648 -0.001567 0.000000 -0.007583 0.000000
# 2 -0.017648 0.044715 -0.009587 0.000000 0.007958 0.000000
# 3 -0.001567 -0.009587 0.012414 0.000000 0.003885 0.000000
# 4 0.000000 0.000000 0.000000 0.035019 0.000000 0.003808
# 5 -0.007583 0.007958 0.003885 0.000000 0.035876 0.000000
# 6 0.000000 0.000000 0.000000 0.003808 0.000000 0.032298
#
#
# Mechanical properties :
#
#
# Convention : Reuss Voigt Hill
#
# Bulk Modulus (GPa) = 46.91843 57.14105 52.02974
# Shear Modulus (GPa) = 20.25754 27.21206 23.73480
#
# Velocity S-wave (km/s) = 3.26851 3.78823 3.53793
# Velocity P-wave (km/s) = 6.24399 7.01915 6.64289
#
# Compressibility (1/GPa) = 0.02131359
#
# Stress axis : x y z
#
# Youngs Moduli (GPa) = 45.89290 22.36392 80.55287
#
# Poissons Ratio (x) = 0.39468 0.12623
# Poissons Ratio (y) = 0.80993 0.77229
# Poissons Ratio (z) = 0.07192 0.21441
#
# Static dielectric constant tensor:
#      x y z
#    x 3.503410 0.000000 -0.048170 
#    y 0.000000 3.536610 0.000000 
#    z -0.048170 0.000000 3.851640 
# 
# 
# High freq. dielectric constant tensor:
#      x y z
#    x 1.743510 0.000000 -0.001420 
#    y 0.000000 1.742120 0.000000 
#    z -0.001420 0.000000 1.750950 
# 
# From -- ./inp_files/244828.got.cif
#   From: 2010.06.25/outbox.cif.g09.slc.cpg/sg12_123_cif.got.tgz:244828.got - 2010.06.28 00:19:55.
