data_PCOD8108367
_publ_section_title
;
Structure prediction by ZEFSAII (Michael W. Deem and Ramdas Pophale) SiO2 
 PCOD8108367
Probable space group: C 2/M
;
_chemical_formula_sum "Si O2"
_cell_formula_units_Z 56
_cell_length_a 32.036577
_cell_length_b 14.228153
_cell_length_c 9.368123
_cell_angle_alpha 90.000000
_cell_angle_beta 45.261238
_cell_angle_gamma 90.000000
_cell_volume 3033.216213
_symmetry_space_group_name_H-M "C 2/M"
_symmetry_group_IT_number 12
_symmetry_cell_setting 'monoclinic'
loop_
_space_group_symop_operation_xyz
x,y,z
-x,y,-z
-x,-y,-z
x,-y,z
1/2+x,1/2+y,z
1/2-x,1/2+y,-z
1/2-x,1/2-y,-z
1/2+x,1/2-y,z
loop_
_atom_site_type_symbol
_atom_site_label
_atom_site_fract_x
_atom_site_fract_y
_atom_site_fract_z
Si Si1 0.494921 0.803115 0.176849
Si Si2 0.890242 0.300032 0.912445
Si Si3 0.590884 0.000000 0.219757
Si Si4 0.390682 0.742042 0.599576
Si Si5 0.795817 0.608380 0.753495
Si Si6 0.969277 0.500000 0.351378
Si Si7 0.264116 0.253023 0.301708
Si Si8 0.290034 0.392339 0.774631
O O1 0.558133 0.792183 0.097157
O O2 0.449251 0.732813 0.363316
O O3 0.469134 0.908612 0.251860
O O4 0.500000 0.775005 0.000000
O O5 0.873633 0.408849 0.918865
O O6 0.910500 0.251839 0.716309
O O7 0.833940 0.248776 0.112197
O O8 0.526567 0.000000 0.310330
O O9 0.585742 0.000000 0.405361
O O10 0.355256 0.834101 0.634037
O O11 0.352622 0.648091 0.674062
O O12 0.810520 0.500000 0.685405
O O13 0.760411 0.650171 0.704577
O O14 0.756589 0.621367 0.987782
O O15 0.250000 0.250000 0.500000
O O16 0.233021 0.163404 0.306258
O O17 0.298808 0.500000 0.710748
#
# Coordination Sequence:
#
# PCOD8108367 Si02
#       8
#     8   8   4   8   8   4   8   8
#     4  11  24  35  54  84 120 158 189 240 297 345
#     4  11  21  37  57  83 115 157 197 234 287 351
#     4   9  18  30  54  82 108 156 196 229 269 341
#     4  11  20  37  61  86 114 155 197 238 286 346
#     4  10  21  38  61  89 117 151 195 243 289 344
#     4   9  17  34  50  76 118 150 194 226 277 344
#     4  11  23  38  59  89 124 153 192 240 296 353
#     4  10  21  40  65  88 113 151 198 249 291 340
#
# _framework density 18.462250999999998
#
# number of rings (size 3 to 8) (size 9 to 14) (size 15 to 20)
#    0.000    1.571    4.286    1.500    7.000    0.571 
#    0.000    0.000    0.000    3.000    0.000    0.000 
#    0.000    0.000    0.000    0.000    0.000    0.000 
#
# Total GULP energy -347260.024809 kJ/mol
# GULP energy per Si atom -12402.143743 kJ/mol
# Density = 1.842023 g / cm^3
# Si number density = 18.462251 Si / 1000 Ang^3
#
#
#
# Elastic Constant Matrix: (Units=GPa)
#
#
# Indices 1 2 3 4 5 6 
#
# 1 106.5825 30.0428 46.8725 0.0000 16.3829 0.0000
# 2 30.0428 82.2163 15.7586 0.0000 8.1964 0.0000
# 3 46.8725 15.7586 104.5547 0.0000 22.5941 0.0000
# 4 0.0000 0.0000 0.0000 18.3293 0.0000 -1.7839
# 5 16.3829 8.1964 22.5941 0.0000 34.0759 0.0000
# 6 0.0000 0.0000 0.0000 -1.7839 0.0000 21.6014
#
#
#
# Elastic Compliance Matrix: (Units=1/GPa)
#
#
# Indices 1 2 3 4 5 6 
#
# 1 0.012799 -0.003554 -0.004736 0.000000 -0.002158 0.000000
# 2 -0.003554 0.013636 -0.000143 0.000000 -0.001477 0.000000
# 3 -0.004736 -0.000143 0.013084 0.000000 -0.006364 0.000000
# 4 0.000000 0.000000 0.000000 0.055000 0.000000 0.004542
# 5 -0.002158 -0.001477 -0.006364 0.000000 0.034959 0.000000
# 6 0.000000 0.000000 0.000000 0.004542 0.000000 0.046668
#
#
# Mechanical properties :
#
#
# Convention : Reuss Voigt Hill
#
# Bulk Modulus (GPa) = 44.14191 53.18905 48.66548
# Shear Modulus (GPa) = 24.92990 28.17995 26.55492
#
# Velocity S-wave (km/s) = 3.67865 3.91110 3.79665
# Velocity P-wave (km/s) = 6.48109 7.01910 6.75545
#
# Compressibility (1/GPa) = 0.02265421
#
# Stress axis : x y z
#
# Youngs Moduli (GPa) = 78.13400 73.33385 76.42781
#
# Poissons Ratio (x) = 0.26062 0.36193
# Poissons Ratio (y) = 0.27768 0.01093
# Poissons Ratio (z) = 0.37001 0.01048
#
# Static dielectric constant tensor:
#      x y z
#    x 3.396270 0.000000 -0.032570 
#    y 0.000000 3.384040 0.000000 
#    z -0.032570 0.000000 3.281470 
# 
# 
# High freq. dielectric constant tensor:
#      x y z
#    x 1.723760 0.000000 -0.004500 
#    y 0.000000 1.692790 0.000000 
#    z -0.004500 0.000000 1.711760 
# 
# From -- ./inp_files/104477.got.cif
#   From: 2010.06.25/outbox.cif.g09.slc.cpg/sg12_53_cif.got.tgz:104477.got - 2010.06.28 00:19:55.
