data_PCOD8108252
_publ_section_title
;
Structure prediction by ZEFSAII (Michael W. Deem and Ramdas Pophale) SiO2 
 PCOD8108252
Probable space group: C 2/M
;
_chemical_formula_sum "Si O2"
_cell_formula_units_Z 48
_cell_length_a 11.526178
_cell_length_b 23.043997
_cell_length_c 13.662327
_cell_angle_alpha 90.000000
_cell_angle_beta 140.152200
_cell_angle_gamma 90.000000
_cell_volume 2325.180727
_symmetry_space_group_name_H-M "C 2/M"
_symmetry_group_IT_number 12
_symmetry_cell_setting 'monoclinic'
loop_
_space_group_symop_operation_xyz
x,y,z
-x,y,-z
-x,-y,-z
x,-y,z
1/2+x,1/2+y,z
1/2-x,1/2+y,-z
1/2-x,1/2-y,-z
1/2+x,1/2-y,z
loop_
_atom_site_type_symbol
_atom_site_label
_atom_site_fract_x
_atom_site_fract_y
_atom_site_fract_z
Si Si1 0.217892 0.432311 0.866850
Si Si2 0.002919 0.064674 0.783882
Si Si3 0.496849 0.846795 0.841175
Si Si4 0.291468 0.860186 0.336336
Si Si5 0.098851 0.765298 0.325532
Si Si6 0.210707 0.846953 0.809398
O O1 0.179211 0.500000 0.811463
O O2 0.234026 0.387517 0.787408
O O3 0.053225 0.407569 0.826562
O O4 0.405507 0.429589 0.048981
O O5 0.135525 0.089802 0.787804
O O6 0.807623 0.095488 0.654246
O O7 0.964785 0.000000 0.728497
O O8 0.498107 0.794163 0.766195
O O9 0.295519 0.852449 0.756234
O O10 0.637816 0.828283 0.015252
O O11 0.500000 0.853467 0.500000
O O12 0.184293 0.799102 0.285819
O O13 0.250000 0.750000 0.500000
O O14 0.950393 0.801089 0.289528
#
# Coordination Sequence:
#
# PCOD8108252 Si02
#       6
#     8   8   8   8   8   8
#     4  10  21  38  61  90 121 152 191 240 298 354
#     4   9  19  38  61  85 118 155 192 239 292 351
#     4  10  21  38  61  84 119 151 196 240 292 351
#     4  11  23  37  56  87 116 154 197 241 294 343
#     4  11  24  39  59  80 117 158 199 244 293 348
#     4   9  21  39  57  88 113 152 199 239 289 349
#
# _framework density 20.643557000000001
#
# number of rings (size 3 to 8) (size 9 to 14) (size 15 to 20)
#    0.000    2.000    0.000    2.500    4.667    3.333 
#    6.000    3.333    0.000    0.000    0.000    7.000 
#    0.000    0.000    0.000    0.000    0.000    0.000 
#
# Total GULP energy -297451.082325 kJ/mol
# GULP energy per Si atom -12393.795097 kJ/mol
# Density = 2.059657 g / cm^3
# Si number density = 20.643557 Si / 1000 Ang^3
#
#
#
# Elastic Constant Matrix: (Units=GPa)
#
#
# Indices 1 2 3 4 5 6 
#
# 1 98.6939 23.4235 17.4939 0.0000 17.5408 0.0000
# 2 23.4235 98.5777 17.3420 0.0000 4.8060 0.0000
# 3 17.4939 17.3420 31.4604 0.0000 18.5973 0.0000
# 4 0.0000 0.0000 0.0000 21.1960 0.0000 -1.7818
# 5 17.5408 4.8060 18.5973 0.0000 33.3866 0.0000
# 6 0.0000 0.0000 0.0000 -1.7818 0.0000 27.3745
#
#
#
# Elastic Compliance Matrix: (Units=1/GPa)
#
#
# Indices 1 2 3 4 5 6 
#
# 1 0.011919 -0.002111 -0.002895 0.000000 -0.004345 0.000000
# 2 -0.002111 0.011777 -0.007412 0.000000 0.003543 0.000000
# 3 -0.002895 -0.007412 0.053602 0.000000 -0.027270 0.000000
# 4 0.000000 0.000000 0.000000 0.047438 0.000000 0.003088
# 5 -0.004345 0.003543 -0.027270 0.000000 0.046915 0.000000
# 6 0.000000 0.000000 0.000000 0.003088 0.000000 0.036731
#
#
# Mechanical properties :
#
#
# Convention : Reuss Voigt Hill
#
# Bulk Modulus (GPa) = 19.06187 38.36120 28.71154
# Shear Modulus (GPa) = 19.94365 27.75627 23.84996
#
# Velocity S-wave (km/s) = 3.11158 3.67079 3.40269
# Velocity P-wave (km/s) = 4.70777 6.04890 5.41998
#
# Compressibility (1/GPa) = 0.05246074
#
# Stress axis : x y z
#
# Youngs Moduli (GPa) = 83.90089 84.91038 18.65609
#
# Poissons Ratio (x) = 0.17924 0.05402
# Poissons Ratio (y) = 0.17710 0.13828
# Poissons Ratio (z) = 0.24292 0.62938
#
# Static dielectric constant tensor:
#      x y z
#    x 4.074650 0.000000 0.181020 
#    y 0.000000 3.857380 0.000000 
#    z 0.181020 0.000000 3.571720 
# 
# 
# High freq. dielectric constant tensor:
#      x y z
#    x 1.816790 0.000000 0.017590 
#    y 0.000000 1.811150 0.000000 
#    z 0.017590 0.000000 1.788350 
# 
# From -- ./inp_files/50580.got.cif
#   From: 2010.06.25/outbox.cif.g09.slc.cpg/sg12_26_cif.got.tgz:50580.got - 2010.06.28 00:19:55.
