data_PCOD8108617
_publ_section_title
;
Structure prediction by ZEFSAII (Michael W. Deem and Ramdas Pophale) SiO2 
 PCOD8108617
Probable space group: C 2/M
;
_chemical_formula_sum "Si O2"
_cell_formula_units_Z 64
_cell_length_a 19.315481
_cell_length_b 18.203603
_cell_length_c 23.594680
_cell_angle_alpha 90.000000
_cell_angle_beta 156.134202
_cell_angle_gamma 90.000000
_cell_volume 3356.590060
_symmetry_space_group_name_H-M "C 2/M"
_symmetry_group_IT_number 12
_symmetry_cell_setting 'monoclinic'
loop_
_space_group_symop_operation_xyz
x,y,z
-x,y,-z
-x,-y,-z
x,-y,z
1/2+x,1/2+y,z
1/2-x,1/2+y,-z
1/2-x,1/2-y,-z
1/2+x,1/2-y,z
loop_
_atom_site_type_symbol
_atom_site_label
_atom_site_fract_x
_atom_site_fract_y
_atom_site_fract_z
Si Si1 0.018269 0.084809 0.669535
Si Si2 0.577524 0.584517 0.277358
Si Si3 0.509884 0.918585 0.174150
Si Si4 0.994253 0.209818 0.931803
Si Si5 0.892692 0.624490 0.970862
Si Si6 0.777587 0.169593 0.995595
Si Si7 0.684704 0.180672 0.618184
Si Si8 0.638364 0.344457 0.556473
O O1 0.906002 0.090559 0.642557
O O2 0.907177 0.122256 0.538037
O O3 0.194670 0.129928 0.805551
O O4 0.058965 0.000000 0.685460
O O5 0.567860 0.500000 0.250185
O O6 0.404180 0.625498 0.131006
O O7 0.740665 0.622025 0.370087
O O8 0.686304 0.879686 0.291800
O O9 0.538644 0.000000 0.220172
O O10 0.406459 0.924170 0.037625
O O11 0.403908 0.872149 0.141359
O O12 0.810674 0.192201 0.766205
O O13 0.146296 0.171166 0.010568
O O14 0.000000 0.178222 0.000000
O O15 0.026981 0.296250 0.955841
O O16 0.000000 0.587920 0.000000
O O17 0.750000 0.250000 0.000000
O O18 0.500000 0.150989 0.500000
O O19 0.658875 0.257155 0.565874
O O20 0.500000 0.365929 0.500000
#
# Coordination Sequence:
#
# PCOD8108617 Si02
#       8
#     8   8   8   8   8   8   8   8
#     4  11  23  38  56  84 121 160 202 241 291 358
#     4  10  21  40  64  89 120 157 198 251 303 350
#     4  12  22  36  58  86 116 158 201 238 297 361
#     4  10  21  38  63  89 120 151 195 252 303 346
#     4  11  21  34  57  87 113 154 196 243 289 353
#     4  11  19  38  62  89 121 152 195 249 299 349
#     4  10  22  41  63  90 118 152 201 246 300 364
#     4  11  24  40  56  82 125 164 197 244 299 355
#
# _framework density 19.066969
#
# number of rings (size 3 to 8) (size 9 to 14) (size 15 to 20)
#    0.000    1.250    3.750    2.625    5.250    3.750 
#    2.250    0.000    0.000    9.375    0.000    0.000 
#    0.000    0.000    0.000    0.000    0.000    0.000 
#
# Total GULP energy -396874.019205 kJ/mol
# GULP energy per Si atom -12402.313100 kJ/mol
# Density = 1.902357 g / cm^3
# Si number density = 19.066969 Si / 1000 Ang^3
#
#
#
# Elastic Constant Matrix: (Units=GPa)
#
#
# Indices 1 2 3 4 5 6 
#
# 1 137.7428 59.4140 55.1488 0.0106 6.8261 0.0074
# 2 59.4140 97.8617 27.6610 -0.0111 13.0464 -0.0147
# 3 55.1488 27.6610 83.2448 0.1082 10.3733 -0.0378
# 4 0.0106 -0.0111 0.1082 14.3929 0.0306 -0.2206
# 5 6.8261 13.0464 10.3733 0.0306 41.3240 -0.0280
# 6 0.0074 -0.0147 -0.0378 -0.2206 -0.0280 23.8703
#
#
#
# Elastic Compliance Matrix: (Units=1/GPa)
#
#
# Indices 1 2 3 4 5 6 
#
# 1 0.012248 -0.005828 -0.006353 0.000031 0.001412 -0.000016
# 2 -0.005828 0.014352 -0.000478 0.000026 -0.003448 0.000006
# 3 -0.006353 -0.000478 0.016755 -0.000115 -0.003005 0.000024
# 4 0.000031 0.000026 -0.000115 0.069489 -0.000036 0.000642
# 5 0.001412 -0.003448 -0.003005 -0.000036 0.025809 0.000023
# 6 -0.000016 0.000006 0.000024 0.000642 0.000023 0.041899
#
#
# Mechanical properties :
#
#
# Convention : Reuss Voigt Hill
#
# Bulk Modulus (GPa) = 55.44598 67.03297 61.23948
# Shear Modulus (GPa) = 23.59794 27.69248 25.64521
#
# Velocity S-wave (km/s) = 3.52182 3.81514 3.67141
# Velocity P-wave (km/s) = 6.75872 7.39189 7.08239
#
# Compressibility (1/GPa) = 0.01803557
#
# Stress axis : x y z
#
# Youngs Moduli (GPa) = 81.64895 69.67778 59.68277
#
# Poissons Ratio (x) = 0.40610 0.37918
# Poissons Ratio (y) = 0.47587 0.02853
# Poissons Ratio (z) = 0.51873 0.03331
#
# Static dielectric constant tensor:
#      x y z
#    x 3.760670 0.000000 0.100630 
#    y 0.000000 3.444590 -0.000180 
#    z 0.100630 -0.000180 3.416960 
# 
# 
# High freq. dielectric constant tensor:
#      x y z
#    x 1.748690 0.000000 0.011320 
#    y 0.000000 1.734790 -0.000020 
#    z 0.011320 -0.000020 1.736710 
# 
# From -- ./inp_files/347898.got.cif
#   From: 2010.06.25/outbox.cif.g09.slc.cpg/sg12_174_cif.got.tgz:347898.got - 2010.06.28 00:19:55.
