data_PCOD8108689
_publ_section_title
;
Structure prediction by ZEFSAII (Michael W. Deem and Ramdas Pophale) SiO2 
 PCOD8108689
Probable space group: C 2/M
;
_chemical_formula_sum "Si O2"
_cell_formula_units_Z 64
_cell_length_a 28.345998
_cell_length_b 14.094960
_cell_length_c 11.445687
_cell_angle_alpha 90.000000
_cell_angle_beta 140.617635
_cell_angle_gamma 90.000000
_cell_volume 2901.509901
_symmetry_space_group_name_H-M "C 2/M"
_symmetry_group_IT_number 12
_symmetry_cell_setting 'monoclinic'
loop_
_space_group_symop_operation_xyz
x,y,z
-x,y,-z
-x,-y,-z
x,-y,z
1/2+x,1/2+y,z
1/2-x,1/2+y,-z
1/2-x,1/2-y,-z
1/2+x,1/2-y,z
loop_
_atom_site_type_symbol
_atom_site_label
_atom_site_fract_x
_atom_site_fract_y
_atom_site_fract_z
Si Si1 0.853200 0.798554 0.960704
Si Si2 0.855317 0.391110 0.234929
Si Si3 0.715339 0.766964 0.558586
Si Si4 0.135273 0.889615 0.528474
Si Si5 0.688468 0.389071 0.885392
Si Si6 0.594857 0.110491 0.422582
Si Si7 0.424068 0.107743 0.127366
Si Si8 0.007198 0.111383 0.883467
O O1 0.774141 0.822694 0.752271
O O2 0.851445 0.824357 0.094208
O O3 0.871589 0.687597 0.970161
O O4 0.913086 0.864554 0.014333
O O5 0.847755 0.500000 0.252854
O O6 0.880466 0.343601 0.405142
O O7 0.918135 0.377626 0.256078
O O8 0.774434 0.355140 0.035668
O O9 0.750000 0.750000 0.500000
O O10 0.699841 0.663804 0.582538
O O11 0.640494 0.831518 0.411355
O O12 0.142798 0.867905 0.680364
O O13 0.056317 0.851237 0.327594
O O14 0.147265 0.000000 0.526521
O O15 0.683459 0.500000 0.909913
O O16 0.506980 0.126514 0.240505
O O17 0.613681 0.000000 0.444824
O O18 0.398000 0.000000 0.044951
O O19 0.998453 0.000000 0.875980
O O20 0.000000 0.156042 0.000000
#
# Coordination Sequence:
#
# PCOD8108689 Si02
#       8
#     8   8   8   8   8   8   8   8
#     4  12  24  38  64  93 127 166 210 262 323 388
#     4   9  17  34  59  88 123 159 201 251 309 375
#     4  12  26  41  64  94 125 165 216 267 316 379
#     4  10  23  43  64  89 127 167 206 260 321 384
#     4  10  21  38  63  97 131 163 204 263 333 397
#     4  10  21  40  63  89 124 163 213 266 310 366
#     4  10  22  38  60  91 126 169 209 250 310 383
#     4  10  22  43  68  91 121 165 215 265 316 375
#
# _framework density 22.057482
#
# number of rings (size 3 to 8) (size 9 to 14) (size 15 to 20)
#    0.000    1.625    1.250    3.000    1.750    5.500 
#    2.250    1.875    0.000    1.875    0.000    0.000 
#    0.000    0.000    0.000    0.000    0.000    0.000 
#
# Total GULP energy -396761.508679 kJ/mol
# GULP energy per Si atom -12398.797146 kJ/mol
# Density = 2.200728 g / cm^3
# Si number density = 22.057482 Si / 1000 Ang^3
#
#
#
# Elastic Constant Matrix: (Units=GPa)
#
#
# Indices 1 2 3 4 5 6 
#
# 1 156.0971 41.8075 40.4534 0.0000 9.2934 0.0000
# 2 41.8075 54.2741 28.8780 0.0000 3.0205 0.0000
# 3 40.4534 28.8780 78.7028 0.0000 6.4772 0.0000
# 4 0.0000 0.0000 0.0000 22.7978 0.0000 9.0167
# 5 9.2934 3.0205 6.4772 0.0000 32.0176 0.0000
# 6 0.0000 0.0000 0.0000 9.0167 0.0000 38.4997
#
#
#
# Elastic Compliance Matrix: (Units=1/GPa)
#
#
# Indices 1 2 3 4 5 6 
#
# 1 0.008498 -0.005224 -0.002328 0.000000 -0.001503 0.000000
# 2 -0.005224 0.026113 -0.006934 0.000000 0.000456 0.000000
# 3 -0.002328 -0.006934 0.016614 0.000000 -0.002031 0.000000
# 4 0.000000 0.000000 0.000000 0.048342 0.000000 -0.011322
# 5 -0.001503 0.000456 -0.002031 0.000000 0.032037 0.000000
# 6 0.000000 0.000000 0.000000 -0.011322 0.000000 0.028626
#
#
# Mechanical properties :
#
#
# Convention : Reuss Voigt Hill
#
# Bulk Modulus (GPa) = 44.93558 56.81688 50.87623
# Shear Modulus (GPa) = 25.43000 30.52537 27.97769
#
# Velocity S-wave (km/s) = 3.39912 3.72412 3.56532
# Velocity P-wave (km/s) = 5.98511 6.65632 6.32962
#
# Compressibility (1/GPa) = 0.02225408
#
# Stress axis : x y z
#
# Youngs Moduli (GPa) = 117.67352 38.29502 60.19107
#
# Poissons Ratio (x) = 0.20005 0.14010
# Poissons Ratio (y) = 0.61473 0.41736
# Poissons Ratio (z) = 0.27389 0.26553
#
# Static dielectric constant tensor:
#      x y z
#    x 3.812090 0.000000 0.043390 
#    y 0.000000 4.014580 0.000000 
#    z 0.043390 0.000000 4.062350 
# 
# 
# High freq. dielectric constant tensor:
#      x y z
#    x 1.863310 0.000000 0.010480 
#    y 0.000000 1.874880 0.000000 
#    z 0.010480 0.000000 1.857240 
# 
# From -- ./inp_files/183858.got.cif
#   From: 2010.06.25/outbox.cif.g09.slc.cpg/sg12_92_cif.got.tgz:183858.got - 2010.06.28 00:19:55.
