data_PCOD8108094
_publ_section_title
;
Structure prediction by ZEFSAII (Michael W. Deem and Ramdas Pophale) SiO2 
 PCOD8108094
Probable space group: C 2/M
;
_chemical_formula_sum "Si O2"
_cell_formula_units_Z 40
_cell_length_a 15.316404
_cell_length_b 10.864804
_cell_length_c 13.319516
_cell_angle_alpha 90.000000
_cell_angle_beta 76.707841
_cell_angle_gamma 90.000000
_cell_volume 2157.117839
_symmetry_space_group_name_H-M "C 2/M"
_symmetry_group_IT_number 12
_symmetry_cell_setting 'monoclinic'
loop_
_space_group_symop_operation_xyz
x,y,z
-x,y,-z
-x,-y,-z
x,-y,z
1/2+x,1/2+y,z
1/2-x,1/2+y,-z
1/2-x,1/2-y,-z
1/2+x,1/2-y,z
loop_
_atom_site_type_symbol
_atom_site_label
_atom_site_fract_x
_atom_site_fract_y
_atom_site_fract_z
Si Si1 0.695292 0.240430 0.750701
Si Si2 0.758782 0.363658 0.922578
Si Si3 0.614937 0.000000 0.859387
Si Si4 0.128405 0.142986 0.389130
Si Si5 0.919053 0.500000 0.895861
Si Si6 0.933391 0.142675 0.372959
O O1 0.705281 0.343179 0.833836
O O2 0.672990 0.116005 0.813885
O O3 0.789130 0.226817 0.667686
O O4 0.614693 0.275980 0.698462
O O5 0.727131 0.500000 0.974644
O O6 0.865829 0.377831 0.871031
O O7 0.750000 0.250000 0.000000
O O8 0.519245 0.000000 0.826686
O O9 0.589811 0.000000 0.981527
O O10 0.108592 0.178150 0.509038
O O11 0.039924 0.170452 0.345664
O O12 0.154526 0.000000 0.373353
O O13 0.915854 0.000000 0.354172
#
# Coordination Sequence:
#
# PCOD8108094 Si02
#       6
#     8   8   4   8   4   8
#     4  12  20  34  59  87 108 148 201 232 277 345
#     4  10  21  38  60  84 116 149 187 238 288 340
#     4  11  22  36  60  80 114 157 194 233 288 357
#     4   9  19  37  56  79 112 151 187 234 287 339
#     4   9  22  42  54  80 117 157 183 238 300 337
#     4   9  20  36  55  80 115 147 185 238 290 331
#
# _framework density 18.543261000000001
#
# number of rings (size 3 to 8) (size 9 to 14) (size 15 to 20)
#    0.600    1.400    3.000    2.400    2.800    0.000 
#    0.000    0.000    0.000    2.400    0.000    0.000 
#    0.000    0.000    0.000    0.000    0.000    0.000 
#
# Total GULP energy -247786.185283 kJ/mol
# GULP energy per Si atom -12389.309264 kJ/mol
# Density = 1.850106 g / cm^3
# Si number density = 18.543261 Si / 1000 Ang^3
#
#
#
# Elastic Constant Matrix: (Units=GPa)
#
#
# Indices 1 2 3 4 5 6 
#
# 1 94.8472 23.0692 23.6811 0.0000 11.4771 0.0000
# 2 23.0692 88.2204 23.8792 0.0000 8.2954 0.0000
# 3 23.6811 23.8792 51.6496 0.0000 12.5943 0.0000
# 4 0.0000 0.0000 0.0000 48.4035 0.0000 9.5427
# 5 11.4771 8.2954 12.5943 0.0000 35.6176 0.0000
# 6 0.0000 0.0000 0.0000 9.5427 0.0000 37.1953
#
#
#
# Elastic Compliance Matrix: (Units=1/GPa)
#
#
# Indices 1 2 3 4 5 6 
#
# 1 0.012313 -0.001869 -0.004290 0.000000 -0.002015 0.000000
# 2 -0.001869 0.013272 -0.005113 0.000000 -0.000681 0.000000
# 3 -0.004290 -0.005113 0.025241 0.000000 -0.006352 0.000000
# 4 0.000000 0.000000 0.000000 0.021760 0.000000 -0.005583
# 5 -0.002015 -0.000681 -0.006352 0.000000 0.031130 0.000000
# 6 0.000000 0.000000 0.000000 -0.005583 0.000000 0.028317
#
#
# Mechanical properties :
#
#
# Convention : Reuss Voigt Hill
#
# Bulk Modulus (GPa) = 35.35841 41.77513 38.56677
# Shear Modulus (GPa) = 30.48693 35.18247 32.83470
#
# Velocity S-wave (km/s) = 4.05915 4.36055 4.21254
# Velocity P-wave (km/s) = 6.40924 6.92314 6.67114
#
# Compressibility (1/GPa) = 0.02828181
#
# Stress axis : x y z
#
# Youngs Moduli (GPa) = 81.21616 75.34650 39.61819
#
# Poissons Ratio (x) = 0.14083 0.16995
# Poissons Ratio (y) = 0.15180 0.20257
# Poissons Ratio (z) = 0.34840 0.38525
#
# Static dielectric constant tensor:
#      x y z
#    x 3.661260 0.000000 0.087740 
#    y 0.000000 3.235210 0.000000 
#    z 0.087740 0.000000 3.206900 
# 
# 
# High freq. dielectric constant tensor:
#      x y z
#    x 1.731220 0.000000 0.011830 
#    y 0.000000 1.708890 0.000000 
#    z 0.011830 0.000000 1.704480 
# 
# From -- ./inp_files/140863.got.cif
#   From: 2010.06.25/outbox.cif.g09.slc.cpg/sg12_71_cif.got.tgz:140863.got - 2010.06.28 00:19:55.
