data_PCOD8108353
_publ_section_title
;
Structure prediction by ZEFSAII (Michael W. Deem and Ramdas Pophale) SiO2 
 PCOD8108353
Probable space group: C 2/M
;
_chemical_formula_sum "Si O2"
_cell_formula_units_Z 56
_cell_length_a 29.027470
_cell_length_b 8.681584
_cell_length_c 11.627436
_cell_angle_alpha 90.000000
_cell_angle_beta 69.046158
_cell_angle_gamma 90.000000
_cell_volume 2736.389992
_symmetry_space_group_name_H-M "C 2/M"
_symmetry_group_IT_number 12
_symmetry_cell_setting 'monoclinic'
loop_
_space_group_symop_operation_xyz
x,y,z
-x,y,-z
-x,-y,-z
x,-y,z
1/2+x,1/2+y,z
1/2-x,1/2+y,-z
1/2-x,1/2-y,-z
1/2+x,1/2-y,z
loop_
_atom_site_type_symbol
_atom_site_label
_atom_site_fract_x
_atom_site_fract_y
_atom_site_fract_z
Si Si1 0.265354 0.319178 0.606928
Si Si2 0.827491 0.320799 0.155318
Si Si3 0.479104 0.682320 0.844097
Si Si4 0.547652 0.318471 0.382838
Si Si5 0.349931 0.818269 0.676256
Si Si6 0.575653 0.317758 0.879645
Si Si7 0.196061 0.819037 0.055829
O O1 0.272657 0.500000 0.586982
O O2 0.250000 0.250000 0.500000
O O3 0.223238 0.278562 0.736696
O O4 0.316344 0.245129 0.603033
O O5 0.829560 0.500000 0.123146
O O6 0.873589 0.271281 0.194009
O O7 0.832624 0.220754 0.035111
O O8 0.479390 0.500000 0.839413
O O9 0.461351 0.748103 0.737686
O O10 0.535099 0.735677 0.822205
O O11 0.442592 0.736197 0.977667
O O12 0.500000 0.278482 0.500000
O O13 0.558548 0.500000 0.371444
O O14 0.593992 0.232249 0.398025
O O15 0.333711 0.749846 0.812148
O O16 0.345093 0.000000 0.683871
O O17 0.584496 0.500000 0.866550
O O18 0.199733 0.000000 0.071040
O O19 0.250000 0.750000 0.000000
#
# Coordination Sequence:
#
# PCOD8108353 Si02
#       7
#     8   8   8   8   8   8   8
#     4  11  25  44  64  86 121 163 207 256 307 373
#     4  11  23  38  58  90 126 160 200 249 308 372
#     4   8  16  33  55  82 113 150 198 247 298 356
#     4  10  21  38  61  88 120 161 207 255 308 369
#     4  12  25  42  65  93 127 166 208 258 316 374
#     4   9  17  32  57  83 112 153 199 247 297 358
#     4  12  23  38  63  93 125 161 203 254 311 372
#
# _framework density 20.464919999999999
#
# number of rings (size 3 to 8) (size 9 to 14) (size 15 to 20)
#    0.000    1.571    1.429    5.143    0.000    4.286 
#    0.000    3.571    0.000    0.000    0.000    0.000 
#    0.000    0.000    0.000    0.000    0.000    0.000 
#
# Total GULP energy -347281.617342 kJ/mol
# GULP energy per Si atom -12402.914905 kJ/mol
# Density = 2.041834 g / cm^3
# Si number density = 20.464920 Si / 1000 Ang^3
#
#
#
# Elastic Constant Matrix: (Units=GPa)
#
#
# Indices 1 2 3 4 5 6 
#
# 1 169.5796 58.8648 51.0710 0.0000 -0.8147 0.0000
# 2 58.8648 105.0751 50.8225 0.0000 -3.0672 0.0000
# 3 51.0710 50.8225 78.8311 0.0000 10.5547 0.0000
# 4 0.0000 0.0000 0.0000 25.8037 0.0000 -2.0481
# 5 -0.8147 -3.0672 10.5547 0.0000 35.8807 0.0000
# 6 0.0000 0.0000 0.0000 -2.0481 0.0000 35.1254
#
#
#
# Elastic Compliance Matrix: (Units=1/GPa)
#
#
# Indices 1 2 3 4 5 6 
#
# 1 0.007894 -0.002698 -0.003506 0.000000 0.000980 0.000000
# 2 -0.002698 0.015314 -0.008632 0.000000 0.003787 0.000000
# 3 -0.003506 -0.008632 0.021477 0.000000 -0.007135 0.000000
# 4 0.000000 0.000000 0.000000 0.038934 0.000000 0.002270
# 5 0.000980 0.003787 -0.007135 0.000000 0.030315 0.000000
# 6 0.000000 0.000000 0.000000 0.002270 0.000000 0.028602
#
#
# Mechanical properties :
#
#
# Convention : Reuss Voigt Hill
#
# Bulk Modulus (GPa) = 66.60855 75.00026 70.80440
# Shear Modulus (GPa) = 28.21454 32.21046 30.21250
#
# Velocity S-wave (km/s) = 3.71708 3.97159 3.84644
# Velocity P-wave (km/s) = 7.14427 7.59994 7.37563
#
# Compressibility (1/GPa) = 0.01501309
#
# Stress axis : x y z
#
# Youngs Moduli (GPa) = 126.67772 65.29865 46.56081
#
# Poissons Ratio (x) = 0.17618 0.16324
# Poissons Ratio (y) = 0.34178 0.40193
# Poissons Ratio (z) = 0.44413 0.56368
#
# Static dielectric constant tensor:
#      x y z
#    x 3.659340 0.000000 -0.209330 
#    y 0.000000 3.551280 0.000000 
#    z -0.209330 0.000000 3.646820 
# 
# 
# High freq. dielectric constant tensor:
#      x y z
#    x 1.823040 0.000000 -0.001050 
#    y 0.000000 1.784960 0.000000 
#    z -0.001050 0.000000 1.789430 
# 
# From -- ./inp_files/187267.got.cif
#   From: 2010.06.25/outbox.cif.g09.slc.cpg/sg12_94_cif.got.tgz:187267.got - 2010.06.28 00:19:55.
