data_PCOD8108863
_publ_section_title
;
Structure prediction by ZEFSAII (Michael W. Deem and Ramdas Pophale) SiO2 
 PCOD8108863
Probable space group: C 2/M
;
_chemical_formula_sum "Si O2"
_cell_formula_units_Z 64
_cell_length_a 24.333410
_cell_length_b 8.874981
_cell_length_c 21.694928
_cell_angle_alpha 90.000000
_cell_angle_beta 44.424339
_cell_angle_gamma 90.000000
_cell_volume 3279.488025
_symmetry_space_group_name_H-M "C 2/M"
_symmetry_group_IT_number 12
_symmetry_cell_setting 'monoclinic'
loop_
_space_group_symop_operation_xyz
x,y,z
-x,y,-z
-x,-y,-z
x,-y,z
1/2+x,1/2+y,z
1/2-x,1/2+y,-z
1/2-x,1/2-y,-z
1/2+x,1/2-y,z
loop_
_atom_site_type_symbol
_atom_site_label
_atom_site_fract_x
_atom_site_fract_y
_atom_site_fract_z
Si Si1 0.815836 0.175807 0.370708
Si Si2 0.997395 0.820108 0.432274
Si Si3 0.575250 0.825308 0.054334
Si Si4 0.843692 0.177861 0.486361
Si Si5 0.412988 0.675981 0.174863
Si Si6 0.831705 0.178657 0.915306
Si Si7 0.184301 0.674997 0.850833
Si Si8 0.647115 0.321525 0.239517
O O1 0.848383 0.228828 0.411102
O O2 0.734721 0.258662 0.419205
O O3 0.881101 0.217716 0.268127
O O4 0.797185 0.000000 0.385541
O O5 0.072913 0.754557 0.335759
O O6 0.000000 0.759678 0.500000
O O7 0.919333 0.757462 0.461453
O O8 0.998304 0.000000 0.430349
O O9 0.490704 0.771112 0.098800
O O10 0.599065 0.729659 0.094931
O O11 0.572152 0.000000 0.074621
O O12 0.637438 0.795137 0.951003
O O13 0.841189 0.000000 0.494431
O O14 0.432185 0.500000 0.153712
O O15 0.348108 0.720804 0.177128
O O16 0.854218 0.238174 0.829413
O O17 0.822678 0.000000 0.924043
O O18 0.750000 0.250000 0.000000
O O19 0.178604 0.500000 0.836113
O O20 0.273396 0.728439 0.790017
O O21 0.642645 0.500000 0.241718
#
# Coordination Sequence:
#
# PCOD8108863 Si02
#       8
#     8   8   8   8   8   8   8   8
#     4   9  20  37  55  79 112 147 183 231 289 344
#     4   9  18  31  54  88 115 140 184 235 277 334
#     4  11  23  40  59  85 116 151 195 241 289 341
#     4   9  18  34  58  82 108 144 188 232 278 333
#     4  11  24  38  57  85 113 150 194 238 293 349
#     4  11  21  37  61  87 119 159 195 237 288 345
#     4  10  21  39  59  81 114 153 191 236 287 342
#     4   9  19  35  56  83 117 154 188 229 289 343
#
# _framework density 19.515241
#
# number of rings (size 3 to 8) (size 9 to 14) (size 15 to 20)
#    0.000    2.125    1.250    1.500    3.500    3.500 
#    0.000    0.000    0.000    1.125    0.000    0.000 
#    0.000    0.000    0.000    0.000    0.000    0.000 
#
# Total GULP energy -396899.523524 kJ/mol
# GULP energy per Si atom -12403.110110 kJ/mol
# Density = 1.947082 g / cm^3
# Si number density = 19.515241 Si / 1000 Ang^3
#
#
#
# Elastic Constant Matrix: (Units=GPa)
#
#
# Indices 1 2 3 4 5 6 
#
# 1 141.3935 23.5790 59.6978 -0.0004 -7.7627 -0.0002
# 2 23.5790 39.3680 33.9793 -0.0011 1.4585 -0.0013
# 3 59.6978 33.9793 117.9378 0.0007 -7.2803 -0.0006
# 4 -0.0004 -0.0011 0.0007 23.9896 0.0004 -1.1921
# 5 -7.7627 1.4585 -7.2803 0.0004 34.2621 -0.0005
# 6 -0.0002 -0.0013 -0.0006 -1.1921 -0.0005 32.2999
#
#
#
# Elastic Compliance Matrix: (Units=1/GPa)
#
#
# Indices 1 2 3 4 5 6 
#
# 1 0.009166 -0.002137 -0.003942 0.000000 0.001330 0.000000
# 2 -0.002137 0.034740 -0.009169 0.000002 -0.003911 0.000001
# 3 -0.003942 -0.009169 0.013259 -0.000001 0.002315 0.000000
# 4 0.000000 0.000002 -0.000001 0.041761 -0.000001 0.001541
# 5 0.001330 -0.003911 0.002315 -0.000001 0.030146 0.000000
# 6 0.000000 0.000001 0.000000 0.001541 0.000000 0.031017
#
#
# Mechanical properties :
#
#
# Convention : Reuss Voigt Hill
#
# Bulk Modulus (GPa) = 37.49568 59.24573 48.37071
# Shear Modulus (GPa) = 25.06584 30.20654 27.63619
#
# Velocity S-wave (km/s) = 3.58777 3.93853 3.76724
# Velocity P-wave (km/s) = 6.03474 7.14894 6.61534
#
# Compressibility (1/GPa) = 0.02666974
#
# Stress axis : x y z
#
# Youngs Moduli (GPa) = 109.09686 28.78532 75.42097
#
# Poissons Ratio (x) = 0.06151 0.29731
# Poissons Ratio (y) = 0.23312 0.69152
# Poissons Ratio (z) = 0.43006 0.26393
#
# Static dielectric constant tensor:
#      x y z
#    x 3.770250 0.000000 0.037350 
#    y 0.000000 3.265600 0.000000 
#    z 0.037350 0.000000 3.734520 
# 
# 
# High freq. dielectric constant tensor:
#      x y z
#    x 1.773130 0.000000 -0.000330 
#    y 0.000000 1.730380 0.000000 
#    z -0.000330 0.000000 1.767710 
# 
# From -- ./inp_files/324172.got.cif
#   From: 2010.06.25/outbox.cif.g09.slc.cpg/sg12_163_cif.got.tgz:324172.got - 2010.06.28 00:19:55.
