data_PCOD8108060
_publ_section_title
;
Structure prediction by ZEFSAII (Michael W. Deem and Ramdas Pophale) SiO2 
 PCOD8108060
Probable space group: C 2/M
;
_chemical_formula_sum "Si O2"
_cell_formula_units_Z 56
_cell_length_a 29.686989
_cell_length_b 11.311690
_cell_length_c 9.941692
_cell_angle_alpha 90.000000
_cell_angle_beta 56.653107
_cell_angle_gamma 90.000000
_cell_volume 2788.858321
_symmetry_space_group_name_H-M "C 2/M"
_symmetry_group_IT_number 12
_symmetry_cell_setting 'monoclinic'
loop_
_space_group_symop_operation_xyz
x,y,z
-x,y,-z
-x,-y,-z
x,-y,z
1/2+x,1/2+y,z
1/2-x,1/2+y,-z
1/2-x,1/2-y,-z
1/2+x,1/2-y,z
loop_
_atom_site_type_symbol
_atom_site_label
_atom_site_fract_x
_atom_site_fract_y
_atom_site_fract_z
Si Si1 0.487747 0.000000 0.240764
Si Si2 0.322460 0.799620 0.275685
Si Si3 0.702677 0.629933 0.455310
Si Si4 0.863334 0.135520 0.687055
Si Si5 0.466009 0.242537 0.424289
Si Si6 0.977692 0.862631 0.898962
Si Si7 0.139092 0.861696 0.001651
Si Si8 0.410757 0.000000 0.113405
O O1 0.477615 0.111688 0.352325
O O2 0.444840 0.000000 0.192726
O O3 0.548869 0.000000 0.081494
O O4 0.328887 0.726332 0.403682
O O5 0.266680 0.869617 0.371220
O O6 0.373145 0.885045 0.173359
O O7 0.317983 0.708240 0.158868
O O8 0.682003 0.500000 0.534023
O O9 0.689558 0.648785 0.318903
O O10 0.904479 0.232452 0.562179
O O11 0.849402 0.170243 0.862520
O O12 0.886065 0.000000 0.646671
O O13 0.500000 0.269752 0.500000
O O14 0.480330 0.337579 0.287220
O O15 0.919504 0.813782 0.949982
O O16 0.972688 0.000000 0.933186
O O17 0.000000 0.800900 0.000000
O O18 0.145978 0.000000 0.963861
#
# Coordination Sequence:
#
# PCOD8108060 Si02
#       8
#     4   8   8   8   8   8   8   4
#     4  11  27  40  60  90 126 166 216 240 300 368
#     4  11  22  40  65  87 119 158 203 252 310 357
#     4  10  22  41  63  92 118 152 202 256 308 365
#     4  10  22  39  63  90 122 157 201 252 310 356
#     4  12  23  40  61  87 127 165 201 249 300 365
#     4  10  22  36  58  90 120 153 200 244 300 361
#     4  10  21  38  59  89 122 155 195 250 302 363
#     4  11  24  42  64  90 120 166 207 257 299 365
#
# _framework density 20.079899999999999
#
# number of rings (size 3 to 8) (size 9 to 14) (size 15 to 20)
#    0.000    1.429    2.143    2.786    6.000    1.143 
#    0.000    0.000    0.000    0.000    0.000    0.000 
#    0.000    0.000    0.000    0.000    0.000    0.000 
#
# Total GULP energy -347185.472065 kJ/mol
# GULP energy per Si atom -12399.481145 kJ/mol
# Density = 2.003420 g / cm^3
# Si number density = 20.079900 Si / 1000 Ang^3
#
#
#
# Elastic Constant Matrix: (Units=GPa)
#
#
# Indices 1 2 3 4 5 6 
#
# 1 89.7970 36.7404 38.2424 0.0000 24.5318 0.0000
# 2 36.7404 67.3795 45.9648 0.0000 2.2644 0.0000
# 3 38.2424 45.9648 115.9081 0.0000 22.8976 0.0000
# 4 0.0000 0.0000 0.0000 95.1698 0.0000 152.3380
# 5 24.5318 2.2644 22.8976 0.0000 39.8480 0.0000
# 6 0.0000 0.0000 0.0000 152.3380 0.0000 448.3559
#
#
#
# Elastic Compliance Matrix: (Units=1/GPa)
#
#
# Indices 1 2 3 4 5 6 
#
# 1 0.017822 -0.009258 -0.000164 0.000000 -0.010352 0.000000
# 2 -0.009258 0.025714 -0.009002 0.000000 0.009411 0.000000
# 3 -0.000164 -0.009002 0.013684 0.000000 -0.007251 0.000000
# 4 0.000000 0.000000 0.000000 0.023036 0.000000 -0.007827
# 5 -0.010352 0.009411 -0.007251 0.000000 0.035100 0.000000
# 6 0.000000 0.000000 0.000000 -0.007827 0.000000 0.004890
#
#
# Mechanical properties :
#
#
# Convention : Reuss Voigt Hill
#
# Bulk Modulus (GPa) = 49.08641 57.21999 53.15320
# Shear Modulus (GPa) = 30.50937 126.81720 78.66329
#
# Velocity S-wave (km/s) = 3.90218 7.95571 6.26579
# Velocity P-wave (km/s) = 6.69337 10.62776 8.88117
#
# Compressibility (1/GPa) = 0.02037224
#
# Stress axis : x y z
#
# Youngs Moduli (GPa) = 56.11053 38.88894 73.07982
#
# Poissons Ratio (x) = 0.36005 0.01196
# Poissons Ratio (y) = 0.51949 0.65785
# Poissons Ratio (z) = 0.00918 0.35007
#
# Static dielectric constant tensor:
#      x y z
#    x 3.701870 0.000000 0.194370 
#    y 0.000000 3.617830 0.000000 
#    z 0.194370 0.000000 3.696620 
# 
# 
# High freq. dielectric constant tensor:
#      x y z
#    x 1.782240 0.000000 0.014330 
#    y 0.000000 1.785220 0.000000 
#    z 0.014330 0.000000 1.785790 
# 
# From -- ./inp_files/110374.got.cif
#   From: 2010.06.25/outbox.cif.g09.slc.cpg/sg12_56_cif.got.tgz:110374.got - 2010.06.28 00:19:55.
