data_PCOD8108186
_publ_section_title
;
Structure prediction by ZEFSAII (Michael W. Deem and Ramdas Pophale) SiO2 
 PCOD8108186
Probable space group: C 2/M
;
_chemical_formula_sum "Si O2"
_cell_formula_units_Z 64
_cell_length_a 27.196671
_cell_length_b 18.449583
_cell_length_c 9.074966
_cell_angle_alpha 90.000000
_cell_angle_beta 135.688619
_cell_angle_gamma 90.000000
_cell_volume 3180.895689
_symmetry_space_group_name_H-M "C 2/M"
_symmetry_group_IT_number 12
_symmetry_cell_setting 'monoclinic'
loop_
_space_group_symop_operation_xyz
x,y,z
-x,y,-z
-x,-y,-z
x,-y,z
1/2+x,1/2+y,z
1/2-x,1/2+y,-z
1/2-x,1/2-y,-z
1/2+x,1/2-y,z
loop_
_atom_site_type_symbol
_atom_site_label
_atom_site_fract_x
_atom_site_fract_y
_atom_site_fract_z
Si Si1 0.715720 0.184244 0.518149
Si Si2 0.496778 0.917553 0.320904
Si Si3 0.904336 0.296786 0.516756
Si Si4 0.524879 0.291566 0.886312
Si Si5 0.214398 0.084063 0.099890
Si Si6 0.946812 0.082830 0.256855
Si Si7 0.703739 0.818558 0.937017
Si Si8 0.631746 0.162203 0.071868
O O1 0.750000 0.250000 0.500000
O O2 0.662462 0.217643 0.522992
O O3 0.771550 0.132230 0.721970
O O4 0.669119 0.137519 0.303272
O O5 0.500000 0.897972 0.500000
O O6 0.554422 0.871057 0.354803
O O7 0.419442 0.901271 0.091919
O O8 0.516003 0.000000 0.332434
O O9 0.875708 0.302693 0.289068
O O10 0.959394 0.231884 0.644260
O O11 0.543401 0.371625 0.871413
O O12 0.590877 0.238056 0.008002
O O13 0.500000 0.293142 0.000000
O O14 0.264655 0.110177 0.074465
O O15 0.231323 0.000000 0.171335
O O16 0.134581 0.093054 0.870537
O O17 0.000000 0.108566 0.500000
O O18 0.963215 0.000000 0.250502
O O19 0.696229 0.828132 0.095341
O O20 0.750000 0.750000 0.000000
#
# Coordination Sequence:
#
# PCOD8108186 Si02
#       8
#     8   8   8   8   8   8   8   8
#     4  11  22  41  63  88 129 164 207 254 314 377
#     4  10  21  38  60  87 125 164 204 255 305 360
#     4  10  22  37  58  93 119 162 206 252 306 369
#     4  11  22  37  63  87 128 164 203 258 308 360
#     4  10  24  44  64  91 127 167 205 254 321 386
#     4  10  23  43  66  91 117 154 207 262 319 376
#     4  11  22  37  62  92 125 161 210 260 313 371
#     4  11  22  38  59  95 124 160 212 254 301 364
#
# _framework density 20.120118999999999
#
# number of rings (size 3 to 8) (size 9 to 14) (size 15 to 20)
#    0.000    1.500    2.500    3.000    3.500    3.250 
#    0.000    0.625    0.000    0.000    0.000    0.000 
#    0.000    0.000    0.000    0.000    0.000    0.000 
#
# Total GULP energy -396748.377215 kJ/mol
# GULP energy per Si atom -12398.386788 kJ/mol
# Density = 2.007432 g / cm^3
# Si number density = 20.120119 Si / 1000 Ang^3
#
#
#
# Elastic Constant Matrix: (Units=GPa)
#
#
# Indices 1 2 3 4 5 6 
#
# 1 90.7476 39.2667 18.4739 0.0000 -1.1766 0.0000
# 2 39.2667 93.4744 21.6932 0.0000 0.7394 0.0000
# 3 18.4739 21.6932 115.2429 0.0000 7.0528 0.0000
# 4 0.0000 0.0000 0.0000 27.2947 0.0000 -2.9467
# 5 -1.1766 0.7394 7.0528 0.0000 31.6354 0.0000
# 6 0.0000 0.0000 0.0000 -2.9467 0.0000 24.0630
#
#
#
# Elastic Compliance Matrix: (Units=1/GPa)
#
#
# Indices 1 2 3 4 5 6 
#
# 1 0.013639 -0.005455 -0.001215 0.000000 0.000906 0.000000
# 2 -0.005455 0.013370 -0.001633 0.000000 -0.000151 0.000000
# 3 -0.001215 -0.001633 0.009307 0.000000 -0.002082 0.000000
# 4 0.000000 0.000000 0.000000 0.037128 0.000000 0.004547
# 5 0.000906 -0.000151 -0.002082 0.000000 0.032112 0.000000
# 6 0.000000 0.000000 0.000000 0.004547 0.000000 0.042114
#
#
# Mechanical properties :
#
#
# Convention : Reuss Voigt Hill
#
# Bulk Modulus (GPa) = 50.73532 50.92584 50.83058
# Shear Modulus (GPa) = 29.26634 31.26736 30.26685
#
# Velocity S-wave (km/s) = 3.81803 3.94640 3.88275
# Velocity P-wave (km/s) = 6.68636 6.79200 6.73939
#
# Compressibility (1/GPa) = 0.01971013
#
# Stress axis : x y z
#
# Youngs Moduli (GPa) = 73.31984 74.79620 107.44708
#
# Poissons Ratio (x) = 0.40798 0.13055
# Poissons Ratio (y) = 0.39993 0.17547
# Poissons Ratio (z) = 0.08908 0.12215
#
# Static dielectric constant tensor:
#      x y z
#    x 3.756960 0.000000 0.057730 
#    y 0.000000 3.535930 0.000000 
#    z 0.057730 0.000000 4.073280 
# 
# 
# High freq. dielectric constant tensor:
#      x y z
#    x 1.783550 0.000000 0.009600 
#    y 0.000000 1.770520 0.000000 
#    z 0.009600 0.000000 1.801390 
# 
# From -- ./inp_files/112860.got.cif
#   From: 2010.06.25/outbox.cif.g09.slc.cpg/sg12_57_cif.got.tgz:112860.got - 2010.06.28 00:19:55.
