data_PCOD8108646
_publ_section_title
;
Structure prediction by ZEFSAII (Michael W. Deem and Ramdas Pophale) SiO2 
 PCOD8108646
Probable space group: C 2/M
;
_chemical_formula_sum "Si O2"
_cell_formula_units_Z 40
_cell_length_a 13.366712
_cell_length_b 17.927278
_cell_length_c 14.055433
_cell_angle_alpha 90.000000
_cell_angle_beta 34.781097
_cell_angle_gamma 90.000000
_cell_volume 1921.299819
_symmetry_space_group_name_H-M "C 2/M"
_symmetry_group_IT_number 12
_symmetry_cell_setting 'monoclinic'
loop_
_space_group_symop_operation_xyz
x,y,z
-x,y,-z
-x,-y,-z
x,-y,z
1/2+x,1/2+y,z
1/2-x,1/2+y,-z
1/2-x,1/2-y,-z
1/2+x,1/2-y,z
loop_
_atom_site_type_symbol
_atom_site_label
_atom_site_fract_x
_atom_site_fract_y
_atom_site_fract_z
Si Si1 0.199559 0.701718 0.358376
Si Si2 0.211255 0.413390 0.500786
Si Si3 0.527707 0.793973 0.761978
Si Si4 0.230862 0.717794 0.874491
Si Si5 0.940752 0.082120 0.653773
O O1 0.211514 0.617620 0.391125
O O2 0.284391 0.753306 0.374427
O O3 0.299080 0.715630 0.180116
O O4 0.000000 0.728082 0.500000
O O5 0.159272 0.500000 0.538400
O O6 0.059594 0.370942 0.680216
O O7 0.399294 0.399650 0.400579
O O8 0.389343 0.741680 0.818006
O O9 0.447353 0.803314 0.930834
O O10 0.284746 0.640901 0.782642
O O11 0.000000 0.083571 0.500000
O O12 0.866916 0.000000 0.737110
#
# Coordination Sequence:
#
# PCOD8108646 Si02
#       5
#     8   8   8   8   8
#     4  12  22  39  65  90 122 163 208 257 299 366
#     4  11  23  40  62  92 127 161 206 256 303 369
#     4  11  23  39  60  92 121 158 209 247 306 363
#     4  11  22  38  63  88 124 160 199 257 301 367
#     4  10  21  38  63  92 122 159 204 254 310 362
#
# _framework density 20.819240000000001
#
# number of rings (size 3 to 8) (size 9 to 14) (size 15 to 20)
#    0.000    1.000    4.000    4.200    0.000    1.200 
#    0.000    0.000    0.000    8.400    0.000    0.000 
#    0.000    0.000    0.000    0.000    0.000    0.000 
#
# Total GULP energy -247901.778073 kJ/mol
# GULP energy per Si atom -12395.088904 kJ/mol
# Density = 2.077185 g / cm^3
# Si number density = 20.819240 Si / 1000 Ang^3
#
#
#
# Elastic Constant Matrix: (Units=GPa)
#
#
# Indices 1 2 3 4 5 6 
#
# 1 91.1520 29.6124 34.0233 0.0018 -1.0522 -0.0008
# 2 29.6124 122.9997 55.2519 0.0039 2.4995 -0.0015
# 3 34.0233 55.2519 66.3931 0.0132 10.5246 -0.0055
# 4 0.0018 0.0039 0.0132 19.1801 -0.0041 10.3357
# 5 -1.0522 2.4995 10.5246 -0.0041 40.8952 -0.0017
# 6 -0.0008 -0.0015 -0.0055 10.3357 -0.0017 21.3985
#
#
#
# Elastic Compliance Matrix: (Units=1/GPa)
#
#
# Indices 1 2 3 4 5 6 
#
# 1 0.013763 -0.000049 -0.007370 0.000007 0.002254 -0.000004
# 2 -0.000049 0.013154 -0.011253 0.000009 0.002091 -0.000006
# 3 -0.007370 -0.011253 0.029321 -0.000030 -0.007048 0.000020
# 4 0.000007 0.000009 -0.000030 0.070483 0.000013 -0.034044
# 5 0.002254 0.002091 -0.007048 0.000013 0.026197 -0.000006
# 6 -0.000004 -0.000006 0.000020 -0.034044 -0.000006 0.063176
#
#
# Mechanical properties :
#
#
# Convention : Reuss Voigt Hill
#
# Bulk Modulus (GPa) = 52.92548 57.59112 55.25830
# Shear Modulus (GPa) = 19.25030 27.07192 23.16111
#
# Velocity S-wave (km/s) = 3.04409 3.60992 3.33901
# Velocity P-wave (km/s) = 6.15077 6.71550 6.43933
#
# Compressibility (1/GPa) = 0.01889449
#
# Stress axis : x y z
#
# Youngs Moduli (GPa) = 72.65657 76.01971 34.10564
#
# Poissons Ratio (x) = 0.00372 0.25135
# Poissons Ratio (y) = 0.00355 0.38381
# Poissons Ratio (z) = 0.53545 0.85549
#
# Static dielectric constant tensor:
#      x y z
#    x 4.098290 -0.000020 0.081220 
#    y -0.000020 3.856650 0.000030 
#    z 0.081220 0.000030 3.849370 
# 
# 
# High freq. dielectric constant tensor:
#      x y z
#    x 1.839190 0.000000 0.003490 
#    y 0.000000 1.799540 0.000000 
#    z 0.003490 0.000000 1.801110 
# 
# From -- ./inp_files/47158.got.cif
#   From: 2010.06.25/outbox.cif.g09.slc.cpg/sg12_24_cif.got.tgz:47158.got - 2010.06.28 00:19:55.
