data_PCOD8108981
_publ_section_title
;
Structure prediction by ZEFSAII (Michael W. Deem and Ramdas Pophale) SiO2 
 PCOD8108981
Probable space group: C 2/M
;
_chemical_formula_sum "Si O2"
_cell_formula_units_Z 64
_cell_length_a 18.354152
_cell_length_b 14.141622
_cell_length_c 15.455630
_cell_angle_alpha 90.000000
_cell_angle_beta 57.587894
_cell_angle_gamma 90.000000
_cell_volume 3386.672232
_symmetry_space_group_name_H-M "C 2/M"
_symmetry_group_IT_number 12
_symmetry_cell_setting 'monoclinic'
loop_
_space_group_symop_operation_xyz
x,y,z
-x,y,-z
-x,-y,-z
x,-y,z
1/2+x,1/2+y,z
1/2-x,1/2+y,-z
1/2-x,1/2-y,-z
1/2+x,1/2-y,z
loop_
_atom_site_type_symbol
_atom_site_label
_atom_site_fract_x
_atom_site_fract_y
_atom_site_fract_z
Si Si1 0.447901 0.264011 0.449933
Si Si2 0.685949 0.891877 0.447666
Si Si3 0.258672 0.746921 0.271563
Si Si4 0.359989 0.606905 0.938044
Si Si5 0.606271 0.252846 0.230644
Si Si6 0.902820 0.259142 0.043049
Si Si7 0.712664 0.391800 0.441181
Si Si8 0.658838 0.107054 0.061255
O O1 0.500000 0.299455 0.500000
O O2 0.405127 0.162505 0.497787
O O3 0.510412 0.255834 0.328825
O O4 0.375735 0.341570 0.474402
O O5 0.752560 0.844478 0.337656
O O6 0.721793 0.883392 0.521378
O O7 0.671137 0.000000 0.429329
O O8 0.177942 0.745306 0.258511
O O9 0.349988 0.742383 0.164800
O O10 0.254895 0.842143 0.330859
O O11 0.394693 0.500000 0.915428
O O12 0.378698 0.651839 0.832975
O O13 0.407250 0.663140 0.984480
O O14 0.258809 0.611657 0.021825
O O15 0.607662 0.161021 0.168721
O O16 0.855470 0.342916 0.021587
O O17 0.000000 0.291300 0.000000
O O18 0.693529 0.500000 0.429202
O O19 0.624874 0.000000 0.077576
#
# Coordination Sequence:
#
# PCOD8108981 Si02
#       8
#     8   8   8   8   8   8   8   8
#     4  11  21  37  58  90 117 147 193 250 287 331
#     4  10  23  41  60  84 120 159 193 237 294 353
#     4  11  20  39  61  87 115 156 199 235 294 352
#     4  10  21  39  61  84 117 156 195 239 288 346
#     4  11  20  37  60  90 118 153 197 241 292 341
#     4  11  23  39  61  90 122 152 192 246 290 345
#     4  10  23  41  60  84 120 159 193 237 294 353
#     4  10  21  39  61  84 117 156 195 239 288 346
#
# _framework density 18.897607000000001
#
# number of rings (size 3 to 8) (size 9 to 14) (size 15 to 20)
#    0.000    1.500    5.000    2.250    0.000    8.000 
#    0.000    2.500    0.000    0.000    0.000    0.000 
#    0.000    0.000    0.000    0.000    0.000    0.000 
#
# Total GULP energy -396922.000492 kJ/mol
# GULP energy per Si atom -12403.812515 kJ/mol
# Density = 1.885459 g / cm^3
# Si number density = 18.897607 Si / 1000 Ang^3
#
#
#
# Elastic Constant Matrix: (Units=GPa)
#
#
# Indices 1 2 3 4 5 6 
#
# 1 51.6029 10.3315 14.8909 0.0000 -2.7982 0.0000
# 2 10.3315 143.0056 42.2626 0.0000 7.1547 0.0000
# 3 14.8909 42.2626 118.0562 0.0000 -4.5189 0.0000
# 4 0.0000 0.0000 0.0000 12.7169 0.0000 3.7077
# 5 -2.7982 7.1547 -4.5189 0.0000 30.4227 0.0000
# 6 0.0000 0.0000 0.0000 3.7077 0.0000 18.8431
#
#
#
# Elastic Compliance Matrix: (Units=1/GPa)
#
#
# Indices 1 2 3 4 5 6 
#
# 1 0.020281 -0.000914 -0.002164 0.000000 0.001759 0.000000
# 2 -0.000914 0.008020 -0.002847 0.000000 -0.002393 0.000000
# 3 -0.002164 -0.002847 0.009837 0.000000 0.001932 0.000000
# 4 0.000000 0.000000 0.000000 0.083421 0.000000 -0.016415
# 5 0.001759 -0.002393 0.001932 0.000000 0.033882 0.000000
# 6 0.000000 0.000000 0.000000 -0.016415 0.000000 0.056300
#
#
# Mechanical properties :
#
#
# Convention : Reuss Voigt Hill
#
# Bulk Modulus (GPa) = 38.03969 49.73721 43.88845
# Shear Modulus (GPa) = 21.51896 28.74186 25.13041
#
# Velocity S-wave (km/s) = 3.37814 3.90414 3.65063
# Velocity P-wave (km/s) = 5.94886 6.83370 6.40657
#
# Compressibility (1/GPa) = 0.02628833
#
# Stress axis : x y z
#
# Youngs Moduli (GPa) = 49.30613 124.68868 101.65979
#
# Poissons Ratio (x) = 0.11394 0.21996
# Poissons Ratio (y) = 0.04506 0.28947
# Poissons Ratio (z) = 0.10669 0.35504
#
# Static dielectric constant tensor:
#      x y z
#    x 3.386030 0.000000 0.097320 
#    y 0.000000 3.601650 0.000000 
#    z 0.097320 0.000000 3.578980 
# 
# 
# High freq. dielectric constant tensor:
#      x y z
#    x 1.730390 0.000000 0.007300 
#    y 0.000000 1.736310 0.000000 
#    z 0.007300 0.000000 1.741340 
# 
# From -- ./inp_files/225292.got.cif
#   From: 2010.06.25/outbox.cif.g09.slc.cpg/sg12_113_cif.got.tgz:225292.got - 2010.06.28 00:19:55.
