data_PCOD8108260
_publ_section_title
;
Structure prediction by ZEFSAII (Michael W. Deem and Ramdas Pophale) SiO2 
 PCOD8108260
Probable space group: C 2/M
;
_chemical_formula_sum "Si O2"
_cell_formula_units_Z 56
_cell_length_a 12.599846
_cell_length_b 13.823073
_cell_length_c 17.336027
_cell_angle_alpha 90.000000
_cell_angle_beta 60.377270
_cell_angle_gamma 90.000000
_cell_volume 2624.753643
_symmetry_space_group_name_H-M "C 2/M"
_symmetry_group_IT_number 12
_symmetry_cell_setting 'monoclinic'
loop_
_space_group_symop_operation_xyz
x,y,z
-x,y,-z
-x,-y,-z
x,-y,z
1/2+x,1/2+y,z
1/2-x,1/2+y,-z
1/2-x,1/2-y,-z
1/2+x,1/2-y,z
loop_
_atom_site_type_symbol
_atom_site_label
_atom_site_fract_x
_atom_site_fract_y
_atom_site_fract_z
Si Si1 0.977738 0.109668 0.292877
Si Si2 0.952982 0.890458 0.903857
Si Si3 0.650169 0.207963 0.698980
Si Si4 0.895747 0.887695 0.593760
Si Si5 0.183475 0.611244 0.993754
Si Si6 0.902506 0.611960 0.812534
Si Si7 0.670358 0.739734 0.863384
O O1 0.864662 0.184364 0.331832
O O2 0.051802 0.127145 0.186981
O O3 0.068555 0.132227 0.330404
O O4 0.926228 0.000000 0.316973
O O5 0.817288 0.862030 0.981622
O O6 0.052734 0.828865 0.912494
O O7 0.985856 0.000000 0.911679
O O8 0.768418 0.162089 0.616424
O O9 0.527693 0.145667 0.727026
O O10 0.672897 0.206356 0.781506
O O11 0.000000 0.845352 0.500000
O O12 0.877612 0.000000 0.583866
O O13 0.184295 0.500000 0.964050
O O14 0.151783 0.679469 0.934779
O O15 0.087660 0.626280 0.097820
O O16 0.877395 0.500000 0.801096
O O17 0.792834 0.676828 0.821073
#
# Coordination Sequence:
#
# PCOD8108260 Si02
#       7
#     8   8   8   8   8   8   8
#     4   9  19  37  58  83 113 143 180 222 264 318
#     4   9  18  34  56  78 104 145 188 225 266 315
#     4  11  22  37  59  84 109 144 180 222 278 325
#     4  10  21  38  61  86 111 143 181 218 263 327
#     4  10  22  37  52  75 109 147 187 230 274 318
#     4  11  24  38  52  78 113 143 180 234 282 319
#     4  11  21  36  56  79 107 144 189 226 268 322
#
# _framework density 21.335335000000001
#
# number of rings (size 3 to 8) (size 9 to 14) (size 15 to 20)
#    0.000    1.857    0.000    4.714    0.000    5.714 
#    0.000    3.571    0.000    1.286    0.000    0.000 
#    0.000    0.000    0.000    0.000    0.000    0.000 
#
# Total GULP energy -347268.117693 kJ/mol
# GULP energy per Si atom -12402.432775 kJ/mol
# Density = 2.128677 g / cm^3
# Si number density = 21.335335 Si / 1000 Ang^3
#
#
#
# Elastic Constant Matrix: (Units=GPa)
#
#
# Indices 1 2 3 4 5 6 
#
# 1 96.7449 49.7853 44.1340 0.0000 -16.0745 0.0000
# 2 49.7853 89.3560 33.9065 0.0000 -14.9391 0.0000
# 3 44.1340 33.9065 61.9996 0.0000 -34.3603 0.0000
# 4 0.0000 0.0000 0.0000 19.0909 0.0000 -2.2541
# 5 -16.0745 -14.9391 -34.3603 0.0000 30.9101 0.0000
# 6 0.0000 0.0000 0.0000 -2.2541 0.0000 40.5079
#
#
#
# Elastic Compliance Matrix: (Units=1/GPa)
#
#
# Indices 1 2 3 4 5 6 
#
# 1 0.019287 -0.006357 -0.016661 0.000000 -0.011563 0.000000
# 2 -0.006357 0.016471 -0.004956 0.000000 -0.000855 0.000000
# 3 -0.016661 -0.004956 0.063996 0.000000 0.060079 0.000000
# 4 0.000000 0.000000 0.000000 0.052727 0.000000 0.002934
# 5 -0.011563 -0.000855 0.060079 0.000000 0.092711 0.000000
# 6 0.000000 0.000000 0.000000 0.002934 0.000000 0.024850
#
#
# Mechanical properties :
#
#
# Convention : Reuss Voigt Hill
#
# Bulk Modulus (GPa) = 22.82854 55.97244 39.40049
# Shear Modulus (GPa) = 14.68032 26.12008 20.40020
#
# Velocity S-wave (km/s) = 2.62596 3.50274 3.09555
# Velocity P-wave (km/s) = 4.46289 6.53074 5.59321
#
# Compressibility (1/GPa) = 0.04380482
#
# Stress axis : x y z
#
# Youngs Moduli (GPa) = 51.84764 60.71373 15.62604
#
# Poissons Ratio (x) = 0.38596 0.26035
# Poissons Ratio (y) = 0.32960 0.07744
# Poissons Ratio (z) = 0.86386 0.30090
#
# Static dielectric constant tensor:
#      x y z
#    x 3.788290 0.000000 -0.089360 
#    y 0.000000 4.066480 0.000000 
#    z -0.089360 0.000000 3.679930 
# 
# 
# High freq. dielectric constant tensor:
#      x y z
#    x 1.836830 0.000000 -0.004550 
#    y 0.000000 1.852000 0.000000 
#    z -0.004550 0.000000 1.807610 
# 
# From -- ./inp_files/205042.got.cif
#   From: 2010.06.25/outbox.cif.g09.slc.cpg/sg12_103_cif.got.tgz:205042.got - 2010.06.28 00:19:55.
