data_PCOD8108001
_publ_section_title
;
Structure prediction by ZEFSAII (Michael W. Deem and Ramdas Pophale) SiO2 
 PCOD8108001
Probable space group: C 2/M
;
_chemical_formula_sum "Si O2"
_cell_formula_units_Z 64
_cell_length_a 25.184282
_cell_length_b 14.304604
_cell_length_c 18.654638
_cell_angle_alpha 90.000000
_cell_angle_beta 28.579037
_cell_angle_gamma 90.000000
_cell_volume 3214.820400
_symmetry_space_group_name_H-M "C 2/M"
_symmetry_group_IT_number 12
_symmetry_cell_setting 'monoclinic'
loop_
_space_group_symop_operation_xyz
x,y,z
-x,y,-z
-x,-y,-z
x,-y,z
1/2+x,1/2+y,z
1/2-x,1/2+y,-z
1/2-x,1/2-y,-z
1/2+x,1/2-y,z
loop_
_atom_site_type_symbol
_atom_site_label
_atom_site_fract_x
_atom_site_fract_y
_atom_site_fract_z
Si Si1 0.280167 0.251251 0.170231
Si Si2 0.359641 0.741127 0.916792
Si Si3 0.052081 0.109600 0.646332
Si Si4 0.391002 0.604069 0.583777
Si Si5 0.038460 0.607958 0.733417
Si Si6 0.946391 0.597636 0.989773
Si Si7 0.626404 0.390250 0.835423
Si Si8 0.285264 0.389496 0.422488
O O1 0.167289 0.191914 0.307882
O O2 0.286208 0.342786 0.213241
O O3 0.314338 0.278566 0.049891
O O4 0.365902 0.180439 0.103038
O O5 0.432418 0.654066 0.804611
O O6 0.436543 0.833997 0.819418
O O7 0.250000 0.750000 0.000000
O O8 0.088626 0.134226 0.522532
O O9 0.144443 0.148933 0.592918
O O10 0.034957 0.000000 0.677264
O O11 0.500000 0.591117 0.500000
O O12 0.331848 0.500000 0.654844
O O13 0.025148 0.500000 0.724722
O O14 0.035262 0.622214 0.822930
O O15 0.159046 0.649551 0.569067
O O16 0.886264 0.500000 0.035948
O O17 0.000000 0.573511 0.000000
O O18 0.642418 0.500000 0.827417
O O19 0.652903 0.358732 0.723220
O O20 0.500000 0.359131 0.000000
O O21 0.276985 0.500000 0.439689
#
# Coordination Sequence:
#
# PCOD8108001 Si02
#       8
#     8   8   8   8   8   8   8   8
#     4  11  22  36  57  85 112 151 199 240 289 347
#     4  11  24  40  59  85 116 156 206 249 291 350
#     4  10  22  39  62  90 120 156 200 249 300 361
#     4  10  22  40  61  86 119 158 197 244 301 357
#     4   9  20  37  57  84 118 153 189 237 300 355
#     4   9  18  31  51  81 118 149 177 224 284 352
#     4  10  21  38  59  84 119 157 192 236 293 358
#     4   9  19  37  60  87 116 151 193 239 297 360
#
# _framework density 19.907800000000002
#
# number of rings (size 3 to 8) (size 9 to 14) (size 15 to 20)
#    0.000    2.125    0.000    2.250    3.500    4.000 
#    0.000    0.000    0.000    0.375    0.000    0.000 
#    0.000    0.000    0.000    0.000    0.000    0.000 
#
# Total GULP energy -396508.174554 kJ/mol
# GULP energy per Si atom -12390.880455 kJ/mol
# Density = 1.986249 g / cm^3
# Si number density = 19.907800 Si / 1000 Ang^3
#
#
#
# Elastic Constant Matrix: (Units=GPa)
#
#
# Indices 1 2 3 4 5 6 
#
# 1 103.4221 18.8063 43.1144 0.0000 -7.6410 0.0000
# 2 18.8063 59.1000 27.7056 0.0000 -4.9425 0.0000
# 3 43.1144 27.7056 118.5371 0.0000 -5.3332 0.0000
# 4 0.0000 0.0000 0.0000 37.4541 0.0000 -8.2392
# 5 -7.6410 -4.9425 -5.3332 0.0000 29.7160 0.0000
# 6 0.0000 0.0000 0.0000 -8.2392 0.0000 30.8785
#
#
#
# Elastic Compliance Matrix: (Units=1/GPa)
#
#
# Indices 1 2 3 4 5 6 
#
# 1 0.011709 -0.001799 -0.003746 0.000000 0.002039 0.000000
# 2 -0.001799 0.019448 -0.003797 0.000000 0.002091 0.000000
# 3 -0.003746 -0.003797 0.010701 0.000000 0.000326 0.000000
# 4 0.000000 0.000000 0.000000 0.028364 0.000000 0.007568
# 5 0.002039 0.002091 0.000326 0.000000 0.034582 0.000000
# 6 0.000000 0.000000 0.000000 0.007568 0.000000 0.034404
#
#
# Mechanical properties :
#
#
# Convention : Reuss Voigt Hill
#
# Bulk Modulus (GPa) = 43.15494 51.14575 47.15035
# Shear Modulus (GPa) = 30.18996 32.37191 31.28094
#
# Velocity S-wave (km/s) = 3.89844 4.03686 3.96825
# Velocity P-wave (km/s) = 6.47983 6.89024 6.68818
#
# Compressibility (1/GPa) = 0.02317232
#
# Stress axis : x y z
#
# Youngs Moduli (GPa) = 85.40641 51.41959 93.44916
#
# Poissons Ratio (x) = 0.09250 0.35011
# Poissons Ratio (y) = 0.15365 0.35484
# Poissons Ratio (z) = 0.31997 0.19525
#
# Static dielectric constant tensor:
#      x y z
#    x 3.497300 0.000000 0.107600 
#    y 0.000000 2.970220 0.000000 
#    z 0.107600 0.000000 3.717810 
# 
# 
# High freq. dielectric constant tensor:
#      x y z
#    x 1.764830 0.000000 0.011630 
#    y 0.000000 1.782840 0.000000 
#    z 0.011630 0.000000 1.778280 
# 
# From -- ./inp_files/290117.got.cif
#   From: 2010.06.25/outbox.cif.g09.slc.cpg/sg12_146_cif.got.tgz:290117.got - 2010.06.28 00:19:55.
