data_PCOD8108421
_publ_section_title
;
Structure prediction by ZEFSAII (Michael W. Deem and Ramdas Pophale) SiO2 
 PCOD8108421
Probable space group: C 2/M
;
_chemical_formula_sum "Si O2"
_cell_formula_units_Z 64
_cell_length_a 18.831173
_cell_length_b 13.813866
_cell_length_c 23.644901
_cell_angle_alpha 90.000000
_cell_angle_beta 150.429414
_cell_angle_gamma 90.000000
_cell_volume 3035.381239
_symmetry_space_group_name_H-M "C 2/M"
_symmetry_group_IT_number 12
_symmetry_cell_setting 'monoclinic'
loop_
_space_group_symop_operation_xyz
x,y,z
-x,y,-z
-x,-y,-z
x,-y,z
1/2+x,1/2+y,z
1/2-x,1/2+y,-z
1/2-x,1/2-y,-z
1/2+x,1/2-y,z
loop_
_atom_site_type_symbol
_atom_site_label
_atom_site_fract_x
_atom_site_fract_y
_atom_site_fract_z
Si Si1 0.394988 0.890112 0.978696
Si Si2 0.599498 0.108634 0.521803
Si Si3 0.906789 0.815073 0.261957
Si Si4 0.584317 0.237066 0.899540
Si Si5 0.444301 0.387257 0.524052
Si Si6 0.125093 0.392723 0.315105
Si Si7 0.954570 0.395470 0.302515
Si Si8 0.581165 0.615037 0.276319
O O1 0.232269 0.879989 0.844839
O O2 0.413893 0.000000 0.015264
O O3 0.500000 0.870351 0.000000
O O4 0.435427 0.809128 0.052630
O O5 0.500000 0.163312 0.500000
O O6 0.507043 0.111140 0.402024
O O7 0.756691 0.154608 0.620665
O O8 0.628640 0.000000 0.563610
O O9 0.861660 0.701015 0.224627
O O10 0.964112 0.831314 0.365234
O O11 0.026678 0.842823 0.298579
O O12 0.505918 0.167212 0.801246
O O13 0.511958 0.342821 0.840994
O O14 0.750000 0.250000 0.000000
O O15 0.500000 0.365841 0.500000
O O16 0.450344 0.500000 0.543798
O O17 0.281579 0.346729 0.412840
O O18 0.122016 0.500000 0.285834
O O19 0.097846 0.396421 0.363303
O O20 0.871747 0.500000 0.235911
O O21 0.566974 0.500000 0.266957
#
# Coordination Sequence:
#
# PCOD8108421 Si02
#       8
#     8   8   8   8   8   8   8   8
#     4  11  26  46  70 100 136 180 227 282 343 408
#     4   9  20  38  59  88 128 172 213 262 326 398
#     4  12  23  41  67  95 133 177 223 273 336 409
#     4  12  24  42  65  95 129 174 229 279 325 396
#     4  10  23  39  61  97 135 169 211 267 337 407
#     4  10  21  39  62  91 126 166 210 268 330 392
#     4  10  21  38  61  90 127 169 216 265 326 395
#     4  11  23  40  66  96 129 173 224 279 333 396
#
# _framework density 21.084665999999999
#
# number of rings (size 3 to 8) (size 9 to 14) (size 15 to 20)
#    0.000    1.375    2.500    2.250    3.500    5.000 
#    0.000    0.625    0.000    0.750    0.000    0.000 
#    0.000    0.000    0.000    0.000    0.000    0.000 
#
# Total GULP energy -396567.886078 kJ/mol
# GULP energy per Si atom -12392.746440 kJ/mol
# Density = 2.103668 g / cm^3
# Si number density = 21.084666 Si / 1000 Ang^3
#
#
#
# Elastic Constant Matrix: (Units=GPa)
#
#
# Indices 1 2 3 4 5 6 
#
# 1 145.8687 30.2598 46.5163 -0.0009 -0.7384 -0.0005
# 2 30.2598 135.5054 15.3173 -0.0017 -11.1963 -0.0007
# 3 46.5163 15.3173 59.8976 -0.0045 -6.3673 -0.0022
# 4 -0.0009 -0.0017 -0.0045 18.5141 -0.0011 -22.5515
# 5 -0.7384 -11.1963 -6.3673 -0.0011 30.8979 -0.0004
# 6 -0.0005 -0.0007 -0.0022 -22.5515 -0.0004 12.8654
#
#
#
# Elastic Compliance Matrix: (Units=1/GPa)
#
#
# Indices 1 2 3 4 5 6 
#
# 1 0.009421 -0.001443 -0.007136 0.000002 -0.001768 0.000003
# 2 -0.001443 0.008000 -0.000634 -0.000001 0.002734 -0.000001
# 3 -0.007136 -0.000634 0.022857 -0.000009 0.004310 -0.000012
# 4 0.000002 -0.000001 -0.000009 -0.047583 -0.000005 -0.083407
# 5 -0.001768 0.002734 0.004310 -0.000005 0.034201 -0.000007
# 6 0.000003 -0.000001 -0.000012 -0.083407 -0.000007 -0.068475
#
#
# Mechanical properties :
#
#
# Convention : Reuss Voigt Hill
#
# Bulk Modulus (GPa) = 45.76281 58.38428 52.07354
# Shear Modulus (GPa) = -315.08556 29.06736 -143.00910
#
# Velocity S-wave (km/s) = -12.23776 3.71698 -8.24460
# Velocity P-wave (km/s) = 13.33912 6.79498 8.11666
#
# Compressibility (1/GPa) = 0.02185181
#
# Stress axis : x y z
#
# Youngs Moduli (GPa) = 106.14116 125.00525 43.75041
#
# Poissons Ratio (x) = 0.18044 0.31218
# Poissons Ratio (y) = 0.15321 0.02774
# Poissons Ratio (z) = 0.75737 0.07927
#
# Static dielectric constant tensor:
#      x y z
#    x 3.942340 0.000000 0.022440 
#    y 0.000000 4.368190 -0.000010 
#    z 0.022440 -0.000010 3.592510 
# 
# 
# High freq. dielectric constant tensor:
#      x y z
#    x 1.831570 0.000000 -0.000910 
#    y 0.000000 1.847800 0.000000 
#    z -0.000910 0.000000 1.804020 
# 
# From -- ./inp_files/344090.got.cif
#   From: 2010.06.25/outbox.cif.g09.slc.cpg/sg12_173_cif.got.tgz:344090.got - 2010.06.28 00:19:55.
