data_PCOD8108275
_publ_section_title
;
Structure prediction by ZEFSAII (Michael W. Deem and Ramdas Pophale) SiO2 
 PCOD8108275
Probable space group: C 2/M
;
_chemical_formula_sum "Si O2"
_cell_formula_units_Z 64
_cell_length_a 19.489215
_cell_length_b 8.977849
_cell_length_c 30.839659
_cell_angle_alpha 90.000000
_cell_angle_beta 141.899693
_cell_angle_gamma 90.000000
_cell_volume 3329.581068
_symmetry_space_group_name_H-M "C 2/M"
_symmetry_group_IT_number 12
_symmetry_cell_setting 'monoclinic'
loop_
_space_group_symop_operation_xyz
x,y,z
-x,y,-z
-x,-y,-z
x,-y,z
1/2+x,1/2+y,z
1/2-x,1/2+y,-z
1/2-x,1/2-y,-z
1/2+x,1/2-y,z
loop_
_atom_site_type_symbol
_atom_site_label
_atom_site_fract_x
_atom_site_fract_y
_atom_site_fract_z
Si Si1 0.262903 0.831682 0.461828
Si Si2 0.472962 0.669712 0.536667
Si Si3 0.016475 0.830305 0.308568
Si Si4 0.032116 0.830814 0.966286
Si Si5 0.616155 0.822373 0.680596
Si Si6 0.980968 0.823897 0.195252
Si Si7 0.245574 0.325556 0.043454
Si Si8 0.629570 0.323463 0.190182
O O1 0.250000 0.750000 0.500000
O O2 0.353396 0.745505 0.479043
O O3 0.147488 0.827158 0.379883
O O4 0.303717 0.000000 0.490039
O O5 0.500000 0.676332 0.500000
O O6 0.467013 0.500000 0.550900
O O7 0.563251 0.756028 0.610546
O O8 0.951863 0.731441 0.311367
O O9 0.002369 0.759453 0.253806
O O10 0.971242 0.000000 0.289084
O O11 0.934453 0.772109 0.885597
O O12 0.062537 0.000000 0.968052
O O13 0.138978 0.727365 0.016593
O O14 0.000000 0.821308 0.000000
O O15 0.743563 0.764581 0.747519
O O16 0.610043 0.000000 0.675217
O O17 0.855655 0.775699 0.123193
O O18 0.065100 0.758310 0.200489
O O19 0.996568 0.000000 0.203540
O O20 0.240603 0.500000 0.034350
O O21 0.250000 0.250000 0.000000
O O22 0.631179 0.500000 0.193118
#
# Coordination Sequence:
#
# PCOD8108275 Si02
#       8
#     8   8   8   8   8   8   8   8
#     4  11  22  38  64  90 117 152 197 247 297 355
#     4  11  25  43  62  86 121 160 198 245 299 349
#     4  10  22  39  61  86 117 156 193 239 298 354
#     4  10  21  38  61  86 119 160 199 244 299 354
#     4  11  23  38  62  89 118 155 197 245 293 353
#     4   9  19  37  60  84 114 154 196 241 295 351
#     4  11  21  37  62  87 117 155 200 251 299 351
#     4   9  19  37  58  84 117 154 196 241 293 351
#
# _framework density 19.221637000000001
#
# number of rings (size 3 to 8) (size 9 to 14) (size 15 to 20)
#    0.000    1.750    2.500    1.500    3.500    1.750 
#    0.000    1.875    0.000    0.000    0.000    0.000 
#    0.000    0.000    0.000    0.000    0.000    0.000 
#
# Total GULP energy -396774.560179 kJ/mol
# GULP energy per Si atom -12399.205006 kJ/mol
# Density = 1.917789 g / cm^3
# Si number density = 19.221637 Si / 1000 Ang^3
#
#
#
# Elastic Constant Matrix: (Units=GPa)
#
#
# Indices 1 2 3 4 5 6 
#
# 1 107.7893 45.9185 67.0754 0.0000 3.8168 0.0001
# 2 45.9185 81.9901 45.9549 0.0000 3.9881 0.0001
# 3 67.0754 45.9549 139.4662 0.0000 -1.8256 0.0000
# 4 0.0000 0.0000 0.0000 23.2001 0.0000 6.9689
# 5 3.8168 3.9881 -1.8256 0.0000 43.9716 0.0000
# 6 0.0001 0.0001 0.0000 6.9689 0.0000 24.3786
#
#
#
# Elastic Compliance Matrix: (Units=1/GPa)
#
#
# Indices 1 2 3 4 5 6 
#
# 1 0.014963 -0.005259 -0.005477 0.000000 -0.001049 0.000000
# 2 -0.005259 0.016916 -0.003060 0.000000 -0.001205 0.000000
# 3 -0.005477 -0.003060 0.010829 0.000000 0.001203 0.000000
# 4 0.000000 0.000000 0.000000 0.047152 0.000000 -0.013479
# 5 -0.001049 -0.001205 0.001203 0.000000 0.022992 0.000000
# 6 0.000000 0.000000 0.000000 -0.013479 0.000000 0.044873
#
#
# Mechanical properties :
#
#
# Convention : Reuss Voigt Hill
#
# Bulk Modulus (GPa) = 66.16270 71.90479 69.03374
# Shear Modulus (GPa) = 26.26647 29.66318 27.96482
#
# Velocity S-wave (km/s) = 3.70064 3.93264 3.81840
# Velocity P-wave (km/s) = 7.26328 7.62302 7.44532
#
# Compressibility (1/GPa) = 0.01511426
#
# Stress axis : x y z
#
# Youngs Moduli (GPa) = 66.82970 59.11615 92.34788
#
# Poissons Ratio (x) = 0.31090 0.50582
# Poissons Ratio (y) = 0.35147 0.28261
# Poissons Ratio (z) = 0.36605 0.18091
#
# Static dielectric constant tensor:
#      x y z
#    x 3.430920 0.000000 -0.016960 
#    y 0.000000 2.971090 0.000000 
#    z -0.016960 0.000000 3.641810 
# 
# 
# High freq. dielectric constant tensor:
#      x y z
#    x 1.759400 0.000000 -0.000620 
#    y 0.000000 1.728540 0.000000 
#    z -0.000620 0.000000 1.763180 
# 
# From -- ./inp_files/378510.got.cif
#   From: 2010.06.25/outbox.cif.g09.slc.cpg/sg12_190_cif.got.tgz:378510.got - 2010.06.28 00:19:55.
