data_PCOD8108888
_publ_section_title
;
Structure prediction by ZEFSAII (Michael W. Deem and Ramdas Pophale) SiO2 
 PCOD8108888
Probable space group: C 2/M
;
_chemical_formula_sum "Si O2"
_cell_formula_units_Z 60
_cell_length_a 17.302769
_cell_length_b 17.418787
_cell_length_c 12.236349
_cell_angle_alpha 90.000000
_cell_angle_beta 56.481787
_cell_angle_gamma 90.000000
_cell_volume 3074.684491
_symmetry_space_group_name_H-M "C 2/M"
_symmetry_group_IT_number 12
_symmetry_cell_setting 'monoclinic'
loop_
_space_group_symop_operation_xyz
x,y,z
-x,y,-z
-x,-y,-z
x,-y,z
1/2+x,1/2+y,z
1/2-x,1/2+y,-z
1/2-x,1/2-y,-z
1/2+x,1/2-y,z
loop_
_atom_site_type_symbol
_atom_site_label
_atom_site_fract_x
_atom_site_fract_y
_atom_site_fract_z
Si Si1 0.454594 0.587407 0.926225
Si Si2 0.390422 0.910501 0.096839
Si Si3 0.677762 0.814306 0.654797
Si Si4 0.000000 0.264995 0.500000
Si Si5 0.996991 0.784141 0.263701
Si Si6 0.803521 0.681875 0.600610
Si Si7 0.250567 0.912685 0.837217
Si Si8 0.333240 0.189203 0.942962
O O1 0.487126 0.500000 0.887811
O O2 0.344456 0.595131 0.021920
O O3 0.500000 0.623305 0.000000
O O4 0.492020 0.629894 0.789746
O O5 0.358487 0.882938 0.241383
O O6 0.364214 0.000000 0.101955
O O7 0.500000 0.898200 0.000000
O O8 0.333504 0.858671 0.055352
O O9 0.602585 0.748364 0.689858
O O10 0.765025 0.769462 0.639650
O O11 0.705792 0.850369 0.515737
O O12 0.012346 0.212717 0.382256
O O13 0.089543 0.319248 0.444346
O O14 0.070452 0.732351 0.142358
O O15 0.743075 0.626422 0.724537
O O16 0.328703 0.870671 0.847154
O O17 0.280511 0.000000 0.797003
O O18 0.250000 0.250000 0.000000
#
# Coordination Sequence:
#
# PCOD8108888 Si02
#       8
#     8   8   8   4   8   8   8   8
#     4  10  22  37  58  90 121 149 190 248 301 350
#     4  11  24  40  59  91 128 157 193 247 307 362
#     4  10  22  38  62  85 115 155 203 241 286 348
#     4  10  22  38  58  86 116 150 200 244 288 344
#     4  11  21  37  61  84 115 154 198 240 289 347
#     4  10  21  39  59  86 114 152 202 244 285 349
#     4  11  22  37  58  87 120 152 189 240 301 352
#     4  12  22  37  60  87 117 156 197 244 293 351
#
# _framework density 19.514196999999999
#
# number of rings (size 3 to 8) (size 9 to 14) (size 15 to 20)
#    0.000    1.333    4.000    2.000    1.867    0.533 
#    0.000    0.667    0.000    4.800    0.000    0.000 
#    0.000    0.000    0.000    0.000    0.000    0.000 
#
# Total GULP energy -372058.183279 kJ/mol
# GULP energy per Si atom -12401.939443 kJ/mol
# Density = 1.946978 g / cm^3
# Si number density = 19.514197 Si / 1000 Ang^3
#
#
#
# Elastic Constant Matrix: (Units=GPa)
#
#
# Indices 1 2 3 4 5 6 
#
# 1 67.0598 29.5835 8.9565 0.0000 7.8888 0.0000
# 2 29.5835 96.7479 50.4186 0.0000 21.2646 0.0000
# 3 8.9565 50.4186 109.0043 0.0000 25.9020 0.0000
# 4 0.0000 0.0000 0.0000 20.7705 0.0000 1.6704
# 5 7.8888 21.2646 25.9020 0.0000 33.6466 0.0000
# 6 0.0000 0.0000 0.0000 1.6704 0.0000 24.8454
#
#
#
# Elastic Compliance Matrix: (Units=1/GPa)
#
#
# Indices 1 2 3 4 5 6 
#
# 1 0.017463 -0.005837 0.001666 0.000000 -0.001688 0.000000
# 2 -0.005837 0.016177 -0.005996 0.000000 -0.004240 0.000000
# 3 0.001666 -0.005996 0.013466 0.000000 -0.006968 0.000000
# 4 0.000000 0.000000 0.000000 0.048407 0.000000 -0.003254
# 5 -0.001688 -0.004240 -0.006968 0.000000 0.038160 0.000000
# 6 0.000000 0.000000 0.000000 -0.003254 0.000000 0.040468
#
#
# Mechanical properties :
#
#
# Convention : Reuss Voigt Hill
#
# Bulk Modulus (GPa) = 37.35042 50.08101 43.71572
# Shear Modulus (GPa) = 24.58220 28.10937 26.34578
#
# Velocity S-wave (km/s) = 3.55309 3.79945 3.67833
# Velocity P-wave (km/s) = 6.00119 6.70577 6.36324
#
# Compressibility (1/GPa) = 0.02677346
#
# Stress axis : x y z
#
# Youngs Moduli (GPa) = 57.26335 61.81456 74.26137
#
# Poissons Ratio (x) = 0.36082 -0.12373
# Poissons Ratio (y) = 0.33425 0.44524
# Poissons Ratio (z) = -0.09541 0.37061
#
# Static dielectric constant tensor:
#      x y z
#    x 3.638960 0.000000 0.007290 
#    y 0.000000 3.435800 0.000000 
#    z 0.007290 0.000000 3.812800 
# 
# 
# High freq. dielectric constant tensor:
#      x y z
#    x 1.767800 0.000000 0.002230 
#    y 0.000000 1.739790 0.000000 
#    z 0.002230 0.000000 1.768660 
# 
# From -- ./inp_files/158260.got.cif
#   From: 2010.06.25/outbox.cif.g09.slc.cpg/sg12_80_cif.got.tgz:158260.got - 2010.06.28 00:19:55.
