data_PCOD8108462
_publ_section_title
;
Structure prediction by ZEFSAII (Michael W. Deem and Ramdas Pophale) SiO2 
 PCOD8108462
Probable space group: C 2/M
;
_chemical_formula_sum "Si O2"
_cell_formula_units_Z 56
_cell_length_a 11.791685
_cell_length_b 14.903308
_cell_length_c 29.616281
_cell_angle_alpha 90.000000
_cell_angle_beta 29.074923
_cell_angle_gamma 90.000000
_cell_volume 2529.200449
_symmetry_space_group_name_H-M "C 2/M"
_symmetry_group_IT_number 12
_symmetry_cell_setting 'monoclinic'
loop_
_space_group_symop_operation_xyz
x,y,z
-x,y,-z
-x,-y,-z
x,-y,z
1/2+x,1/2+y,z
1/2-x,1/2+y,-z
1/2-x,1/2-y,-z
1/2+x,1/2-y,z
loop_
_atom_site_type_symbol
_atom_site_label
_atom_site_fract_x
_atom_site_fract_y
_atom_site_fract_z
Si Si1 0.010469 0.395953 0.559377
Si Si2 0.814239 0.901564 0.031100
Si Si3 0.160182 0.798900 0.618565
Si Si4 0.056245 0.401528 0.648142
Si Si5 0.420324 0.362058 0.147250
Si Si6 0.740333 0.897166 0.897182
Si Si7 0.324743 0.169497 0.176562
O O1 0.030370 0.500000 0.536947
O O2 0.234991 0.338741 0.464343
O O3 0.982635 0.388771 0.622123
O O4 0.783686 0.348917 0.617125
O O5 0.558640 0.858689 0.121037
O O6 0.774443 0.000000 0.065275
O O7 0.000000 0.851581 0.000000
O O8 0.912283 0.912491 0.946093
O O9 0.199221 0.689794 0.610593
O O10 0.886824 0.824679 0.713869
O O11 0.187276 0.500000 0.608474
O O12 0.824266 0.411371 0.759139
O O13 0.548967 0.346693 0.150721
O O14 0.370102 0.267581 0.140775
O O15 0.748209 0.891774 0.840241
O O16 0.767402 0.000000 0.902150
O O17 0.500000 0.856824 0.000000
#
# Coordination Sequence:
#
# PCOD8108462 Si02
#       7
#     8   8   8   8   8   8   8
#     4  10  21  40  67  94 125 161 196 254 321 373
#     4  11  24  40  58  82 123 170 205 245 304 371
#     4  10  21  38  61  97 123 158 203 257 311 375
#     4  10  21  39  63  88 121 164 207 251 305 368
#     4  11  23  38  61  86 120 162 205 256 308 366
#     4  11  22  36  59  87 116 154 206 261 306 354
#     4  11  24  37  60  92 122 157 206 260 304 359
#
# _framework density 22.141383999999999
#
# number of rings (size 3 to 8) (size 9 to 14) (size 15 to 20)
#    0.000    1.429    1.429    4.286    2.000    3.429 
#    2.571    1.429    0.000    1.714    0.000    0.000 
#    0.000    0.000    0.000    0.000    0.000    0.000 
#
# Total GULP energy -346949.634657 kJ/mol
# GULP energy per Si atom -12391.058381 kJ/mol
# Density = 2.209099 g / cm^3
# Si number density = 22.141384 Si / 1000 Ang^3
#
#
#
# Elastic Constant Matrix: (Units=GPa)
#
#
# Indices 1 2 3 4 5 6 
#
# 1 87.2752 21.0876 26.3566 -0.0060 -7.7493 -0.0024
# 2 21.0876 139.2877 48.2314 -0.0016 -8.9877 0.0031
# 3 26.3566 48.2314 115.5212 -0.0274 -12.4695 -0.0213
# 4 -0.0060 -0.0016 -0.0274 24.8190 0.0178 -2.6338
# 5 -7.7493 -8.9877 -12.4695 0.0178 23.1280 0.0040
# 6 -0.0024 0.0031 -0.0213 -2.6338 0.0040 30.1261
#
#
#
# Elastic Compliance Matrix: (Units=1/GPa)
#
#
# Indices 1 2 3 4 5 6 
#
# 1 0.012588 -0.000981 -0.002175 -0.000001 0.002664 -0.000001
# 2 -0.000981 0.008516 -0.003196 -0.000005 0.001258 -0.000004
# 3 -0.002175 -0.003196 0.010909 0.000009 0.003911 0.000008
# 4 -0.000001 -0.000005 0.000009 0.040669 -0.000029 0.003555
# 5 0.002664 0.001258 0.003911 -0.000029 0.046728 -0.000006
# 6 -0.000001 -0.000004 0.000008 0.003555 -0.000006 0.033505
#
#
# Mechanical properties :
#
#
# Convention : Reuss Voigt Hill
#
# Bulk Modulus (GPa) = 51.78718 59.27059 55.52888
# Shear Modulus (GPa) = 29.06057 32.04185 30.55121
#
# Velocity S-wave (km/s) = 3.62677 3.80827 3.71863
# Velocity P-wave (km/s) = 6.40141 6.79444 6.60085
#
# Compressibility (1/GPa) = 0.01930980
#
# Stress axis : x y z
#
# Youngs Moduli (GPa) = 79.43834 117.43070 91.66631
#
# Poissons Ratio (x) = 0.11517 0.19938
# Poissons Ratio (y) = 0.07791 0.29295
# Poissons Ratio (z) = 0.17278 0.37529
#
# Static dielectric constant tensor:
#      x y z
#    x 3.657770 0.000000 -0.059510 
#    y 0.000000 4.207810 0.000040 
#    z -0.059510 0.000040 3.932150 
# 
# 
# High freq. dielectric constant tensor:
#      x y z
#    x 1.848790 0.000000 0.003860 
#    y 0.000000 1.886150 0.000000 
#    z 0.003860 0.000000 1.868900 
# 
# From -- ./inp_files/374208.got.cif
#   From: 2010.06.25/outbox.cif.g09.slc.cpg/sg12_188_cif.got.tgz:374208.got - 2010.06.28 00:19:55.
