data_PCOD8108592
_publ_section_title
;
Structure prediction by ZEFSAII (Michael W. Deem and Ramdas Pophale) SiO2 
 PCOD8108592
Probable space group: C 2/M
;
_chemical_formula_sum "Si O2"
_cell_formula_units_Z 64
_cell_length_a 14.977514
_cell_length_b 8.688496
_cell_length_c 33.263486
_cell_angle_alpha 90.000000
_cell_angle_beta 44.224603
_cell_angle_gamma 90.000000
_cell_volume 3019.113415
_symmetry_space_group_name_H-M "C 2/M"
_symmetry_group_IT_number 12
_symmetry_cell_setting 'monoclinic'
loop_
_space_group_symop_operation_xyz
x,y,z
-x,y,-z
-x,-y,-z
x,-y,z
1/2+x,1/2+y,z
1/2-x,1/2+y,-z
1/2-x,1/2-y,-z
1/2+x,1/2-y,z
loop_
_atom_site_type_symbol
_atom_site_label
_atom_site_fract_x
_atom_site_fract_y
_atom_site_fract_z
Si Si1 0.607614 0.822297 0.587628
Si Si2 0.051605 0.820836 0.291931
Si Si3 0.575236 0.177699 0.888808
Si Si4 0.839714 0.180689 0.004039
Si Si5 0.405337 0.678612 0.493920
Si Si6 0.680485 0.680175 0.780645
Si Si7 0.226270 0.675482 0.125478
Si Si8 0.047683 0.324385 0.753925
O O1 0.524325 0.714842 0.643057
O O2 0.569974 0.777055 0.554206
O O3 0.755715 0.795345 0.552347
O O4 0.570220 0.000000 0.605842
O O5 0.179584 0.719754 0.247907
O O6 0.963712 0.775858 0.282503
O O7 0.087571 0.000000 0.278973
O O8 0.480513 0.250978 0.952301
O O9 0.570930 0.257524 0.846525
O O10 0.716701 0.206774 0.860397
O O11 0.542935 0.000000 0.893308
O O12 0.847783 0.000000 0.997086
O O13 0.750000 0.250000 0.000000
O O14 0.777874 0.229848 0.065892
O O15 0.500000 0.732779 0.500000
O O16 0.432319 0.500000 0.475760
O O17 0.663075 0.500000 0.781723
O O18 0.665365 0.759503 0.741999
O O19 0.269943 0.500000 0.120884
O O20 0.074517 0.690372 0.177400
O O21 0.074913 0.500000 0.732621
#
# Coordination Sequence:
#
# PCOD8108592 Si02
#       8
#     8   8   8   8   8   8   8   8
#     4  10  21  38  62  93 130 171 215 265 318 370
#     4  12  25  43  65  93 130 172 219 268 320 377
#     4  12  24  39  61  88 119 157 204 254 317 386
#     4  11  23  39  59  86 119 153 199 253 316 384
#     4   9  19  38  64  94 130 172 215 260 314 373
#     4  12  25  43  66  92 124 164 213 267 324 384
#     4  10  22  40  62  86 117 157 200 252 315 382
#     4  11  23  42  67  94 126 164 210 263 324 388
#
# _framework density 21.198276
#
# number of rings (size 3 to 8) (size 9 to 14) (size 15 to 20)
#    0.000    1.125    1.250    5.625    0.000    5.750 
#    0.000    3.750    0.000    0.000    0.000    0.000 
#    0.000    0.000    0.000    0.000    0.000    0.000 
#
# Total GULP energy -396884.903181 kJ/mol
# GULP energy per Si atom -12402.653224 kJ/mol
# Density = 2.115003 g / cm^3
# Si number density = 21.198276 Si / 1000 Ang^3
#
#
#
# Elastic Constant Matrix: (Units=GPa)
#
#
# Indices 1 2 3 4 5 6 
#
# 1 98.4170 24.9954 15.4468 -0.0006 20.5361 -0.0003
# 2 24.9954 98.5972 30.0193 -0.0014 7.7614 0.0006
# 3 15.4468 30.0193 89.8415 -0.0006 13.2426 -0.0006
# 4 -0.0006 -0.0014 -0.0006 34.6880 -0.0005 3.3069
# 5 20.5361 7.7614 13.2426 -0.0005 26.1911 -0.0005
# 6 -0.0003 0.0006 -0.0006 3.3069 -0.0005 37.5325
#
#
#
# Elastic Compliance Matrix: (Units=1/GPa)
#
#
# Indices 1 2 3 4 5 6 
#
# 1 0.012722 -0.002501 0.000010 0.000000 -0.009239 0.000000
# 2 -0.002501 0.011841 -0.003564 0.000000 0.000254 0.000000
# 3 0.000010 -0.003564 0.013145 0.000000 -0.005598 0.000000
# 4 0.000000 0.000000 0.000000 0.029073 0.000000 -0.002562
# 5 -0.009239 0.000254 -0.005598 0.000000 0.048181 0.000000
# 6 0.000000 0.000000 0.000000 -0.002562 0.000000 0.026869
#
#
# Mechanical properties :
#
#
# Convention : Reuss Voigt Hill
#
# Bulk Modulus (GPa) = 39.06411 47.53097 43.29754
# Shear Modulus (GPa) = 30.77411 34.10860 32.44135
#
# Velocity S-wave (km/s) = 3.81429 4.01562 3.91625
# Velocity P-wave (km/s) = 6.15356 6.63107 6.39677
#
# Compressibility (1/GPa) = 0.02559894
#
# Stress axis : x y z
#
# Youngs Moduli (GPa) = 78.60167 84.44913 76.07451
#
# Poissons Ratio (x) = 0.21121 -0.00077
# Poissons Ratio (y) = 0.19658 0.27114
# Poissons Ratio (z) = -0.00080 0.30098
#
# Static dielectric constant tensor:
#      x y z
#    x 3.897460 -0.000010 -0.060950 
#    y -0.000010 3.766940 0.000000 
#    z -0.060950 0.000000 4.197120 
# 
# 
# High freq. dielectric constant tensor:
#      x y z
#    x 1.836030 0.000000 0.008840 
#    y 0.000000 1.833610 0.000000 
#    z 0.008840 0.000000 1.830250 
# 
# From -- ./inp_files/375469.got.cif
#   From: 2010.06.25/outbox.cif.g09.slc.cpg/sg12_188_cif.got.tgz:375469.got - 2010.06.28 00:19:55.
