data_PCOD8108147
_publ_section_title
;
Structure prediction by ZEFSAII (Michael W. Deem and Ramdas Pophale) SiO2 
 PCOD8108147
Probable space group: C 2/M
;
_chemical_formula_sum "Si O2"
_cell_formula_units_Z 56
_cell_length_a 9.255486
_cell_length_b 18.079158
_cell_length_c 17.646107
_cell_angle_alpha 90.000000
_cell_angle_beta 108.800158
_cell_angle_gamma 90.000000
_cell_volume 2795.213781
_symmetry_space_group_name_H-M "C 2/M"
_symmetry_group_IT_number 12
_symmetry_cell_setting 'monoclinic'
loop_
_space_group_symop_operation_xyz
x,y,z
-x,y,-z
-x,-y,-z
x,-y,z
1/2+x,1/2+y,z
1/2-x,1/2+y,-z
1/2-x,1/2-y,-z
1/2+x,1/2-y,z
loop_
_atom_site_type_symbol
_atom_site_label
_atom_site_fract_x
_atom_site_fract_y
_atom_site_fract_z
Si Si1 0.096471 0.916354 0.355863
Si Si2 0.151885 0.915529 0.073161
Si Si3 0.022180 0.695035 0.227266
Si Si4 0.673889 0.326209 0.508554
Si Si5 0.874641 0.311646 0.042591
Si Si6 0.795457 0.836753 0.763411
Si Si7 0.746375 0.412356 0.668709
O O1 0.187624 0.873831 0.435512
O O2 0.179037 0.904337 0.289411
O O3 0.917241 0.895972 0.321053
O O4 0.112563 0.000000 0.383019
O O5 0.289686 0.889638 0.042232
O O6 0.141469 0.861892 0.144043
O O7 0.180073 0.000000 0.103074
O O8 0.000000 0.906172 0.000000
O O9 0.965155 0.709315 0.133047
O O10 0.881330 0.686165 0.261028
O O11 0.117123 0.768626 0.261571
O O12 0.127562 0.622124 0.253147
O O13 0.500000 0.311337 0.500000
O O14 0.750000 0.250000 0.500000
O O15 0.759476 0.370188 0.590402
O O16 0.750000 0.250000 0.000000
O O17 0.000000 0.322427 0.000000
O O18 0.776679 0.500000 0.663602
#
# Coordination Sequence:
#
# PCOD8108147 Si02
#       7
#     8   8   8   8   8   8   8
#     4  10  21  38  61  85 115 158 200 239 292 356
#     4  10  22  39  59  84 117 154 191 239 298 356
#     4  11  23  37  60  87 117 154 194 244 296 352
#     4  10  21  38  60  86 117 155 201 246 293 349
#     4  11  22  39  62  87 117 155 199 244 294 355
#     4  11  22  38  58  85 118 150 195 244 293 351
#     4  10  22  40  60  87 123 158 196 247 303 356
#
# _framework density 20.034247000000001
#
# number of rings (size 3 to 8) (size 9 to 14) (size 15 to 20)
#    0.000    1.571    0.000    5.571    0.000    9.429 
#    0.000    1.429    0.000    2.571    0.000    0.000 
#    0.000    0.000    0.000    0.000    0.000    0.000 
#
# Total GULP energy -347209.088077 kJ/mol
# GULP energy per Si atom -12400.324574 kJ/mol
# Density = 1.998865 g / cm^3
# Si number density = 20.034247 Si / 1000 Ang^3
#
#
#
# Elastic Constant Matrix: (Units=GPa)
#
#
# Indices 1 2 3 4 5 6 
#
# 1 111.7057 53.3856 52.3140 0.0000 -13.4638 0.0000
# 2 53.3856 121.9975 44.3805 0.0000 3.1468 0.0000
# 3 52.3140 44.3805 99.3827 0.0000 -2.3410 0.0000
# 4 0.0000 0.0000 0.0000 32.6969 0.0000 1.5347
# 5 -13.4638 3.1468 -2.3410 0.0000 32.2824 0.0000
# 6 0.0000 0.0000 0.0000 1.5347 0.0000 39.6451
#
#
#
# Elastic Compliance Matrix: (Units=1/GPa)
#
#
# Indices 1 2 3 4 5 6 
#
# 1 0.014349 -0.004464 -0.005418 0.000000 0.006027 0.000000
# 2 -0.004464 0.011228 -0.002739 0.000000 -0.003155 0.000000
# 3 -0.005418 -0.002739 0.014114 0.000000 -0.000969 0.000000
# 4 0.000000 0.000000 0.000000 0.030640 0.000000 -0.001186
# 5 0.006027 -0.003155 -0.000969 0.000000 0.033727 0.000000
# 6 0.000000 0.000000 0.000000 -0.001186 0.000000 0.025270
#
#
# Mechanical properties :
#
#
# Convention : Reuss Voigt Hill
#
# Bulk Modulus (GPa) = 69.20082 70.36068 69.78075
# Shear Modulus (GPa) = 31.37062 33.12526 32.24794
#
# Velocity S-wave (km/s) = 3.96137 4.07065 4.01639
# Velocity P-wave (km/s) = 7.45249 7.56902 7.51098
#
# Compressibility (1/GPa) = 0.01445070
#
# Stress axis : x y z
#
# Youngs Moduli (GPa) = 69.69128 89.06501 70.85058
#
# Poissons Ratio (x) = 0.39755 0.38386
# Poissons Ratio (y) = 0.31107 0.19403
# Poissons Ratio (z) = 0.37758 0.24392
#
# Static dielectric constant tensor:
#      x y z
#    x 3.669360 0.000000 0.061980 
#    y 0.000000 3.912120 0.000000 
#    z 0.061980 0.000000 3.620730 
# 
# 
# High freq. dielectric constant tensor:
#      x y z
#    x 1.784430 0.000000 0.000140 
#    y 0.000000 1.790810 0.000000 
#    z 0.000140 0.000000 1.785690 
# 
# From -- ./inp_files/257140.got.cif
#   From: 2010.06.25/outbox.cif.g09.slc.cpg/sg12_129_cif.got.tgz:257140.got - 2010.06.28 00:19:55.
