data_PCOD8108420
_publ_section_title
;
Structure prediction by ZEFSAII (Michael W. Deem and Ramdas Pophale) SiO2 
 PCOD8108420
Probable space group: C 2/M
;
_chemical_formula_sum "Si O2"
_cell_formula_units_Z 64
_cell_length_a 15.429766
_cell_length_b 8.775496
_cell_length_c 30.059462
_cell_angle_alpha 90.000000
_cell_angle_beta 51.214689
_cell_angle_gamma 90.000000
_cell_volume 3172.689313
_symmetry_space_group_name_H-M "C 2/M"
_symmetry_group_IT_number 12
_symmetry_cell_setting 'monoclinic'
loop_
_space_group_symop_operation_xyz
x,y,z
-x,y,-z
-x,-y,-z
x,-y,z
1/2+x,1/2+y,z
1/2-x,1/2+y,-z
1/2-x,1/2-y,-z
1/2+x,1/2-y,z
loop_
_atom_site_type_symbol
_atom_site_label
_atom_site_fract_x
_atom_site_fract_y
_atom_site_fract_z
Si Si1 0.273442 0.822543 0.060176
Si Si2 0.666643 0.821222 0.256469
Si Si3 0.465466 0.322777 0.560636
Si Si4 0.149654 0.179375 0.873797
Si Si5 0.148842 0.678603 0.559080
Si Si6 0.080110 0.677292 0.072502
Si Si7 0.429900 0.674454 0.328698
Si Si8 0.768270 0.674906 0.666623
O O1 0.330022 0.765815 0.086863
O O2 0.158814 0.733586 0.087405
O O3 0.245407 0.000000 0.072789
O O4 0.361258 0.788826 0.993172
O O5 0.753987 0.772052 0.191085
O O6 0.550896 0.742536 0.282307
O O7 0.714314 0.766983 0.288698
O O8 0.645778 0.000000 0.263306
O O9 0.500000 0.277605 0.500000
O O10 0.488320 0.500000 0.562428
O O11 0.533598 0.219711 0.572841
O O12 0.337672 0.280425 0.610289
O O13 0.033757 0.229460 0.889362
O O14 0.148039 0.000000 0.883174
O O15 0.167463 0.500000 0.554673
O O16 0.250000 0.750000 0.500000
O O17 0.142879 0.740148 0.610863
O O18 0.054596 0.500000 0.087374
O O19 0.442686 0.500000 0.339346
O O20 0.361525 0.690974 0.304588
O O21 0.807235 0.500000 0.648798
#
# Coordination Sequence:
#
# PCOD8108420 Si02
#       8
#     8   8   8   8   8   8   8   8
#     4  10  21  38  61  90 126 166 209 260 316 372
#     4  10  23  43  62  86 121 164 206 254 306 359
#     4  11  23  38  59  90 122 151 193 245 298 361
#     4  11  23  38  60  90 126 166 211 259 310 371
#     4  12  24  39  60  87 122 158 195 244 299 361
#     4  10  21  38  61  91 126 164 209 261 316 373
#     4  11  23  40  64  92 119 155 201 248 305 365
#     4  10  22  41  63  86 117 156 196 243 302 363
#
# _framework density 20.172160000000002
#
# number of rings (size 3 to 8) (size 9 to 14) (size 15 to 20)
#    0.000    1.375    1.250    4.125    0.000    9.000 
#    0.000    1.250    0.000    0.000    0.000    0.000 
#    0.000    0.000    0.000    0.000    0.000    0.000 
#
# Total GULP energy -396972.639026 kJ/mol
# GULP energy per Si atom -12405.394970 kJ/mol
# Density = 2.012625 g / cm^3
# Si number density = 20.172160 Si / 1000 Ang^3
#
#
#
# Elastic Constant Matrix: (Units=GPa)
#
#
# Indices 1 2 3 4 5 6 
#
# 1 106.6527 20.9012 30.4252 0.0001 -17.3180 0.0003
# 2 20.9012 67.0128 44.3786 0.0001 -8.1664 0.0004
# 3 30.4252 44.3786 73.3625 0.0001 -20.3333 0.0001
# 4 0.0001 0.0001 0.0001 27.5502 0.0001 -6.1047
# 5 -17.3180 -8.1664 -20.3333 0.0001 26.6752 0.0001
# 6 0.0003 0.0004 0.0001 -6.1047 0.0001 36.9355
#
#
#
# Elastic Compliance Matrix: (Units=1/GPa)
#
#
# Indices 1 2 3 4 5 6 
#
# 1 0.011133 -0.001200 -0.002523 0.000000 0.004937 0.000000
# 2 -0.001200 0.025539 -0.016483 0.000000 -0.005524 0.000000
# 3 -0.002523 -0.016483 0.028901 0.000000 0.015346 0.000000
# 4 0.000000 0.000000 0.000000 0.037677 0.000000 0.006227
# 5 0.004937 -0.005524 0.015346 0.000000 0.050700 0.000000
# 6 0.000000 0.000000 0.000000 0.006227 0.000000 0.028103
#
#
# Mechanical properties :
#
#
# Convention : Reuss Voigt Hill
#
# Bulk Modulus (GPa) = 39.74175 48.71535 44.22855
# Shear Modulus (GPa) = 21.65894 28.32038 24.98966
#
# Velocity S-wave (km/s) = 3.28030 3.75098 3.52351
# Velocity P-wave (km/s) = 5.83877 6.55454 6.20698
#
# Compressibility (1/GPa) = 0.02516245
#
# Stress axis : x y z
#
# Youngs Moduli (GPa) = 89.82503 39.15586 34.60063
#
# Poissons Ratio (x) = 0.04699 0.08729
# Poissons Ratio (y) = 0.10779 0.57031
# Poissons Ratio (z) = 0.22660 0.64539
#
# Static dielectric constant tensor:
#      x y z
#    x 3.785170 0.000000 -0.001460 
#    y 0.000000 3.693210 0.000000 
#    z -0.001460 0.000000 3.641880 
# 
# 
# High freq. dielectric constant tensor:
#      x y z
#    x 1.802690 0.000000 -0.003100 
#    y 0.000000 1.795050 0.000000 
#    z -0.003100 0.000000 1.780740 
# 
# From -- ./inp_files/375481.got.cif
#   From: 2010.06.25/outbox.cif.g09.slc.cpg/sg12_188_cif.got.tgz:375481.got - 2010.06.28 00:19:55.
