data_PCOD8108966
_publ_section_title
;
Structure prediction by ZEFSAII (Michael W. Deem and Ramdas Pophale) SiO2 
 PCOD8108966
Probable space group: C 2/M
;
_chemical_formula_sum "Si O2"
_cell_formula_units_Z 56
_cell_length_a 15.549252
_cell_length_b 14.485279
_cell_length_c 24.380197
_cell_angle_alpha 90.000000
_cell_angle_beta 28.497004
_cell_angle_gamma 90.000000
_cell_volume 2619.959939
_symmetry_space_group_name_H-M "C 2/M"
_symmetry_group_IT_number 12
_symmetry_cell_setting 'monoclinic'
loop_
_space_group_symop_operation_xyz
x,y,z
-x,y,-z
-x,-y,-z
x,-y,z
1/2+x,1/2+y,z
1/2-x,1/2+y,-z
1/2-x,1/2-y,-z
1/2+x,1/2-y,z
loop_
_atom_site_type_symbol
_atom_site_label
_atom_site_fract_x
_atom_site_fract_y
_atom_site_fract_z
Si Si1 0.704923 0.395945 0.960334
Si Si2 0.126435 0.102361 0.482292
Si Si3 0.655263 0.105900 0.370138
Si Si4 0.861561 0.221868 0.689639
Si Si5 0.801674 0.719891 0.101771
Si Si6 0.113464 0.605806 0.751310
Si Si7 0.942759 0.895338 0.841109
O O1 0.686861 0.500000 0.947214
O O2 0.662677 0.326049 0.935012
O O3 0.902828 0.378213 0.873670
O O4 0.569559 0.378456 0.086612
O O5 0.322050 0.129945 0.347534
O O6 0.000000 0.105659 0.500000
O O7 0.054161 0.173055 0.568709
O O8 0.130371 0.000000 0.506456
O O9 0.500000 0.131545 0.500000
O O10 0.628406 0.170824 0.332476
O O11 0.848511 0.124335 0.291057
O O12 0.640598 0.000000 0.358345
O O13 0.822673 0.213479 0.775334
O O14 0.702056 0.172109 0.746175
O O15 0.695098 0.669795 0.113129
O O16 0.000000 0.674720 0.000000
O O17 0.168966 0.500000 0.733682
O O18 0.888470 0.000000 0.856814
#
# Coordination Sequence:
#
# PCOD8108966 Si02
#       7
#     8   8   8   8   8   8   8
#     4  10  21  39  61  80 106 148 193 233 273 327
#     4   8  15  29  51  80 110 140 178 222 271 328
#     4  10  21  39  62  83 107 148 198 236 267 319
#     4  11  20  32  55  83 115 148 179 229 288 334
#     4  12  25  37  55  86 120 149 180 229 286 337
#     4   9  17  33  59  85 107 141 190 235 274 327
#     4  10  22  41  62  82 109 148 191 233 277 331
#
# _framework density 21.374372000000001
#
# number of rings (size 3 to 8) (size 9 to 14) (size 15 to 20)
#    0.000    2.000    0.000    5.571    0.000    2.286 
#    0.000    2.857    0.000    5.143    0.000    0.000 
#    0.000    0.000    0.000    0.000    0.000    0.000 
#
# Total GULP energy -347183.632939 kJ/mol
# GULP energy per Si atom -12399.415462 kJ/mol
# Density = 2.132572 g / cm^3
# Si number density = 21.374372 Si / 1000 Ang^3
#
#
#
# Elastic Constant Matrix: (Units=GPa)
#
#
# Indices 1 2 3 4 5 6 
#
# 1 43.0947 32.7481 26.9669 0.0017 15.5205 -0.0005
# 2 32.7481 104.2706 33.3299 -0.0031 11.3527 0.0000
# 3 26.9669 33.3299 117.6709 -0.0183 6.3368 0.0038
# 4 0.0017 -0.0031 -0.0183 30.6278 0.0006 3.7872
# 5 15.5205 11.3527 6.3368 0.0006 28.8139 0.0000
# 6 -0.0005 0.0000 0.0038 3.7872 0.0000 17.0631
#
#
#
# Elastic Compliance Matrix: (Units=1/GPa)
#
#
# Indices 1 2 3 4 5 6 
#
# 1 0.039328 -0.008751 -0.005646 -0.000007 -0.016494 0.000004
# 2 -0.008751 0.012862 -0.001638 0.000001 0.000006 0.000000
# 3 -0.005646 -0.001638 0.010178 0.000007 0.001448 -0.000004
# 4 -0.000007 0.000001 0.000007 0.033571 0.000001 -0.007451
# 5 -0.016494 0.000006 0.001448 0.000001 0.043269 -0.000001
# 6 0.000004 0.000000 -0.000004 -0.007451 -0.000001 0.060260
#
#
# Mechanical properties :
#
#
# Convention : Reuss Voigt Hill
#
# Bulk Modulus (GPa) = 33.00535 50.12513 41.56524
# Shear Modulus (GPa) = 20.69212 26.76705 23.72959
#
# Velocity S-wave (km/s) = 3.11478 3.54262 3.33556
# Velocity P-wave (km/s) = 5.33018 6.34315 5.85860
#
# Compressibility (1/GPa) = 0.03029812
#
# Stress axis : x y z
#
# Youngs Moduli (GPa) = 25.42698 77.74995 98.25003
#
# Poissons Ratio (x) = 0.68041 0.55471
# Poissons Ratio (y) = 0.22252 0.16092
# Poissons Ratio (z) = 0.14356 0.12734
#
# Static dielectric constant tensor:
#      x y z
#    x 3.244930 0.000000 -0.056880 
#    y 0.000000 4.062460 0.000010 
#    z -0.056880 0.000010 4.392800 
# 
# 
# High freq. dielectric constant tensor:
#      x y z
#    x 1.785780 0.000000 -0.002190 
#    y 0.000000 1.849690 0.000000 
#    z -0.002190 0.000000 1.863160 
# 
# From -- ./inp_files/340304.got.cif
#   From: 2010.06.25/outbox.cif.g09.slc.cpg/sg12_171_cif.got.tgz:340304.got - 2010.06.28 00:19:55.
