data_PCOD8108490
_publ_section_title
;
Structure prediction by ZEFSAII (Michael W. Deem and Ramdas Pophale) SiO2 
 PCOD8108490
Probable space group: C 2/M
;
_chemical_formula_sum "Si O2"
_cell_formula_units_Z 48
_cell_length_a 31.181100
_cell_length_b 8.977745
_cell_length_c 20.114037
_cell_angle_alpha 90.000000
_cell_angle_beta 152.538288
_cell_angle_gamma 90.000000
_cell_volume 2596.603173
_symmetry_space_group_name_H-M "C 2/M"
_symmetry_group_IT_number 12
_symmetry_cell_setting 'monoclinic'
loop_
_space_group_symop_operation_xyz
x,y,z
-x,y,-z
-x,-y,-z
x,-y,z
1/2+x,1/2+y,z
1/2-x,1/2+y,-z
1/2-x,1/2-y,-z
1/2+x,1/2-y,z
loop_
_atom_site_type_symbol
_atom_site_label
_atom_site_fract_x
_atom_site_fract_y
_atom_site_fract_z
Si Si1 0.576559 0.827253 0.550101
Si Si2 0.227515 0.670521 0.326822
Si Si3 0.060804 0.173397 0.389504
Si Si4 0.760860 0.671452 0.808862
Si Si5 0.540651 0.173438 0.866703
Si Si6 0.444238 0.324605 0.858185
O O1 0.500000 0.795874 0.500000
O O2 0.549559 0.733387 0.448340
O O3 0.675722 0.773891 0.715845
O O4 0.582559 0.000000 0.539085
O O5 0.199142 0.500000 0.300585
O O6 0.334613 0.699295 0.493503
O O7 0.210884 0.714055 0.227296
O O8 0.162995 0.774725 0.283332
O O9 0.989828 0.261188 0.245531
O O10 0.035256 0.000000 0.354187
O O11 0.728058 0.500000 0.765933
O O12 0.848917 0.701741 0.976781
O O13 0.487426 0.253183 0.852658
O O14 0.516888 0.000000 0.837782
O O15 0.448988 0.500000 0.856192
O O16 0.500000 0.269793 0.000000
#
# Coordination Sequence:
#
# PCOD8108490 Si02
#       6
#     8   8   8   8   8   8
#     4  10  21  38  62  89 113 141 180 223 271 334
#     4   9  18  35  55  76 106 147 190 231 275 325
#     4  10  22  39  58  83 114 146 184 229 280 332
#     4   9  19  35  57  83 110 145 187 227 274 330
#     4  11  22  37  57  81 113 151 187 230 281 326
#     4  11  22  33  51  81 112 146 192 236 273 322
#
# _framework density 18.485690000000002
#
# number of rings (size 3 to 8) (size 9 to 14) (size 15 to 20)
#    0.000    2.000    1.667    3.000    0.000    7.333 
#    0.000    0.833    0.000    0.000    0.000    0.000 
#    0.000    0.000    0.000    0.000    0.000    0.000 
#
# Total GULP energy -297691.102544 kJ/mol
# GULP energy per Si atom -12403.795939 kJ/mol
# Density = 1.844362 g / cm^3
# Si number density = 18.485690 Si / 1000 Ang^3
#
#
#
# Elastic Constant Matrix: (Units=GPa)
#
#
# Indices 1 2 3 4 5 6 
#
# 1 83.1805 42.7786 37.4871 0.0000 14.0444 0.0000
# 2 42.7786 77.4066 40.5226 0.0000 8.7799 0.0000
# 3 37.4871 40.5226 100.8350 0.0000 -0.4504 0.0000
# 4 0.0000 0.0000 0.0000 30.7700 0.0000 0.8489
# 5 14.0444 8.7799 -0.4504 0.0000 22.0211 0.0000
# 6 0.0000 0.0000 0.0000 0.8489 0.0000 32.1960
#
#
#
# Elastic Compliance Matrix: (Units=1/GPa)
#
#
# Indices 1 2 3 4 5 6 
#
# 1 0.019341 -0.007380 -0.004267 0.000000 -0.009480 0.000000
# 2 -0.007380 0.020215 -0.005396 0.000000 -0.003463 0.000000
# 3 -0.004267 -0.005396 0.013695 0.000000 0.005153 0.000000
# 4 0.000000 0.000000 0.000000 0.032523 0.000000 -0.000858
# 5 -0.009480 -0.003463 0.005153 0.000000 0.052943 0.000000
# 6 0.000000 0.000000 0.000000 -0.000858 0.000000 0.031082
#
#
# Mechanical properties :
#
#
# Convention : Reuss Voigt Hill
#
# Bulk Modulus (GPa) = 52.17602 55.88876 54.03239
# Shear Modulus (GPa) = 23.77869 26.37301 25.07585
#
# Velocity S-wave (km/s) = 3.59043 3.78123 3.68707
# Velocity P-wave (km/s) = 6.74349 7.02586 6.88612
#
# Compressibility (1/GPa) = 0.01916589
#
# Stress axis : x y z
#
# Youngs Moduli (GPa) = 51.70364 49.46911 73.02006
#
# Poissons Ratio (x) = 0.36507 0.31158
# Poissons Ratio (y) = 0.38156 0.39399
# Poissons Ratio (z) = 0.22062 0.26692
#
# Static dielectric constant tensor:
#      x y z
#    x 3.147620 0.000000 0.066380 
#    y 0.000000 3.468400 0.000000 
#    z 0.066380 0.000000 3.597030 
# 
# 
# High freq. dielectric constant tensor:
#      x y z
#    x 1.698580 0.000000 0.006430 
#    y 0.000000 1.727650 0.000000 
#    z 0.006430 0.000000 1.719890 
# 
# From -- ./inp_files/248803.got.cif
#   From: 2010.06.25/outbox.cif.g09.slc.cpg/sg12_125_cif.got.tgz:248803.got - 2010.06.28 00:19:55.
