data_PCOD8108846
_publ_section_title
;
Structure prediction by ZEFSAII (Michael W. Deem and Ramdas Pophale) SiO2 
 PCOD8108846
Probable space group: C 2/M
;
_chemical_formula_sum "Si O2"
_cell_formula_units_Z 48
_cell_length_a 24.982139
_cell_length_b 8.694789
_cell_length_c 12.408304
_cell_angle_alpha 90.000000
_cell_angle_beta 71.094224
_cell_angle_gamma 90.000000
_cell_volume 2549.860505
_symmetry_space_group_name_H-M "C 2/M"
_symmetry_group_IT_number 12
_symmetry_cell_setting 'monoclinic'
loop_
_space_group_symop_operation_xyz
x,y,z
-x,y,-z
-x,-y,-z
x,-y,z
1/2+x,1/2+y,z
1/2-x,1/2+y,-z
1/2-x,1/2-y,-z
1/2+x,1/2-y,z
loop_
_atom_site_type_symbol
_atom_site_label
_atom_site_fract_x
_atom_site_fract_y
_atom_site_fract_z
Si Si1 0.499818 0.818881 0.376716
Si Si2 0.187862 0.679700 0.753721
Si Si3 0.691061 0.820818 0.002163
Si Si4 0.615163 0.680691 0.624131
Si Si5 0.812483 0.181797 0.625254
Si Si6 0.613357 0.682244 0.225751
O O1 0.500000 0.759646 0.500000
O O2 0.442053 0.773140 0.356837
O O3 0.549364 0.737834 0.278185
O O4 0.508714 0.000000 0.365726
O O5 0.181596 0.500000 0.730349
O O6 0.139513 0.775148 0.724519
O O7 0.248768 0.745043 0.675591
O O8 0.180352 0.712227 0.884214
O O9 0.638861 0.745586 0.098552
O O10 0.693580 0.000000 0.025606
O O11 0.750000 0.750000 0.000000
O O12 0.602699 0.500000 0.624653
O O13 0.660620 0.734503 0.504951
O O14 0.850124 0.249031 0.698216
O O15 0.811097 0.000000 0.637943
O O16 0.614880 0.500000 0.222042
#
# Coordination Sequence:
#
# PCOD8108846 Si02
#       6
#     8   8   8   8   8   8
#     4  11  23  39  60  88 119 155 198 243 292 353
#     4  10  21  39  58  83 122 161 194 239 295 350
#     4  11  22  38  61  88 120 158 200 245 293 348
#     4  11  22  37  59  88 120 157 198 242 293 353
#     4   9  18  34  57  86 120 154 188 234 297 350
#     4  11  21  38  62  89 120 153 196 248 295 348
#
# _framework density 18.824560000000002
#
# number of rings (size 3 to 8) (size 9 to 14) (size 15 to 20)
#    0.000    1.500    3.333    2.500    0.000    2.000 
#    0.000    1.667    0.000    5.000    0.000    0.000 
#    0.000    0.000    0.000    0.000    0.000    0.000 
#
# Total GULP energy -297724.593987 kJ/mol
# GULP energy per Si atom -12405.191416 kJ/mol
# Density = 1.878171 g / cm^3
# Si number density = 18.824560 Si / 1000 Ang^3
#
#
#
# Elastic Constant Matrix: (Units=GPa)
#
#
# Indices 1 2 3 4 5 6 
#
# 1 121.8770 30.1988 60.2591 0.0000 -1.7369 0.0000
# 2 30.1988 63.3181 46.9409 0.0000 0.4802 0.0000
# 3 60.2591 46.9409 117.9196 0.0000 -14.3991 0.0000
# 4 0.0000 0.0000 0.0000 29.6586 0.0000 -0.3151
# 5 -1.7369 0.4802 -14.3991 0.0000 33.4560 0.0000
# 6 0.0000 0.0000 0.0000 -0.3151 0.0000 29.4874
#
#
#
# Elastic Compliance Matrix: (Units=1/GPa)
#
#
# Indices 1 2 3 4 5 6 
#
# 1 0.011175 -0.001315 -0.005398 0.000000 -0.001724 0.000000
# 2 -0.001315 0.023189 -0.009085 0.000000 -0.004311 0.000000
# 3 -0.005398 -0.009085 0.015660 0.000000 0.006590 0.000000
# 4 0.000000 0.000000 0.000000 0.033721 0.000000 0.000360
# 5 -0.001724 -0.004311 0.006590 0.000000 0.032699 0.000000
# 6 0.000000 0.000000 0.000000 0.000360 0.000000 0.033917
#
#
# Mechanical properties :
#
#
# Convention : Reuss Voigt Hill
#
# Bulk Modulus (GPa) = 54.26653 64.21246 59.23950
# Shear Modulus (GPa) = 26.58188 29.56812 28.07500
#
# Velocity S-wave (km/s) = 3.76185 3.96753 3.86606
# Velocity P-wave (km/s) = 6.91077 7.42788 7.17399
#
# Compressibility (1/GPa) = 0.01842756
#
# Stress axis : x y z
#
# Youngs Moduli (GPa) = 89.48529 43.12478 63.85730
#
# Poissons Ratio (x) = 0.05672 0.34468
# Poissons Ratio (y) = 0.11769 0.58015
# Poissons Ratio (z) = 0.48301 0.39179
#
# Static dielectric constant tensor:
#      x y z
#    x 3.409400 0.000000 -0.057370 
#    y 0.000000 3.346070 0.000000 
#    z -0.057370 0.000000 3.573930 
# 
# 
# High freq. dielectric constant tensor:
#      x y z
#    x 1.733470 0.000000 -0.003390 
#    y 0.000000 1.725730 0.000000 
#    z -0.003390 0.000000 1.733730 
# 
# From -- ./inp_files/172875.got.cif
#   From: 2010.06.25/outbox.cif.g09.slc.cpg/sg12_87_cif.got.tgz:172875.got - 2010.06.28 00:19:55.
