data_PCOD8108046
_publ_section_title
;
Structure prediction by ZEFSAII (Michael W. Deem and Ramdas Pophale) SiO2 
 PCOD8108046
Probable space group: C 2/M
;
_chemical_formula_sum "Si O2"
_cell_formula_units_Z 56
_cell_length_a 15.183269
_cell_length_b 21.884697
_cell_length_c 9.127385
_cell_angle_alpha 90.000000
_cell_angle_beta 115.758060
_cell_angle_gamma 90.000000
_cell_volume 2731.505219
_symmetry_space_group_name_H-M "C 2/M"
_symmetry_group_IT_number 12
_symmetry_cell_setting 'monoclinic'
loop_
_space_group_symop_operation_xyz
x,y,z
-x,y,-z
-x,-y,-z
x,-y,z
1/2+x,1/2+y,z
1/2-x,1/2+y,-z
1/2-x,1/2-y,-z
1/2+x,1/2-y,z
loop_
_atom_site_type_symbol
_atom_site_label
_atom_site_fract_x
_atom_site_fract_y
_atom_site_fract_z
Si Si1 0.099404 0.358876 0.982724
Si Si2 0.268930 0.571520 0.224743
Si Si3 0.028603 0.671757 0.361297
Si Si4 0.639913 0.613744 0.205211
Si Si5 0.441437 0.428391 0.158546
Si Si6 0.191564 0.570998 0.478702
Si Si7 0.401815 0.746331 0.843897
O O1 0.070959 0.349255 0.793002
O O2 0.179282 0.411500 0.052316
O O3 0.148309 0.298133 0.090734
O O4 0.000000 0.374902 0.000000
O O5 0.277764 0.500000 0.224598
O O6 0.372477 0.597291 0.239732
O O7 0.247624 0.594132 0.373235
O O8 0.096223 0.612172 0.430178
O O9 0.079042 0.725832 0.304243
O O10 0.000000 0.697553 0.500000
O O11 0.545249 0.605979 0.242348
O O12 0.734337 0.579130 0.333704
O O13 0.665157 0.686205 0.216019
O O14 0.616041 0.584218 0.032780
O O15 0.463145 0.500000 0.188073
O O16 0.159521 0.500000 0.443626
O O17 0.500000 0.725687 0.000000
#
# Coordination Sequence:
#
# PCOD8108046 Si02
#       7
#     8   8   8   8   8   8   8
#     4   9  18  38  62  80 118 155 192 233 286 347
#     4  10  21  38  59  88 117 152 199 238 286 351
#     4  10  22  39  59  88 122 152 190 242 289 341
#     4  11  21  39  61  84 117 153 191 246 296 335
#     4  10  21  38  61  86 113 150 197 242 294 347
#     4  11  23  39  59  87 122 154 193 241 291 346
#     4   9  18  40  62  82 114 157 195 236 282 353
#
# _framework density 20.501518000000001
#
# number of rings (size 3 to 8) (size 9 to 14) (size 15 to 20)
#    0.000    2.286    4.286    1.714    2.000    2.286 
#    2.571    2.857    0.000    0.000    0.000    0.000 
#    0.000    0.000    0.000    0.000    0.000    0.000 
#
# Total GULP energy -347091.613108 kJ/mol
# GULP energy per Si atom -12396.129040 kJ/mol
# Density = 2.045486 g / cm^3
# Si number density = 20.501518 Si / 1000 Ang^3
#
#
#
# Elastic Constant Matrix: (Units=GPa)
#
#
# Indices 1 2 3 4 5 6 
#
# 1 55.9667 27.0816 13.9812 0.0000 -7.9229 0.0000
# 2 27.0816 42.0907 19.1558 0.0000 2.8722 0.0000
# 3 13.9812 19.1558 94.0985 0.0000 -5.5954 0.0000
# 4 0.0000 0.0000 0.0000 16.3156 0.0000 6.3095
# 5 -7.9229 2.8722 -5.5954 0.0000 26.2952 0.0000
# 6 0.0000 0.0000 0.0000 6.3095 0.0000 21.4430
#
#
#
# Elastic Compliance Matrix: (Units=1/GPa)
#
#
# Indices 1 2 3 4 5 6 
#
# 1 0.028675 -0.019333 0.000319 0.000000 0.010819 0.000000
# 2 -0.019333 0.039651 -0.005878 0.000000 -0.011407 0.000000
# 3 0.000319 -0.005878 0.011972 0.000000 0.003285 0.000000
# 4 0.000000 0.000000 0.000000 0.069161 0.000000 -0.020350
# 5 0.010819 -0.011407 0.003285 0.000000 0.043235 0.000000
# 6 0.000000 0.000000 0.000000 -0.020350 0.000000 0.052623
#
#
# Mechanical properties :
#
#
# Convention : Reuss Voigt Hill
#
# Bulk Modulus (GPa) = 32.77282 34.73258 33.75270
# Shear Modulus (GPa) = 16.37888 21.60656 18.99272
#
# Velocity S-wave (km/s) = 2.82957 3.24991 3.04699
# Velocity P-wave (km/s) = 5.16677 5.57322 5.37384
#
# Compressibility (1/GPa) = 0.03051309
#
# Stress axis : x y z
#
# Youngs Moduli (GPa) = 34.87374 25.22028 83.53026
#
# Poissons Ratio (x) = 0.48758 -0.02660
# Poissons Ratio (y) = 0.67421 0.49095
# Poissons Ratio (z) = -0.01111 0.14823
#
# Static dielectric constant tensor:
#      x y z
#    x 3.758930 0.000000 -0.186850 
#    y 0.000000 3.647820 0.000000 
#    z -0.186850 0.000000 3.776050 
# 
# 
# High freq. dielectric constant tensor:
#      x y z
#    x 1.781040 0.000000 -0.003620 
#    y 0.000000 1.795790 0.000000 
#    z -0.003620 0.000000 1.800100 
# 
# From -- ./inp_files/65472.got.cif
#   From: 2010.06.25/outbox.cif.g09.slc.cpg/sg12_33_cif.got.tgz:65472.got - 2010.06.28 00:19:55.
