data_PCOD8108948
_publ_section_title
;
Structure prediction by ZEFSAII (Michael W. Deem and Ramdas Pophale) SiO2 
 PCOD8108948
Probable space group: C 2/M
;
_chemical_formula_sum "Si O2"
_cell_formula_units_Z 40
_cell_length_a 9.766217
_cell_length_b 15.891758
_cell_length_c 14.720938
_cell_angle_alpha 90.000000
_cell_angle_beta 61.246111
_cell_angle_gamma 90.000000
_cell_volume 2003.004308
_symmetry_space_group_name_H-M "C 2/M"
_symmetry_group_IT_number 12
_symmetry_cell_setting 'monoclinic'
loop_
_space_group_symop_operation_xyz
x,y,z
-x,y,-z
-x,-y,-z
x,-y,z
1/2+x,1/2+y,z
1/2-x,1/2+y,-z
1/2-x,1/2-y,-z
1/2+x,1/2-y,z
loop_
_atom_site_type_symbol
_atom_site_label
_atom_site_fract_x
_atom_site_fract_y
_atom_site_fract_z
Si Si1 0.980757 0.846832 0.864344
Si Si2 0.067929 0.749282 0.570920
Si Si3 0.453093 0.831490 0.233627
Si Si4 0.226754 0.905906 0.917860
Si Si5 0.384999 0.596754 0.699898
O O1 0.914490 0.892978 0.797274
O O2 0.041405 0.753531 0.825702
O O3 0.130940 0.896049 0.854819
O O4 0.842510 0.843619 0.983390
O O5 0.250000 0.750000 0.500000
O O6 0.021235 0.688732 0.668422
O O7 0.000000 0.710430 0.500000
O O8 0.003413 0.843926 0.606383
O O9 0.591612 0.891242 0.157153
O O10 0.291424 0.878111 0.267622
O O11 0.204870 0.000000 0.961819
O O12 0.413847 0.500000 0.662283
#
# Coordination Sequence:
#
# PCOD8108948 Si02
#       5
#     8   8   8   8   8
#     4  10  21  39  60  86 123 166 200 236 295 361
#     4  11  23  44  65  88 118 159 201 246 303 367
#     4  11  23  39  63  89 120 157 205 246 296 361
#     4  11  22  38  59  89 126 161 199 248 296 350
#     4  11  23  40  63  93 122 154 198 254 303 349
#
# _framework density 19.970001
#
# number of rings (size 3 to 8) (size 9 to 14) (size 15 to 20)
#    0.000    1.200    2.000    6.000    2.800    2.800 
#    0.000    2.000    0.000    3.000    0.000    0.000 
#    0.000    0.000    0.000    0.000    0.000    0.000 
#
# Total GULP energy -248045.796316 kJ/mol
# GULP energy per Si atom -12402.289816 kJ/mol
# Density = 1.992455 g / cm^3
# Si number density = 19.970001 Si / 1000 Ang^3
#
#
#
# Elastic Constant Matrix: (Units=GPa)
#
#
# Indices 1 2 3 4 5 6 
#
# 1 129.2191 29.1648 45.6738 0.0000 -18.4285 0.0000
# 2 29.1648 79.4371 17.3918 0.0000 -6.6942 0.0000
# 3 45.6738 17.3918 93.5116 0.0000 -3.0309 0.0000
# 4 0.0000 0.0000 0.0000 20.4312 0.0000 -5.7697
# 5 -18.4285 -6.6942 -3.0309 0.0000 43.7275 0.0000
# 6 0.0000 0.0000 0.0000 -5.7697 0.0000 25.0643
#
#
#
# Elastic Compliance Matrix: (Units=1/GPa)
#
#
# Indices 1 2 3 4 5 6 
#
# 1 0.010429 -0.002532 -0.004503 0.000000 0.003695 0.000000
# 2 -0.002532 0.013888 -0.001315 0.000000 0.000968 0.000000
# 3 -0.004503 -0.001315 0.013099 0.000000 -0.001191 0.000000
# 4 0.000000 0.000000 0.000000 0.052348 0.000000 0.012050
# 5 0.003695 0.000968 -0.001191 0.000000 0.024492 0.000000
# 6 0.000000 0.000000 0.000000 0.012050 0.000000 0.042671
#
#
# Mechanical properties :
#
#
# Convention : Reuss Voigt Hill
#
# Bulk Modulus (GPa) = 48.27137 54.06985 51.17061
# Shear Modulus (GPa) = 27.69600 31.84043 29.76822
#
# Velocity S-wave (km/s) = 3.72812 3.99734 3.86508
# Velocity P-wave (km/s) = 6.53883 6.95984 6.75261
#
# Compressibility (1/GPa) = 0.02071621
#
# Stress axis : x y z
#
# Youngs Moduli (GPa) = 95.88758 72.00718 76.33996
#
# Poissons Ratio (x) = 0.18229 0.34377
# Poissons Ratio (y) = 0.24275 0.10039
# Poissons Ratio (z) = 0.43180 0.09469
#
# Static dielectric constant tensor:
#      x y z
#    x 3.743440 0.000000 0.069260 
#    y 0.000000 3.672890 0.000000 
#    z 0.069260 0.000000 3.761230 
# 
# 
# High freq. dielectric constant tensor:
#      x y z
#    x 1.795210 0.000000 0.001640 
#    y 0.000000 1.769500 0.000000 
#    z 0.001640 0.000000 1.785730 
# 
# From -- ./inp_files/194420.got.cif
#   From: 2010.06.25/outbox.cif.g09.slc.cpg/sg12_98_cif.got.tgz:194420.got - 2010.06.28 00:19:55.
