data_PCOD8108875
_publ_section_title
;
Structure prediction by ZEFSAII (Michael W. Deem and Ramdas Pophale) SiO2 
 PCOD8108875
Probable space group: C 2/M
;
_chemical_formula_sum "Si O2"
_cell_formula_units_Z 36
_cell_length_a 17.725311
_cell_length_b 16.959875
_cell_length_c 6.341467
_cell_angle_alpha 90.000000
_cell_angle_beta 115.950570
_cell_angle_gamma 90.000000
_cell_volume 1714.150599
_symmetry_space_group_name_H-M "C 2/M"
_symmetry_group_IT_number 12
_symmetry_cell_setting 'monoclinic'
loop_
_space_group_symop_operation_xyz
x,y,z
-x,y,-z
-x,-y,-z
x,-y,z
1/2+x,1/2+y,z
1/2-x,1/2+y,-z
1/2-x,1/2-y,-z
1/2+x,1/2-y,z
loop_
_atom_site_type_symbol
_atom_site_label
_atom_site_fract_x
_atom_site_fract_y
_atom_site_fract_z
Si Si1 0.500000 0.298491 0.000000
Si Si2 0.571709 0.409270 0.421382
Si Si3 0.730808 0.189612 0.663323
Si Si4 0.858104 0.277715 0.061010
Si Si5 0.761120 0.410691 0.695812
O O1 0.564071 0.353582 0.207790
O O2 0.548118 0.240139 0.898931
O O3 0.500000 0.385728 0.500000
O O4 0.561484 0.500000 0.336900
O O5 0.663320 0.395565 0.636047
O O6 0.750000 0.250000 0.500000
O O7 0.802821 0.200290 0.929272
O O8 0.727545 0.104936 0.544264
O O9 0.644645 0.208722 0.687561
O O10 0.822371 0.356238 0.905963
O O11 0.787291 0.500000 0.774073
#
# Coordination Sequence:
#
# PCOD8108875 Si02
#       5
#     4   8   8   8   8
#     4  12  23  36  61  86 116 152 192 244 291 336
#     4  10  23  37  55  86 122 155 188 232 288 350
#     4   9  19  37  58  82 112 150 197 236 279 335
#     4  10  22  36  59  87 113 150 195 242 284 342
#     4  10  21  39  59  83 117 156 194 233 288 351
#
# _framework density 21.001657000000002
#
# number of rings (size 3 to 8) (size 9 to 14) (size 15 to 20)
#    0.000    2.000    2.222    0.333    9.333    0.889 
#    0.000    0.556    0.000    1.333    0.000    0.000 
#    0.000    0.000    0.000    0.000    0.000    0.000 
#
# Total GULP energy -223066.613293 kJ/mol
# GULP energy per Si atom -12392.589627 kJ/mol
# Density = 2.095386 g / cm^3
# Si number density = 21.001657 Si / 1000 Ang^3
#
#
#
# Elastic Constant Matrix: (Units=GPa)
#
#
# Indices 1 2 3 4 5 6 
#
# 1 127.0714 41.4256 30.6434 0.0000 -35.1058 0.0000
# 2 41.4256 102.9950 37.2092 0.0000 -2.3533 0.0000
# 3 30.6434 37.2092 72.4710 0.0000 -21.1343 0.0000
# 4 0.0000 0.0000 0.0000 26.0542 0.0000 1.2678
# 5 -35.1058 -2.3533 -21.1343 0.0000 39.1071 0.0000
# 6 0.0000 0.0000 0.0000 1.2678 0.0000 27.5649
#
#
#
# Elastic Compliance Matrix: (Units=1/GPa)
#
#
# Indices 1 2 3 4 5 6 
#
# 1 0.012431 -0.004936 0.000529 0.000000 0.011148 0.000000
# 2 -0.004936 0.014200 -0.007415 0.000000 -0.007584 0.000000
# 3 0.000529 -0.007415 0.020644 0.000000 0.011185 0.000000
# 4 0.000000 0.000000 0.000000 0.038468 0.000000 -0.001769
# 5 0.011148 -0.007584 0.011185 0.000000 0.041167 0.000000
# 6 0.000000 0.000000 0.000000 -0.001769 0.000000 0.036359
#
#
# Mechanical properties :
#
#
# Convention : Reuss Voigt Hill
#
# Bulk Modulus (GPa) = 42.31824 57.89929 50.10877
# Shear Modulus (GPa) = 25.66847 31.42918 28.54883
#
# Velocity S-wave (km/s) = 3.49981 3.87267 3.69095
# Velocity P-wave (km/s) = 6.04361 6.90113 6.48655
#
# Compressibility (1/GPa) = 0.02363047
#
# Stress axis : x y z
#
# Youngs Moduli (GPa) = 80.44309 70.42067 48.43999
#
# Poissons Ratio (x) = 0.34763 -0.02564
# Poissons Ratio (y) = 0.39710 0.35920
# Poissons Ratio (z) = -0.04258 0.52220
#
# Static dielectric constant tensor:
#      x y z
#    x 3.944450 0.000000 -0.492160 
#    y 0.000000 3.958230 0.000000 
#    z -0.492160 0.000000 3.890490 
# 
# 
# High freq. dielectric constant tensor:
#      x y z
#    x 1.816500 0.000000 -0.026220 
#    y 0.000000 1.808590 0.000000 
#    z -0.026220 0.000000 1.809720 
# 
# From -- ./inp_files/15355.got.cif
#   From: 2010.06.25/outbox.cif.g09.slc.cpg/sg12_8_cif.got.tgz:15355.got - 2010.06.28 00:19:55.
