data_PCOD8108649
_publ_section_title
;
Structure prediction by ZEFSAII (Michael W. Deem and Ramdas Pophale) SiO2 
 PCOD8108649
Probable space group: C 2/M
;
_chemical_formula_sum "Si O2"
_cell_formula_units_Z 48
_cell_length_a 14.354089
_cell_length_b 15.286261
_cell_length_c 11.869718
_cell_angle_alpha 90.000000
_cell_angle_beta 114.205769
_cell_angle_gamma 90.000000
_cell_volume 2375.470740
_symmetry_space_group_name_H-M "C 2/M"
_symmetry_group_IT_number 12
_symmetry_cell_setting 'monoclinic'
loop_
_space_group_symop_operation_xyz
x,y,z
-x,y,-z
-x,-y,-z
x,-y,z
1/2+x,1/2+y,z
1/2-x,1/2+y,-z
1/2-x,1/2-y,-z
1/2+x,1/2-y,z
loop_
_atom_site_type_symbol
_atom_site_label
_atom_site_fract_x
_atom_site_fract_y
_atom_site_fract_z
Si Si1 0.791895 0.723399 0.676926
Si Si2 0.282950 0.348686 0.026747
Si Si3 0.168291 0.902106 0.197365
Si Si4 0.086290 0.218993 0.465262
Si Si5 0.024168 0.098543 0.756278
Si Si6 0.611843 0.097930 0.091298
O O1 0.773230 0.824383 0.707117
O O2 0.869331 0.716996 0.609064
O O3 0.681361 0.685486 0.588290
O O4 0.841781 0.665906 0.798022
O O5 0.322571 0.390089 0.931226
O O6 0.250000 0.250000 0.000000
O O7 0.372672 0.349632 0.163962
O O8 0.185240 0.404143 0.019077
O O9 0.049573 0.895358 0.171825
O O10 0.209652 0.000000 0.250785
O O11 0.000000 0.266655 0.500000
O O12 0.031028 0.136132 0.381495
O O13 0.055203 0.000000 0.743569
O O14 0.604396 0.000000 0.138884
O O15 0.500000 0.131495 0.000000
#
# Coordination Sequence:
#
# PCOD8108649 Si02
#       6
#     8   8   8   8   8   8
#     4  10  22  40  60  89 120 158 202 250 298 357
#     4  12  23  35  62  93 122 162 194 245 302 365
#     4  10  21  38  63  92 124 155 195 250 305 358
#     4  10  22  37  61  88 115 158 200 249 300 356
#     4  10  22  39  61  93 123 152 199 256 307 359
#     4  11  25  41  59  87 124 164 204 242 292 363
#
# _framework density 20.206520999999999
#
# number of rings (size 3 to 8) (size 9 to 14) (size 15 to 20)
#    0.000    1.500    1.667    3.000    4.667    2.333 
#    0.000    2.500    0.000    1.000    0.000    0.000 
#    0.000    0.000    0.000    0.000    0.000    0.000 
#
# Total GULP energy -297552.915470 kJ/mol
# GULP energy per Si atom -12398.038145 kJ/mol
# Density = 2.016053 g / cm^3
# Si number density = 20.206521 Si / 1000 Ang^3
#
#
#
# Elastic Constant Matrix: (Units=GPa)
#
#
# Indices 1 2 3 4 5 6 
#
# 1 133.2946 35.0834 64.3721 0.0000 9.1254 0.0000
# 2 35.0834 121.7553 58.3776 0.0000 18.9474 0.0000
# 3 64.3721 58.3776 127.2347 0.0000 21.4255 0.0000
# 4 0.0000 0.0000 0.0000 16.3897 0.0000 2.2623
# 5 9.1254 18.9474 21.4255 0.0000 39.3784 0.0000
# 6 0.0000 0.0000 0.0000 2.2623 0.0000 23.4087
#
#
#
# Elastic Compliance Matrix: (Units=1/GPa)
#
#
# Indices 1 2 3 4 5 6 
#
# 1 0.009974 -0.000644 -0.004859 0.000000 0.000642 0.000000
# 2 -0.000644 0.010835 -0.004175 0.000000 -0.002793 0.000000
# 3 -0.004859 -0.004175 0.012886 0.000000 -0.003876 0.000000
# 4 0.000000 0.000000 0.000000 0.061839 0.000000 -0.005976
# 5 0.000642 -0.002793 -0.003876 0.000000 0.028699 0.000000
# 6 0.000000 0.000000 0.000000 -0.005976 0.000000 0.043297
#
#
# Mechanical properties :
#
#
# Convention : Reuss Voigt Hill
#
# Bulk Modulus (GPa) = 69.74003 77.55009 73.64506
# Shear Modulus (GPa) = 26.08704 30.79880 28.44292
#
# Velocity S-wave (km/s) = 3.59698 3.90834 3.75588
# Velocity P-wave (km/s) = 7.19997 7.67000 7.43870
#
# Compressibility (1/GPa) = 0.01433897
#
# Stress axis : x y z
#
# Youngs Moduli (GPa) = 100.25788 92.29090 77.60287
#
# Poissons Ratio (x) = 0.05947 0.37706
# Poissons Ratio (y) = 0.06460 0.32401
# Poissons Ratio (z) = 0.48713 0.38533
#
# Static dielectric constant tensor:
#      x y z
#    x 4.071830 0.000000 -0.149790 
#    y 0.000000 3.815580 0.000000 
#    z -0.149790 0.000000 3.696910 
# 
# 
# High freq. dielectric constant tensor:
#      x y z
#    x 1.806600 0.000000 -0.007120 
#    y 0.000000 1.775700 0.000000 
#    z -0.007120 0.000000 1.784560 
# 
# From -- ./inp_files/143903.got.cif
#   From: 2010.06.25/outbox.cif.g09.slc.cpg/sg12_72_cif.got.tgz:143903.got - 2010.06.28 00:19:55.
