data_PCOD8108540
_publ_section_title
;
Structure prediction by ZEFSAII (Michael W. Deem and Ramdas Pophale) SiO2 
 PCOD8108540
Probable space group: C 2/M
;
_chemical_formula_sum "Si O2"
_cell_formula_units_Z 40
_cell_length_a 25.006568
_cell_length_b 8.588368
_cell_length_c 9.101987
_cell_angle_alpha 90.000000
_cell_angle_beta 89.056853
_cell_angle_gamma 90.000000
_cell_volume 1954.528941
_symmetry_space_group_name_H-M "C 2/M"
_symmetry_group_IT_number 12
_symmetry_cell_setting 'monoclinic'
loop_
_space_group_symop_operation_xyz
x,y,z
-x,y,-z
-x,-y,-z
x,-y,z
1/2+x,1/2+y,z
1/2-x,1/2+y,-z
1/2-x,1/2-y,-z
1/2+x,1/2-y,z
loop_
_atom_site_type_symbol
_atom_site_label
_atom_site_fract_x
_atom_site_fract_y
_atom_site_fract_z
Si Si1 0.809000 0.180445 0.667428
Si Si2 0.398127 0.179963 0.850126
Si Si3 0.401905 0.318994 0.162876
Si Si4 0.187067 0.319403 0.639943
Si Si5 0.507918 0.318842 0.330285
O O1 0.840178 0.280145 0.786976
O O2 0.829246 0.221460 0.502858
O O3 0.746842 0.223957 0.688288
O O4 0.820676 0.000000 0.695768
O O5 0.442696 0.217273 0.727215
O O6 0.399877 0.000000 0.894051
O O7 0.409983 0.283106 0.992033
O O8 0.389838 0.500000 0.186934
O O9 0.352121 0.220949 0.225445
O O10 0.455167 0.268099 0.245324
O O11 0.183359 0.500000 0.598688
O O12 0.500000 0.278292 0.500000
O O13 0.521193 0.500000 0.305464
#
# Coordination Sequence:
#
# PCOD8108540 Si02
#       5
#     8   8   8   8   8
#     4  10  21  39  62  87 119 158 197 239 291 352
#     4  12  25  39  59  87 120 156 197 248 296 341
#     4  11  23  39  61  87 120 160 196 237 294 357
#     4  10  21  38  62  91 120 152 195 245 292 343
#     4  10  22  41  64  88 115 151 195 240 293 358
#
# _framework density 20.465291000000001
#
# number of rings (size 3 to 8) (size 9 to 14) (size 15 to 20)
#    0.000    1.400    0.000    5.400    0.000    9.200 
#    0.000    0.000    0.000    0.000    0.000    0.000 
#    0.000    0.000    0.000    0.000    0.000    0.000 
#
# Total GULP energy -248180.236465 kJ/mol
# GULP energy per Si atom -12409.011823 kJ/mol
# Density = 2.041871 g / cm^3
# Si number density = 20.465291 Si / 1000 Ang^3
#
#
#
# Elastic Constant Matrix: (Units=GPa)
#
#
# Indices 1 2 3 4 5 6 
#
# 1 98.8679 30.6893 46.5747 0.0000 14.9261 0.0000
# 2 30.6893 53.6533 9.8481 0.0000 8.9455 0.0000
# 3 46.5747 9.8481 103.9095 0.0000 18.9503 0.0000
# 4 0.0000 0.0000 0.0000 34.8979 0.0000 -3.8662
# 5 14.9261 8.9455 18.9503 0.0000 33.8641 0.0000
# 6 0.0000 0.0000 0.0000 -3.8662 0.0000 31.5959
#
#
#
# Elastic Compliance Matrix: (Units=1/GPa)
#
#
# Indices 1 2 3 4 5 6 
#
# 1 0.015476 -0.007508 -0.005950 0.000000 -0.001508 0.000000
# 2 -0.007508 0.023236 0.001870 0.000000 -0.003875 0.000000
# 3 -0.005950 0.001870 0.013058 0.000000 -0.005179 0.000000
# 4 0.000000 0.000000 0.000000 0.029049 0.000000 0.003555
# 5 -0.001508 -0.003875 -0.005179 0.000000 0.034116 0.000000
# 6 0.000000 0.000000 0.000000 0.003555 0.000000 0.032085
#
#
# Mechanical properties :
#
#
# Convention : Reuss Voigt Hill
#
# Bulk Modulus (GPa) = 34.97415 47.85055 41.41235
# Shear Modulus (GPa) = 27.82003 31.35948 29.58975
#
# Velocity S-wave (km/s) = 3.69097 3.91874 3.80656
# Velocity P-wave (km/s) = 5.94062 6.62627 6.29279
#
# Compressibility (1/GPa) = 0.02859254
#
# Stress axis : x y z
#
# Youngs Moduli (GPa) = 64.61715 43.03709 76.58221
#
# Poissons Ratio (x) = 0.32314 0.45566
# Poissons Ratio (y) = 0.48517 -0.14321
# Poissons Ratio (z) = 0.38447 -0.08048
#
# Static dielectric constant tensor:
#      x y z
#    x 3.758920 0.000000 0.088160 
#    y 0.000000 3.626450 0.000000 
#    z 0.088160 0.000000 3.627940 
# 
# 
# High freq. dielectric constant tensor:
#      x y z
#    x 1.810500 0.000000 0.004080 
#    y 0.000000 1.802860 0.000000 
#    z 0.004080 0.000000 1.802800 
# 
# From -- ./inp_files/92732.got.cif
#   From: 2010.06.25/outbox.cif.g09.slc.cpg/sg12_47_cif.got.tgz:92732.got - 2010.06.28 00:19:55.
