data_PCOD8108985
_publ_section_title
;
Structure prediction by ZEFSAII (Michael W. Deem and Ramdas Pophale) SiO2 
 PCOD8108985
Probable space group: C 2/M
;
_chemical_formula_sum "Si O2"
_cell_formula_units_Z 28
_cell_length_a 8.762138
_cell_length_b 23.922409
_cell_length_c 10.548757
_cell_angle_alpha 90.000000
_cell_angle_beta 152.249167
_cell_angle_gamma 90.000000
_cell_volume 1029.567451
_symmetry_space_group_name_H-M "C 2/M"
_symmetry_group_IT_number 12
_symmetry_cell_setting 'monoclinic'
loop_
_space_group_symop_operation_xyz
x,y,z
-x,y,-z
-x,-y,-z
x,-y,z
1/2+x,1/2+y,z
1/2-x,1/2+y,-z
1/2-x,1/2-y,-z
1/2+x,1/2-y,z
loop_
_atom_site_type_symbol
_atom_site_label
_atom_site_fract_x
_atom_site_fract_y
_atom_site_fract_z
Si Si1 0.884388 0.000000 0.270799
Si Si2 0.115198 0.343624 0.721508
Si Si3 0.611629 0.719284 0.718284
Si Si4 0.755773 0.110861 0.074702
O O1 0.980975 0.944592 0.259843
O O2 0.000000 0.000000 0.500000
O O3 0.500000 0.000000 0.000000
O O4 0.961539 0.281288 0.643712
O O5 0.000000 0.367443 0.500000
O O6 0.500000 0.336079 0.000000
O O7 0.057790 0.387688 0.795240
O O8 0.500000 0.699040 0.500000
O O9 0.515913 0.667619 0.745206
O O10 0.000000 0.726716 0.000000
O O11 0.500000 0.114079 0.000000
#
# Coordination Sequence:
#
# PCOD8108985 Si02
#       4
#     4   8   8   8
#     4  10  22  38  58  86 114 144 189 240 279 322
#     4  10  22  38  57  85 119 149 183 231 286 339
#     4   9  18  33  55  83 113 146 184 229 280 334
#     4  10  21  39  61  85 112 151 193 234 278 334
#
# _framework density 27.195888
#
# number of rings (size 3 to 8) (size 9 to 14) (size 15 to 20)
#    0.000    2.286    0.000    1.714    0.000    9.143 
#    0.000   18.571    0.000    0.000    0.000    0.000 
#    0.000    0.000    0.000    0.000    0.000    0.000 
#
# Total GULP energy -173481.152535 kJ/mol
# GULP energy per Si atom -12391.510895 kJ/mol
# Density = 2.713399 g / cm^3
# Si number density = 27.195888 Si / 1000 Ang^3
#
#
#
# Elastic Constant Matrix: (Units=GPa)
#
#
# Indices 1 2 3 4 5 6 
#
# 1 80.1441 47.0380 47.3371 0.0000 -49.9233 0.0000
# 2 47.0380 193.1690 88.6933 0.0000 -35.9694 0.0000
# 3 47.3371 88.6933 228.4982 0.0000 -70.3162 0.0000
# 4 0.0000 0.0000 0.0000 41.2791 0.0000 -12.5950
# 5 -49.9233 -35.9694 -70.3162 0.0000 59.4304 0.0000
# 6 0.0000 0.0000 0.0000 -12.5950 0.0000 25.8130
#
#
#
# Elastic Compliance Matrix: (Units=1/GPa)
#
#
# Indices 1 2 3 4 5 6 
#
# 1 0.028930 -0.003792 0.003540 0.000000 0.026195 0.000000
# 2 -0.003792 0.006877 -0.002490 0.000000 -0.001969 0.000000
# 3 0.003540 -0.002490 0.007958 0.000000 0.010883 0.000000
# 4 0.000000 0.000000 0.000000 0.028463 0.000000 0.013888
# 5 0.026195 -0.001969 0.010883 0.000000 0.050515 0.000000
# 6 0.000000 0.000000 0.000000 0.013888 0.000000 0.045517
#
#
# Mechanical properties :
#
#
# Convention : Reuss Voigt Hill
#
# Bulk Modulus (GPa) = 26.12297 96.43869 61.28083
# Shear Modulus (GPa) = 26.80913 46.55403 36.68158
#
# Velocity S-wave (km/s) = 3.14312 4.14188 3.67657
# Velocity P-wave (km/s) = 4.77479 7.64273 6.37220
#
# Compressibility (1/GPa) = 0.03828049
#
# Stress axis : x y z
#
# Youngs Moduli (GPa) = 34.56663 145.41942 125.65249
#
# Poissons Ratio (x) = 0.55146 -0.44477
# Poissons Ratio (y) = 0.13108 0.31282
# Poissons Ratio (z) = -0.12235 0.36203
#
# Static dielectric constant tensor:
#      x y z
#    x 4.953990 0.000000 -0.148660 
#    y 0.000000 15.883680 0.000000 
#    z -0.148660 0.000000 5.879520 
# 
# 
# High freq. dielectric constant tensor:
#      x y z
#    x 2.090150 0.000000 0.013690 
#    y 0.000000 2.081670 0.000000 
#    z 0.013690 0.000000 2.133440 
# 
# From -- ./inp_files/6147.got.cif
#   From: 2010.06.25/outbox.cif.g09.slc.cpg/sg12_4_cif.got.tgz:6147.got - 2010.06.28 00:19:55.
