data_PCOD8108146
_publ_section_title
;
Structure prediction by ZEFSAII (Michael W. Deem and Ramdas Pophale) SiO2 
 PCOD8108146
Probable space group: C 2/M
;
_chemical_formula_sum "Si O2"
_cell_formula_units_Z 64
_cell_length_a 14.465151
_cell_length_b 8.550834
_cell_length_c 28.044397
_cell_angle_alpha 90.000000
_cell_angle_beta 105.841744
_cell_angle_gamma 90.000000
_cell_volume 3337.039649
_symmetry_space_group_name_H-M "C 2/M"
_symmetry_group_IT_number 12
_symmetry_cell_setting 'monoclinic'
loop_
_space_group_symop_operation_xyz
x,y,z
-x,y,-z
-x,-y,-z
x,-y,z
1/2+x,1/2+y,z
1/2-x,1/2+y,-z
1/2-x,1/2-y,-z
1/2+x,1/2-y,z
loop_
_atom_site_type_symbol
_atom_site_label
_atom_site_fract_x
_atom_site_fract_y
_atom_site_fract_z
Si Si1 0.721475 0.177483 0.908381
Si Si2 0.784310 0.685017 0.371271
Si Si3 0.609812 0.317824 0.701201
Si Si4 0.931118 0.813474 0.949708
Si Si5 0.376179 0.825946 0.197972
Si Si6 0.028584 0.815493 0.557224
Si Si7 0.576606 0.185289 0.369324
Si Si8 0.965741 0.820179 0.126584
O O1 0.718570 0.179483 0.849366
O O2 0.637562 0.292939 0.914778
O O3 0.822015 0.240584 0.943089
O O4 0.702380 0.000000 0.923118
O O5 0.780102 0.500000 0.375806
O O6 0.813434 0.729992 0.321481
O O7 0.681494 0.754969 0.370124
O O8 0.864361 0.752534 0.418350
O O9 0.614219 0.500000 0.689738
O O10 0.638598 0.289500 0.759957
O O11 0.501808 0.256128 0.677906
O O12 0.957649 0.753719 0.900377
O O13 0.940626 0.000000 0.951109
O O14 0.000000 0.740412 0.000000
O O15 0.466870 0.773425 0.177031
O O16 0.396359 0.000000 0.220317
O O17 0.950428 0.736995 0.580968
O O18 0.000000 0.768784 0.500000
O O19 0.026796 0.000000 0.565532
O O20 0.573939 0.000000 0.365213
O O21 0.982245 0.000000 0.140909
#
# Coordination Sequence:
#
# PCOD8108146 Si02
#       8
#     8   8   8   8   8   8   8   8
#     4   8  17  33  51  71 101 136 168 210 261 315
#     4  11  22  38  59  84 116 151 188 231 280 335
#     4  11  21  37  59  83 110 143 185 230 280 334
#     4   9  17  31  52  76 102 136 175 212 259 320
#     4   9  18  35  55  74 104 141 176 218 271 325
#     4  10  21  38  60  86 117 153 193 238 284 329
#     4  11  22  38  59  84 116 150 189 234 279 333
#     4   9  17  31  51  75 100 130 171 217 259 308
#
# _framework density 19.178674999999998
#
# number of rings (size 3 to 8) (size 9 to 14) (size 15 to 20)
#    0.750    1.500    0.000    5.625    0.000    2.000 
#    2.250    1.250    0.000    1.875    0.000    0.000 
#    0.000    0.000    0.000    0.000    0.000    0.000 
#
# Total GULP energy -396538.765307 kJ/mol
# GULP energy per Si atom -12391.836416 kJ/mol
# Density = 1.913502 g / cm^3
# Si number density = 19.178675 Si / 1000 Ang^3
#
#
#
# Elastic Constant Matrix: (Units=GPa)
#
#
# Indices 1 2 3 4 5 6 
#
# 1 84.0853 4.4047 -4.4751 0.0000 0.5742 0.0000
# 2 4.4047 70.1035 9.3362 0.0000 2.9959 0.0000
# 3 -4.4751 9.3362 46.6733 0.0000 -2.6357 0.0000
# 4 0.0000 0.0000 0.0000 23.6370 0.0000 1.8540
# 5 0.5742 2.9959 -2.6357 0.0000 19.3567 0.0000
# 6 0.0000 0.0000 0.0000 1.8540 0.0000 27.0577
#
#
#
# Elastic Compliance Matrix: (Units=1/GPa)
#
#
# Indices 1 2 3 4 5 6 
#
# 1 0.012013 -0.000931 0.001336 0.000000 -0.000030 0.000000
# 2 -0.000931 0.014867 -0.003216 0.000000 -0.002711 0.000000
# 3 0.001336 -0.003216 0.022395 0.000000 0.003508 0.000000
# 4 0.000000 0.000000 0.000000 0.042535 0.000000 -0.002915
# 5 -0.000030 -0.002711 0.003508 0.000000 0.052560 0.000000
# 6 0.000000 0.000000 0.000000 -0.002915 0.000000 0.037158
#
#
# Mechanical properties :
#
#
# Convention : Reuss Voigt Hill
#
# Bulk Modulus (GPa) = 22.90825 24.37709 23.64267
# Shear Modulus (GPa) = 24.78906 26.78336 25.78621
#
# Velocity S-wave (km/s) = 3.59908 3.74106 3.67075
# Velocity P-wave (km/s) = 5.40756 5.60346 5.50638
#
# Compressibility (1/GPa) = 0.04365240
#
# Stress axis : x y z
#
# Youngs Moduli (GPa) = 83.24447 67.26135 44.65256
#
# Poissons Ratio (x) = 0.06265 -0.05967
# Poissons Ratio (y) = 0.07754 0.14362
# Poissons Ratio (z) = -0.11125 0.21634
#
# Static dielectric constant tensor:
#      x y z
#    x 3.201780 0.000000 -0.005300 
#    y 0.000000 3.456410 0.000000 
#    z -0.005300 0.000000 3.429950 
# 
# 
# High freq. dielectric constant tensor:
#      x y z
#    x 1.734760 0.000000 -0.005300 
#    y 0.000000 1.746720 0.000000 
#    z -0.005300 0.000000 1.740370 
# 
# From -- ./inp_files/374810.got.cif
#   From: 2010.06.25/outbox.cif.g09.slc.cpg/sg12_188_cif.got.tgz:374810.got - 2010.06.28 00:19:55.
