data_PCOD8108417
_publ_section_title
;
Structure prediction by ZEFSAII (Michael W. Deem and Ramdas Pophale) SiO2 
 PCOD8108417
Probable space group: C 2/M
;
_chemical_formula_sum "Si O2"
_cell_formula_units_Z 56
_cell_length_a 8.680452
_cell_length_b 23.833248
_cell_length_c 14.430168
_cell_angle_alpha 90.000000
_cell_angle_beta 63.320381
_cell_angle_gamma 90.000000
_cell_volume 2667.513723
_symmetry_space_group_name_H-M "C 2/M"
_symmetry_group_IT_number 12
_symmetry_cell_setting 'monoclinic'
loop_
_space_group_symop_operation_xyz
x,y,z
-x,y,-z
-x,-y,-z
x,-y,z
1/2+x,1/2+y,z
1/2-x,1/2+y,-z
1/2-x,1/2-y,-z
1/2+x,1/2-y,z
loop_
_atom_site_type_symbol
_atom_site_label
_atom_site_fract_x
_atom_site_fract_y
_atom_site_fract_z
Si Si1 0.493329 0.354530 0.893032
Si Si2 0.818489 0.563421 0.012468
Si Si3 0.481244 0.699705 0.708556
Si Si4 0.860527 0.682169 0.319549
Si Si5 0.571805 0.000000 0.345709
Si Si6 0.722121 0.500000 0.544296
Si Si7 0.850201 0.875479 0.475620
Si Si8 0.140563 0.598577 0.199632
O O1 0.343025 0.399295 0.913105
O O2 0.459846 0.305425 0.826640
O O3 0.675354 0.380207 0.815132
O O4 0.500000 0.334021 0.000000
O O5 0.789589 0.500000 0.057329
O O6 0.828613 0.562813 0.900112
O O7 0.000000 0.588115 0.000000
O O8 0.297543 0.692269 0.707806
O O9 0.559114 0.760191 0.665258
O O10 0.619493 0.653747 0.632515
O O11 0.819977 0.646159 0.424340
O O12 0.007843 0.649759 0.221599
O O13 0.554692 0.943486 0.293701
O O14 0.412792 0.000000 0.455759
O O15 0.754409 0.000000 0.350928
O O16 0.628922 0.442878 0.538220
O O17 0.000000 0.852307 0.500000
#
# Coordination Sequence:
#
# PCOD8108417 Si02
#       8
#     8   8   8   8   4   4   8   8
#     4  10  23  40  63  91 126 161 212 253 307 363
#     4  10  21  38  61  90 124 164 206 253 308 365
#     4  11  23  43  62  92 123 165 212 257 311 364
#     4  11  23  41  66  90 124 162 209 258 310 372
#     4  11  22  34  58  88 125 164 200 249 306 368
#     4  11  21  38  56  92 129 159 202 249 305 374
#     4  10  22  40  63  91 126 164 204 252 309 372
#     4  11  21  39  62  89 124 164 206 257 308 365
#
# _framework density 20.993331999999999
#
# number of rings (size 3 to 8) (size 9 to 14) (size 15 to 20)
#    0.000    1.429    2.143    3.214    1.000    0.857 
#    1.286    7.143    0.000    0.000    0.000    0.000 
#    0.000    0.000    0.000    0.000    0.000    0.000 
#
# Total GULP energy -347013.794029 kJ/mol
# GULP energy per Si atom -12393.349787 kJ/mol
# Density = 2.094555 g / cm^3
# Si number density = 20.993332 Si / 1000 Ang^3
#
#
#
# Elastic Constant Matrix: (Units=GPa)
#
#
# Indices 1 2 3 4 5 6 
#
# 1 109.4679 33.0692 23.0781 0.0000 -9.1412 0.0000
# 2 33.0692 127.8289 40.7488 0.0000 -6.4244 0.0000
# 3 23.0781 40.7488 70.1816 0.0000 -0.9625 0.0000
# 4 0.0000 0.0000 0.0000 27.6353 0.0000 3.9050
# 5 -9.1412 -6.4244 -0.9625 0.0000 34.7767 0.0000
# 6 0.0000 0.0000 0.0000 3.9050 0.0000 23.3359
#
#
#
# Elastic Compliance Matrix: (Units=1/GPa)
#
#
# Indices 1 2 3 4 5 6 
#
# 1 0.010370 -0.001827 -0.002317 0.000000 0.002324 0.000000
# 2 -0.001827 0.010014 -0.005197 0.000000 0.001226 0.000000
# 3 -0.002317 -0.005197 0.018013 0.000000 -0.001070 0.000000
# 4 0.000000 0.000000 0.000000 0.037062 0.000000 -0.006202
# 5 0.002324 0.001226 -0.001070 0.000000 0.029563 0.000000
# 6 0.000000 0.000000 0.000000 -0.006202 0.000000 0.043890
#
#
# Mechanical properties :
#
#
# Convention : Reuss Voigt Hill
#
# Bulk Modulus (GPa) = 50.72287 55.69671 53.20979
# Shear Modulus (GPa) = 28.70844 31.18840 29.94842
#
# Velocity S-wave (km/s) = 3.70199 3.85857 3.78109
# Velocity P-wave (km/s) = 6.51819 6.81467 6.66808
#
# Compressibility (1/GPa) = 0.01971497
#
# Stress axis : x y z
#
# Youngs Moduli (GPa) = 96.43541 99.86236 55.51472
#
# Poissons Ratio (x) = 0.18247 0.12863
# Poissons Ratio (y) = 0.17620 0.28848
# Poissons Ratio (z) = 0.22345 0.51894
#
# Static dielectric constant tensor:
#      x y z
#    x 3.924670 0.000000 0.009630 
#    y 0.000000 3.662290 0.000000 
#    z 0.009630 0.000000 3.859720 
# 
# 
# High freq. dielectric constant tensor:
#      x y z
#    x 1.827200 0.000000 -0.000600 
#    y 0.000000 1.816700 0.000000 
#    z -0.000600 0.000000 1.825110 
# 
# From -- ./inp_files/198833.got.cif
#   From: 2010.06.25/outbox.cif.g09.slc.cpg/sg12_100_cif.got.tgz:198833.got - 2010.06.28 00:19:55.
