data_PCOD8108953
_publ_section_title
;
Structure prediction by ZEFSAII (Michael W. Deem and Ramdas Pophale) SiO2 
 PCOD8108953
Probable space group: C 2/M
;
_chemical_formula_sum "Si O2"
_cell_formula_units_Z 64
_cell_length_a 17.399557
_cell_length_b 20.759114
_cell_length_c 17.114985
_cell_angle_alpha 90.000000
_cell_angle_beta 150.404608
_cell_angle_gamma 90.000000
_cell_volume 3053.077834
_symmetry_space_group_name_H-M "C 2/M"
_symmetry_group_IT_number 12
_symmetry_cell_setting 'monoclinic'
loop_
_space_group_symop_operation_xyz
x,y,z
-x,y,-z
-x,-y,-z
x,-y,z
1/2+x,1/2+y,z
1/2-x,1/2+y,-z
1/2-x,1/2-y,-z
1/2+x,1/2-y,z
loop_
_atom_site_type_symbol
_atom_site_label
_atom_site_fract_x
_atom_site_fract_y
_atom_site_fract_z
Si Si1 0.754167 0.823388 0.310713
Si Si2 0.450229 0.685006 0.331715
Si Si3 0.437213 0.428905 0.794553
Si Si4 0.883860 0.672558 0.250946
Si Si5 0.130875 0.428294 0.434597
Si Si6 0.965185 0.572744 0.822937
Si Si7 0.282490 0.380232 0.042793
Si Si8 0.855654 0.809422 0.827201
O O1 0.818415 0.828199 0.279713
O O2 0.610835 0.873881 0.187383
O O3 0.703532 0.748741 0.280837
O O4 0.885115 0.841763 0.490715
O O5 0.471663 0.760072 0.333522
O O6 0.398384 0.654794 0.204508
O O7 0.413495 0.500000 0.811948
O O8 0.308383 0.416268 0.614632
O O9 0.609041 0.429775 0.908581
O O10 0.421159 0.371843 0.841664
O O11 0.772051 0.664539 0.225832
O O12 0.015197 0.618649 0.378080
O O13 0.794852 0.667994 0.088970
O O14 0.074426 0.500000 0.406148
O O15 0.124024 0.416915 0.336661
O O16 0.939658 0.500000 0.833084
O O17 0.149420 0.583197 0.973903
O O18 0.000000 0.777487 0.000000
#
# Coordination Sequence:
#
# PCOD8108953 Si02
#       8
#     8   8   8   8   8   8   8   8
#     4  10  23  41  65  89 122 157 199 249 299 365
#     4  10  22  40  62  91 120 157 198 248 305 358
#     4  11  23  39  60  90 123 164 208 249 296 353
#     4  10  21  39  60  88 120 160 201 249 299 360
#     4   9  20  38  61  88 123 160 203 250 296 350
#     4  10  22  41  64  91 121 161 197 245 303 360
#     4  11  22  38  61  89 122 157 200 251 301 354
#     4  11  23  40  62  89 123 163 198 252 304 351
#
# _framework density 20.962453
#
# number of rings (size 3 to 8) (size 9 to 14) (size 15 to 20)
#    0.000    1.750    1.250    2.250    3.500    4.750 
#    0.000    9.375    0.000    0.000    0.000    0.000 
#    0.000    0.000    0.000    0.000    0.000    0.000 
#
# Total GULP energy -396714.069280 kJ/mol
# GULP energy per Si atom -12397.314665 kJ/mol
# Density = 2.091474 g / cm^3
# Si number density = 20.962453 Si / 1000 Ang^3
#
#
#
# Elastic Constant Matrix: (Units=GPa)
#
#
# Indices 1 2 3 4 5 6 
#
# 1 72.4003 59.8501 26.2008 -0.0034 14.6039 -0.0013
# 2 59.8501 127.2166 26.0840 -0.0028 12.9445 -0.0013
# 3 26.2008 26.0840 81.7773 -0.0063 8.1683 -0.0042
# 4 -0.0034 -0.0028 -0.0063 14.5087 -0.0034 11.0925
# 5 14.6039 12.9445 8.1683 -0.0034 30.2551 -0.0019
# 6 -0.0013 -0.0013 -0.0042 11.0925 -0.0019 29.5930
#
#
#
# Elastic Compliance Matrix: (Units=1/GPa)
#
#
# Indices 1 2 3 4 5 6 
#
# 1 0.025170 -0.010325 -0.004110 0.000001 -0.006622 -0.000001
# 2 -0.010325 0.012911 -0.000777 0.000000 -0.000330 0.000000
# 3 -0.004110 -0.000777 0.013937 0.000005 -0.001447 0.000000
# 4 0.000001 0.000000 0.000005 0.096611 0.000007 -0.036213
# 5 -0.006622 -0.000330 -0.001447 0.000007 0.036781 -0.000001
# 6 -0.000001 0.000000 0.000000 -0.036213 -0.000001 0.047366
#
#
# Mechanical properties :
#
#
# Convention : Reuss Voigt Hill
#
# Bulk Modulus (GPa) = 46.30644 56.18490 51.24567
# Shear Modulus (GPa) = 18.49123 26.15530 22.32326
#
# Velocity S-wave (km/s) = 2.97326 3.53614 3.26685
# Velocity P-wave (km/s) = 5.82453 6.59797 6.22328
#
# Compressibility (1/GPa) = 0.02159527
#
# Stress axis : x y z
#
# Youngs Moduli (GPa) = 39.72905 77.45258 71.74952
#
# Poissons Ratio (x) = 0.79971 0.29486
# Poissons Ratio (y) = 0.41021 0.05575
# Poissons Ratio (z) = 0.16327 0.06019
#
# Static dielectric constant tensor:
#      x y z
#    x 3.637030 0.000000 0.032440 
#    y 0.000000 3.750670 0.000000 
#    z 0.032440 0.000000 3.953770 
# 
# 
# High freq. dielectric constant tensor:
#      x y z
#    x 1.807790 0.000000 0.007410 
#    y 0.000000 1.818690 0.000000 
#    z 0.007410 0.000000 1.835120 
# 
# From -- ./inp_files/279130.got.cif
#   From: 2010.06.25/outbox.cif.g09.slc.cpg/sg12_140_cif.got.tgz:279130.got - 2010.06.28 00:19:55.
