data_PCOD8108885
_publ_section_title
;
Structure prediction by ZEFSAII (Michael W. Deem and Ramdas Pophale) SiO2 
 PCOD8108885
Probable space group: C 2/M
;
_chemical_formula_sum "Si O2"
_cell_formula_units_Z 40
_cell_length_a 14.194271
_cell_length_b 22.399020
_cell_length_c 6.364208
_cell_angle_alpha 90.000000
_cell_angle_beta 73.506956
_cell_angle_gamma 90.000000
_cell_volume 1940.166735
_symmetry_space_group_name_H-M "C 2/M"
_symmetry_group_IT_number 12
_symmetry_cell_setting 'monoclinic'
loop_
_space_group_symop_operation_xyz
x,y,z
-x,y,-z
-x,-y,-z
x,-y,z
1/2+x,1/2+y,z
1/2-x,1/2+y,-z
1/2-x,1/2-y,-z
1/2+x,1/2-y,z
loop_
_atom_site_type_symbol
_atom_site_label
_atom_site_fract_x
_atom_site_fract_y
_atom_site_fract_z
Si Si1 0.098976 0.655432 0.329820
Si Si2 0.108784 0.111453 0.920592
Si Si3 0.729510 0.640463 0.461697
Si Si4 0.709527 0.067523 0.959227
Si Si5 0.347751 0.276268 0.841857
O O1 0.185772 0.665733 0.441577
O O2 0.078082 0.720790 0.242241
O O3 0.000000 0.631186 0.500000
O O4 0.131137 0.608325 0.131864
O O5 0.142239 0.112986 0.657280
O O6 0.183600 0.069894 0.001043
O O7 0.104321 0.177489 0.026254
O O8 0.000000 0.083303 0.000000
O O9 0.779405 0.589728 0.286240
O O10 0.680371 0.692540 0.358546
O O11 0.670195 0.000000 0.984251
O O12 0.250000 0.250000 0.000000
#
# Coordination Sequence:
#
# PCOD8108885 Si02
#       5
#     8   8   8   8   8
#     4  11  24  38  61  93 122 157 203 244 300 358
#     4  10  23  38  61  94 123 154 197 248 305 364
#     4  10  21  39  59  84 124 160 197 244 304 352
#     4  10  23  44  62  83 119 161 210 253 296 348
#     4  11  20  37  58  89 126 160 191 242 298 368
#
# _framework density 20.616785
#
# number of rings (size 3 to 8) (size 9 to 14) (size 15 to 20)
#    0.000    1.600    6.000    0.600    2.800    7.200 
#    0.000    2.000    0.000    0.000    0.000    0.000 
#    0.000    0.000    0.000    0.000    0.000    0.000 
#
# Total GULP energy -248014.673467 kJ/mol
# GULP energy per Si atom -12400.733673 kJ/mol
# Density = 2.056986 g / cm^3
# Si number density = 20.616785 Si / 1000 Ang^3
#
#
#
# Elastic Constant Matrix: (Units=GPa)
#
#
# Indices 1 2 3 4 5 6 
#
# 1 46.7655 -4.2639 26.8995 0.0000 -26.7898 0.0000
# 2 -4.2639 129.7175 42.2677 0.0000 -1.8726 0.0000
# 3 26.8995 42.2677 146.4231 0.0000 -13.7301 0.0000
# 4 0.0000 0.0000 0.0000 13.8152 0.0000 0.3472
# 5 -26.7898 -1.8726 -13.7301 0.0000 34.6858 0.0000
# 6 0.0000 0.0000 0.0000 0.3472 0.0000 15.0993
#
#
#
# Elastic Compliance Matrix: (Units=1/GPa)
#
#
# Indices 1 2 3 4 5 6 
#
# 1 0.043011 0.003851 -0.006105 0.000000 0.031011 0.000000
# 2 0.003851 0.008864 -0.003056 0.000000 0.002243 0.000000
# 3 -0.006105 -0.003056 0.008698 0.000000 -0.001437 0.000000
# 4 0.000000 0.000000 0.000000 0.072426 0.000000 -0.001665
# 5 0.031011 0.002243 -0.001437 0.000000 0.052334 0.000000
# 6 0.000000 0.000000 0.000000 -0.001665 0.000000 0.066266
#
#
# Mechanical properties :
#
#
# Convention : Reuss Voigt Hill
#
# Bulk Modulus (GPa) = 20.01898 50.30139 35.16019
# Shear Modulus (GPa) = 17.92946 29.92024 23.92485
#
# Velocity S-wave (km/s) = 2.95219 3.81367 3.41024
# Velocity P-wave (km/s) = 4.62079 6.62143 5.70942
#
# Compressibility (1/GPa) = 0.04995260
#
# Stress axis : x y z
#
# Youngs Moduli (GPa) = 23.24996 112.81930 114.96276
#
# Poissons Ratio (x) = -0.43445 0.70188
# Poissons Ratio (y) = -0.08953 0.35130
# Poissons Ratio (z) = 0.14195 0.34475
#
# Static dielectric constant tensor:
#      x y z
#    x 3.385450 0.000000 -0.181410 
#    y 0.000000 3.875670 0.000000 
#    z -0.181410 0.000000 3.798180 
# 
# 
# High freq. dielectric constant tensor:
#      x y z
#    x 1.786040 0.000000 -0.004010 
#    y 0.000000 1.792360 0.000000 
#    z -0.004010 0.000000 1.825860 
# 
# From -- ./inp_files/11399.got.cif
#   From: 2010.06.25/outbox.cif.g09.slc.cpg/sg12_6_cif.got.tgz:11399.got - 2010.06.28 00:19:55.
