data_PCOD8108127
_publ_section_title
;
Structure prediction by ZEFSAII (Michael W. Deem and Ramdas Pophale) SiO2 
 PCOD8108127
Probable space group: C 2/M
;
_chemical_formula_sum "Si O2"
_cell_formula_units_Z 44
_cell_length_a 8.830704
_cell_length_b 24.584473
_cell_length_c 9.453239
_cell_angle_alpha 90.000000
_cell_angle_beta 65.318837
_cell_angle_gamma 90.000000
_cell_volume 1864.796105
_symmetry_space_group_name_H-M "C 2/M"
_symmetry_group_IT_number 12
_symmetry_cell_setting 'monoclinic'
loop_
_space_group_symop_operation_xyz
x,y,z
-x,y,-z
-x,-y,-z
x,-y,z
1/2+x,1/2+y,z
1/2-x,1/2+y,-z
1/2-x,1/2-y,-z
1/2+x,1/2-y,z
loop_
_atom_site_type_symbol
_atom_site_label
_atom_site_fract_x
_atom_site_fract_y
_atom_site_fract_z
Si Si1 0.674600 0.835665 0.729127
Si Si2 0.664936 0.709727 0.754148
Si Si3 0.500000 0.394995 0.500000
Si Si4 0.387834 0.880858 0.662395
Si Si5 0.340591 0.341999 0.934970
Si Si6 0.052748 0.938014 0.787403
O O1 0.677422 0.771215 0.703057
O O2 0.833516 0.859546 0.585576
O O3 0.502251 0.864518 0.751215
O O4 0.679857 0.844478 0.897245
O O5 0.807521 0.673964 0.620564
O O6 0.480444 0.689610 0.785076
O O7 0.693423 0.692084 0.909531
O O8 0.530982 0.431799 0.626534
O O9 0.500000 0.909932 0.500000
O O10 0.238499 0.920292 0.766876
O O11 0.415481 0.402757 0.927898
O O12 0.023622 0.000000 0.841871
#
# Coordination Sequence:
#
# PCOD8108127 Si02
#       6
#     8   8   4   8   8   8
#     4  11  21  36  60  89 131 168 194 255 303 372
#     4  10  21  38  60  85 125 165 201 248 306 366
#     4  10  21  38  60  98 122 164 213 246 300 390
#     4  11  23  38  55  94 130 158 210 251 307 372
#     4   9  21  40  59  93 119 159 222 242 298 378
#     4  10  21  42  66  88 122 164 208 266 311 351
#
# _framework density 23.595072999999999
#
# number of rings (size 3 to 8) (size 9 to 14) (size 15 to 20)
#    0.000    1.818    1.818    1.909    1.273    3.273 
#    0.000   10.909    0.000    0.000    0.000   14.000 
#    0.000    0.000    0.000    0.000    0.000    0.000 
#
# Total GULP energy -272582.901562 kJ/mol
# GULP energy per Si atom -12390.131889 kJ/mol
# Density = 2.354137 g / cm^3
# Si number density = 23.595073 Si / 1000 Ang^3
#
#
#
# Elastic Constant Matrix: (Units=GPa)
#
#
# Indices 1 2 3 4 5 6 
#
# 1 122.9050 22.6635 9.6768 0.0000 14.5653 0.0000
# 2 22.6635 132.5865 -5.1932 0.0000 -5.8258 0.0000
# 3 9.6768 -5.1932 61.8637 0.0000 2.6816 0.0000
# 4 0.0000 0.0000 0.0000 -112.6790 0.0000 16.7843
# 5 14.5653 -5.8258 2.6816 0.0000 36.5453 0.0000
# 6 0.0000 0.0000 0.0000 16.7843 0.0000 10.8870
#
#
#
# Elastic Compliance Matrix: (Units=1/GPa)
#
#
# Indices 1 2 3 4 5 6 
#
# 1 0.009018 -0.001762 -0.001395 0.000000 -0.003773 0.000000
# 2 -0.001762 0.007961 0.000861 0.000000 0.001908 0.000000
# 3 -0.001395 0.000861 0.016477 0.000000 -0.000516 0.000000
# 4 0.000000 0.000000 0.000000 -0.007217 0.000000 0.011127
# 5 -0.003773 0.001908 -0.000516 0.000000 0.029209 0.000000
# 6 0.000000 0.000000 0.000000 0.011127 0.000000 0.074699
#
#
# Mechanical properties :
#
#
# Convention : Reuss Voigt Hill
#
# Bulk Modulus (GPa) = 34.64390 41.29439 37.96914
# Shear Modulus (GPa) = 34.63560 6.29786 20.46673
#
# Velocity S-wave (km/s) = 3.83550 1.63552 2.94839
# Velocity P-wave (km/s) = 5.85912 4.59411 5.26475
#
# Compressibility (1/GPa) = 0.02886511
#
# Stress axis : x y z
#
# Youngs Moduli (GPa) = 110.88691 125.61246 60.68907
#
# Poissons Ratio (x) = 0.22132 0.08466
# Poissons Ratio (y) = 0.19537 -0.05226
# Poissons Ratio (z) = 0.15469 -0.10817
#
# Static dielectric constant tensor:
#      x y z
#    x 4.652530 0.000000 0.055970 
#    y 0.000000 3.873690 0.000000 
#    z 0.055970 0.000000 4.269430 
# 
# 
# High freq. dielectric constant tensor:
#      x y z
#    x 1.953900 0.000000 0.006850 
#    y 0.000000 1.897750 0.000000 
#    z 0.006850 0.000000 1.944530 
# 
# From -- ./inp_files/121768.got.cif
#   From: 2010.06.25/outbox.cif.g09.slc.cpg/sg12_61_cif.got.tgz:121768.got - 2010.06.28 00:19:55.
