data_PCOD8108511
_publ_section_title
;
Structure prediction by ZEFSAII (Michael W. Deem and Ramdas Pophale) SiO2 
 PCOD8108511
Probable space group: C 2/M
;
_chemical_formula_sum "Si O2"
_cell_formula_units_Z 48
_cell_length_a 20.547646
_cell_length_b 15.437703
_cell_length_c 18.103071
_cell_angle_alpha 90.000000
_cell_angle_beta 25.332995
_cell_angle_gamma 90.000000
_cell_volume 2457.069282
_symmetry_space_group_name_H-M "C 2/M"
_symmetry_group_IT_number 12
_symmetry_cell_setting 'monoclinic'
loop_
_space_group_symop_operation_xyz
x,y,z
-x,y,-z
-x,-y,-z
x,-y,z
1/2+x,1/2+y,z
1/2-x,1/2+y,-z
1/2-x,1/2-y,-z
1/2+x,1/2-y,z
loop_
_atom_site_type_symbol
_atom_site_label
_atom_site_fract_x
_atom_site_fract_y
_atom_site_fract_z
Si Si1 0.600288 0.595670 0.061520
Si Si2 0.931574 0.742436 0.990665
Si Si3 0.555210 0.900973 0.283021
Si Si4 0.580999 0.268647 0.341718
Si Si5 0.560300 0.402286 0.625117
Si Si6 0.144494 0.325584 0.642512
O O1 0.569173 0.500000 0.063715
O O2 0.570223 0.654556 0.020962
O O3 0.486174 0.620998 0.243638
O O4 0.769462 0.604881 0.922107
O O5 0.027561 0.701908 0.825794
O O6 0.758809 0.710091 0.165948
O O7 0.000000 0.719864 0.000000
O O8 0.536828 0.831184 0.368082
O O9 0.448036 0.874418 0.325884
O O10 0.515934 0.000000 0.349180
O O11 0.500000 0.293900 0.500000
O O12 0.520846 0.332513 0.341638
O O13 0.511594 0.500000 0.653168
O O14 0.742448 0.393668 0.434216
O O15 0.250000 0.250000 0.500000
#
# Coordination Sequence:
#
# PCOD8108511 Si02
#       6
#     8   8   8   8   8   8
#     4   9  19  37  59  87 119 156 200 247 295 353
#     4  11  23  38  60  87 122 161 198 246 305 356
#     4  10  21  38  62  89 120 157 202 247 296 352
#     4  11  23  40  62  87 123 162 201 247 302 357
#     4  11  22  38  62  89 118 157 205 250 296 354
#     4  12  21  37  62  89 121 156 199 247 295 353
#
# _framework density 19.53547
#
# number of rings (size 3 to 8) (size 9 to 14) (size 15 to 20)
#    0.000    1.333    3.333    2.500    0.000    3.667 
#    0.000    0.833    0.000    3.500    0.000    0.000 
#    0.000    0.000    0.000    0.000    0.000    0.000 
#
# Total GULP energy -297510.022876 kJ/mol
# GULP energy per Si atom -12396.250953 kJ/mol
# Density = 1.949101 g / cm^3
# Si number density = 19.535470 Si / 1000 Ang^3
#
#
#
# Elastic Constant Matrix: (Units=GPa)
#
#
# Indices 1 2 3 4 5 6 
#
# 1 73.2738 20.7640 15.7387 -0.0007 -22.6806 0.0011
# 2 20.7640 73.6949 21.1544 -0.0008 -0.6422 0.0009
# 3 15.7387 21.1544 104.6006 -0.0006 -9.1229 0.0015
# 4 -0.0007 -0.0008 -0.0006 22.1141 -0.0008 -7.2952
# 5 -22.6806 -0.6422 -9.1229 -0.0008 25.7245 0.0002
# 6 0.0011 0.0009 0.0015 -7.2952 0.0002 20.7595
#
#
#
# Elastic Compliance Matrix: (Units=1/GPa)
#
#
# Indices 1 2 3 4 5 6 
#
# 1 0.020964 -0.005625 -0.000430 0.000001 0.018191 -0.000001
# 2 -0.005625 0.015927 -0.002861 0.000000 -0.005576 0.000000
# 3 -0.000430 -0.002861 0.010489 0.000000 0.003269 -0.000001
# 4 0.000001 0.000000 0.000000 0.051150 0.000002 0.017975
# 5 0.018191 -0.005576 0.003269 0.000002 0.055932 -0.000001
# 6 -0.000001 0.000000 -0.000001 0.017975 -0.000001 0.054487
#
#
# Mechanical properties :
#
#
# Convention : Reuss Voigt Hill
#
# Bulk Modulus (GPa) = 33.84365 40.76483 37.30424
# Shear Modulus (GPa) = 21.12998 26.64709 23.88854
#
# Velocity S-wave (km/s) = 3.29237 3.69729 3.50069
# Velocity P-wave (km/s) = 5.64046 6.25612 5.95625
#
# Compressibility (1/GPa) = 0.02954764
#
# Stress axis : x y z
#
# Youngs Moduli (GPa) = 47.69983 62.78653 95.34115
#
# Poissons Ratio (x) = 0.35316 0.04103
# Poissons Ratio (y) = 0.26830 0.27278
# Poissons Ratio (z) = 0.02053 0.17964
#
# Static dielectric constant tensor:
#      x y z
#    x 3.461090 0.000000 -0.203790 
#    y 0.000000 3.770590 0.000010 
#    z -0.203790 0.000010 3.793600 
# 
# 
# High freq. dielectric constant tensor:
#      x y z
#    x 1.753530 0.000000 -0.017620 
#    y 0.000000 1.765270 0.000000 
#    z -0.017620 0.000000 1.767600 
# 
# From -- ./inp_files/75423.got.cif
#   From: 2010.06.25/outbox.cif.g09.slc.cpg/sg12_38_cif.got.tgz:75423.got - 2010.06.28 00:19:55.
