data_PCOD8108103
_publ_section_title
;
Structure prediction by ZEFSAII (Michael W. Deem and Ramdas Pophale) SiO2 
 PCOD8108103
Probable space group: C 2/M
;
_chemical_formula_sum "Si O2"
_cell_formula_units_Z 40
_cell_length_a 27.083574
_cell_length_b 8.384511
_cell_length_c 13.546935
_cell_angle_alpha 90.000000
_cell_angle_beta 138.679185
_cell_angle_gamma 90.000000
_cell_volume 2031.184243
_symmetry_space_group_name_H-M "C 2/M"
_symmetry_group_IT_number 12
_symmetry_cell_setting 'monoclinic'
loop_
_space_group_symop_operation_xyz
x,y,z
-x,y,-z
-x,-y,-z
x,-y,z
1/2+x,1/2+y,z
1/2-x,1/2+y,-z
1/2-x,1/2-y,-z
1/2+x,1/2-y,z
loop_
_atom_site_type_symbol
_atom_site_label
_atom_site_fract_x
_atom_site_fract_y
_atom_site_fract_z
Si Si1 0.522396 0.814307 0.140821
Si Si2 0.473163 0.684412 0.265529
Si Si3 0.670440 0.188226 0.845416
Si Si4 0.824711 0.814046 0.564759
Si Si5 0.873549 0.685675 0.439291
O O1 0.475528 0.718456 0.152208
O O2 0.610020 0.786058 0.286074
O O3 0.503379 0.000000 0.123439
O O4 0.500000 0.749148 0.000000
O O5 0.488685 0.500000 0.308712
O O6 0.391934 0.731592 0.180752
O O7 0.537590 0.782146 0.419404
O O8 0.656636 0.240631 0.712021
O O9 0.665192 0.000000 0.849812
O O10 0.750000 0.250000 0.000000
O O11 0.750000 0.750000 0.500000
O O12 0.826892 0.784555 0.450350
O O13 0.834939 0.000000 0.601978
O O14 0.859065 0.500000 0.435841
#
# Coordination Sequence:
#
# PCOD8108103 Si02
#       5
#     8   8   8   8   8
#     4  10  21  38  60  85 114 149 189 233 280 331
#     4  11  22  37  60  86 114 150 189 230 277 335
#     4  11  24  40  59  84 115 149 186 234 285 333
#     4  11  22  37  59  85 115 150 188 232 280 333
#     4  10  21  39  61  84 112 148 190 233 279 332
#
# _framework density 19.692945999999999
#
# number of rings (size 3 to 8) (size 9 to 14) (size 15 to 20)
#    0.000    1.400    0.000    8.400    0.000    8.800 
#    0.000    0.000    0.000    0.000    0.000    0.000 
#    0.000    0.000    0.000    0.000    0.000    0.000 
#
# Total GULP energy -248100.095057 kJ/mol
# GULP energy per Si atom -12405.004753 kJ/mol
# Density = 1.964812 g / cm^3
# Si number density = 19.692946 Si / 1000 Ang^3
#
#
#
# Elastic Constant Matrix: (Units=GPa)
#
#
# Indices 1 2 3 4 5 6 
#
# 1 140.6644 23.2992 83.2349 0.0000 7.6122 0.0000
# 2 23.2992 62.9476 12.3693 0.0000 -6.5861 0.0000
# 3 83.2349 12.3693 119.2079 0.0000 -18.3803 0.0000
# 4 0.0000 0.0000 0.0000 29.7627 0.0000 3.8439
# 5 7.6122 -6.5861 -18.3803 0.0000 38.5472 0.0000
# 6 0.0000 0.0000 0.0000 3.8439 0.0000 35.4065
#
#
#
# Elastic Compliance Matrix: (Units=1/GPa)
#
#
# Indices 1 2 3 4 5 6 
#
# 1 0.015171 -0.004309 -0.011572 0.000000 -0.009250 0.000000
# 2 -0.004309 0.017604 0.001918 0.000000 0.004773 0.000000
# 3 -0.011572 0.001918 0.017995 0.000000 0.011194 0.000000
# 4 0.000000 0.000000 0.000000 0.034077 0.000000 -0.003700
# 5 -0.009250 0.004773 0.011194 0.000000 0.033922 0.000000
# 6 0.000000 0.000000 0.000000 -0.003700 0.000000 0.028645
#
#
# Mechanical properties :
#
#
# Convention : Reuss Voigt Hill
#
# Bulk Modulus (GPa) = 43.77464 62.29186 53.03325
# Shear Modulus (GPa) = 27.32925 34.33772 30.83348
#
# Velocity S-wave (km/s) = 3.72932 4.18024 3.96120
# Velocity P-wave (km/s) = 6.38910 7.41616 6.92171
#
# Compressibility (1/GPa) = 0.02284428
#
# Stress axis : x y z
#
# Youngs Moduli (GPa) = 65.91598 56.80625 55.56963
#
# Poissons Ratio (x) = 0.24479 0.64304
# Poissons Ratio (y) = 0.28404 -0.10659
# Poissons Ratio (z) = 0.76277 -0.10897
#
# Static dielectric constant tensor:
#      x y z
#    x 3.643680 0.000000 -0.114810 
#    y 0.000000 3.763340 0.000000 
#    z -0.114810 0.000000 3.575420 
# 
# 
# High freq. dielectric constant tensor:
#      x y z
#    x 1.778700 0.000000 -0.004660 
#    y 0.000000 1.781660 0.000000 
#    z -0.004660 0.000000 1.762810 
# 
# From -- ./inp_files/250235.got.cif
#   From: 2010.06.25/outbox.cif.g09.slc.cpg/sg12_126_cif.got.tgz:250235.got - 2010.06.28 00:19:55.
