data_PCOD8108047
_publ_section_title
;
Structure prediction by ZEFSAII (Michael W. Deem and Ramdas Pophale) SiO2 
 PCOD8108047
Probable space group: C 2/M
;
_chemical_formula_sum "Si O2"
_cell_formula_units_Z 56
_cell_length_a 19.983142
_cell_length_b 8.819482
_cell_length_c 19.473678
_cell_angle_alpha 90.000000
_cell_angle_beta 122.752183
_cell_angle_gamma 90.000000
_cell_volume 2886.425385
_symmetry_space_group_name_H-M "C 2/M"
_symmetry_group_IT_number 12
_symmetry_cell_setting 'monoclinic'
loop_
_space_group_symop_operation_xyz
x,y,z
-x,y,-z
-x,-y,-z
x,-y,z
1/2+x,1/2+y,z
1/2-x,1/2+y,-z
1/2-x,1/2-y,-z
1/2+x,1/2-y,z
loop_
_atom_site_type_symbol
_atom_site_label
_atom_site_fract_x
_atom_site_fract_y
_atom_site_fract_z
Si Si1 0.509897 0.677936 0.926895
Si Si2 0.666924 0.321931 0.936035
Si Si3 0.441615 0.679856 0.642272
Si Si4 0.082674 0.321333 0.512476
Si Si5 0.117079 0.178119 0.762477
Si Si6 0.889272 0.322983 0.752996
Si Si7 0.707555 0.675795 0.679851
O O1 0.492945 0.500000 0.908882
O O2 0.599874 0.718879 0.954892
O O3 0.448277 0.764779 0.844436
O O4 0.500000 0.731112 0.000000
O O5 0.679488 0.500000 0.937472
O O6 0.640474 0.250554 0.848515
O O7 0.750000 0.250000 0.000000
O O8 0.435732 0.500000 0.636223
O O9 0.400438 0.747343 0.552020
O O10 0.531853 0.742233 0.692068
O O11 0.399024 0.736444 0.687056
O O12 0.078974 0.500000 0.501457
O O13 0.157868 0.277457 0.600095
O O14 0.000000 0.260230 0.500000
O O15 0.182829 0.221999 0.743138
O O16 0.108299 0.000000 0.767231
O O17 0.904458 0.500000 0.749917
O O18 0.800148 0.288094 0.727357
O O19 0.688096 0.500000 0.653980
#
# Coordination Sequence:
#
# PCOD8108047 Si02
#       7
#     8   8   8   8   8   8   8
#     4  10  22  41  62  85 120 162 202 241 295 366
#     4  10  21  38  59  88 119 153 196 245 294 349
#     4  11  21  39  67  87 115 164 203 240 295 361
#     4  11  23  38  59  93 127 152 193 255 304 346
#     4   9  18  36  61  84 112 153 203 242 283 353
#     4  11  24  40  61  90 123 155 199 253 301 351
#     4  10  22  40  61  87 118 159 202 244 297 362
#
# _framework density 19.401160000000001
#
# number of rings (size 3 to 8) (size 9 to 14) (size 15 to 20)
#    0.000    1.714    2.857    1.286    2.000    3.143 
#    0.000    0.714    0.000    0.000    0.000    0.000 
#    0.000    0.000    0.000    0.000    0.000    0.000 
#
# Total GULP energy -347269.402657 kJ/mol
# GULP energy per Si atom -12402.478666 kJ/mol
# Density = 1.935700 g / cm^3
# Si number density = 19.401160 Si / 1000 Ang^3
#
#
#
# Elastic Constant Matrix: (Units=GPa)
#
#
# Indices 1 2 3 4 5 6 
#
# 1 140.1771 41.5930 57.0675 0.0000 -8.8320 0.0000
# 2 41.5930 62.3232 38.5704 0.0000 -1.7134 0.0000
# 3 57.0675 38.5704 117.8136 0.0000 -12.2749 0.0000
# 4 0.0000 0.0000 0.0000 34.8715 0.0000 2.6015
# 5 -8.8320 -1.7134 -12.2749 0.0000 41.6843 0.0000
# 6 0.0000 0.0000 0.0000 2.6015 0.0000 25.8163
#
#
#
# Elastic Compliance Matrix: (Units=1/GPa)
#
#
# Indices 1 2 3 4 5 6 
#
# 1 0.009844 -0.004583 -0.003167 0.000000 0.000965 0.000000
# 2 -0.004583 0.022309 -0.005251 0.000000 -0.001600 0.000000
# 3 -0.003167 -0.005251 0.012018 0.000000 0.002652 0.000000
# 4 0.000000 0.000000 0.000000 0.028894 0.000000 -0.002912
# 5 0.000965 -0.001600 0.002652 0.000000 0.024909 0.000000
# 6 0.000000 0.000000 0.000000 -0.002912 0.000000 0.039029
#
#
# Mechanical properties :
#
#
# Convention : Reuss Voigt Hill
#
# Bulk Modulus (GPa) = 55.03859 66.08619 60.56239
# Shear Modulus (GPa) = 29.57517 32.67995 31.12756
#
# Velocity S-wave (km/s) = 3.90860 4.10864 4.00986
# Velocity P-wave (km/s) = 6.98568 7.52628 7.26101
#
# Compressibility (1/GPa) = 0.01816907
#
# Stress axis : x y z
#
# Youngs Moduli (GPa) = 101.58577 44.82431 83.21184
#
# Poissons Ratio (x) = 0.20542 0.26357
# Poissons Ratio (y) = 0.46555 0.43691
# Poissons Ratio (z) = 0.32177 0.23535
#
# Static dielectric constant tensor:
#      x y z
#    x 3.770500 0.000000 -0.202260 
#    y 0.000000 3.375060 0.000000 
#    z -0.202260 0.000000 3.804840 
# 
# 
# High freq. dielectric constant tensor:
#      x y z
#    x 1.766900 0.000000 -0.006670 
#    y 0.000000 1.740810 0.000000 
#    z -0.006670 0.000000 1.764810 
# 
# From -- ./inp_files/320262.got.cif
#   From: 2010.06.25/outbox.cif.g09.slc.cpg/sg12_161_cif.got.tgz:320262.got - 2010.06.28 00:19:55.
