data_PCOD8108781
_publ_section_title
;
Structure prediction by ZEFSAII (Michael W. Deem and Ramdas Pophale) SiO2 
 PCOD8108781
Probable space group: C 2/M
;
_chemical_formula_sum "Si O2"
_cell_formula_units_Z 64
_cell_length_a 19.131202
_cell_length_b 13.936348
_cell_length_c 28.171325
_cell_angle_alpha 90.000000
_cell_angle_beta 22.893349
_cell_angle_gamma 90.000000
_cell_volume 2921.911854
_symmetry_space_group_name_H-M "C 2/M"
_symmetry_group_IT_number 12
_symmetry_cell_setting 'monoclinic'
loop_
_space_group_symop_operation_xyz
x,y,z
-x,y,-z
-x,-y,-z
x,-y,z
1/2+x,1/2+y,z
1/2-x,1/2+y,-z
1/2-x,1/2-y,-z
1/2+x,1/2-y,z
loop_
_atom_site_type_symbol
_atom_site_label
_atom_site_fract_x
_atom_site_fract_y
_atom_site_fract_z
Si Si1 0.372085 0.113789 0.971614
Si Si2 0.718936 0.214469 0.779281
Si Si3 0.973989 0.892326 0.071890
Si Si4 0.656859 0.113359 0.118019
Si Si5 0.707931 0.111335 0.609567
Si Si6 0.537745 0.610861 0.632530
Si Si7 0.193251 0.739912 0.379529
Si Si8 0.980872 0.887317 0.247986
O O1 0.182111 0.150357 0.111626
O O2 0.384456 0.000000 0.967190
O O3 0.532447 0.156728 0.903081
O O4 0.388990 0.149016 0.906336
O O5 0.693799 0.325599 0.809783
O O6 0.872577 0.171187 0.715997
O O7 0.771172 0.207898 0.692092
O O8 0.933848 0.000000 0.115836
O O9 0.000000 0.894549 0.000000
O O10 0.151413 0.845553 0.985257
O O11 0.499028 0.145941 0.253244
O O12 0.675458 0.000000 0.108094
O O13 0.828710 0.174380 0.568827
O O14 0.777414 0.129247 0.512377
O O15 0.728595 0.000000 0.610895
O O16 0.480041 0.500000 0.665472
O O17 0.575881 0.640145 0.662945
O O18 0.346524 0.663450 0.295712
O O19 0.000000 0.686345 0.500000
O O20 0.967796 0.000000 0.246414
#
# Coordination Sequence:
#
# PCOD8108781 Si02
#       8
#     8   8   8   8   8   8   8   8
#     4  10  21  38  65  98 128 163 204 261 327 390
#     4  12  24  38  65 102 128 167 213 267 326 383
#     4  10  24  43  60  87 129 171 216 265 321 382
#     4   9  18  36  62  91 120 161 213 260 313 378
#     4  10  21  39  66  95 128 168 211 268 330 383
#     4  10  23  44  67  96 134 173 213 266 329 394
#     4  12  25  42  63  98 129 167 224 270 320 387
#     4  10  25  46  66  89 129 176 217 266 326 387
#
# _framework density 21.903466999999999
#
# number of rings (size 3 to 8) (size 9 to 14) (size 15 to 20)
#    0.000    1.625    2.500    1.125    3.500    4.000 
#    2.250    1.875    0.000    0.000    0.000    0.000 
#    0.000    0.000    0.000    0.000    0.000    0.000 
#
# Total GULP energy -396865.242837 kJ/mol
# GULP energy per Si atom -12402.038839 kJ/mol
# Density = 2.185361 g / cm^3
# Si number density = 21.903467 Si / 1000 Ang^3
#
#
#
# Elastic Constant Matrix: (Units=GPa)
#
#
# Indices 1 2 3 4 5 6 
#
# 1 39.4416 10.4722 5.3937 0.1047 -1.9990 -0.0191
# 2 10.4722 43.4300 28.4157 0.0601 -3.6006 -0.0137
# 3 5.3937 28.4157 111.4354 0.0614 5.8532 -0.0464
# 4 0.1047 0.0601 0.0614 27.6809 -0.1007 -5.2574
# 5 -1.9990 -3.6006 5.8532 -0.1007 32.6619 0.0079
# 6 -0.0191 -0.0137 -0.0464 -5.2574 0.0079 25.1307
#
#
#
# Elastic Compliance Matrix: (Units=1/GPa)
#
#
# Indices 1 2 3 4 5 6 
#
# 1 0.027129 -0.006699 0.000350 -0.000086 0.000859 -0.000001
# 2 -0.006699 0.029917 -0.007527 -0.000009 0.004237 -0.000006
# 3 0.000350 -0.007527 0.011022 -0.000017 -0.002784 0.000014
# 4 -0.000086 -0.000009 -0.000017 0.037622 0.000111 0.007870
# 5 0.000859 0.004237 -0.002784 0.000111 0.031636 0.000011
# 6 -0.000001 -0.000006 0.000014 0.007870 0.000011 0.041438
#
#
# Mechanical properties :
#
#
# Convention : Reuss Voigt Hill
#
# Bulk Modulus (GPa) = 24.80416 31.43002 28.11709
# Shear Modulus (GPa) = 22.73198 27.09640 24.91419
#
# Velocity S-wave (km/s) = 3.22503 3.52103 3.37628
# Velocity P-wave (km/s) = 5.02161 5.55974 5.29752
#
# Compressibility (1/GPa) = 0.04031581
#
# Stress axis : x y z
#
# Youngs Moduli (GPa) = 36.86154 33.42579 90.72388
#
# Poissons Ratio (x) = 0.22393 -0.03177
# Poissons Ratio (y) = 0.24694 0.68288
# Poissons Ratio (z) = -0.01291 0.25160
#
# Static dielectric constant tensor:
#      x y z
#    x 3.853000 0.000000 0.045640 
#    y 0.000000 3.912650 0.000210 
#    z 0.045640 0.000210 4.132660 
# 
# 
# High freq. dielectric constant tensor:
#      x y z
#    x 1.850500 0.000000 0.004970 
#    y 0.000000 1.866130 0.000020 
#    z 0.004970 0.000020 1.868440 
# 
# From -- ./inp_files/381477.got.cif
#   From: 2010.06.25/outbox.cif.g09.slc.cpg/sg12_191_cif.got.tgz:381477.got - 2010.06.28 00:19:55.
