data_PCOD8109518
_publ_section_title
;
Structure prediction by ZEFSAII (Michael W. Deem and Ramdas Pophale) SiO2 
 PCOD8109518
Probable space group: C 2/M
;
_chemical_formula_sum "Si O2"
_cell_formula_units_Z 56
_cell_length_a 23.266202
_cell_length_b 15.120941
_cell_length_c 9.622531
_cell_angle_alpha 90.000000
_cell_angle_beta 61.900605
_cell_angle_gamma 90.000000
_cell_volume 2986.256650
_symmetry_space_group_name_H-M "C 2/M"
_symmetry_group_IT_number 12
_symmetry_cell_setting 'monoclinic'
loop_
_space_group_symop_operation_xyz
x,y,z
-x,y,-z
-x,-y,-z
x,-y,z
1/2+x,1/2+y,z
1/2-x,1/2+y,-z
1/2-x,1/2-y,-z
1/2+x,1/2-y,z
loop_
_atom_site_type_symbol
_atom_site_label
_atom_site_fract_x
_atom_site_fract_y
_atom_site_fract_z
Si Si1 0.884330 0.179739 0.376778
Si Si2 0.514109 0.772706 0.325197
Si Si3 0.565335 0.500000 0.100590
Si Si4 0.073977 0.000000 0.772648
Si Si5 0.207298 0.892866 0.289903
Si Si6 0.049529 0.595931 0.065852
Si Si7 0.664979 0.211706 0.822723
Si Si8 0.858718 0.171050 0.899559
O O1 0.844832 0.163310 0.562662
O O2 0.848063 0.248152 0.315294
O O3 0.958165 0.209079 0.326363
O O4 0.883285 0.085954 0.302509
O O5 0.500000 0.795499 0.500000
O O6 0.512748 0.864039 0.241425
O O7 0.586772 0.733538 0.231209
O O8 0.491808 0.500000 0.248112
O O9 0.603573 0.584809 0.101005
O O10 0.553672 0.500000 0.952720
O O11 0.278197 0.860486 0.256926
O O12 0.196798 0.859818 0.144605
O O13 0.200524 0.000000 0.312877
O O14 0.079341 0.500000 0.073650
O O15 0.102113 0.662955 0.949597
O O16 0.000000 0.580725 0.000000
O O17 0.678467 0.286829 0.924615
#
# Coordination Sequence:
#
# PCOD8109518 Si02
#       8
#     8   8   4   4   8   8   8   8
#     4  12  22  39  60  91 122 159 196 243 299 359
#     4  11  22  37  61  92 125 153 191 246 309 355
#     4  11  20  33  59  95 125 151 189 246 301 358
#     4  11  22  33  61  95 129 151 189 244 303 358
#     4  12  25  40  60  85 122 165 197 245 297 349
#     4  10  21  39  65  89 111 151 204 254 292 339
#     4  11  24  41  61  85 120 157 211 240 292 352
#     4  11  22  37  62  88 121 158 197 244 296 360
#
# _framework density 18.752573999999999
#
# number of rings (size 3 to 8) (size 9 to 14) (size 15 to 20)
#    0.000    0.857    7.143    1.286    0.000    0.286 
#    0.000    2.143    0.000    0.000    0.000    0.000 
#    0.000    0.000    0.000    0.000    0.000    0.000 
#
# Total GULP energy -347066.304710 kJ/mol
# GULP energy per Si atom -12395.225168 kJ/mol
# Density = 1.870989 g / cm^3
# Si number density = 18.752574 Si / 1000 Ang^3
#
#
#
# Elastic Constant Matrix: (Units=GPa)
#
#
# Indices 1 2 3 4 5 6 
#
# 1 72.4602 18.2024 6.0670 0.0000 10.1466 0.0000
# 2 18.2024 100.7668 22.3267 0.0000 14.4820 0.0000
# 3 6.0670 22.3267 57.1849 0.0000 13.7323 0.0000
# 4 0.0000 0.0000 0.0000 34.3216 0.0000 1.1715
# 5 10.1466 14.4820 13.7323 0.0000 28.5005 0.0000
# 6 0.0000 0.0000 0.0000 1.1715 0.0000 38.3118
#
#
#
# Elastic Compliance Matrix: (Units=1/GPa)
#
#
# Indices 1 2 3 4 5 6 
#
# 1 0.014924 -0.002134 0.000300 0.000000 -0.004373 0.000000
# 2 -0.002134 0.011573 -0.003463 0.000000 -0.003452 0.000000
# 3 0.000300 -0.003463 0.020819 0.000000 -0.008378 0.000000
# 4 0.000000 0.000000 0.000000 0.029167 0.000000 -0.000892
# 5 -0.004373 -0.003452 -0.008378 0.000000 0.042435 0.000000
# 6 0.000000 0.000000 0.000000 -0.000892 0.000000 0.026129
#
#
# Mechanical properties :
#
#
# Convention : Reuss Voigt Hill
#
# Bulk Modulus (GPa) = 27.23119 35.95601 31.59360
# Shear Modulus (GPa) = 29.78295 32.48116 31.13205
#
# Velocity S-wave (km/s) = 3.98955 4.16635 4.07891
# Velocity P-wave (km/s) = 5.98121 6.50847 6.25040
#
# Compressibility (1/GPa) = 0.03672259
#
# Stress axis : x y z
#
# Youngs Moduli (GPa) = 67.00617 86.40963 48.03225
#
# Poissons Ratio (x) = 0.18438 -0.01441
# Poissons Ratio (y) = 0.14298 0.16633
# Poissons Ratio (z) = -0.02010 0.29923
#
# Static dielectric constant tensor:
#      x y z
#    x 3.501210 0.000000 0.175180 
#    y 0.000000 3.468470 0.000000 
#    z 0.175180 0.000000 3.568670 
# 
# 
# High freq. dielectric constant tensor:
#      x y z
#    x 1.725260 0.000000 0.006230 
#    y 0.000000 1.735520 0.000000 
#    z 0.006230 0.000000 1.727730 
# 
# From -- ./inp_files/96801.got.cif
#   From: 2010.06.25/outbox.cif.g09.slc.cpg/sg12_49_cif.got.tgz:96801.got - 2010.06.28 00:19:55.
