data_PCOD8109101
_publ_section_title
;
Structure prediction by ZEFSAII (Michael W. Deem and Ramdas Pophale) SiO2 
 PCOD8109101
Probable space group: C 2/M
;
_chemical_formula_sum "Si O2"
_cell_formula_units_Z 40
_cell_length_a 27.131514
_cell_length_b 8.741907
_cell_length_c 8.908377
_cell_angle_alpha 90.000000
_cell_angle_beta 70.942893
_cell_angle_gamma 90.000000
_cell_volume 1997.098917
_symmetry_space_group_name_H-M "C 2/M"
_symmetry_group_IT_number 12
_symmetry_cell_setting 'monoclinic'
loop_
_space_group_symop_operation_xyz
x,y,z
-x,y,-z
-x,-y,-z
x,-y,z
1/2+x,1/2+y,z
1/2-x,1/2+y,-z
1/2-x,1/2-y,-z
1/2+x,1/2-y,z
loop_
_atom_site_type_symbol
_atom_site_label
_atom_site_fract_x
_atom_site_fract_y
_atom_site_fract_z
Si Si1 0.101853 0.677804 0.569244
Si Si2 0.799504 0.819434 0.031337
Si Si3 0.994177 0.175888 0.178754
Si Si4 0.700174 0.319485 0.628899
Si Si5 0.900583 0.177380 0.747760
O O1 0.114792 0.500000 0.572166
O O2 0.048572 0.714660 0.707170
O O3 0.148488 0.773876 0.592929
O O4 0.095339 0.719429 0.402449
O O5 0.802894 0.757495 0.197859
O O6 0.794005 0.000000 0.036066
O O7 0.750000 0.750000 0.000000
O O8 0.851184 0.767216 0.892927
O O9 0.048869 0.206872 0.203022
O O10 0.976389 0.000000 0.216315
O O11 0.000000 0.219181 0.000000
O O12 0.705574 0.500000 0.620695
O O13 0.750000 0.250000 0.500000
O O14 0.895780 0.000000 0.705823
#
# Coordination Sequence:
#
# PCOD8109101 Si02
#       5
#     8   8   8   8   8
#     4  12  25  39  58  88 123 158 196 241 294 351
#     4  10  22  39  61  88 117 151 193 241 291 348
#     4  10  21  40  65  89 115 153 200 247 297 353
#     4  11  23  41  63  89 120 155 198 244 293 350
#     4  10  21  39  62  86 115 155 199 243 294 350
#
# _framework density 20.029050999999999
#
# number of rings (size 3 to 8) (size 9 to 14) (size 15 to 20)
#    0.000    1.400    0.000    5.400    0.000   12.400 
#    0.000    2.000    0.000    0.000    0.000    0.000 
#    0.000    0.000    0.000    0.000    0.000    0.000 
#
# Total GULP energy -248128.449423 kJ/mol
# GULP energy per Si atom -12406.422471 kJ/mol
# Density = 1.998346 g / cm^3
# Si number density = 20.029051 Si / 1000 Ang^3
#
#
#
# Elastic Constant Matrix: (Units=GPa)
#
#
# Indices 1 2 3 4 5 6 
#
# 1 133.5293 27.1847 66.2890 0.0000 -6.6597 0.0000
# 2 27.1847 54.7400 42.1540 0.0000 -2.6282 0.0000
# 3 66.2890 42.1540 165.7429 0.0000 1.3779 0.0000
# 4 0.0000 0.0000 0.0000 17.3203 0.0000 0.5247
# 5 -6.6597 -2.6282 1.3779 0.0000 43.3157 0.0000
# 6 0.0000 0.0000 0.0000 0.5247 0.0000 34.7231
#
#
#
# Elastic Compliance Matrix: (Units=1/GPa)
#
#
# Indices 1 2 3 4 5 6 
#
# 1 0.009651 -0.002165 -0.003322 0.000000 0.001458 0.000000
# 2 -0.002165 0.023310 -0.005073 0.000000 0.001243 0.000000
# 3 -0.003322 -0.005073 0.008661 0.000000 -0.001094 0.000000
# 4 0.000000 0.000000 0.000000 0.057762 0.000000 -0.000873
# 5 0.001458 0.001243 -0.001094 0.000000 0.023421 0.000000
# 6 0.000000 0.000000 0.000000 -0.000873 0.000000 0.028812
#
#
# Mechanical properties :
#
#
# Convention : Reuss Voigt Hill
#
# Bulk Modulus (GPa) = 48.77300 69.47417 59.12359
# Shear Modulus (GPa) = 27.84414 33.63078 30.73746
#
# Velocity S-wave (km/s) = 3.73257 4.10213 3.92170
# Velocity P-wave (km/s) = 6.55592 7.56298 7.07738
#
# Compressibility (1/GPa) = 0.02050315
#
# Stress axis : x y z
#
# Youngs Moduli (GPa) = 103.61122 42.90087 115.45786
#
# Poissons Ratio (x) = 0.09289 0.38350
# Poissons Ratio (y) = 0.22434 0.58569
# Poissons Ratio (z) = 0.34415 0.21763
#
# Static dielectric constant tensor:
#      x y z
#    x 3.803600 0.000000 0.049690 
#    y 0.000000 3.540460 0.000000 
#    z 0.049690 0.000000 3.949250 
# 
# 
# High freq. dielectric constant tensor:
#      x y z
#    x 1.801130 0.000000 0.000470 
#    y 0.000000 1.771930 0.000000 
#    z 0.000470 0.000000 1.802830 
# 
# From -- ./inp_files/92715.got.cif
#   From: 2010.06.25/outbox.cif.g09.slc.cpg/sg12_47_cif.got.tgz:92715.got - 2010.06.28 00:19:55.
