data_PCOD8109761
_publ_section_title
;
Structure prediction by ZEFSAII (Michael W. Deem and Ramdas Pophale) SiO2 
 PCOD8109761
Probable space group: C 2/M
;
_chemical_formula_sum "Si O2"
_cell_formula_units_Z 40
_cell_length_a 27.191156
_cell_length_b 16.847575
_cell_length_c 9.202933
_cell_angle_alpha 90.000000
_cell_angle_beta 153.517680
_cell_angle_gamma 90.000000
_cell_volume 1879.965489
_symmetry_space_group_name_H-M "C 2/M"
_symmetry_group_IT_number 12
_symmetry_cell_setting 'monoclinic'
loop_
_space_group_symop_operation_xyz
x,y,z
-x,y,-z
-x,-y,-z
x,-y,z
1/2+x,1/2+y,z
1/2-x,1/2+y,-z
1/2-x,1/2-y,-z
1/2+x,1/2-y,z
loop_
_atom_site_type_symbol
_atom_site_label
_atom_site_fract_x
_atom_site_fract_y
_atom_site_fract_z
Si Si1 0.207045 0.161247 0.888956
Si Si2 0.153508 0.312678 0.232109
Si Si3 0.377780 0.091189 0.135553
Si Si4 0.790735 0.906885 0.791014
Si Si5 0.984933 0.167120 0.124120
O O1 0.095597 0.152317 0.504659
O O2 0.250000 0.250000 0.000000
O O3 0.298953 0.103279 0.065000
O O4 0.182865 0.136236 0.988916
O O5 0.250000 0.250000 0.500000
O O6 0.173137 0.376186 0.414121
O O7 0.164623 0.355636 0.107976
O O8 0.040578 0.262361 0.944999
O O9 0.500000 0.118982 0.500000
O O10 0.376847 0.000000 0.083994
O O11 0.783138 0.000000 0.796199
O O12 0.888293 0.885483 0.938033
O O13 0.000000 0.136542 0.000000
#
# Coordination Sequence:
#
# PCOD8109761 Si02
#       5
#     8   8   8   8   8
#     4  12  23  40  66  93 128 170 213 262 314 376
#     4  10  21  40  62  89 123 163 211 255 304 368
#     4  11  24  42  65  93 127 167 211 262 320 379
#     4  11  24  41  64  97 133 167 208 261 319 376
#     4  11  23  40  64  94 127 168 215 260 311 376
#
# _framework density 21.276987999999999
#
# number of rings (size 3 to 8) (size 9 to 14) (size 15 to 20)
#    0.000    1.000    0.000    9.000    0.000    2.800 
#    0.000    0.000    0.000    6.000    0.000    0.000 
#    0.000    0.000    0.000    0.000    0.000    0.000 
#
# Total GULP energy -248061.004494 kJ/mol
# GULP energy per Si atom -12403.050225 kJ/mol
# Density = 2.122856 g / cm^3
# Si number density = 21.276988 Si / 1000 Ang^3
#
#
#
# Elastic Constant Matrix: (Units=GPa)
#
#
# Indices 1 2 3 4 5 6 
#
# 1 136.1291 38.2138 50.9201 0.0000 -22.3097 0.0000
# 2 38.2138 121.2880 41.7953 0.0000 -12.2061 0.0000
# 3 50.9201 41.7953 110.3654 0.0000 -8.8598 0.0000
# 4 0.0000 0.0000 0.0000 32.1611 0.0000 -4.1908
# 5 -22.3097 -12.2061 -8.8598 0.0000 41.1415 0.0000
# 6 0.0000 0.0000 0.0000 -4.1908 0.0000 36.3254
#
#
#
# Elastic Compliance Matrix: (Units=1/GPa)
#
#
# Indices 1 2 3 4 5 6 
#
# 1 0.009778 -0.001411 -0.003648 0.000000 0.004098 0.000000
# 2 -0.001411 0.009863 -0.002962 0.000000 0.001523 0.000000
# 3 -0.003648 -0.002962 0.011841 0.000000 -0.000307 0.000000
# 4 0.000000 0.000000 0.000000 0.031568 0.000000 0.003642
# 5 0.004098 0.001523 -0.000307 0.000000 0.026914 0.000000
# 6 0.000000 0.000000 0.000000 0.003642 0.000000 0.027949
#
#
# Mechanical properties :
#
#
# Convention : Reuss Voigt Hill
#
# Bulk Modulus (GPa) = 64.76561 69.96011 67.36286
# Shear Modulus (GPa) = 35.94445 37.71582 36.83013
#
# Velocity S-wave (km/s) = 4.11464 4.21481 4.16502
# Velocity P-wave (km/s) = 7.28554 7.52583 7.40666
#
# Compressibility (1/GPa) = 0.01544029
#
# Stress axis : x y z
#
# Youngs Moduli (GPa) = 102.26657 101.38468 84.45268
#
# Poissons Ratio (x) = 0.14308 0.30809
# Poissons Ratio (y) = 0.14433 0.25014
# Poissons Ratio (z) = 0.37308 0.30029
#
# Static dielectric constant tensor:
#      x y z
#    x 3.954840 0.000000 0.032670 
#    y 0.000000 4.074310 0.000000 
#    z 0.032670 0.000000 3.503830 
# 
# 
# High freq. dielectric constant tensor:
#      x y z
#    x 1.837810 0.000000 -0.010950 
#    y 0.000000 1.838230 0.000000 
#    z -0.010950 0.000000 1.849250 
# 
# From -- ./inp_files/105879.got.cif
#   From: 2010.06.25/outbox.cif.g09.slc.cpg/sg12_53_cif.got.tgz:105879.got - 2010.06.28 00:19:55.
