data_PCOD8109382
_publ_section_title
;
Structure prediction by ZEFSAII (Michael W. Deem and Ramdas Pophale) SiO2 
 PCOD8109382
Probable space group: C 2/M
;
_chemical_formula_sum "Si O2"
_cell_formula_units_Z 56
_cell_length_a 21.834493
_cell_length_b 22.726156
_cell_length_c 18.862185
_cell_angle_alpha 90.000000
_cell_angle_beta 162.968659
_cell_angle_gamma 90.000000
_cell_volume 2741.401855
_symmetry_space_group_name_H-M "C 2/M"
_symmetry_group_IT_number 12
_symmetry_cell_setting 'monoclinic'
loop_
_space_group_symop_operation_xyz
x,y,z
-x,y,-z
-x,-y,-z
x,-y,z
1/2+x,1/2+y,z
1/2-x,1/2+y,-z
1/2-x,1/2-y,-z
1/2+x,1/2-y,z
loop_
_atom_site_type_symbol
_atom_site_label
_atom_site_fract_x
_atom_site_fract_y
_atom_site_fract_z
Si Si1 0.142578 0.862644 0.720570
Si Si2 0.929192 0.151633 0.096555
Si Si3 0.067828 0.434341 0.739653
Si Si4 0.623392 0.433324 0.204548
Si Si5 0.516908 0.066891 0.191520
Si Si6 0.455318 0.239414 0.031402
Si Si7 0.671662 0.334809 0.503805
O O1 0.000000 0.888752 0.500000
O O2 0.000350 0.838132 0.625809
O O3 0.290094 0.914431 0.911740
O O4 0.279298 0.810177 0.839151
O O5 0.867077 0.204142 0.975189
O O6 0.074892 0.104873 0.219331
O O7 0.052074 0.179046 0.298738
O O8 0.723193 0.117990 0.894021
O O9 0.170321 0.500000 0.847254
O O10 0.978692 0.424663 0.719497
O O11 0.873373 0.430419 0.469576
O O12 0.549009 0.500000 0.136821
O O13 0.500000 0.408034 0.000000
O O14 0.701882 0.104078 0.360470
O O15 0.558157 0.000000 0.214866
O O16 0.669946 0.218431 0.305799
O O17 0.500000 0.256945 0.000000
#
# Coordination Sequence:
#
# PCOD8109382 Si02
#       7
#     8   8   8   8   8   8   8
#     4  11  23  44  67  91 129 169 207 264 329 375
#     4  12  23  39  65  99 122 164 222 263 308 378
#     4  10  21  39  63  95 132 165 206 259 317 377
#     4  10  22  41  62  89 131 172 207 260 321 374
#     4  10  22  40  66  99 128 163 211 256 312 389
#     4  11  25  44  64  90 126 171 213 265 319 378
#     4  11  23  42  66  92 127 168 210 264 322 372
#
# _framework density 20.427505
#
# number of rings (size 3 to 8) (size 9 to 14) (size 15 to 20)
#    0.000    1.286    4.286    1.286    0.000    3.714 
#    2.571    2.857    0.000    0.000    0.000    0.000 
#    0.000    0.000    0.000    0.000    0.000    0.000 
#
# Total GULP energy -347283.267552 kJ/mol
# GULP energy per Si atom -12402.973841 kJ/mol
# Density = 2.038101 g / cm^3
# Si number density = 20.427505 Si / 1000 Ang^3
#
#
#
# Elastic Constant Matrix: (Units=GPa)
#
#
# Indices 1 2 3 4 5 6 
#
# 1 85.3349 14.4057 27.7613 -0.0099 -14.8266 -0.0019
# 2 14.4057 64.9392 14.9374 0.0079 -10.3124 -0.0026
# 3 27.7613 14.9374 108.3348 -0.0586 -22.2594 -0.0156
# 4 -0.0099 0.0079 -0.0586 50.8089 -0.0184 0.1542
# 5 -14.8266 -10.3124 -22.2594 -0.0184 36.6577 -0.0057
# 6 -0.0019 -0.0026 -0.0156 0.1542 -0.0057 29.5896
#
#
#
# Elastic Compliance Matrix: (Units=1/GPa)
#
#
# Indices 1 2 3 4 5 6 
#
# 1 0.013433 -0.001868 -0.002487 0.000001 0.003398 0.000000
# 2 -0.001868 0.016588 -0.001148 -0.000003 0.003214 0.000001
# 3 -0.002487 -0.001148 0.011143 0.000014 0.005438 0.000007
# 4 0.000001 -0.000003 0.000014 0.019682 0.000018 -0.000103
# 5 0.003398 0.003214 0.005438 0.000018 0.032860 0.000010
# 6 0.000000 0.000001 0.000007 -0.000103 0.000010 0.033796
#
#
# Mechanical properties :
#
#
# Convention : Reuss Voigt Hill
#
# Bulk Modulus (GPa) = 33.15826 41.42419 37.29122
# Shear Modulus (GPa) = 33.65613 36.84488 35.25051
#
# Velocity S-wave (km/s) = 4.06345 4.25159 4.15859
# Velocity P-wave (km/s) = 6.18732 6.66514 6.43067
#
# Compressibility (1/GPa) = 0.03015840
#
# Stress axis : x y z
#
# Youngs Moduli (GPa) = 74.44231 60.28486 89.73875
#
# Poissons Ratio (x) = 0.11264 0.22314
# Poissons Ratio (y) = 0.13909 0.10303
# Poissons Ratio (z) = 0.18511 0.06921
#
# Static dielectric constant tensor:
#      x y z
#    x 3.666390 0.000000 -0.125640 
#    y 0.000000 3.606020 0.000000 
#    z -0.125640 0.000000 3.859050 
# 
# 
# High freq. dielectric constant tensor:
#      x y z
#    x 1.799390 0.000000 -0.006370 
#    y 0.000000 1.793380 0.000000 
#    z -0.006370 0.000000 1.810850 
# 
# From -- ./inp_files/21687.got.cif
#   From: 2010.06.25/outbox.cif.g09.slc.cpg/sg12_11_cif.got.tgz:21687.got - 2010.06.28 00:19:55.
