data_PCOD8109633
_publ_section_title
;
Structure prediction by ZEFSAII (Michael W. Deem and Ramdas Pophale) SiO2 
 PCOD8109633
Probable space group: C 2/M
;
_chemical_formula_sum "Si O2"
_cell_formula_units_Z 48
_cell_length_a 17.984442
_cell_length_b 13.659328
_cell_length_c 9.138275
_cell_angle_alpha 90.000000
_cell_angle_beta 86.228140
_cell_angle_gamma 90.000000
_cell_volume 2240.003918
_symmetry_space_group_name_H-M "C 2/M"
_symmetry_group_IT_number 12
_symmetry_cell_setting 'monoclinic'
loop_
_space_group_symop_operation_xyz
x,y,z
-x,y,-z
-x,-y,-z
x,-y,z
1/2+x,1/2+y,z
1/2-x,1/2+y,-z
1/2-x,1/2-y,-z
1/2+x,1/2-y,z
loop_
_atom_site_type_symbol
_atom_site_label
_atom_site_fract_x
_atom_site_fract_y
_atom_site_fract_z
Si Si1 0.079095 0.893310 0.421268
Si Si2 0.937334 0.279817 0.796370
Si Si3 0.328681 0.245054 0.072464
Si Si4 0.186650 0.116510 0.662178
Si Si5 0.849239 0.386402 0.574395
Si Si6 0.410014 0.884365 0.257135
O O1 0.070802 0.821397 0.287734
O O2 0.133494 0.848448 0.537338
O O3 0.000000 0.910163 0.500000
O O4 0.109345 0.000000 0.363633
O O5 0.897538 0.365826 0.711264
O O6 0.021081 0.318483 0.808955
O O7 0.897614 0.257179 0.953134
O O8 0.337956 0.337034 0.180094
O O9 0.338148 0.145099 0.167172
O O10 0.250000 0.250000 0.000000
O O11 0.267512 0.159254 0.607497
O O12 0.183594 0.000000 0.683868
O O13 0.837184 0.500000 0.556335
O O14 0.892416 0.349602 0.424584
O O15 0.426577 0.000000 0.240745
#
# Coordination Sequence:
#
# PCOD8109633 Si02
#       6
#     8   8   8   8   8   8
#     4  10  22  40  64  93 123 165 220 273 324 380
#     4  12  23  40  67  96 133 169 213 269 325 394
#     4  12  26  41  61  94 132 176 215 259 322 388
#     4  10  22  42  65  92 130 172 218 272 328 387
#     4  10  21  39  67  97 126 167 219 274 328 386
#     4  11  26  45  68  98 132 172 218 269 327 388
#
# _framework density 21.428532000000001
#
# number of rings (size 3 to 8) (size 9 to 14) (size 15 to 20)
#    0.000    1.167    1.667    4.500    2.333    6.000 
#    0.000    0.000    0.000    5.000    0.000    0.000 
#    0.000    0.000    0.000    0.000    0.000    0.000 
#
# Total GULP energy -297532.286417 kJ/mol
# GULP energy per Si atom -12397.178601 kJ/mol
# Density = 2.137976 g / cm^3
# Si number density = 21.428532 Si / 1000 Ang^3
#
#
#
# Elastic Constant Matrix: (Units=GPa)
#
#
# Indices 1 2 3 4 5 6 
#
# 1 118.7877 31.6783 48.2048 0.0000 0.9983 0.0000
# 2 31.6783 89.2108 58.2777 0.0000 -1.0846 0.0000
# 3 48.2048 58.2777 102.9651 0.0000 -11.2399 0.0000
# 4 0.0000 0.0000 0.0000 24.4473 0.0000 5.2195
# 5 0.9983 -1.0846 -11.2399 0.0000 48.5006 0.0000
# 6 0.0000 0.0000 0.0000 5.2195 0.0000 34.8817
#
#
#
# Elastic Compliance Matrix: (Units=1/GPa)
#
#
# Indices 1 2 3 4 5 6 
#
# 1 0.010510 -0.000698 -0.004669 0.000000 -0.001314 0.000000
# 2 -0.000698 0.018020 -0.010082 0.000000 -0.001919 0.000000
# 3 -0.004669 -0.010082 0.018047 0.000000 0.004053 0.000000
# 4 0.000000 0.000000 0.000000 0.042254 0.000000 -0.006323
# 5 -0.001314 -0.001919 0.004053 0.000000 0.021542 0.000000
# 6 0.000000 0.000000 0.000000 -0.006323 0.000000 0.029614
#
#
# Mechanical properties :
#
#
# Convention : Reuss Voigt Hill
#
# Bulk Modulus (GPa) = 63.77926 65.25392 64.51659
# Shear Modulus (GPa) = 28.39112 33.08611 30.73861
#
# Velocity S-wave (km/s) = 3.64390 3.93367 3.79155
# Velocity P-wave (km/s) = 6.89437 7.15190 7.02431
#
# Compressibility (1/GPa) = 0.01567908
#
# Stress axis : x y z
#
# Youngs Moduli (GPa) = 95.14526 55.49364 55.41223
#
# Poissons Ratio (x) = 0.03874 0.25871
# Poissons Ratio (y) = 0.06643 0.55866
# Poissons Ratio (z) = 0.44422 0.55948
#
# Static dielectric constant tensor:
#      x y z
#    x 4.089000 0.000000 0.002000 
#    y 0.000000 4.166350 0.000000 
#    z 0.002000 0.000000 3.945730 
# 
# 
# High freq. dielectric constant tensor:
#      x y z
#    x 1.850830 0.000000 0.004780 
#    y 0.000000 1.847390 0.000000 
#    z 0.004780 0.000000 1.842740 
# 
# From -- ./inp_files/73609.got.cif
#   From: 2010.06.25/outbox.cif.g09.slc.cpg/sg12_37_cif.got.tgz:73609.got - 2010.06.28 00:19:55.
