data_PCOD8109941
_publ_section_title
;
Structure prediction by ZEFSAII (Michael W. Deem and Ramdas Pophale) SiO2 
 PCOD8109941
Probable space group: C 2/M
;
_chemical_formula_sum "Si O2"
_cell_formula_units_Z 56
_cell_length_a 27.549515
_cell_length_b 9.040524
_cell_length_c 17.241741
_cell_angle_alpha 90.000000
_cell_angle_beta 140.495932
_cell_angle_gamma 90.000000
_cell_volume 2731.722668
_symmetry_space_group_name_H-M "C 2/M"
_symmetry_group_IT_number 12
_symmetry_cell_setting 'monoclinic'
loop_
_space_group_symop_operation_xyz
x,y,z
-x,y,-z
-x,-y,-z
x,-y,z
1/2+x,1/2+y,z
1/2-x,1/2+y,-z
1/2-x,1/2-y,-z
1/2+x,1/2-y,z
loop_
_atom_site_type_symbol
_atom_site_label
_atom_site_fract_x
_atom_site_fract_y
_atom_site_fract_z
Si Si1 0.053689 0.664677 0.662630
Si Si2 0.657558 0.667240 0.680787
Si Si3 0.820971 0.665554 0.053141
Si Si4 0.417121 0.334420 0.566856
Si Si5 0.331510 0.324945 0.615470
Si Si6 0.185374 0.824903 0.103441
Si Si7 0.585118 0.324703 0.124724
O O1 0.037488 0.500000 0.611048
O O2 0.079862 0.766089 0.622483
O O3 0.117936 0.662124 0.805400
O O4 0.980101 0.722865 0.615540
O O5 0.668951 0.500000 0.725734
O O6 0.651117 0.667480 0.579928
O O7 0.728062 0.769001 0.790699
O O8 0.797334 0.500000 0.998883
O O9 0.750000 0.750000 0.000000
O O10 0.855320 0.752626 0.021302
O O11 0.451367 0.500000 0.616096
O O12 0.384973 0.281123 0.609439
O O13 0.317523 0.500000 0.603569
O O14 0.250000 0.250000 0.500000
O O15 0.376637 0.266157 0.747890
O O16 0.140896 0.772313 0.124898
O O17 0.185029 0.000000 0.094714
O O18 0.579431 0.500000 0.122605
O O19 0.500000 0.261409 0.000000
#
# Coordination Sequence:
#
# PCOD8109941 Si02
#       7
#     8   8   8   8   8   8   8
#     4  11  24  39  58  86 119 154 197 244 295 356
#     4  11  22  38  59  85 121 159 196 240 293 359
#     4  11  23  39  59  86 120 157 197 240 294 355
#     4  10  23  39  60  89 118 156 198 241 301 358
#     4  10  21  40  65  90 121 159 204 254 303 363
#     4  11  22  36  61  90 117 155 202 245 293 351
#     4   9  20  38  61  91 121 156 202 252 304 359
#
# _framework density 20.499884999999999
#
# number of rings (size 3 to 8) (size 9 to 14) (size 15 to 20)
#    0.000    1.571    1.429    3.000    2.000    5.143 
#    0.000    0.714    0.000    2.143    0.000    0.000 
#    0.000    0.000    0.000    0.000    0.000    0.000 
#
# Total GULP energy -347175.961597 kJ/mol
# GULP energy per Si atom -12399.141486 kJ/mol
# Density = 2.045323 g / cm^3
# Si number density = 20.499885 Si / 1000 Ang^3
#
#
#
# Elastic Constant Matrix: (Units=GPa)
#
#
# Indices 1 2 3 4 5 6 
#
# 1 146.4154 49.6273 56.6933 0.0000 -19.1809 0.0000
# 2 49.6273 95.0418 33.3703 0.0000 -4.6930 0.0000
# 3 56.6933 33.3703 97.6083 0.0000 -4.2524 0.0000
# 4 0.0000 0.0000 0.0000 28.7339 0.0000 2.5499
# 5 -19.1809 -4.6930 -4.2524 0.0000 38.9275 0.0000
# 6 0.0000 0.0000 0.0000 2.5499 0.0000 26.5628
#
#
#
# Elastic Compliance Matrix: (Units=1/GPa)
#
#
# Indices 1 2 3 4 5 6 
#
# 1 0.010385 -0.003594 -0.004621 0.000000 0.004179 0.000000
# 2 -0.003594 0.013239 -0.002458 0.000000 -0.000443 0.000000
# 3 -0.004621 -0.002458 0.013723 0.000000 -0.001074 0.000000
# 4 0.000000 0.000000 0.000000 0.035101 0.000000 -0.003369
# 5 0.004179 -0.000443 -0.001074 0.000000 0.027577 0.000000
# 6 0.000000 0.000000 0.000000 -0.003369 0.000000 0.037970
#
#
# Mechanical properties :
#
#
# Convention : Reuss Voigt Hill
#
# Bulk Modulus (GPa) = 62.49689 68.71636 65.60662
# Shear Modulus (GPa) = 30.36290 32.13648 31.24969
#
# Velocity S-wave (km/s) = 3.85271 3.96364 3.90857
# Velocity P-wave (km/s) = 7.09534 7.38515 7.24169
#
# Compressibility (1/GPa) = 0.01600080
#
# Stress axis : x y z
#
# Youngs Moduli (GPa) = 96.29564 75.53194 72.87203
#
# Poissons Ratio (x) = 0.27144 0.33674
# Poissons Ratio (y) = 0.34605 0.17914
# Poissons Ratio (z) = 0.44498 0.18568
#
# Static dielectric constant tensor:
#      x y z
#    x 3.950640 0.000000 -0.432960 
#    y 0.000000 3.813860 0.000000 
#    z -0.432960 0.000000 3.848470 
# 
# 
# High freq. dielectric constant tensor:
#      x y z
#    x 1.807980 0.000000 -0.013660 
#    y 0.000000 1.790300 0.000000 
#    z -0.013660 0.000000 1.814680 
# 
# From -- ./inp_files/292586.got.cif
#   From: 2010.06.25/outbox.cif.g09.slc.cpg/sg12_147_cif.got.tgz:292586.got - 2010.06.28 00:19:55.
