data_PCOD8109905
_publ_section_title
;
Structure prediction by ZEFSAII (Michael W. Deem and Ramdas Pophale) SiO2 
 PCOD8109905
Probable space group: C 2/M
;
_chemical_formula_sum "Si O2"
_cell_formula_units_Z 40
_cell_length_a 8.777102
_cell_length_b 26.349130
_cell_length_c 15.370407
_cell_angle_alpha 90.000000
_cell_angle_beta 147.165832
_cell_angle_gamma 90.000000
_cell_volume 1927.390971
_symmetry_space_group_name_H-M "C 2/M"
_symmetry_group_IT_number 12
_symmetry_cell_setting 'monoclinic'
loop_
_space_group_symop_operation_xyz
x,y,z
-x,y,-z
-x,-y,-z
x,-y,z
1/2+x,1/2+y,z
1/2-x,1/2+y,-z
1/2-x,1/2-y,-z
1/2+x,1/2-y,z
loop_
_atom_site_type_symbol
_atom_site_label
_atom_site_fract_x
_atom_site_fract_y
_atom_site_fract_z
Si Si1 0.769935 0.713600 0.186196
Si Si2 0.155863 0.442723 0.160744
Si Si3 0.174043 0.623210 0.338761
Si Si4 0.240075 0.590416 0.553776
Si Si5 0.308803 0.702635 0.656542
O O1 0.640111 0.697265 0.216183
O O2 0.967667 0.670853 0.239809
O O3 0.955566 0.764603 0.279243
O O4 0.500000 0.724869 0.000000
O O5 0.051942 0.500000 0.129699
O O6 0.092344 0.407877 0.213415
O O7 0.488264 0.444109 0.302693
O O8 0.000000 0.420938 0.000000
O O9 0.500000 0.640746 0.500000
O O10 0.124009 0.587953 0.399310
O O11 0.314503 0.648472 0.612495
O O12 0.000000 0.567727 0.500000
O O13 0.000000 0.727780 0.500000
#
# Coordination Sequence:
#
# PCOD8109905 Si02
#       5
#     8   8   8   8   8
#     4  12  25  38  59  93 128 166 211 256 309 358
#     4  10  24  43  67  94 123 158 202 259 323 373
#     4  10  22  40  64  89 122 166 210 248 308 366
#     4  10  21  40  64  92 125 162 208 253 302 364
#     4  11  23  40  60  88 129 169 211 249 300 369
#
# _framework density 20.753442
#
# number of rings (size 3 to 8) (size 9 to 14) (size 15 to 20)
#    0.000    1.400    4.000    1.800    8.400    4.800 
#    0.000    0.000    0.000    3.000    0.000    0.000 
#    0.000    0.000    0.000    0.000    0.000    0.000 
#
# Total GULP energy -247989.184124 kJ/mol
# GULP energy per Si atom -12399.459206 kJ/mol
# Density = 2.070621 g / cm^3
# Si number density = 20.753442 Si / 1000 Ang^3
#
#
#
# Elastic Constant Matrix: (Units=GPa)
#
#
# Indices 1 2 3 4 5 6 
#
# 1 98.3912 16.6381 14.1927 0.0000 -25.0668 -0.0001
# 2 16.6381 60.4272 17.4235 0.0000 -11.7803 0.0000
# 3 14.1927 17.4235 100.5447 0.0000 -24.5604 0.0001
# 4 0.0000 0.0000 0.0000 31.3549 0.0000 -17.4953
# 5 -25.0668 -11.7803 -24.5604 0.0000 41.6321 0.0000
# 6 -0.0001 0.0000 0.0001 -17.4953 0.0000 54.8003
#
#
#
# Elastic Compliance Matrix: (Units=1/GPa)
#
#
# Indices 1 2 3 4 5 6 
#
# 1 0.012249 -0.002111 0.000342 0.000000 0.006980 0.000000
# 2 -0.002111 0.018279 -0.002239 0.000000 0.002580 0.000000
# 3 0.000342 -0.002239 0.011895 0.000000 0.006590 0.000000
# 4 0.000000 0.000000 0.000000 0.038806 0.000000 0.012389
# 5 0.006980 0.002580 0.006590 0.000000 0.032840 0.000000
# 6 0.000000 0.000000 0.000000 0.012389 0.000000 0.022203
#
#
# Mechanical properties :
#
#
# Convention : Reuss Voigt Hill
#
# Bulk Modulus (GPa) = 29.06400 39.54128 34.30264
# Shear Modulus (GPa) = 32.10117 39.63140 35.86628
#
# Velocity S-wave (km/s) = 3.93719 4.37467 4.16168
# Velocity P-wave (km/s) = 5.89096 6.67917 6.29741
#
# Compressibility (1/GPa) = 0.03440682
#
# Stress axis : x y z
#
# Youngs Moduli (GPa) = 81.63729 54.70859 84.06677
#
# Poissons Ratio (x) = 0.11546 -0.02872
# Poissons Ratio (y) = 0.17230 0.18825
# Poissons Ratio (z) = -0.02789 0.12251
#
# Static dielectric constant tensor:
#      x y z
#    x 4.221570 0.000000 -0.115630 
#    y 0.000000 3.406930 0.000000 
#    z -0.115630 0.000000 3.861220 
# 
# 
# High freq. dielectric constant tensor:
#      x y z
#    x 1.826260 0.000000 -0.010380 
#    y 0.000000 1.791630 0.000000 
#    z -0.010380 0.000000 1.816440 
# 
# From -- ./inp_files/41416.got.cif
#   From: 2010.06.25/outbox.cif.g09.slc.cpg/sg12_21_cif.got.tgz:41416.got - 2010.06.28 00:19:55.
