data_PCOD8109750
_publ_section_title
;
Structure prediction by ZEFSAII (Michael W. Deem and Ramdas Pophale) SiO2 
 PCOD8109750
Probable space group: C 2/M
;
_chemical_formula_sum "Si O2"
_cell_formula_units_Z 48
_cell_length_a 13.408863
_cell_length_b 16.569337
_cell_length_c 15.929874
_cell_angle_alpha 90.000000
_cell_angle_beta 38.251278
_cell_angle_gamma 90.000000
_cell_volume 2191.181096
_symmetry_space_group_name_H-M "C 2/M"
_symmetry_group_IT_number 12
_symmetry_cell_setting 'monoclinic'
loop_
_space_group_symop_operation_xyz
x,y,z
-x,y,-z
-x,-y,-z
x,-y,z
1/2+x,1/2+y,z
1/2-x,1/2+y,-z
1/2-x,1/2-y,-z
1/2+x,1/2-y,z
loop_
_atom_site_type_symbol
_atom_site_label
_atom_site_fract_x
_atom_site_fract_y
_atom_site_fract_z
Si Si1 0.933839 0.593510 0.292741
Si Si2 0.428030 0.407702 0.798086
Si Si3 0.585123 0.841000 0.028973
Si Si4 0.449239 0.334736 0.122511
Si Si5 0.139065 0.816335 0.531136
Si Si6 0.070541 0.675867 0.369642
O O1 0.914170 0.500000 0.324489
O O2 0.038382 0.605059 0.139895
O O3 0.757382 0.632546 0.392164
O O4 0.020059 0.631922 0.317254
O O5 0.380829 0.500000 0.810764
O O6 0.498768 0.400820 0.844661
O O7 0.568712 0.379451 0.643770
O O8 0.274975 0.349751 0.887947
O O9 0.544950 0.748357 0.075365
O O10 0.500000 0.871362 0.000000
O O11 0.260829 0.317558 0.250844
O O12 0.500000 0.371822 0.000000
O O13 0.250000 0.750000 0.500000
O O14 0.995609 0.768092 0.581051
O O15 0.000000 0.630993 0.500000
#
# Coordination Sequence:
#
# PCOD8109750 Si02
#       6
#     8   8   8   8   8   8
#     4  11  23  40  64  95 132 169 208 263 327 385
#     4  12  25  41  64  96 132 166 208 269 330 382
#     4  11  24  44  67  91 125 170 221 265 310 375
#     4  11  22  39  65  92 124 169 215 261 316 383
#     4  10  21  40  62  87 122 165 213 255 301 372
#     4  11  22  39  65  94 125 164 212 265 317 381
#
# _framework density 21.905994
#
# number of rings (size 3 to 8) (size 9 to 14) (size 15 to 20)
#    0.000    1.000    0.000    9.500    0.000    2.667 
#    0.000    0.000    0.000    4.000    0.000    0.000 
#    0.000    0.000    0.000    0.000    0.000    0.000 
#
# Total GULP energy -297600.871905 kJ/mol
# GULP energy per Si atom -12400.036329 kJ/mol
# Density = 2.185613 g / cm^3
# Si number density = 21.905994 Si / 1000 Ang^3
#
#
#
# Elastic Constant Matrix: (Units=GPa)
#
#
# Indices 1 2 3 4 5 6 
#
# 1 99.8776 14.1101 27.8272 -0.0004 10.5308 0.0001
# 2 14.1101 91.1158 17.9090 -0.0005 -2.2162 -0.0001
# 3 27.8272 17.9090 112.2794 -0.0008 -4.5521 0.0003
# 4 -0.0004 -0.0005 -0.0008 25.7292 0.0002 0.8670
# 5 10.5308 -2.2162 -4.5521 0.0002 44.8853 0.0002
# 6 0.0001 -0.0001 0.0003 0.8670 0.0002 24.8228
#
#
#
# Elastic Compliance Matrix: (Units=1/GPa)
#
#
# Indices 1 2 3 4 5 6 
#
# 1 0.011262 -0.001284 -0.002707 0.000000 -0.002980 0.000000
# 2 -0.001284 0.011483 -0.001484 0.000000 0.000718 0.000000
# 3 -0.002707 -0.001484 0.009877 0.000000 0.001564 0.000000
# 4 0.000000 0.000000 0.000000 0.038912 0.000000 -0.001359
# 5 -0.002980 0.000718 0.001564 0.000000 0.023172 0.000000
# 6 0.000000 0.000000 0.000000 -0.001359 0.000000 0.040333
#
#
# Mechanical properties :
#
#
# Convention : Reuss Voigt Hill
#
# Bulk Modulus (GPa) = 46.14420 46.99615 46.57018
# Shear Modulus (GPa) = 32.63381 35.31590 33.97486
#
# Velocity S-wave (km/s) = 3.86388 4.01952 3.94247
# Velocity P-wave (km/s) = 6.40441 6.56066 6.48300
#
# Compressibility (1/GPa) = 0.02167119
#
# Stress axis : x y z
#
# Youngs Moduli (GPa) = 88.79268 87.08430 101.24106
#
# Poissons Ratio (x) = 0.11185 0.27408
# Poissons Ratio (y) = 0.11405 0.15026
# Poissons Ratio (z) = 0.24038 0.12925
#
# Static dielectric constant tensor:
#      x y z
#    x 4.099250 0.000000 0.000050 
#    y 0.000000 3.421850 0.000010 
#    z 0.000050 0.000010 4.303250 
# 
# 
# High freq. dielectric constant tensor:
#      x y z
#    x 1.865270 0.000000 -0.000180 
#    y 0.000000 1.842630 0.000000 
#    z -0.000180 0.000000 1.886830 
# 
# From -- ./inp_files/271573.got.cif
#   From: 2010.06.25/outbox.cif.g09.slc.cpg/sg12_136_cif.got.tgz:271573.got - 2010.06.28 00:19:55.
