data_PCOD8109424
_publ_section_title
;
Structure prediction by ZEFSAII (Michael W. Deem and Ramdas Pophale) SiO2 
 PCOD8109424
Probable space group: C 2/M
;
_chemical_formula_sum "Si O2"
_cell_formula_units_Z 56
_cell_length_a 11.858661
_cell_length_b 24.163073
_cell_length_c 11.446324
_cell_angle_alpha 90.000000
_cell_angle_beta 128.899576
_cell_angle_gamma 90.000000
_cell_volume 2552.535285
_symmetry_space_group_name_H-M "C 2/M"
_symmetry_group_IT_number 12
_symmetry_cell_setting 'monoclinic'
loop_
_space_group_symop_operation_xyz
x,y,z
-x,y,-z
-x,-y,-z
x,-y,z
1/2+x,1/2+y,z
1/2-x,1/2+y,-z
1/2-x,1/2-y,-z
1/2+x,1/2-y,z
loop_
_atom_site_type_symbol
_atom_site_label
_atom_site_fract_x
_atom_site_fract_y
_atom_site_fract_z
Si Si1 0.593600 0.560477 0.911109
Si Si2 0.750980 0.839411 0.358329
Si Si3 0.665577 0.628020 0.343920
Si Si4 0.655680 0.220786 0.644990
Si Si5 0.306072 0.062750 0.247918
Si Si6 0.157732 0.601341 0.072853
Si Si7 0.429747 0.838561 0.198996
O O1 0.517506 0.500000 0.847267
O O2 0.494600 0.611191 0.803990
O O3 0.740007 0.558311 0.927676
O O4 0.647906 0.568129 0.080578
O O5 0.835083 0.872099 0.515883
O O6 0.838099 0.785752 0.373604
O O7 0.737801 0.881190 0.242853
O O8 0.595725 0.819412 0.304851
O O9 0.710542 0.689615 0.330959
O O10 0.780272 0.584285 0.363318
O O11 0.500000 0.197916 0.500000
O O12 0.662982 0.206612 0.788613
O O13 0.422071 0.101241 0.257676
O O14 0.364167 0.000000 0.286996
O O15 0.132103 0.655411 0.972668
O O16 0.000000 0.574784 0.000000
#
# Coordination Sequence:
#
# PCOD8109424 Si02
#       7
#     8   8   8   8   8   8   8
#     4  10  21  39  64  91 122 160 200 247 304 358
#     4  11  23  38  59  87 122 161 199 249 303 356
#     4  11  22  36  59  92 121 151 200 254 300 360
#     4  11  23  38  62  85 115 166 204 242 306 365
#     4   9  19  39  66  90 120 160 199 246 306 356
#     4   9  21  41  62  86 121 162 202 248 292 353
#     4   9  20  41  61  88 118 153 210 252 288 357
#
# _framework density 21.938972
#
# number of rings (size 3 to 8) (size 9 to 14) (size 15 to 20)
#    0.000    2.000    1.429    1.286    2.000    2.000 
#    0.000   17.857    0.000    0.000    0.000    0.000 
#    0.000    0.000    0.000    0.000    0.000    0.000 
#
# Total GULP energy -347121.754861 kJ/mol
# GULP energy per Si atom -12397.205531 kJ/mol
# Density = 2.188904 g / cm^3
# Si number density = 21.938972 Si / 1000 Ang^3
#
#
#
# Elastic Constant Matrix: (Units=GPa)
#
#
# Indices 1 2 3 4 5 6 
#
# 1 47.5094 17.8162 15.7042 0.0000 -7.7619 0.0000
# 2 17.8162 88.1157 30.9113 0.0000 -4.9945 0.0000
# 3 15.7042 30.9113 85.3799 0.0000 -15.6499 0.0000
# 4 0.0000 0.0000 0.0000 23.6145 0.0000 4.8575
# 5 -7.7619 -4.9945 -15.6499 0.0000 41.0781 0.0000
# 6 0.0000 0.0000 0.0000 4.8575 0.0000 28.8985
#
#
#
# Elastic Compliance Matrix: (Units=1/GPa)
#
#
# Indices 1 2 3 4 5 6 
#
# 1 0.023778 -0.003777 -0.002437 0.000000 0.003105 0.000000
# 2 -0.003777 0.013602 -0.004362 0.000000 -0.000722 0.000000
# 3 -0.002437 -0.004362 0.014576 0.000000 0.004562 0.000000
# 4 0.000000 0.000000 0.000000 0.043864 0.000000 -0.007373
# 5 0.003105 -0.000722 0.004562 0.000000 0.026581 0.000000
# 6 0.000000 0.000000 0.000000 -0.007373 0.000000 0.035843
#
#
# Mechanical properties :
#
#
# Convention : Reuss Voigt Hill
#
# Bulk Modulus (GPa) = 32.46335 38.87425 35.66880
# Shear Modulus (GPa) = 26.36264 29.15645 27.75955
#
# Velocity S-wave (km/s) = 3.47022 3.64947 3.56098
# Velocity P-wave (km/s) = 5.55750 5.95952 5.76202
#
# Compressibility (1/GPa) = 0.03080397
#
# Stress axis : x y z
#
# Youngs Moduli (GPa) = 42.05640 73.52063 68.60548
#
# Poissons Ratio (x) = 0.27767 0.16719
# Poissons Ratio (y) = 0.15883 0.29926
# Poissons Ratio (z) = 0.10249 0.32070
#
# Static dielectric constant tensor:
#      x y z
#    x 4.129120 0.000000 -0.205620 
#    y 0.000000 3.524970 0.000000 
#    z -0.205620 0.000000 3.918180 
# 
# 
# High freq. dielectric constant tensor:
#      x y z
#    x 1.879200 0.000000 -0.012870 
#    y 0.000000 1.831700 0.000000 
#    z -0.012870 0.000000 1.851890 
# 
# From -- ./inp_files/136999.got.cif
#   From: 2010.06.25/outbox.cif.g09.slc.cpg/sg12_69_cif.got.tgz:136999.got - 2010.06.28 00:19:55.
