data_PCOD8109659
_publ_section_title
;
Structure prediction by ZEFSAII (Michael W. Deem and Ramdas Pophale) SiO2 
 PCOD8109659
Probable space group: C 2/M
;
_chemical_formula_sum "Si O2"
_cell_formula_units_Z 64
_cell_length_a 19.987948
_cell_length_b 14.131668
_cell_length_c 11.405198
_cell_angle_alpha 90.000000
_cell_angle_beta 76.155691
_cell_angle_gamma 90.000000
_cell_volume 3127.959480
_symmetry_space_group_name_H-M "C 2/M"
_symmetry_group_IT_number 12
_symmetry_cell_setting 'monoclinic'
loop_
_space_group_symop_operation_xyz
x,y,z
-x,y,-z
-x,-y,-z
x,-y,z
1/2+x,1/2+y,z
1/2-x,1/2+y,-z
1/2-x,1/2-y,-z
1/2+x,1/2-y,z
loop_
_atom_site_type_symbol
_atom_site_label
_atom_site_fract_x
_atom_site_fract_y
_atom_site_fract_z
Si Si1 0.728090 0.893274 0.780008
Si Si2 0.160559 0.395328 0.249439
Si Si3 0.885335 0.887582 0.750348
Si Si4 0.421957 0.756254 0.551748
Si Si5 0.612399 0.896963 0.010468
Si Si6 0.317588 0.748734 0.392809
Si Si7 0.815132 0.889153 0.196511
Si Si8 0.928823 0.807396 0.979735
O O1 0.805114 0.858603 0.776767
O O2 0.686428 0.885681 0.918012
O O3 0.689079 0.832732 0.698063
O O4 0.730773 0.000000 0.730225
O O5 0.164824 0.500000 0.304005
O O6 0.118046 0.331020 0.353657
O O7 0.237796 0.357031 0.196327
O O8 0.121908 0.398196 0.144185
O O9 0.920545 0.845774 0.617862
O O10 0.897120 0.000000 0.751787
O O11 0.919481 0.837487 0.848692
O O12 0.500000 0.788945 0.500000
O O13 0.386086 0.757098 0.440576
O O14 0.565360 0.806234 0.003150
O O15 0.579878 0.000000 0.986003
O O16 0.250000 0.750000 0.500000
O O17 0.328923 0.650025 0.320749
O O18 0.864617 0.845831 0.078721
O O19 0.826813 0.000000 0.192644
O O20 0.000000 0.850766 0.000000
#
# Coordination Sequence:
#
# PCOD8109659 Si02
#       8
#     8   8   8   8   8   8   8   8
#     4  10  21  40  69 102 128 162 216 279 333 386
#     4  10  21  42  69  97 125 164 215 274 336 396
#     4  11  24  43  66  95 131 173 220 273 330 389
#     4  12  27  43  64  94 135 177 226 270 326 390
#     4  10  21  39  70 101 126 159 210 268 333 395
#     4  12  23  41  66  96 127 176 228 272 316 384
#     4  11  24  41  66  97 129 167 218 275 327 387
#     4  12  26  42  67  98 137 173 212 269 337 400
#
# _framework density 20.460622999999998
#
# number of rings (size 3 to 8) (size 9 to 14) (size 15 to 20)
#    0.000    1.000    5.000    1.125    1.750    6.250 
#    0.000    0.000    0.000    0.000    0.000    0.000 
#    0.000    0.000    0.000    0.000    0.000    0.000 
#
# Total GULP energy -396763.163891 kJ/mol
# GULP energy per Si atom -12398.848872 kJ/mol
# Density = 2.041405 g / cm^3
# Si number density = 20.460623 Si / 1000 Ang^3
#
#
#
# Elastic Constant Matrix: (Units=GPa)
#
#
# Indices 1 2 3 4 5 6 
#
# 1 110.2007 43.2614 18.2985 0.0000 12.4536 0.0000
# 2 43.2614 122.7768 41.6262 0.0000 -0.0614 0.0000
# 3 18.2985 41.6262 67.8220 0.0000 14.7663 0.0000
# 4 0.0000 0.0000 0.0000 17.8032 0.0000 3.3290
# 5 12.4536 -0.0614 14.7663 0.0000 30.1412 0.0000
# 6 0.0000 0.0000 0.0000 3.3290 0.0000 67.6149
#
#
#
# Elastic Compliance Matrix: (Units=1/GPa)
#
#
# Indices 1 2 3 4 5 6 
#
# 1 0.011153 -0.004135 0.000598 0.000000 -0.004909 0.000000
# 2 -0.004135 0.012156 -0.007525 0.000000 0.005420 0.000000
# 3 0.000598 -0.007525 0.021558 0.000000 -0.010824 0.000000
# 4 0.000000 0.000000 0.000000 0.056692 0.000000 -0.002791
# 5 -0.004909 0.005420 -0.010824 0.000000 0.040519 0.000000
# 6 0.000000 0.000000 0.000000 -0.002791 0.000000 0.014927
#
#
# Mechanical properties :
#
#
# Convention : Reuss Voigt Hill
#
# Bulk Modulus (GPa) = 43.97058 56.35241 50.16150
# Shear Modulus (GPa) = 26.77927 36.28607 31.53267
#
# Velocity S-wave (km/s) = 3.62169 4.21581 3.92999
# Velocity P-wave (km/s) = 6.24706 7.16234 6.72030
#
# Compressibility (1/GPa) = 0.02274248
#
# Stress axis : x y z
#
# Youngs Moduli (GPa) = 89.66042 82.26465 46.38551
#
# Poissons Ratio (x) = 0.34016 -0.02772
# Poissons Ratio (y) = 0.37074 0.34906
# Poissons Ratio (z) = -0.05358 0.61905
#
# Static dielectric constant tensor:
#      x y z
#    x 3.586220 0.000000 0.006090 
#    y 0.000000 4.292150 0.000000 
#    z 0.006090 0.000000 4.354270 
# 
# 
# High freq. dielectric constant tensor:
#      x y z
#    x 1.790090 0.000000 -0.001110 
#    y 0.000000 1.816330 0.000000 
#    z -0.001110 0.000000 1.803360 
# 
# From -- ./inp_files/156620.got.cif
#   From: 2010.06.25/outbox.cif.g09.slc.cpg/sg12_79_cif.got.tgz:156620.got - 2010.06.28 00:19:55.
