data_PCOD8109692
_publ_section_title
;
Structure prediction by ZEFSAII (Michael W. Deem and Ramdas Pophale) SiO2 
 PCOD8109692
Probable space group: C 2/M
;
_chemical_formula_sum "Si O2"
_cell_formula_units_Z 60
_cell_length_a 19.514157
_cell_length_b 23.765421
_cell_length_c 17.109202
_cell_angle_alpha 90.000000
_cell_angle_beta 158.287682
_cell_angle_gamma 90.000000
_cell_volume 2935.377674
_symmetry_space_group_name_H-M "C 2/M"
_symmetry_group_IT_number 12
_symmetry_cell_setting 'monoclinic'
loop_
_space_group_symop_operation_xyz
x,y,z
-x,y,-z
-x,-y,-z
x,-y,z
1/2+x,1/2+y,z
1/2-x,1/2+y,-z
1/2-x,1/2-y,-z
1/2+x,1/2-y,z
loop_
_atom_site_type_symbol
_atom_site_label
_atom_site_fract_x
_atom_site_fract_y
_atom_site_fract_z
Si Si1 0.853891 0.564853 0.587294
Si Si2 0.132466 0.104922 0.491163
Si Si3 0.500000 0.713301 0.000000
Si Si4 0.757395 0.561944 0.940353
Si Si5 0.698597 0.897848 0.174397
Si Si6 0.679392 0.675731 0.341662
Si Si7 0.051723 0.778828 0.359579
Si Si8 0.324834 0.279012 0.262713
O O1 0.830425 0.500000 0.531528
O O2 0.770033 0.568459 0.584796
O O3 0.749432 0.611356 0.424369
O O4 0.070862 0.581892 0.823785
O O5 0.162574 0.081110 0.610318
O O6 0.175857 0.172592 0.535571
O O7 0.922177 0.100240 0.237106
O O8 0.605252 0.675379 0.174897
O O9 0.641212 0.749267 0.098313
O O10 0.699418 0.500000 0.905747
O O11 0.819496 0.557854 0.914891
O O12 0.793953 0.844881 0.234953
O O13 0.500000 0.882860 0.000000
O O14 0.845633 0.719323 0.531519
O O15 0.525423 0.695267 0.243621
O O16 0.864173 0.768170 0.211441
O O17 0.500000 0.258735 0.500000
#
# Coordination Sequence:
#
# PCOD8109692 Si02
#       8
#     8   8   4   8   8   8   8   8
#     4  10  23  43  61  80 117 161 204 265 320 361
#     4  11  20  37  57  86 123 163 209 246 297 367
#     4  12  24  40  65  94 125 160 202 262 318 380
#     4  11  23  36  55  81 114 165 219 258 297 350
#     4  12  21  33  56  87 126 174 211 245 291 359
#     4  10  23  42  64  96 126 157 212 255 308 385
#     4  10  21  40  60  93 131 163 196 249 302 369
#     4  12  21  37  61  91 132 172 197 239 309 371
#
# _framework density 20.440300000000001
#
# number of rings (size 3 to 8) (size 9 to 14) (size 15 to 20)
#    0.000    1.067    6.000    0.800    0.000    3.467 
#    4.800    0.333    0.000    0.000    0.000    1.867 
#    0.000    0.000    0.000    0.000    0.000    0.000 
#
# Total GULP energy -371697.936547 kJ/mol
# GULP energy per Si atom -12389.931218 kJ/mol
# Density = 2.039378 g / cm^3
# Si number density = 20.440300 Si / 1000 Ang^3
#
#
#
# Elastic Constant Matrix: (Units=GPa)
#
#
# Indices 1 2 3 4 5 6 
#
# 1 100.0938 26.1974 32.4367 0.0000 4.1686 0.0000
# 2 26.1974 102.8429 41.7928 0.0000 -3.7727 0.0000
# 3 32.4367 41.7928 76.6869 -0.0001 3.9623 0.0000
# 4 0.0000 0.0000 -0.0001 20.2594 0.0000 1.9422
# 5 4.1686 -3.7727 3.9623 0.0000 38.6888 0.0000
# 6 0.0000 0.0000 0.0000 1.9422 0.0000 19.7942
#
#
#
# Elastic Compliance Matrix: (Units=1/GPa)
#
#
# Indices 1 2 3 4 5 6 
#
# 1 0.011736 -0.001320 -0.004195 0.000000 -0.000964 0.000000
# 2 -0.001320 0.012782 -0.006514 0.000000 0.002056 0.000000
# 3 -0.004195 -0.006514 0.018471 0.000000 -0.002075 0.000000
# 4 0.000000 0.000000 0.000000 0.049829 0.000000 -0.004889
# 5 -0.000964 0.002056 -0.002075 0.000000 0.026364 0.000000
# 6 0.000000 0.000000 0.000000 -0.004889 0.000000 0.051000
#
#
# Mechanical properties :
#
#
# Convention : Reuss Voigt Hill
#
# Bulk Modulus (GPa) = 52.82085 53.38637 53.10361
# Shear Modulus (GPa) = 24.93145 27.69492 26.31319
#
# Velocity S-wave (km/s) = 3.49624 3.68491 3.59182
# Velocity P-wave (km/s) = 6.49583 6.65430 6.57554
#
# Compressibility (1/GPa) = 0.01893192
#
# Stress axis : x y z
#
# Youngs Moduli (GPa) = 85.21066 78.23259 54.13763
#
# Poissons Ratio (x) = 0.10328 0.22709
# Poissons Ratio (y) = 0.11249 0.35265
# Poissons Ratio (z) = 0.35743 0.50960
#
# Static dielectric constant tensor:
#      x y z
#    x 3.828020 0.000000 0.114210 
#    y 0.000000 3.500180 0.000000 
#    z 0.114210 0.000000 3.589210 
# 
# 
# High freq. dielectric constant tensor:
#      x y z
#    x 1.793260 0.000000 0.020270 
#    y 0.000000 1.783710 0.000000 
#    z 0.020270 0.000000 1.783830 
# 
# From -- ./inp_files/286480.got.cif
#   From: 2010.06.25/outbox.cif.g09.slc.cpg/sg12_144_cif.got.tgz:286480.got - 2010.06.28 00:19:55.
