data_PCOD8109866
_publ_section_title
;
Structure prediction by ZEFSAII (Michael W. Deem and Ramdas Pophale) SiO2 
 PCOD8109866
Probable space group: C 2/M
;
_chemical_formula_sum "Si O2"
_cell_formula_units_Z 56
_cell_length_a 22.511755
_cell_length_b 15.697167
_cell_length_c 9.629061
_cell_angle_alpha 90.000000
_cell_angle_beta 129.870635
_cell_angle_gamma 90.000000
_cell_volume 2611.496502
_symmetry_space_group_name_H-M "C 2/M"
_symmetry_group_IT_number 12
_symmetry_cell_setting 'monoclinic'
loop_
_space_group_symop_operation_xyz
x,y,z
-x,y,-z
-x,-y,-z
x,-y,z
1/2+x,1/2+y,z
1/2-x,1/2+y,-z
1/2-x,1/2-y,-z
1/2+x,1/2-y,z
loop_
_atom_site_type_symbol
_atom_site_label
_atom_site_fract_x
_atom_site_fract_y
_atom_site_fract_z
Si Si1 0.717529 0.295765 0.319592
Si Si2 0.922699 0.900427 0.469006
Si Si3 0.642368 0.100331 0.554552
Si Si4 0.262240 0.316569 0.141037
Si Si5 0.423431 0.596833 0.794870
Si Si6 0.625006 0.096782 0.831907
Si Si7 0.495661 0.101791 0.838597
O O1 0.750000 0.250000 0.500000
O O2 0.771856 0.373599 0.356594
O O3 0.717501 0.223135 0.204039
O O4 0.634469 0.335972 0.223805
O O5 0.850508 0.843952 0.304641
O O6 0.937450 0.880736 0.653679
O O7 0.000000 0.874962 0.500000
O O8 0.903381 0.000000 0.416506
O O9 0.619932 0.140587 0.671478
O O10 0.583808 0.134054 0.349590
O O11 0.639491 0.000000 0.561700
O O12 0.250000 0.250000 0.000000
O O13 0.212068 0.399145 0.022973
O O14 0.391456 0.500000 0.757559
O O15 0.500000 0.606114 0.000000
O O16 0.564857 0.140230 0.848552
O O17 0.599449 0.000000 0.776475
O O18 0.499975 0.000000 0.852633
O O19 0.500000 0.140644 0.000000
#
# Coordination Sequence:
#
# PCOD8109866 Si02
#       7
#     8   8   8   8   8   8   8
#     4  12  25  44  62  93 136 168 210 264 333 386
#     4  10  23  45  72  99 129 171 225 278 325 386
#     4  10  21  40  64  89 122 167 213 257 307 376
#     4  12  25  44  62  95 134 170 212 261 328 391
#     4  10  23  45  72  99 128 172 226 275 326 390
#     4  10  21  40  64  89 122 168 214 256 306 375
#     4   9  19  35  59  91 119 152 204 253 301 361
#
# _framework density 21.443643999999999
#
# number of rings (size 3 to 8) (size 9 to 14) (size 15 to 20)
#    0.000    1.571    2.857    1.286    4.000    1.714 
#    5.143    0.000    0.000    0.000    0.000    0.000 
#    0.000    0.000    0.000    0.000    0.000    0.000 
#
# Total GULP energy -347064.779257 kJ/mol
# GULP energy per Si atom -12395.170688 kJ/mol
# Density = 2.139484 g / cm^3
# Si number density = 21.443644 Si / 1000 Ang^3
#
#
#
# Elastic Constant Matrix: (Units=GPa)
#
#
# Indices 1 2 3 4 5 6 
#
# 1 141.3711 36.4546 59.9168 0.0000 -19.3099 0.0000
# 2 36.4546 50.3589 33.2893 0.0000 -0.9484 0.0000
# 3 59.9168 33.2893 154.1314 0.0000 -20.9664 0.0000
# 4 0.0000 0.0000 0.0000 33.8912 0.0000 1.4981
# 5 -19.3099 -0.9484 -20.9664 0.0000 41.4075 0.0000
# 6 0.0000 0.0000 0.0000 1.4981 0.0000 31.0467
#
#
#
# Elastic Compliance Matrix: (Units=1/GPa)
#
#
# Indices 1 2 3 4 5 6 
#
# 1 0.009923 -0.005687 -0.002167 0.000000 0.003400 0.000000
# 2 -0.005687 0.026604 -0.004095 0.000000 -0.004116 0.000000
# 3 -0.002167 -0.004095 0.008661 0.000000 0.003281 0.000000
# 4 0.000000 0.000000 0.000000 0.029569 0.000000 -0.001427
# 5 0.003400 -0.004116 0.003281 0.000000 0.027303 0.000000
# 6 0.000000 0.000000 0.000000 -0.001427 0.000000 0.032278
#
#
# Mechanical properties :
#
#
# Convention : Reuss Voigt Hill
#
# Bulk Modulus (GPa) = 46.96953 67.24253 57.10603
# Shear Modulus (GPa) = 30.24228 35.68247 32.96237
#
# Velocity S-wave (km/s) = 3.75949 4.08365 3.92492
# Velocity P-wave (km/s) = 6.38720 7.32536 6.87230
#
# Compressibility (1/GPa) = 0.02129040
#
# Stress axis : x y z
#
# Youngs Moduli (GPa) = 100.77943 37.58893 115.45980
#
# Poissons Ratio (x) = 0.21376 0.25016
# Poissons Ratio (y) = 0.57311 0.47282
# Poissons Ratio (z) = 0.21835 0.15393
#
# Static dielectric constant tensor:
#      x y z
#    x 3.947800 0.000000 -0.181290 
#    y 0.000000 3.667290 0.000000 
#    z -0.181290 0.000000 4.171250 
# 
# 
# High freq. dielectric constant tensor:
#      x y z
#    x 1.849650 0.000000 -0.010920 
#    y 0.000000 1.824950 0.000000 
#    z -0.010920 0.000000 1.857170 
# 
# From -- ./inp_files/98199.got.cif
#   From: 2010.06.25/outbox.cif.g09.slc.cpg/sg12_50_cif.got.tgz:98199.got - 2010.06.28 00:19:55.
