data_PCOD8109417
_publ_section_title
;
Structure prediction by ZEFSAII (Michael W. Deem and Ramdas Pophale) SiO2 
 PCOD8109417
Probable space group: C 2/M
;
_chemical_formula_sum "Si O2"
_cell_formula_units_Z 64
_cell_length_a 18.847080
_cell_length_b 19.388600
_cell_length_c 15.519655
_cell_angle_alpha 90.000000
_cell_angle_beta 34.876959
_cell_angle_gamma 90.000000
_cell_volume 3242.865218
_symmetry_space_group_name_H-M "C 2/M"
_symmetry_group_IT_number 12
_symmetry_cell_setting 'monoclinic'
loop_
_space_group_symop_operation_xyz
x,y,z
-x,y,-z
-x,-y,-z
x,-y,z
1/2+x,1/2+y,z
1/2-x,1/2+y,-z
1/2-x,1/2-y,-z
1/2+x,1/2-y,z
loop_
_atom_site_type_symbol
_atom_site_label
_atom_site_fract_x
_atom_site_fract_y
_atom_site_fract_z
Si Si1 0.970813 0.816542 0.629274
Si Si2 0.267835 0.579403 0.828627
Si Si3 0.109279 0.622282 0.837171
Si Si4 0.854102 0.576870 0.385639
Si Si5 0.727793 0.215177 0.112398
Si Si6 0.005960 0.228918 0.085952
Si Si7 0.131400 0.579036 0.140320
Si Si8 0.157346 0.813160 0.595667
O O1 0.894099 0.884375 0.734165
O O2 0.894509 0.746456 0.722068
O O3 0.000000 0.819679 0.500000
O O4 0.094163 0.817842 0.564905
O O5 0.294410 0.500000 0.779187
O O6 0.226412 0.622025 0.785021
O O7 0.166588 0.586208 0.004968
O O8 0.143766 0.578578 0.719817
O O9 0.065054 0.698400 0.853197
O O10 0.000000 0.584480 0.000000
O O11 0.826778 0.500000 0.443675
O O12 0.741701 0.621434 0.534233
O O13 0.987020 0.600777 0.291050
O O14 0.709760 0.132272 0.120872
O O15 0.750000 0.250000 0.000000
O O16 0.847453 0.236108 0.047571
O O17 0.944928 0.189520 0.226944
O O18 0.000000 0.188771 0.000000
O O19 0.154928 0.500000 0.148206
O O20 0.250000 0.750000 0.500000
#
# Coordination Sequence:
#
# PCOD8109417 Si02
#       8
#     8   8   8   8   8   8   8   8
#     4  12  26  39  61  94 129 168 210 259 321 374
#     4  11  22  37  59  89 130 172 209 247 304 389
#     4  11  19  32  56  89 129 165 204 245 297 378
#     4  11  22  36  58  88 124 166 206 253 317 377
#     4  12  21  42  66  90 121 163 212 269 305 366
#     4  11  24  39  65  94 121 162 215 261 316 366
#     4  10  21  39  64  91 119 163 213 261 321 371
#     4  12  24  41  61  90 127 166 207 265 313 374
#
# _framework density 19.735633
#
# number of rings (size 3 to 8) (size 9 to 14) (size 15 to 20)
#    0.000    0.750    5.000    4.125    1.750    1.250 
#    0.000    0.625    0.000    1.875    0.000    0.000 
#    0.000    0.000    0.000    0.000    0.000    0.000 
#
# Total GULP energy -396733.125086 kJ/mol
# GULP energy per Si atom -12397.910159 kJ/mol
# Density = 1.969071 g / cm^3
# Si number density = 19.735633 Si / 1000 Ang^3
#
#
#
# Elastic Constant Matrix: (Units=GPa)
#
#
# Indices 1 2 3 4 5 6 
#
# 1 104.8397 43.3274 24.8363 -0.0007 -16.7238 0.0002
# 2 43.3274 119.9171 35.6926 -0.0002 -17.2069 0.0000
# 3 24.8363 35.6926 75.2928 -0.0019 -7.1273 0.0010
# 4 -0.0007 -0.0002 -0.0019 31.2905 0.0013 -6.4606
# 5 -16.7238 -17.2069 -7.1273 0.0013 36.6181 -0.0005
# 6 0.0002 0.0000 0.0010 -6.4606 -0.0005 26.1216
#
#
#
# Elastic Compliance Matrix: (Units=1/GPa)
#
#
# Indices 1 2 3 4 5 6 
#
# 1 0.011910 -0.003173 -0.002089 0.000000 0.003542 0.000000
# 2 -0.003173 0.011083 -0.003924 0.000000 0.002995 0.000000
# 3 -0.002089 -0.003924 0.015858 0.000001 0.000289 0.000000
# 4 0.000000 0.000000 0.000001 0.033678 -0.000001 0.008330
# 5 0.003542 0.002995 0.000289 -0.000001 0.030390 0.000000
# 6 0.000000 0.000000 0.000000 0.008330 0.000000 0.040343
#
#
# Mechanical properties :
#
#
# Convention : Reuss Voigt Hill
#
# Bulk Modulus (GPa) = 48.83084 56.41803 52.62443
# Shear Modulus (GPa) = 29.68062 31.88558 30.78310
#
# Velocity S-wave (km/s) = 3.88224 4.02386 3.95368
# Velocity P-wave (km/s) = 6.70014 7.08784 6.89672
#
# Compressibility (1/GPa) = 0.02047886
#
# Stress axis : x y z
#
# Youngs Moduli (GPa) = 83.96614 90.22638 63.05960
#
# Poissons Ratio (x) = 0.28630 0.13174
# Poissons Ratio (y) = 0.26643 0.24743
# Poissons Ratio (z) = 0.17541 0.35403
#
# Static dielectric constant tensor:
#      x y z
#    x 3.642730 0.000010 0.053110 
#    y 0.000010 3.364330 0.000000 
#    z 0.053110 0.000000 3.804470 
# 
# 
# High freq. dielectric constant tensor:
#      x y z
#    x 1.763680 0.000000 -0.013490 
#    y 0.000000 1.757660 0.000000 
#    z -0.013490 0.000000 1.771260 
# 
# From -- ./inp_files/285208.got.cif
#   From: 2010.06.25/outbox.cif.g09.slc.cpg/sg12_143_cif.got.tgz:285208.got - 2010.06.28 00:19:55.
