data_PCOD8109703
_publ_section_title
;
Structure prediction by ZEFSAII (Michael W. Deem and Ramdas Pophale) SiO2 
 PCOD8109703
Probable space group: C 2/M
;
_chemical_formula_sum "Si O2"
_cell_formula_units_Z 48
_cell_length_a 18.709803
_cell_length_b 28.521420
_cell_length_c 9.661272
_cell_angle_alpha 90.000000
_cell_angle_beta 29.580048
_cell_angle_gamma 90.000000
_cell_volume 2544.978861
_symmetry_space_group_name_H-M "C 2/M"
_symmetry_group_IT_number 12
_symmetry_cell_setting 'monoclinic'
loop_
_space_group_symop_operation_xyz
x,y,z
-x,y,-z
-x,-y,-z
x,-y,z
1/2+x,1/2+y,z
1/2-x,1/2+y,-z
1/2-x,1/2-y,-z
1/2+x,1/2-y,z
loop_
_atom_site_type_symbol
_atom_site_label
_atom_site_fract_x
_atom_site_fract_y
_atom_site_fract_z
Si Si1 0.873077 0.446351 0.614667
Si Si2 0.845705 0.305608 0.236215
Si Si3 0.188825 0.875933 0.309501
Si Si4 0.362177 0.627415 0.919061
Si Si5 0.856851 0.199875 0.168856
Si Si6 0.436477 0.053640 0.965082
O O1 0.835565 0.500000 0.717807
O O2 0.000000 0.426939 0.500000
O O3 0.929835 0.441673 0.364049
O O4 0.727666 0.416472 0.872188
O O5 0.743933 0.331842 0.301490
O O6 0.875325 0.255354 0.113782
O O7 0.778727 0.305421 0.501627
O O8 0.000000 0.330904 0.000000
O O9 0.188400 0.860147 0.150503
O O10 0.029483 0.888560 0.634229
O O11 0.293195 0.920073 0.155056
O O12 0.332730 0.672797 0.064900
O O13 0.000000 0.178680 0.000000
O O14 0.387417 0.000000 0.065557
O O15 0.500000 0.074556 0.000000
#
# Coordination Sequence:
#
# PCOD8109703 Si02
#       6
#     8   8   8   8   8   8
#     4  10  21  40  61  85 119 156 196 237 287 354
#     4  10  22  39  64  86 114 160 202 242 296 349
#     4  11  23  39  57  89 124 156 196 243 297 354
#     4  11  24  37  60  89 122 157 191 244 302 350
#     4  10  21  41  61  86 118 156 199 245 296 353
#     4  10  22  40  62  88 119 155 199 247 289 345
#
# _framework density 18.860665999999998
#
# number of rings (size 3 to 8) (size 9 to 14) (size 15 to 20)
#    0.000    1.667    3.333    0.500    4.667    1.333 
#    0.000    1.667    3.667    3.500    0.000    0.000 
#    0.000    0.000    0.000    0.000    0.000    0.000 
#
# Total GULP energy -297603.553793 kJ/mol
# GULP energy per Si atom -12400.148075 kJ/mol
# Density = 1.881774 g / cm^3
# Si number density = 18.860666 Si / 1000 Ang^3
#
#
#
# Elastic Constant Matrix: (Units=GPa)
#
#
# Indices 1 2 3 4 5 6 
#
# 1 129.6944 49.4363 55.1372 0.0000 -0.5783 0.0000
# 2 49.4363 85.0778 47.4474 0.0000 -1.7573 0.0000
# 3 55.1372 47.4474 116.1802 0.0002 -8.5230 -0.0001
# 4 0.0000 0.0000 0.0002 18.6871 -0.0001 -3.8624
# 5 -0.5783 -1.7573 -8.5230 -0.0001 33.5283 0.0000
# 6 0.0000 0.0000 -0.0001 -3.8624 0.0000 27.8944
#
#
#
# Elastic Compliance Matrix: (Units=1/GPa)
#
#
# Indices 1 2 3 4 5 6 
#
# 1 0.010838 -0.004417 -0.003407 0.000000 -0.000911 0.000000
# 2 -0.004417 0.017041 -0.004895 0.000000 -0.000427 0.000000
# 3 -0.003407 -0.004895 0.012432 0.000000 0.002845 0.000000
# 4 0.000000 0.000000 0.000000 0.055089 0.000000 0.007628
# 5 -0.000911 -0.000427 0.002845 0.000000 0.030511 0.000000
# 6 0.000000 0.000000 0.000000 0.007628 0.000000 0.036906
#
#
# Mechanical properties :
#
#
# Convention : Reuss Voigt Hill
#
# Bulk Modulus (GPa) = 67.22725 70.55490 68.89107
# Shear Modulus (GPa) = 25.87835 27.95074 26.91455
#
# Velocity S-wave (km/s) = 3.70818 3.85380 3.78169
# Velocity P-wave (km/s) = 7.35225 7.56915 7.46149
#
# Compressibility (1/GPa) = 0.01487492
#
# Stress axis : x y z
#
# Youngs Moduli (GPa) = 92.26632 58.68071 80.43884
#
# Poissons Ratio (x) = 0.25917 0.27403
# Poissons Ratio (y) = 0.40751 0.39374
# Poissons Ratio (z) = 0.31432 0.28723
#
# Static dielectric constant tensor:
#      x y z
#    x 3.576380 0.000000 -0.022180 
#    y 0.000000 3.368620 0.000000 
#    z -0.022180 0.000000 3.608440 
# 
# 
# High freq. dielectric constant tensor:
#      x y z
#    x 1.735950 0.000000 0.001720 
#    y 0.000000 1.725550 0.000000 
#    z 0.001720 0.000000 1.745460 
# 
# From -- ./inp_files/80591.got.cif
#   From: 2010.06.25/outbox.cif.g09.slc.cpg/sg12_41_cif.got.tgz:80591.got - 2010.06.28 00:19:55.
