data_PCOD8109329
_publ_section_title
;
Structure prediction by ZEFSAII (Michael W. Deem and Ramdas Pophale) SiO2 
 PCOD8109329
Probable space group: C 2/M
;
_chemical_formula_sum "Si O2"
_cell_formula_units_Z 40
_cell_length_a 22.645264
_cell_length_b 8.830249
_cell_length_c 9.950867
_cell_angle_alpha 90.000000
_cell_angle_beta 90.561080
_cell_angle_gamma 90.000000
_cell_volume 1989.712993
_symmetry_space_group_name_H-M "C 2/M"
_symmetry_group_IT_number 12
_symmetry_cell_setting 'monoclinic'
loop_
_space_group_symop_operation_xyz
x,y,z
-x,y,-z
-x,-y,-z
x,-y,z
1/2+x,1/2+y,z
1/2-x,1/2+y,-z
1/2-x,1/2-y,-z
1/2+x,1/2-y,z
loop_
_atom_site_type_symbol
_atom_site_label
_atom_site_fract_x
_atom_site_fract_y
_atom_site_fract_z
Si Si1 0.123091 0.179789 0.780855
Si Si2 0.500812 0.678902 0.651711
Si Si3 0.810047 0.677136 0.455571
Si Si4 0.813691 0.678720 0.975942
Si Si5 0.616015 0.174285 0.282593
O O1 0.058861 0.236121 0.731029
O O2 0.172009 0.237007 0.678436
O O3 0.127041 0.000000 0.792929
O O4 0.137005 0.254406 0.923803
O O5 0.500000 0.746661 0.500000
O O6 0.500451 0.500000 0.644369
O O7 0.444254 0.732423 0.734981
O O8 0.801659 0.500000 0.426586
O O9 0.750000 0.750000 0.500000
O O10 0.858602 0.708107 0.570039
O O11 0.808379 0.500000 0.995681
O O12 0.835685 0.722740 0.827185
O O13 0.750000 0.750000 0.000000
O O14 0.599579 0.000000 0.263030
#
# Coordination Sequence:
#
# PCOD8109329 Si02
#       5
#     8   8   8   8   8
#     4  11  23  40  62  90 124 162 206 255 306 368
#     4  10  21  39  63  91 123 161 206 255 306 362
#     4  11  22  37  60  90 120 158 206 257 312 369
#     4  11  24  43  64  91 126 165 207 254 311 370
#     4  10  23  40  61  89 122 159 203 254 309 369
#
# _framework density 20.103401999999999
#
# number of rings (size 3 to 8) (size 9 to 14) (size 15 to 20)
#    0.000    1.400    2.000    3.000    0.000    6.800 
#    0.000    4.000    0.000    0.000    0.000    0.000 
#    0.000    0.000    0.000    0.000    0.000    0.000 
#
# Total GULP energy -248098.267830 kJ/mol
# GULP energy per Si atom -12404.913392 kJ/mol
# Density = 2.005765 g / cm^3
# Si number density = 20.103402 Si / 1000 Ang^3
#
#
#
# Elastic Constant Matrix: (Units=GPa)
#
#
# Indices 1 2 3 4 5 6 
#
# 1 107.6467 28.6602 4.6680 0.0000 -1.6231 0.0000
# 2 28.6602 58.0706 22.6076 0.0000 3.9146 0.0000
# 3 4.6680 22.6076 70.6487 0.0000 2.5783 0.0000
# 4 0.0000 0.0000 0.0000 33.8497 0.0000 -1.4089
# 5 -1.6231 3.9146 2.5783 0.0000 35.1527 0.0000
# 6 0.0000 0.0000 0.0000 -1.4089 0.0000 39.5311
#
#
#
# Elastic Compliance Matrix: (Units=1/GPa)
#
#
# Indices 1 2 3 4 5 6 
#
# 1 0.010813 -0.005843 0.001116 0.000000 0.001068 0.000000
# 2 -0.005843 0.022935 -0.006868 0.000000 -0.002320 0.000000
# 3 0.001116 -0.006868 0.016292 0.000000 -0.000379 0.000000
# 4 0.000000 0.000000 0.000000 0.029586 0.000000 0.001054
# 5 0.001068 -0.002320 -0.000379 0.000000 0.028783 0.000000
# 6 0.000000 0.000000 0.000000 0.001054 0.000000 0.025334
#
#
# Mechanical properties :
#
#
# Convention : Reuss Voigt Hill
#
# Bulk Modulus (GPa) = 37.24433 38.69307 37.96870
# Shear Modulus (GPa) = 30.14160 33.73538 31.93849
#
# Velocity S-wave (km/s) = 3.87632 4.10090 3.99019
# Velocity P-wave (km/s) = 6.21297 6.45848 6.33692
#
# Compressibility (1/GPa) = 0.02684972
#
# Stress axis : x y z
#
# Youngs Moduli (GPa) = 92.48055 43.60216 61.37810
#
# Poissons Ratio (x) = 0.25478 -0.06852
# Poissons Ratio (y) = 0.54039 0.42156
# Poissons Ratio (z) = -0.10325 0.29947
#
# Static dielectric constant tensor:
#      x y z
#    x 3.809700 0.000000 0.270480 
#    y 0.000000 3.330700 0.000000 
#    z 0.270480 0.000000 4.118470 
# 
# 
# High freq. dielectric constant tensor:
#      x y z
#    x 1.796870 0.000000 0.000590 
#    y 0.000000 1.785900 0.000000 
#    z 0.000590 0.000000 1.789310 
# 
# From -- ./inp_files/92719.got.cif
#   From: 2010.06.25/outbox.cif.g09.slc.cpg/sg12_47_cif.got.tgz:92719.got - 2010.06.28 00:19:55.
