data_PCOD8109166
_publ_section_title
;
Structure prediction by ZEFSAII (Michael W. Deem and Ramdas Pophale) SiO2 
 PCOD8109166
Probable space group: C 2/M
;
_chemical_formula_sum "Si O2"
_cell_formula_units_Z 56
_cell_length_a 12.188459
_cell_length_b 8.733343
_cell_length_c 20.988511
_cell_angle_alpha 90.000000
_cell_angle_beta 79.121600
_cell_angle_gamma 90.000000
_cell_volume 2193.995193
_symmetry_space_group_name_H-M "C 2/M"
_symmetry_group_IT_number 12
_symmetry_cell_setting 'monoclinic'
loop_
_space_group_symop_operation_xyz
x,y,z
-x,y,-z
-x,-y,-z
x,-y,z
1/2+x,1/2+y,z
1/2-x,1/2+y,-z
1/2-x,1/2-y,-z
1/2+x,1/2-y,z
loop_
_atom_site_type_symbol
_atom_site_label
_atom_site_fract_x
_atom_site_fract_y
_atom_site_fract_z
Si Si1 0.157242 0.176914 0.812486
Si Si2 0.564161 0.177391 0.582199
Si Si3 0.005289 0.676287 0.072317
Si Si4 0.525543 0.325781 0.290877
Si Si5 0.321528 0.818473 0.553072
Si Si6 0.134443 0.826533 0.150860
Si Si7 0.268565 0.820961 0.315587
O O1 0.063884 0.209168 0.875721
O O2 0.256319 0.287829 0.822511
O O3 0.140502 0.225489 0.739025
O O4 0.190325 0.000000 0.811698
O O5 0.564669 0.223689 0.658310
O O6 0.660971 0.249067 0.522712
O O7 0.442953 0.220066 0.569311
O O8 0.585615 0.000000 0.573763
O O9 0.969080 0.500000 0.082778
O O10 0.126586 0.710130 0.090723
O O11 0.000000 0.729127 0.000000
O O12 0.503112 0.500000 0.313340
O O13 0.528033 0.311161 0.212340
O O14 0.648058 0.274096 0.300951
O O15 0.232362 0.727756 0.608554
O O16 0.296907 0.000000 0.558816
O O17 0.143049 0.000000 0.124860
O O18 0.293095 0.000000 0.306163
#
# Coordination Sequence:
#
# PCOD8109166 Si02
#       7
#     8   8   8   8   8   8   8
#     4  11  22  38  62  89 119 157 196 238 290 344
#     4   8  13  20  33  56  91 134 179 228 278 329
#     4  11  25  44  65  91 121 152 190 236 286 345
#     4   8  15  26  42  67 100 138 181 229 278 329
#     4   8  13  21  33  56  92 134 180 229 280 331
#     4  10  21  39  62  89 121 156 196 241 288 343
#     4   9  16  27  44  69 102 141 186 235 283 334
#
# _framework density 25.524211999999999
#
# number of rings (size 3 to 8) (size 9 to 14) (size 15 to 20)
#    0.000    2.714    0.000    4.286    0.000    6.286 
#    0.000    2.857    0.000    0.000    0.000    1.000 
#    0.000    0.000    0.000    0.286    0.000    0.143 
#
# Total GULP energy -347141.904784 kJ/mol
# GULP energy per Si atom -12397.925171 kJ/mol
# Density = 2.546612 g / cm^3
# Si number density = 25.524212 Si / 1000 Ang^3
#
#
#
# Elastic Constant Matrix: (Units=GPa)
#
#
# Indices 1 2 3 4 5 6 
#
# 1 64.0418 11.1082 68.9247 0.0000 1.2829 0.0000
# 2 11.1082 86.7989 56.8006 0.0000 1.8241 0.0000
# 3 68.9247 56.8006 202.6103 0.0000 32.7179 0.0000
# 4 0.0000 0.0000 0.0000 47.6106 0.0000 -1.3468
# 5 1.2829 1.8241 32.7179 0.0000 41.0326 0.0000
# 6 0.0000 0.0000 0.0000 -1.3468 0.0000 27.2861
#
#
#
# Elastic Compliance Matrix: (Units=1/GPa)
#
#
# Indices 1 2 3 4 5 6 
#
# 1 0.027494 0.004058 -0.011849 0.000000 0.008408 0.000000
# 2 0.004058 0.015016 -0.006269 0.000000 0.004204 0.000000
# 3 -0.011849 -0.006269 0.012188 0.000000 -0.009069 0.000000
# 4 0.000000 0.000000 0.000000 0.021033 0.000000 0.001038
# 5 0.008408 0.004204 -0.009069 0.000000 0.031153 0.000000
# 6 0.000000 0.000000 0.000000 0.001038 0.000000 0.036700
#
#
# Mechanical properties :
#
#
# Convention : Reuss Voigt Hill
#
# Bulk Modulus (GPa) = 37.62264 69.67977 53.65121
# Shear Modulus (GPa) = 27.69127 37.62702 32.65915
#
# Velocity S-wave (km/s) = 3.29736 3.84366 3.58094
# Velocity P-wave (km/s) = 5.41006 6.85981 6.17761
#
# Compressibility (1/GPa) = 0.02657974
#
# Stress axis : x y z
#
# Youngs Moduli (GPa) = 36.37103 66.59759 82.04609
#
# Poissons Ratio (x) = -0.27027 0.97213
# Poissons Ratio (y) = -0.14760 0.51435
# Poissons Ratio (z) = 0.43094 0.41750
#
# Static dielectric constant tensor:
#      x y z
#    x 5.595460 0.000000 0.080560 
#    y 0.000000 4.027970 0.000000 
#    z 0.080560 0.000000 5.125100 
# 
# 
# High freq. dielectric constant tensor:
#      x y z
#    x 2.097070 0.000000 0.015980 
#    y 0.000000 1.986350 0.000000 
#    z 0.015980 0.000000 2.052770 
# 
# From -- ./inp_files/313673.got.cif
#   From: 2010.06.25/outbox.cif.g09.slc.cpg/sg12_157_cif.got.tgz:313673.got - 2010.06.28 00:19:55.
