data_PCOD8109390
_publ_section_title
;
Structure prediction by ZEFSAII (Michael W. Deem and Ramdas Pophale) SiO2 
 PCOD8109390
Probable space group: C 2/M
;
_chemical_formula_sum "Si O2"
_cell_formula_units_Z 56
_cell_length_a 23.875320
_cell_length_b 14.480087
_cell_length_c 8.646611
_cell_angle_alpha 90.000000
_cell_angle_beta 58.230605
_cell_angle_gamma 90.000000
_cell_volume 2541.406509
_symmetry_space_group_name_H-M "C 2/M"
_symmetry_group_IT_number 12
_symmetry_cell_setting 'monoclinic'
loop_
_space_group_symop_operation_xyz
x,y,z
-x,y,-z
-x,-y,-z
x,-y,z
1/2+x,1/2+y,z
1/2-x,1/2+y,-z
1/2-x,1/2-y,-z
1/2+x,1/2-y,z
loop_
_atom_site_type_symbol
_atom_site_label
_atom_site_fract_x
_atom_site_fract_y
_atom_site_fract_z
Si Si1 0.660146 0.394561 0.243092
Si Si2 0.612898 0.602665 0.656141
Si Si3 0.126045 0.606864 0.457964
Si Si4 0.195635 0.601283 0.872503
Si Si5 0.030662 0.279013 0.796660
Si Si6 0.600371 0.222338 0.188270
Si Si7 0.753818 0.642925 0.526460
O O1 0.645423 0.500000 0.215717
O O2 0.630632 0.372957 0.454169
O O3 0.737940 0.373863 0.130752
O O4 0.625771 0.326608 0.172042
O O5 0.581990 0.500000 0.715713
O O6 0.560968 0.678161 0.789818
O O7 0.680080 0.604931 0.659118
O O8 0.107226 0.500000 0.463808
O O9 0.085889 0.649527 0.660070
O O10 0.109789 0.660640 0.325730
O O11 0.203668 0.619403 0.382721
O O12 0.170465 0.500000 0.962045
O O13 0.210707 0.594410 0.669301
O O14 0.140436 0.677183 0.988268
O O15 0.976160 0.271779 0.742021
O O16 0.000000 0.317687 0.000000
O O17 0.750000 0.750000 0.500000
#
# Coordination Sequence:
#
# PCOD8109390 Si02
#       7
#     8   8   8   8   8   8   8
#     4   9  19  38  66  97 127 165 216 269 327 388
#     4  10  21  42  69  97 129 169 217 269 324 388
#     4  12  25  43  67 100 132 169 220 272 328 388
#     4  10  21  39  63  97 134 169 211 262 327 394
#     4  12  27  45  64  90 130 179 223 267 324 389
#     4  12  24  41  66  93 136 177 214 268 326 388
#     4  11  20  40  73  99 131 171 212 270 329 385
#
# _framework density 22.035042000000001
#
# number of rings (size 3 to 8) (size 9 to 14) (size 15 to 20)
#    0.000    1.143    2.857    5.143    0.000    2.857 
#    0.000    1.429    0.000    0.000    0.000    0.000 
#    0.000    0.000    0.000    0.000    0.000    0.000 
#
# Total GULP energy -347324.969188 kJ/mol
# GULP energy per Si atom -12404.463185 kJ/mol
# Density = 2.198489 g / cm^3
# Si number density = 22.035042 Si / 1000 Ang^3
#
#
#
# Elastic Constant Matrix: (Units=GPa)
#
#
# Indices 1 2 3 4 5 6 
#
# 1 140.4416 38.8434 21.8105 0.0000 3.0601 0.0000
# 2 38.8434 128.0548 17.5578 0.0000 -5.4325 0.0000
# 3 21.8105 17.5578 58.1960 0.0000 -1.9135 0.0000
# 4 0.0000 0.0000 0.0000 26.2378 0.0000 3.8745
# 5 3.0601 -5.4325 -1.9135 0.0000 24.0689 0.0000
# 6 0.0000 0.0000 0.0000 3.8745 0.0000 18.1110
#
#
#
# Elastic Compliance Matrix: (Units=1/GPa)
#
#
# Indices 1 2 3 4 5 6 
#
# 1 0.008149 -0.002210 -0.002444 0.000000 -0.001729 0.000000
# 2 -0.002210 0.008811 -0.001760 0.000000 0.002130 0.000000
# 3 -0.002444 -0.001760 0.018676 0.000000 0.001398 0.000000
# 4 0.000000 0.000000 0.000000 0.039356 0.000000 -0.008419
# 5 -0.001729 0.002130 0.001398 0.000000 0.042359 0.000000
# 6 0.000000 0.000000 0.000000 -0.008419 0.000000 0.057016
#
#
# Mechanical properties :
#
#
# Convention : Reuss Voigt Hill
#
# Bulk Modulus (GPa) = 43.84431 53.67954 48.76193
# Shear Modulus (GPa) = 25.66748 30.24892 27.95820
#
# Velocity S-wave (km/s) = 3.41669 3.70910 3.56590
# Velocity P-wave (km/s) = 5.95867 6.53889 6.25551
#
# Compressibility (1/GPa) = 0.02280798
#
# Stress axis : x y z
#
# Youngs Moduli (GPa) = 122.71584 113.49162 53.54389
#
# Poissons Ratio (x) = 0.25083 0.13087
# Poissons Ratio (y) = 0.27121 0.09424
# Poissons Ratio (z) = 0.29993 0.19975
#
# Static dielectric constant tensor:
#      x y z
#    x 4.045620 0.000000 -0.076010 
#    y 0.000000 4.136520 0.000000 
#    z -0.076010 0.000000 3.715410 
# 
# 
# High freq. dielectric constant tensor:
#      x y z
#    x 1.866470 0.000000 -0.002290 
#    y 0.000000 1.880600 0.000000 
#    z -0.002290 0.000000 1.845580 
# 
# From -- ./inp_files/96793.got.cif
#   From: 2010.06.25/outbox.cif.g09.slc.cpg/sg12_49_cif.got.tgz:96793.got - 2010.06.28 00:19:55.
