data_PCOD8109581
_publ_section_title
;
Structure prediction by ZEFSAII (Michael W. Deem and Ramdas Pophale) SiO2 
 PCOD8109581
Probable space group: C 2/M
;
_chemical_formula_sum "Si O2"
_cell_formula_units_Z 56
_cell_length_a 19.137408
_cell_length_b 14.406077
_cell_length_c 20.662971
_cell_angle_alpha 90.000000
_cell_angle_beta 151.925411
_cell_angle_gamma 90.000000
_cell_volume 2680.973697
_symmetry_space_group_name_H-M "C 2/M"
_symmetry_group_IT_number 12
_symmetry_cell_setting 'monoclinic'
loop_
_space_group_symop_operation_xyz
x,y,z
-x,y,-z
-x,-y,-z
x,-y,z
1/2+x,1/2+y,z
1/2-x,1/2+y,-z
1/2-x,1/2-y,-z
1/2+x,1/2-y,z
loop_
_atom_site_type_symbol
_atom_site_label
_atom_site_fract_x
_atom_site_fract_y
_atom_site_fract_z
Si Si1 0.882049 0.606466 0.555985
Si Si2 0.776114 0.895744 0.442073
Si Si3 0.913546 0.892764 0.138100
Si Si4 0.884057 0.893600 0.260039
Si Si5 0.832725 0.249443 0.857853
Si Si6 0.287441 0.893606 0.143214
Si Si7 0.689744 0.716603 0.307143
O O1 0.886197 0.500000 0.537056
O O2 0.762011 0.622966 0.514143
O O3 0.835508 0.668936 0.457146
O O4 0.042404 0.639868 0.712470
O O5 0.686990 0.825449 0.323504
O O6 0.951318 0.882103 0.577108
O O7 0.726596 0.000000 0.382130
O O8 0.875254 0.857495 0.178778
O O9 0.042849 0.832298 0.212773
O O10 0.967733 0.000000 0.184890
O O11 0.765393 0.881026 0.974034
O O12 0.775655 0.834485 0.216025
O O13 0.832091 0.000000 0.221212
O O14 0.815643 0.165891 0.894218
O O15 0.797249 0.207512 0.758813
O O16 0.000000 0.287220 0.000000
O O17 0.270567 0.000000 0.151122
#
# Coordination Sequence:
#
# PCOD8109581 Si02
#       7
#     8   8   8   8   8   8   8
#     4  10  21  39  66 100 130 158 214 276 324 377
#     4  10  22  40  65  98 128 164 213 274 332 375
#     4  10  21  41  70  98 124 170 223 267 324 380
#     4  10  23  44  69  94 129 171 220 273 321 381
#     4  12  27  43  59  96 134 175 219 261 326 390
#     4  10  23  41  63  95 135 171 208 266 327 385
#     4  12  23  39  67  96 126 175 215 266 319 388
#
# _framework density 20.887934000000001
#
# number of rings (size 3 to 8) (size 9 to 14) (size 15 to 20)
#    0.000    1.429    2.857    1.714    2.000    6.286 
#    0.000    4.286    0.000    0.000    0.000    0.000 
#    0.000    0.000    0.000    0.000    0.000    0.000 
#
# Total GULP energy -347365.352450 kJ/mol
# GULP energy per Si atom -12405.905445 kJ/mol
# Density = 2.084039 g / cm^3
# Si number density = 20.887934 Si / 1000 Ang^3
#
#
#
# Elastic Constant Matrix: (Units=GPa)
#
#
# Indices 1 2 3 4 5 6 
#
# 1 62.5351 19.6058 19.0462 -0.0028 14.1871 0.0039
# 2 19.6058 71.8100 30.4322 0.0025 10.0096 0.0049
# 3 19.0462 30.4322 98.7408 0.0040 11.6262 0.0055
# 4 -0.0028 0.0025 0.0040 30.4166 -0.0015 6.9312
# 5 14.1871 10.0096 11.6262 -0.0015 34.3933 -0.0016
# 6 0.0039 0.0049 0.0055 6.9312 -0.0016 24.8186
#
#
#
# Elastic Compliance Matrix: (Units=1/GPa)
#
#
# Indices 1 2 3 4 5 6 
#
# 1 0.019079 -0.003559 -0.001852 0.000003 -0.006208 -0.000003
# 2 -0.003559 0.017009 -0.004318 -0.000001 -0.002023 -0.000002
# 3 -0.001852 -0.004318 0.012058 -0.000001 -0.002055 -0.000001
# 4 0.000003 -0.000001 -0.000001 0.035111 0.000001 -0.009806
# 5 -0.006208 -0.002023 -0.002055 0.000001 0.032920 0.000004
# 6 -0.000003 -0.000002 -0.000001 -0.009806 0.000004 0.043031
#
#
# Mechanical properties :
#
#
# Convention : Reuss Voigt Hill
#
# Bulk Modulus (GPa) = 34.85736 41.25049 38.05392
# Shear Modulus (GPa) = 26.56353 28.85914 27.71133
#
# Velocity S-wave (km/s) = 3.56998 3.72104 3.64630
# Velocity P-wave (km/s) = 5.80664 6.18489 5.99875
#
# Compressibility (1/GPa) = 0.02868834
#
# Stress axis : x y z
#
# Youngs Moduli (GPa) = 52.41263 58.79261 82.93572
#
# Poissons Ratio (x) = 0.20923 0.15363
# Poissons Ratio (y) = 0.18652 0.35808
# Poissons Ratio (z) = 0.09709 0.25384
#
# Static dielectric constant tensor:
#      x y z
#    x 3.621970 0.000000 -0.072210 
#    y 0.000000 3.911760 -0.000020 
#    z -0.072210 -0.000020 3.850430 
# 
# 
# High freq. dielectric constant tensor:
#      x y z
#    x 1.802000 0.000000 -0.001170 
#    y 0.000000 1.829250 0.000000 
#    z -0.001170 0.000000 1.824510 
# 
# From -- ./inp_files/316764.got.cif
#   From: 2010.06.25/outbox.cif.g09.slc.cpg/sg12_159_cif.got.tgz:316764.got - 2010.06.28 00:19:55.
