data_PCOD8109360
_publ_section_title
;
Structure prediction by ZEFSAII (Michael W. Deem and Ramdas Pophale) SiO2 
 PCOD8109360
Probable space group: C 2/M
;
_chemical_formula_sum "Si O2"
_cell_formula_units_Z 48
_cell_length_a 20.287932
_cell_length_b 15.508711
_cell_length_c 12.319358
_cell_angle_alpha 90.000000
_cell_angle_beta 140.727580
_cell_angle_gamma 90.000000
_cell_volume 2453.640693
_symmetry_space_group_name_H-M "C 2/M"
_symmetry_group_IT_number 12
_symmetry_cell_setting 'monoclinic'
loop_
_space_group_symop_operation_xyz
x,y,z
-x,y,-z
-x,-y,-z
x,-y,z
1/2+x,1/2+y,z
1/2-x,1/2+y,-z
1/2-x,1/2-y,-z
1/2+x,1/2-y,z
loop_
_atom_site_type_symbol
_atom_site_label
_atom_site_fract_x
_atom_site_fract_y
_atom_site_fract_z
Si Si1 0.242989 0.801556 0.825962
Si Si2 0.612231 0.098408 0.143099
Si Si3 0.568512 0.500000 0.925042
Si Si4 0.943984 0.722702 0.535544
Si Si5 0.342596 0.500000 0.736793
Si Si6 0.293579 0.155922 0.517233
Si Si7 0.124654 0.828080 0.882490
O O1 0.316838 0.867432 0.861484
O O2 0.143843 0.786600 0.622526
O O3 0.206872 0.845311 0.891512
O O4 0.311488 0.716147 0.937673
O O5 0.661406 0.108861 0.322376
O O6 0.596106 0.000000 0.093368
O O7 0.500000 0.145974 0.000000
O O8 0.456271 0.500000 0.833476
O O9 0.578852 0.417544 0.862403
O O10 0.655385 0.500000 0.129826
O O11 0.883390 0.658552 0.539141
O O12 0.000000 0.678856 0.500000
O O13 0.029633 0.770489 0.717398
O O14 0.293217 0.590889 0.637721
O O15 0.250000 0.250000 0.500000
#
# Coordination Sequence:
#
# PCOD8109360 Si02
#       7
#     8   8   4   8   4   8   8
#     4  10  21  41  63  90 123 164 204 255 308 374
#     4  11  24  39  61  91 123 158 210 257 300 367
#     4  11  24  40  60  93 127 159 200 266 310 363
#     4  10  21  39  63  93 121 162 212 254 305 372
#     4  11  26  42  59  94 127 158 220 252 301 385
#     4  12  22  41  67  88 125 169 200 253 318 360
#     4  10  22  40  64  93 125 159 210 253 313 379
#
# _framework density 19.562766
#
# number of rings (size 3 to 8) (size 9 to 14) (size 15 to 20)
#    0.000    1.333    2.500    3.000    1.167    0.000 
#    0.000    1.667    0.000    0.000    0.000    0.000 
#    0.000    0.000    0.000    0.000    0.000    0.000 
#
# Total GULP energy -297469.631275 kJ/mol
# GULP energy per Si atom -12394.567970 kJ/mol
# Density = 1.951824 g / cm^3
# Si number density = 19.562766 Si / 1000 Ang^3
#
#
#
# Elastic Constant Matrix: (Units=GPa)
#
#
# Indices 1 2 3 4 5 6 
#
# 1 130.5968 50.6634 36.8665 0.0000 1.6577 0.0000
# 2 50.6634 71.3262 19.4199 0.0000 -2.1788 0.0000
# 3 36.8665 19.4199 101.3630 0.0000 5.0609 0.0000
# 4 0.0000 0.0000 0.0000 -171.5171 0.0000 35.4186
# 5 1.6577 -2.1788 5.0609 0.0000 31.0925 0.0000
# 6 0.0000 0.0000 0.0000 35.4186 0.0000 25.3018
#
#
#
# Elastic Compliance Matrix: (Units=1/GPa)
#
#
# Indices 1 2 3 4 5 6 
#
# 1 0.011241 -0.007281 -0.002660 0.000000 -0.000677 0.000000
# 2 -0.007281 0.019579 -0.001200 0.000000 0.001956 0.000000
# 3 -0.002660 -0.001200 0.011151 0.000000 -0.001757 0.000000
# 4 0.000000 0.000000 0.000000 -0.004523 0.000000 0.006331
# 5 -0.000677 0.001956 -0.001757 0.000000 0.032621 0.000000
# 6 0.000000 0.000000 0.000000 0.006331 0.000000 0.030660
#
#
# Mechanical properties :
#
#
# Convention : Reuss Voigt Hill
#
# Bulk Modulus (GPa) = 50.79326 57.46508 54.12917
# Shear Modulus (GPa) = 38.58802 -9.93546 14.32628
#
# Velocity S-wave (km/s) = 4.44613 -2.25606 2.70908
# Velocity P-wave (km/s) = 7.23727 4.75942 6.12495
#
# Compressibility (1/GPa) = 0.01968765
#
# Stress axis : x y z
#
# Youngs Moduli (GPa) = 88.95838 51.07638 89.68110
#
# Poissons Ratio (x) = 0.37190 0.23853
# Poissons Ratio (y) = 0.64772 0.10765
# Poissons Ratio (z) = 0.23661 0.06131
#
# Static dielectric constant tensor:
#      x y z
#    x 4.068150 0.000000 -0.051750 
#    y 0.000000 3.508680 0.000000 
#    z -0.051750 0.000000 3.860280 
# 
# 
# High freq. dielectric constant tensor:
#      x y z
#    x 1.785910 0.000000 -0.000270 
#    y 0.000000 1.736540 0.000000 
#    z -0.000270 0.000000 1.783840 
# 
# From -- ./inp_files/143915.got.cif
#   From: 2010.06.25/outbox.cif.g09.slc.cpg/sg12_72_cif.got.tgz:143915.got - 2010.06.28 00:19:55.
