data_PCOD8109993
_publ_section_title
;
Structure prediction by ZEFSAII (Michael W. Deem and Ramdas Pophale) SiO2 
 PCOD8109993
Probable space group: C 2/M
;
_chemical_formula_sum "Si O2"
_cell_formula_units_Z 40
_cell_length_a 24.076941
_cell_length_b 8.715503
_cell_length_c 16.909630
_cell_angle_alpha 90.000000
_cell_angle_beta 33.228509
_cell_angle_gamma 90.000000
_cell_volume 1944.429446
_symmetry_space_group_name_H-M "C 2/M"
_symmetry_group_IT_number 12
_symmetry_cell_setting 'monoclinic'
loop_
_space_group_symop_operation_xyz
x,y,z
-x,y,-z
-x,-y,-z
x,-y,z
1/2+x,1/2+y,z
1/2-x,1/2+y,-z
1/2-x,1/2-y,-z
1/2+x,1/2-y,z
loop_
_atom_site_type_symbol
_atom_site_label
_atom_site_fract_x
_atom_site_fract_y
_atom_site_fract_z
Si Si1 0.846172 0.178293 0.345483
Si Si2 0.039698 0.818003 0.211206
Si Si3 0.937359 0.681044 0.652029
Si Si4 0.783471 0.681145 0.095465
Si Si5 0.880902 0.326481 0.144583
O O1 0.750000 0.250000 0.500000
O O2 0.839227 0.214827 0.261278
O O3 0.949704 0.242242 0.261357
O O4 0.841405 0.000000 0.365770
O O5 0.012958 0.766063 0.331998
O O6 0.052861 0.000000 0.191417
O O7 0.144898 0.738915 0.060573
O O8 0.943825 0.500000 0.657457
O O9 0.821860 0.731541 0.781239
O O10 0.000000 0.732047 0.500000
O O11 0.766078 0.500000 0.106987
O O12 0.835661 0.726920 0.115531
O O13 0.848045 0.500000 0.203898
O O14 0.000000 0.309969 0.000000
#
# Coordination Sequence:
#
# PCOD8109993 Si02
#       5
#     8   8   8   8   8
#     4  11  25  41  63  94 130 169 208 256 310 369
#     4  11  24  43  66  93 125 165 212 257 309 372
#     4  11  26  45  65  92 125 163 209 261 316 371
#     4  11  23  41  68  95 126 166 207 258 311 369
#     4  10  21  40  65  95 128 164 206 251 308 372
#
# _framework density 20.571586
#
# number of rings (size 3 to 8) (size 9 to 14) (size 15 to 20)
#    0.000    1.200    2.000    3.000    2.800    6.000 
#    0.000    0.000    0.000    0.000    0.000    0.000 
#    0.000    0.000    0.000    0.000    0.000    0.000 
#
# Total GULP energy -248116.186737 kJ/mol
# GULP energy per Si atom -12405.809337 kJ/mol
# Density = 2.052476 g / cm^3
# Si number density = 20.571586 Si / 1000 Ang^3
#
#
#
# Elastic Constant Matrix: (Units=GPa)
#
#
# Indices 1 2 3 4 5 6 
#
# 1 83.0305 13.4182 28.5678 -0.0030 18.2331 0.0013
# 2 13.4182 37.8175 24.1230 0.0083 1.1406 -0.0033
# 3 28.5678 24.1230 111.6587 0.0063 9.6203 -0.0032
# 4 -0.0030 0.0083 0.0063 40.6899 -0.0024 2.7492
# 5 18.2331 1.1406 9.6203 -0.0024 34.6778 0.0003
# 6 0.0013 -0.0033 -0.0032 2.7492 0.0003 37.5513
#
#
#
# Elastic Compliance Matrix: (Units=1/GPa)
#
#
# Indices 1 2 3 4 5 6 
#
# 1 0.015024 -0.003543 -0.002467 0.000002 -0.007098 -0.000001
# 2 -0.003543 0.031529 -0.006123 -0.000006 0.002524 0.000003
# 3 -0.002467 -0.006123 0.011045 -0.000001 -0.001566 0.000001
# 4 0.000002 -0.000006 -0.000001 0.024698 0.000001 -0.001808
# 5 -0.007098 0.002524 -0.001566 0.000001 0.032920 0.000000
# 6 -0.000001 0.000003 0.000001 -0.001808 0.000000 0.026763
#
#
# Mechanical properties :
#
#
# Convention : Reuss Voigt Hill
#
# Bulk Modulus (GPa) = 30.00057 40.52498 35.26277
# Shear Modulus (GPa) = 28.19201 33.67698 30.93449
#
# Velocity S-wave (km/s) = 3.70595 4.05045 3.88203
# Velocity P-wave (km/s) = 5.73823 6.45114 6.10510
#
# Compressibility (1/GPa) = 0.03333270
#
# Stress axis : x y z
#
# Youngs Moduli (GPa) = 66.56072 31.71654 90.54171
#
# Poissons Ratio (x) = 0.11237 0.22335
# Poissons Ratio (y) = 0.23583 0.55436
# Poissons Ratio (z) = 0.16419 0.19419
#
# Static dielectric constant tensor:
#      x y z
#    x 3.775230 0.000000 -0.101050 
#    y 0.000000 3.730990 0.000000 
#    z -0.101050 0.000000 3.602220 
# 
# 
# High freq. dielectric constant tensor:
#      x y z
#    x 1.821910 0.000000 0.003010 
#    y 0.000000 1.807960 0.000000 
#    z 0.003010 0.000000 1.811200 
# 
# From -- ./inp_files/221234.got.cif
#   From: 2010.06.25/outbox.cif.g09.slc.cpg/sg12_111_cif.got.tgz:221234.got - 2010.06.28 00:19:55.
