data_PCOD8109515
_publ_section_title
;
Structure prediction by ZEFSAII (Michael W. Deem and Ramdas Pophale) SiO2 
 PCOD8109515
Probable space group: C 2/M
;
_chemical_formula_sum "Si O2"
_cell_formula_units_Z 48
_cell_length_a 18.654935
_cell_length_b 15.934357
_cell_length_c 10.996070
_cell_angle_alpha 90.000000
_cell_angle_beta 40.420870
_cell_angle_gamma 90.000000
_cell_volume 2119.370780
_symmetry_space_group_name_H-M "C 2/M"
_symmetry_group_IT_number 12
_symmetry_cell_setting 'monoclinic'
loop_
_space_group_symop_operation_xyz
x,y,z
-x,y,-z
-x,-y,-z
x,-y,z
1/2+x,1/2+y,z
1/2-x,1/2+y,-z
1/2-x,1/2-y,-z
1/2+x,1/2-y,z
loop_
_atom_site_type_symbol
_atom_site_label
_atom_site_fract_x
_atom_site_fract_y
_atom_site_fract_z
Si Si1 0.593213 0.212352 0.614612
Si Si2 0.745970 0.706330 0.220768
Si Si3 0.690330 0.406208 0.073963
Si Si4 0.933679 0.408714 0.708551
Si Si5 0.120483 0.597306 0.791149
Si Si6 0.547913 0.669093 0.067211
O O1 0.661152 0.236631 0.407033
O O2 0.478839 0.164803 0.733446
O O3 0.656645 0.149669 0.624155
O O4 0.561948 0.295350 0.727704
O O5 0.683623 0.670249 0.180873
O O6 0.785256 0.620344 0.233783
O O7 0.855268 0.761820 0.063490
O O8 0.685028 0.500000 0.139480
O O9 0.593468 0.403018 0.098010
O O10 0.804502 0.392309 0.852458
O O11 0.949225 0.500000 0.753401
O O12 0.000000 0.409154 0.500000
O O13 0.125166 0.500000 0.753283
O O14 0.000000 0.623603 0.000000
O O15 0.500000 0.635473 0.000000
#
# Coordination Sequence:
#
# PCOD8109515 Si02
#       6
#     8   8   8   8   8   8
#     4  12  23  38  67 102 137 180 220 281 339 402
#     4  12  23  42  69 104 134 179 230 279 340 403
#     4  11  25  46  70  97 136 181 227 284 341 403
#     4  10  21  39  65 101 134 167 220 284 348 401
#     4  11  21  40  68 101 143 181 225 289 348 401
#     4  12  25  44  67 101 135 176 229 276 343 409
#
# _framework density 22.648230999999999
#
# number of rings (size 3 to 8) (size 9 to 14) (size 15 to 20)
#    0.000    0.667    5.000    3.000    2.333    3.000 
#    0.000    3.333    0.000    0.000    0.000    0.000 
#    0.000    0.000    0.000    0.000    0.000    0.000 
#
# Total GULP energy -297413.991123 kJ/mol
# GULP energy per Si atom -12392.249630 kJ/mol
# Density = 2.259668 g / cm^3
# Si number density = 22.648231 Si / 1000 Ang^3
#
#
#
# Elastic Constant Matrix: (Units=GPa)
#
#
# Indices 1 2 3 4 5 6 
#
# 1 132.3156 33.9401 15.8392 0.0000 10.2340 0.0000
# 2 33.9401 76.8374 41.0457 0.0000 5.9859 0.0000
# 3 15.8392 41.0457 95.7916 0.0000 14.4367 0.0000
# 4 0.0000 0.0000 0.0000 68.9665 0.0000 -14.2170
# 5 10.2340 5.9859 14.4367 0.0000 27.1446 0.0000
# 6 0.0000 0.0000 0.0000 -14.2170 0.0000 42.3084
#
#
#
# Elastic Compliance Matrix: (Units=1/GPa)
#
#
# Indices 1 2 3 4 5 6 
#
# 1 0.008716 -0.004004 0.000692 0.000000 -0.002771 0.000000
# 2 -0.004004 0.018717 -0.007570 0.000000 0.001408 0.000000
# 3 0.000692 -0.007570 0.014520 0.000000 -0.006314 0.000000
# 4 0.000000 0.000000 0.000000 0.015579 0.000000 0.005235
# 5 -0.002771 0.001408 -0.006314 0.000000 0.040932 0.000000
# 6 0.000000 0.000000 0.000000 0.005235 0.000000 0.025395
#
#
# Mechanical properties :
#
#
# Convention : Reuss Voigt Hill
#
# Bulk Modulus (GPa) = 49.53073 54.06607 51.79840
# Shear Modulus (GPa) = 32.81825 41.95855 37.38840
#
# Velocity S-wave (km/s) = 3.81076 4.30888 4.06745
# Velocity P-wave (km/s) = 6.42492 6.97704 6.70666
#
# Compressibility (1/GPa) = 0.02018949
#
# Stress axis : x y z
#
# Youngs Moduli (GPa) = 114.72879 53.42636 68.86895
#
# Poissons Ratio (x) = 0.21391 -0.04766
# Poissons Ratio (y) = 0.45936 0.52136
# Poissons Ratio (z) = -0.07940 0.40446
#
# Static dielectric constant tensor:
#      x y z
#    x 4.294160 0.000000 0.137210 
#    y 0.000000 4.218330 0.000000 
#    z 0.137210 0.000000 3.922390 
# 
# 
# High freq. dielectric constant tensor:
#      x y z
#    x 1.895360 0.000000 0.008150 
#    y 0.000000 1.891420 0.000000 
#    z 0.008150 0.000000 1.880000 
# 
# From -- ./inp_files/167548.got.cif
#   From: 2010.06.25/outbox.cif.g09.slc.cpg/sg12_84_cif.got.tgz:167548.got - 2010.06.28 00:19:55.
