data_PCOD8109506
_publ_section_title
;
Structure prediction by ZEFSAII (Michael W. Deem and Ramdas Pophale) SiO2 
 PCOD8109506
Probable space group: C 2/M
;
_chemical_formula_sum "Si O2"
_cell_formula_units_Z 64
_cell_length_a 16.846409
_cell_length_b 15.339625
_cell_length_c 14.049867
_cell_angle_alpha 90.000000
_cell_angle_beta 126.608490
_cell_angle_gamma 90.000000
_cell_volume 2914.494992
_symmetry_space_group_name_H-M "C 2/M"
_symmetry_group_IT_number 12
_symmetry_cell_setting 'monoclinic'
loop_
_space_group_symop_operation_xyz
x,y,z
-x,y,-z
-x,-y,-z
x,-y,z
1/2+x,1/2+y,z
1/2-x,1/2+y,-z
1/2-x,1/2-y,-z
1/2+x,1/2-y,z
loop_
_atom_site_type_symbol
_atom_site_label
_atom_site_fract_x
_atom_site_fract_y
_atom_site_fract_z
Si Si1 0.758237 0.900004 0.007456
Si Si2 0.071020 0.595713 0.462066
Si Si3 0.099882 0.213963 0.248184
Si Si4 0.641042 0.315295 0.745004
Si Si5 0.946322 0.099877 0.619609
Si Si6 0.450267 0.161216 0.210898
Si Si7 0.305322 0.734652 0.419446
Si Si8 0.382449 0.401510 0.911223
O O1 0.642905 0.885963 0.902846
O O2 0.829199 0.871709 0.970818
O O3 0.777174 0.000000 0.046142
O O4 0.784629 0.844031 0.118596
O O5 0.121745 0.500000 0.507031
O O6 0.151008 0.671229 0.525393
O O7 0.000000 0.610973 0.500000
O O8 0.014344 0.594532 0.319735
O O9 0.051849 0.132231 0.269760
O O10 0.191004 0.258380 0.372288
O O11 0.145616 0.172857 0.184800
O O12 0.016731 0.289803 0.177088
O O13 0.557735 0.387992 0.658609
O O14 0.580599 0.231337 0.733155
O O15 0.703150 0.288860 0.697930
O O16 0.864931 0.156023 0.507521
O O17 0.914720 0.000000 0.590451
O O18 0.345864 0.500000 0.858741
O O19 0.500000 0.400654 0.000000
#
# Coordination Sequence:
#
# PCOD8109506 Si02
#       8
#     8   8   8   8   8   8   8   8
#     4  11  24  42  67  98 130 172 227 278 332 399
#     4  11  22  39  66  97 134 176 221 279 339 397
#     4  11  24  39  63  91 135 172 220 266 339 396
#     4  11  22  40  67  91 130 168 222 271 335 392
#     4  11  23  40  65  94 130 172 219 272 329 394
#     4  11  22  41  62  93 134 176 216 272 327 401
#     4  12  23  43  63  96 132 175 222 279 328 396
#     4  10  21  39  64  97 132 165 215 279 338 395
#
# _framework density 21.959205999999998
#
# number of rings (size 3 to 8) (size 9 to 14) (size 15 to 20)
#    0.000    1.000    3.750    4.500    0.000    4.500 
#    0.000    0.625    0.000    0.750    0.000    0.000 
#    0.000    0.000    0.000    0.000    0.000    0.000 
#
# Total GULP energy -396709.006308 kJ/mol
# GULP energy per Si atom -12397.156447 kJ/mol
# Density = 2.190923 g / cm^3
# Si number density = 21.959206 Si / 1000 Ang^3
#
#
#
# Elastic Constant Matrix: (Units=GPa)
#
#
# Indices 1 2 3 4 5 6 
#
# 1 72.9369 33.3147 30.0658 0.0000 12.6883 0.0000
# 2 33.3147 103.6678 31.0950 0.0000 -0.6347 0.0000
# 3 30.0658 31.0950 90.3167 0.0000 4.1274 0.0000
# 4 0.0000 0.0000 0.0000 -103.1835 0.0000 36.3966
# 5 12.6883 -0.6347 4.1274 0.0000 31.0235 0.0000
# 6 0.0000 0.0000 0.0000 36.3966 0.0000 9.4121
#
#
#
# Elastic Compliance Matrix: (Units=1/GPa)
#
#
# Indices 1 2 3 4 5 6 
#
# 1 0.018969 -0.004847 -0.004313 0.000000 -0.007284 0.000000
# 2 -0.004847 0.012011 -0.002640 0.000000 0.002579 0.000000
# 3 -0.004313 -0.002640 0.013420 0.000000 -0.000075 0.000000
# 4 0.000000 0.000000 0.000000 -0.004100 0.000000 0.015853
# 5 -0.007284 0.002579 -0.000075 0.000000 0.035275 0.000000
# 6 0.000000 0.000000 0.000000 0.015853 0.000000 0.044943
#
#
# Mechanical properties :
#
#
# Convention : Reuss Voigt Hill
#
# Bulk Modulus (GPa) = 48.07374 50.65250 49.36312
# Shear Modulus (GPa) = 33.10093 -1.05320 16.02387
#
# Velocity S-wave (km/s) = 3.88671 -0.69329 2.70425
# Velocity P-wave (km/s) = 6.48706 4.74087 5.68145
#
# Compressibility (1/GPa) = 0.02080138
#
# Stress axis : x y z
#
# Youngs Moduli (GPa) = 52.71645 83.25445 74.51418
#
# Poissons Ratio (x) = 0.40352 0.32139
# Poissons Ratio (y) = 0.25551 0.19670
# Poissons Ratio (z) = 0.22738 0.21977
#
# Static dielectric constant tensor:
#      x y z
#    x 4.068740 0.000000 0.000830 
#    y 0.000000 4.014320 0.000000 
#    z 0.000830 0.000000 3.878370 
# 
# 
# High freq. dielectric constant tensor:
#      x y z
#    x 1.860900 0.000000 0.004300 
#    y 0.000000 1.862930 0.000000 
#    z 0.004300 0.000000 1.862310 
# 
# From -- ./inp_files/225766.got.cif
#   From: 2010.06.25/outbox.cif.g09.slc.cpg/sg12_113_cif.got.tgz:225766.got - 2010.06.28 00:19:55.
