data_PCOD8109723
_publ_section_title
;
Structure prediction by ZEFSAII (Michael W. Deem and Ramdas Pophale) SiO2 
 PCOD8109723
Probable space group: C 2/M
;
_chemical_formula_sum "Si O2"
_cell_formula_units_Z 48
_cell_length_a 30.181152
_cell_length_b 14.481728
_cell_length_c 5.112173
_cell_angle_alpha 90.000000
_cell_angle_beta 91.944506
_cell_angle_gamma 90.000000
_cell_volume 2233.117551
_symmetry_space_group_name_H-M "C 2/M"
_symmetry_group_IT_number 12
_symmetry_cell_setting 'monoclinic'
loop_
_space_group_symop_operation_xyz
x,y,z
-x,y,-z
-x,-y,-z
x,-y,z
1/2+x,1/2+y,z
1/2-x,1/2+y,-z
1/2-x,1/2-y,-z
1/2+x,1/2-y,z
loop_
_atom_site_type_symbol
_atom_site_label
_atom_site_fract_x
_atom_site_fract_y
_atom_site_fract_z
Si Si1 0.231624 0.321920 0.293558
Si Si2 0.358835 0.895427 0.621769
Si Si3 0.145965 0.000000 0.246907
Si Si4 0.112024 0.710925 0.866619
Si Si5 0.528986 0.676482 0.753425
Si Si6 0.086992 0.000000 0.732071
Si Si7 0.813203 0.835816 0.018160
O O1 0.250000 0.250000 0.500000
O O2 0.195018 0.391293 0.402242
O O3 0.274250 0.379118 0.192352
O O4 0.205907 0.263026 0.071097
O O5 0.376725 0.866232 0.343217
O O6 0.373315 0.000000 0.680880
O O7 0.380370 0.829007 0.842197
O O8 0.128489 0.000000 0.538970
O O9 0.105922 0.000000 0.030084
O O10 0.175951 0.091417 0.208973
O O11 0.060800 0.738401 0.832589
O O12 0.141323 0.805174 0.825550
O O13 0.500000 0.707677 0.500000
O O14 0.556820 0.587933 0.671089
O O15 0.500000 0.650947 0.000000
#
# Coordination Sequence:
#
# PCOD8109723 Si02
#       7
#     8   8   4   8   8   4   8
#     4  10  21  40  61  91 130 174 223 278 318 369
#     4  11  24  42  68  97 130 171 223 272 331 386
#     4  12  26  39  66  96 138 182 224 252 326 390
#     4  11  23  43  70  91 132 171 216 267 332 393
#     4  12  25  44  71 101 133 170 218 266 329 401
#     4  12  26  43  66 100 140 176 216 266 320 389
#     4  10  23  40  59  91 131 180 218 268 314 379
#
# _framework density 21.494615
#
# number of rings (size 3 to 8) (size 9 to 14) (size 15 to 20)
#    0.000    1.000    3.333    3.000    8.167    0.000 
#    1.500    0.000    0.000   10.000    0.000    0.000 
#    0.000    0.000    0.000    0.000    0.000    0.000 
#
# Total GULP energy -297584.644021 kJ/mol
# GULP energy per Si atom -12399.360168 kJ/mol
# Density = 2.144569 g / cm^3
# Si number density = 21.494615 Si / 1000 Ang^3
#
#
#
# Elastic Constant Matrix: (Units=GPa)
#
#
# Indices 1 2 3 4 5 6 
#
# 1 95.8060 26.1711 20.2011 0.0000 -13.2823 0.0000
# 2 26.1711 77.9241 2.9375 0.0000 -12.6074 0.0000
# 3 20.2011 2.9375 82.4866 0.0000 -7.2982 0.0000
# 4 0.0000 0.0000 0.0000 27.2880 0.0000 -3.6040
# 5 -13.2823 -12.6074 -7.2982 0.0000 43.2223 0.0000
# 6 0.0000 0.0000 0.0000 -3.6040 0.0000 22.3859
#
#
#
# Elastic Compliance Matrix: (Units=1/GPa)
#
#
# Indices 1 2 3 4 5 6 
#
# 1 0.012320 -0.003671 -0.002686 0.000000 0.002262 0.000000
# 2 -0.003671 0.014564 0.000666 0.000000 0.003233 0.000000
# 3 -0.002686 0.000666 0.012894 0.000000 0.001546 0.000000
# 4 0.000000 0.000000 0.000000 0.037442 0.000000 0.006028
# 5 0.002262 0.003233 0.001546 0.000000 0.025035 0.000000
# 6 0.000000 0.000000 0.000000 0.006028 0.000000 0.045642
#
#
# Mechanical properties :
#
#
# Convention : Reuss Voigt Hill
#
# Bulk Modulus (GPa) = 35.21535 39.42623 37.32079
# Shear Modulus (GPa) = 29.63059 32.37304 31.00182
#
# Velocity S-wave (km/s) = 3.71686 3.88506 3.80189
# Velocity P-wave (km/s) = 5.90245 6.20541 6.05583
#
# Compressibility (1/GPa) = 0.02839671
#
# Stress axis : x y z
#
# Youngs Moduli (GPa) = 81.16561 68.66397 77.55452
#
# Poissons Ratio (x) = 0.25204 0.20835
# Poissons Ratio (y) = 0.29793 -0.05168
# Poissons Ratio (z) = 0.21805 -0.04575
#
# Static dielectric constant tensor:
#      x y z
#    x 3.491460 0.000000 -0.693510 
#    y 0.000000 3.397370 0.000000 
#    z -0.693510 0.000000 3.299650 
# 
# 
# High freq. dielectric constant tensor:
#      x y z
#    x 1.853290 0.000000 -0.001970 
#    y 0.000000 1.825150 0.000000 
#    z -0.001970 0.000000 1.844340 
# 
# From -- ./inp_files/28198.got.cif
#   From: 2010.06.25/outbox.cif.g09.slc.cpg/sg12_15_cif.got.tgz:28198.got - 2010.06.28 00:19:55.
