data_PCOD8109128
_publ_section_title
;
Structure prediction by ZEFSAII (Michael W. Deem and Ramdas Pophale) SiO2 
 PCOD8109128
Probable space group: C 2/M
;
_chemical_formula_sum "Si O2"
_cell_formula_units_Z 48
_cell_length_a 24.569245
_cell_length_b 8.768685
_cell_length_c 12.412786
_cell_angle_alpha 90.000000
_cell_angle_beta 108.944997
_cell_angle_gamma 90.000000
_cell_volume 2529.350094
_symmetry_space_group_name_H-M "C 2/M"
_symmetry_group_IT_number 12
_symmetry_cell_setting 'monoclinic'
loop_
_space_group_symop_operation_xyz
x,y,z
-x,y,-z
-x,-y,-z
x,-y,z
1/2+x,1/2+y,z
1/2-x,1/2+y,-z
1/2-x,1/2-y,-z
1/2+x,1/2-y,z
loop_
_atom_site_type_symbol
_atom_site_label
_atom_site_fract_x
_atom_site_fract_y
_atom_site_fract_z
Si Si1 0.256089 0.178890 0.886963
Si Si2 0.933523 0.179007 0.126637
Si Si3 0.437884 0.321303 0.728596
Si Si4 0.937619 0.678678 0.502544
Si Si5 0.644586 0.820945 0.744813
Si Si6 0.882310 0.678753 0.891955
O O1 0.206876 0.243288 0.776368
O O2 0.316826 0.224351 0.874577
O O3 0.248754 0.000000 0.893523
O O4 0.250000 0.250000 0.000000
O O5 0.887035 0.266311 0.168021
O O6 0.996753 0.227461 0.205181
O O7 0.923431 0.000000 0.132016
O O8 0.925295 0.229976 0.998158
O O9 0.428357 0.500000 0.739374
O O10 0.421868 0.274809 0.597405
O O11 0.395433 0.229401 0.779127
O O12 0.936230 0.500000 0.529163
O O13 0.891246 0.725233 0.383275
O O14 0.000000 0.728074 0.500000
O O15 0.652721 0.000000 0.759566
O O16 0.893111 0.500000 0.913532
#
# Coordination Sequence:
#
# PCOD8109128 Si02
#       6
#     8   8   8   8   8   8
#     4  11  23  39  61  88 119 156 198 247 295 351
#     4  11  22  36  58  89 124 156 191 243 300 354
#     4  11  24  39  59  89 123 158 197 244 300 354
#     4  10  21  39  62  87 119 157 198 244 292 352
#     4  11  22  37  61  91 119 154 199 243 294 350
#     4  11  24  40  60  86 119 160 201 241 296 358
#
# _framework density 18.977207
#
# number of rings (size 3 to 8) (size 9 to 14) (size 15 to 20)
#    0.000    1.167    3.333    3.000    0.000    7.667 
#    0.000    0.833    0.000    0.000    0.000    0.000 
#    0.000    0.000    0.000    0.000    0.000    0.000 
#
# Total GULP energy -297785.883321 kJ/mol
# GULP energy per Si atom -12407.745138 kJ/mol
# Density = 1.893401 g / cm^3
# Si number density = 18.977207 Si / 1000 Ang^3
#
#
#
# Elastic Constant Matrix: (Units=GPa)
#
#
# Indices 1 2 3 4 5 6 
#
# 1 91.2914 38.2326 49.6016 0.0000 2.6758 0.0000
# 2 38.2326 59.2678 32.5515 0.0000 7.1093 0.0000
# 3 49.6016 32.5515 117.0155 0.0000 3.2603 0.0000
# 4 0.0000 0.0000 0.0000 36.4058 0.0000 0.1657
# 5 2.6758 7.1093 3.2603 0.0000 33.7406 0.0000
# 6 0.0000 0.0000 0.0000 0.1657 0.0000 29.2741
#
#
#
# Elastic Compliance Matrix: (Units=1/GPa)
#
#
# Indices 1 2 3 4 5 6 
#
# 1 0.017157 -0.008460 -0.004944 0.000000 0.000900 0.000000
# 2 -0.008460 0.024551 -0.003126 0.000000 -0.004200 0.000000
# 3 -0.004944 -0.003126 0.011513 0.000000 -0.000062 0.000000
# 4 0.000000 0.000000 0.000000 0.027469 0.000000 -0.000156
# 5 0.000900 -0.004200 -0.000062 0.000000 0.030457 0.000000
# 6 0.000000 0.000000 0.000000 -0.000156 0.000000 0.034161
#
#
# Mechanical properties :
#
#
# Convention : Reuss Voigt Hill
#
# Bulk Modulus (GPa) = 49.60453 56.48290 53.04371
# Shear Modulus (GPa) = 27.01395 29.69670 28.35533
#
# Velocity S-wave (km/s) = 3.77702 3.96012 3.86965
# Velocity P-wave (km/s) = 6.72435 7.12308 6.92658
#
# Compressibility (1/GPa) = 0.02015945
#
# Stress axis : x y z
#
# Youngs Moduli (GPa) = 58.28524 40.73170 86.85709
#
# Poissons Ratio (x) = 0.34459 0.42945
# Poissons Ratio (y) = 0.49309 0.27156
# Poissons Ratio (z) = 0.28818 0.12735
#
# Static dielectric constant tensor:
#      x y z
#    x 3.584150 0.000000 0.113010 
#    y 0.000000 3.490780 0.000000 
#    z 0.113010 0.000000 3.492140 
# 
# 
# High freq. dielectric constant tensor:
#      x y z
#    x 1.737040 0.000000 0.004020 
#    y 0.000000 1.748460 0.000000 
#    z 0.004020 0.000000 1.739810 
# 
# From -- ./inp_files/172076.got.cif
#   From: 2010.06.25/outbox.cif.g09.slc.cpg/sg12_87_cif.got.tgz:172076.got - 2010.06.28 00:19:55.
