data_PCOD8109486
_publ_section_title
;
Structure prediction by ZEFSAII (Michael W. Deem and Ramdas Pophale) SiO2 
 PCOD8109486
Probable space group: C 2/M
;
_chemical_formula_sum "Si O2"
_cell_formula_units_Z 48
_cell_length_a 24.501791
_cell_length_b 8.496465
_cell_length_c 11.188276
_cell_angle_alpha 90.000000
_cell_angle_beta 73.207112
_cell_angle_gamma 90.000000
_cell_volume 2229.833580
_symmetry_space_group_name_H-M "C 2/M"
_symmetry_group_IT_number 12
_symmetry_cell_setting 'monoclinic'
loop_
_space_group_symop_operation_xyz
x,y,z
-x,y,-z
-x,-y,-z
x,-y,z
1/2+x,1/2+y,z
1/2-x,1/2+y,-z
1/2-x,1/2-y,-z
1/2+x,1/2-y,z
loop_
_atom_site_type_symbol
_atom_site_label
_atom_site_fract_x
_atom_site_fract_y
_atom_site_fract_z
Si Si1 0.915633 0.317780 0.994590
Si Si2 0.088124 0.183283 0.750125
Si Si3 0.970798 0.180691 0.730628
Si Si4 0.311844 0.316461 0.945311
Si Si5 0.686190 0.814638 0.535576
Si Si6 0.867728 0.682975 0.681102
O O1 0.928434 0.500000 0.962070
O O2 0.951160 0.214634 0.878411
O O3 0.849257 0.278251 0.017830
O O4 0.931806 0.275838 0.119361
O O5 0.149277 0.242744 0.666366
O O6 0.038763 0.215689 0.681843
O O7 0.092609 0.000000 0.778289
O O8 0.935561 0.283402 0.655803
O O9 0.958096 0.000000 0.708758
O O10 0.313905 0.500000 0.973784
O O11 0.333518 0.286915 0.797613
O O12 0.250000 0.250000 0.000000
O O13 0.750000 0.750000 0.500000
O O14 0.654652 0.764437 0.433759
O O15 0.688261 0.000000 0.549892
O O16 0.855601 0.500000 0.712135
#
# Coordination Sequence:
#
# PCOD8109486 Si02
#       6
#     8   8   8   8   8   8
#     4  11  22  37  60  92 127 162 203 253 309 366
#     4  11  24  41  63  91 126 166 208 253 306 368
#     4  10  21  39  64  94 126 162 203 253 310 367
#     4  11  22  37  60  88 121 161 204 251 305 366
#     4  11  26  45  65  89 122 163 209 257 308 366
#     4  10  22  41  63  89 122 159 202 256 309 362
#
# _framework density 21.526271999999999
#
# number of rings (size 3 to 8) (size 9 to 14) (size 15 to 20)
#    0.000    1.333    0.000    7.500    2.333    8.000 
#    0.000    3.333    0.000    0.000    0.000    0.000 
#    0.000    0.000    0.000    0.000    0.000    0.000 
#
# Total GULP energy -297649.597344 kJ/mol
# GULP energy per Si atom -12402.066556 kJ/mol
# Density = 2.147728 g / cm^3
# Si number density = 21.526272 Si / 1000 Ang^3
#
#
#
# Elastic Constant Matrix: (Units=GPa)
#
#
# Indices 1 2 3 4 5 6 
#
# 1 125.4889 18.8356 21.6830 0.0000 1.3467 0.0000
# 2 18.8356 76.8444 7.6130 0.0000 8.1211 0.0000
# 3 21.6830 7.6130 55.0487 0.0000 19.2080 0.0000
# 4 0.0000 0.0000 0.0000 29.8718 0.0000 1.5059
# 5 1.3467 8.1211 19.2080 0.0000 32.6430 0.0000
# 6 0.0000 0.0000 0.0000 1.5059 0.0000 38.2094
#
#
#
# Elastic Compliance Matrix: (Units=1/GPa)
#
#
# Indices 1 2 3 4 5 6 
#
# 1 0.008967 -0.002060 -0.004149 0.000000 0.002584 0.000000
# 2 -0.002060 0.013871 0.000085 0.000000 -0.003416 0.000000
# 3 -0.004149 0.000085 0.024835 0.000000 -0.014463 0.000000
# 4 0.000000 0.000000 0.000000 0.033543 0.000000 -0.001322
# 5 0.002584 -0.003416 -0.014463 0.000000 0.039888 0.000000
# 6 0.000000 0.000000 0.000000 -0.001322 0.000000 0.026224
#
#
# Mechanical properties :
#
#
# Convention : Reuss Voigt Hill
#
# Bulk Modulus (GPa) = 28.22833 39.29393 33.76113
# Shear Modulus (GPa) = 29.17430 34.09486 31.63458
#
# Velocity S-wave (km/s) = 3.68542 3.98411 3.83767
# Velocity P-wave (km/s) = 5.59032 6.28154 5.94598
#
# Compressibility (1/GPa) = 0.03542540
#
# Stress axis : x y z
#
# Youngs Moduli (GPa) = 111.51804 72.09372 40.26608
#
# Poissons Ratio (x) = 0.14851 0.16705
# Poissons Ratio (y) = 0.22973 -0.00342
# Poissons Ratio (z) = 0.46266 -0.00613
#
# Static dielectric constant tensor:
#      x y z
#    x 4.181920 0.000000 0.082040 
#    y 0.000000 4.002600 0.000000 
#    z 0.082040 0.000000 3.700320 
# 
# 
# High freq. dielectric constant tensor:
#      x y z
#    x 1.863760 0.000000 0.005270 
#    y 0.000000 1.854780 0.000000 
#    z 0.005270 0.000000 1.828920 
# 
# From -- ./inp_files/172175.got.cif
#   From: 2010.06.25/outbox.cif.g09.slc.cpg/sg12_87_cif.got.tgz:172175.got - 2010.06.28 00:19:55.
