data_PCOD8109316
_publ_section_title
;
Structure prediction by ZEFSAII (Michael W. Deem and Ramdas Pophale) SiO2 
 PCOD8109316
Probable space group: C 2/M
;
_chemical_formula_sum "Si O2"
_cell_formula_units_Z 44
_cell_length_a 11.024630
_cell_length_b 17.030936
_cell_length_c 13.005217
_cell_angle_alpha 90.000000
_cell_angle_beta 123.550205
_cell_angle_gamma 90.000000
_cell_volume 2035.047798
_symmetry_space_group_name_H-M "C 2/M"
_symmetry_group_IT_number 12
_symmetry_cell_setting 'monoclinic'
loop_
_space_group_symop_operation_xyz
x,y,z
-x,y,-z
-x,-y,-z
x,-y,z
1/2+x,1/2+y,z
1/2-x,1/2+y,-z
1/2-x,1/2-y,-z
1/2+x,1/2-y,z
loop_
_atom_site_type_symbol
_atom_site_label
_atom_site_fract_x
_atom_site_fract_y
_atom_site_fract_z
Si Si1 0.451891 0.411310 0.177015
Si Si2 0.352733 0.174290 0.462573
Si Si3 0.428404 0.657045 0.569438
Si Si4 0.654964 0.910887 0.921431
Si Si5 0.807503 0.820843 0.820246
Si Si6 0.000000 0.307175 0.000000
O O1 0.505381 0.500000 0.221994
O O2 0.461801 0.362547 0.287143
O O3 0.550766 0.373804 0.134678
O O4 0.287742 0.408919 0.062933
O O5 0.500000 0.125173 0.500000
O O6 0.413977 0.249159 0.553597
O O7 0.236547 0.125665 0.478950
O O8 0.267299 0.204301 0.321476
O O9 0.500000 0.619625 0.500000
O O10 0.693003 0.871923 0.830770
O O11 0.602731 0.000000 0.877598
O O12 0.526268 0.861082 0.912584
O O13 0.857568 0.744922 0.908086
#
# Coordination Sequence:
#
# PCOD8109316 Si02
#       6
#     8   8   8   8   8   4
#     4  10  21  39  63  90 125 167 212 255 312 385
#     4   9  20  36  59  87 120 158 207 263 312 363
#     4   9  19  34  56  84 118 157 202 253 311 362
#     4  11  24  42  61  91 134 169 202 257 328 387
#     4  11  22  39  67  93 123 163 217 265 310 373
#     4  12  25  36  63  96 128 162 208 262 319 378
#
# _framework density 21.621113999999999
#
# number of rings (size 3 to 8) (size 9 to 14) (size 15 to 20)
#    0.000    1.818    1.818    1.364    5.091    6.182 
#    0.000    0.000    0.000   15.818    0.000    0.000 
#    0.000    0.000    0.000    0.000    0.000    0.000 
#
# Total GULP energy -272722.709771 kJ/mol
# GULP energy per Si atom -12396.486808 kJ/mol
# Density = 2.157190 g / cm^3
# Si number density = 21.621114 Si / 1000 Ang^3
#
#
#
# Elastic Constant Matrix: (Units=GPa)
#
#
# Indices 1 2 3 4 5 6 
#
# 1 141.7324 18.9209 19.1481 0.0000 -22.7386 0.0000
# 2 18.9209 101.3808 27.5793 0.0000 -14.6547 0.0000
# 3 19.1481 27.5793 56.8660 0.0000 -15.7610 0.0000
# 4 0.0000 0.0000 0.0000 14.4421 0.0000 -4.8750
# 5 -22.7386 -14.6547 -15.7610 0.0000 39.5227 0.0000
# 6 0.0000 0.0000 0.0000 -4.8750 0.0000 21.7081
#
#
#
# Elastic Compliance Matrix: (Units=1/GPa)
#
#
# Indices 1 2 3 4 5 6 
#
# 1 0.007924 -0.000563 -0.001337 0.000000 0.003817 0.000000
# 2 -0.000563 0.011586 -0.004867 0.000000 0.002031 0.000000
# 3 -0.001337 -0.004867 0.022128 0.000000 0.006251 0.000000
# 4 0.000000 0.000000 0.000000 0.074922 0.000000 0.016825
# 5 0.003817 0.002031 0.006251 0.000000 0.030744 0.000000
# 6 0.000000 0.000000 0.000000 0.016825 0.000000 0.049844
#
#
# Mechanical properties :
#
#
# Convention : Reuss Voigt Hill
#
# Bulk Modulus (GPa) = 35.58186 47.91954 41.75070
# Shear Modulus (GPa) = 22.72215 30.75664 26.73939
#
# Velocity S-wave (km/s) = 3.24531 3.77573 3.52053
# Velocity P-wave (km/s) = 5.52589 6.42025 5.98979
#
# Compressibility (1/GPa) = 0.02810421
#
# Stress axis : x y z
#
# Youngs Moduli (GPa) = 126.20342 86.30752 45.19152
#
# Poissons Ratio (x) = 0.04863 0.06042
# Poissons Ratio (y) = 0.07110 0.21993
# Poissons Ratio (z) = 0.16874 0.42002
#
# Static dielectric constant tensor:
#      x y z
#    x 4.507660 0.000000 -0.052630 
#    y 0.000000 3.727550 0.000000 
#    z -0.052630 0.000000 3.693880 
# 
# 
# High freq. dielectric constant tensor:
#      x y z
#    x 1.866610 0.000000 -0.009980 
#    y 0.000000 1.813710 0.000000 
#    z -0.009980 0.000000 1.842510 
# 
# From -- ./inp_files/204631.got.cif
#   From: 2010.06.25/outbox.cif.g09.slc.cpg/sg12_103_cif.got.tgz:204631.got - 2010.06.28 00:19:55.
