data_PCOD8109810
_publ_section_title
;
Structure prediction by ZEFSAII (Michael W. Deem and Ramdas Pophale) SiO2 
 PCOD8109810
Probable space group: C 2/M
;
_chemical_formula_sum "Si O2"
_cell_formula_units_Z 56
_cell_length_a 19.324729
_cell_length_b 8.784628
_cell_length_c 16.659439
_cell_angle_alpha 90.000000
_cell_angle_beta 72.239172
_cell_angle_gamma 90.000000
_cell_volume 2693.322447
_symmetry_space_group_name_H-M "C 2/M"
_symmetry_group_IT_number 12
_symmetry_cell_setting 'monoclinic'
loop_
_space_group_symop_operation_xyz
x,y,z
-x,y,-z
-x,-y,-z
x,-y,z
1/2+x,1/2+y,z
1/2-x,1/2+y,-z
1/2-x,1/2-y,-z
1/2+x,1/2-y,z
loop_
_atom_site_type_symbol
_atom_site_label
_atom_site_fract_x
_atom_site_fract_y
_atom_site_fract_z
Si Si1 0.383372 0.822957 0.140184
Si Si2 0.042054 0.677341 0.136558
Si Si3 0.150618 0.325445 0.380991
Si Si4 0.319170 0.323922 0.317912
Si Si5 0.174505 0.179296 0.998203
Si Si6 0.450002 0.326808 0.699574
Si Si7 0.405741 0.673344 0.443553
O O1 0.469493 0.785989 0.111271
O O2 0.347665 0.781394 0.237029
O O3 0.370800 0.000000 0.126855
O O4 0.343740 0.727373 0.085730
O O5 0.061077 0.500000 0.124910
O O6 0.109744 0.770679 0.079299
O O7 0.027779 0.723802 0.233195
O O8 0.133516 0.500000 0.368290
O O9 0.235031 0.293983 0.361834
O O10 0.124914 0.228597 0.313321
O O11 0.109472 0.281012 0.476515
O O12 0.337029 0.500000 0.291647
O O13 0.358002 0.271946 0.385417
O O14 0.182958 0.000000 0.998874
O O15 0.250000 0.250000 0.000000
O O16 0.442070 0.500000 0.732152
O O17 0.510102 0.311315 0.609086
O O18 0.386389 0.500000 0.474117
#
# Coordination Sequence:
#
# PCOD8109810 Si02
#       7
#     8   8   8   8   8   8   8
#     4  11  24  43  69  99 131 169 214 263 317 381
#     4  11  24  44  69  98 132 168 213 265 316 381
#     4  11  24  38  59  90 128 168 212 270 329 381
#     4  10  22  41  63  90 126 170 215 264 320 382
#     4  12  27  46  71 100 134 171 209 259 317 379
#     4  11  23  40  64  91 125 170 216 264 319 383
#     4  10  21  40  63  88 121 165 220 268 317 384
#
# _framework density 20.792162999999999
#
# number of rings (size 3 to 8) (size 9 to 14) (size 15 to 20)
#    0.000    1.143    1.429    4.286    2.000    8.000 
#    0.000    0.000    0.000    0.000    0.000    0.000 
#    0.000    0.000    0.000    0.000    0.000    0.000 
#
# Total GULP energy -347387.290246 kJ/mol
# GULP energy per Si atom -12406.688937 kJ/mol
# Density = 2.074484 g / cm^3
# Si number density = 20.792163 Si / 1000 Ang^3
#
#
#
# Elastic Constant Matrix: (Units=GPa)
#
#
# Indices 1 2 3 4 5 6 
#
# 1 108.7985 57.8025 38.9686 0.0000 14.5342 0.0000
# 2 57.8025 103.7139 38.9451 0.0000 2.9816 0.0000
# 3 38.9686 38.9451 67.9307 0.0000 5.4891 0.0000
# 4 0.0000 0.0000 0.0000 38.9075 0.0000 1.7963
# 5 14.5342 2.9816 5.4891 0.0000 26.6288 0.0000
# 6 0.0000 0.0000 0.0000 1.7963 0.0000 33.7682
#
#
#
# Elastic Compliance Matrix: (Units=1/GPa)
#
#
# Indices 1 2 3 4 5 6 
#
# 1 0.015156 -0.006617 -0.004365 0.000000 -0.006632 0.000000
# 2 -0.006617 0.015176 -0.005145 0.000000 0.002973 0.000000
# 3 -0.004365 -0.005145 0.020273 0.000000 -0.001221 0.000000
# 4 0.000000 0.000000 0.000000 0.025765 0.000000 -0.001371
# 5 -0.006632 0.002973 -0.001221 0.000000 0.041092 0.000000
# 6 0.000000 0.000000 0.000000 -0.001371 0.000000 0.029687
#
#
# Mechanical properties :
#
#
# Convention : Reuss Voigt Hill
#
# Bulk Modulus (GPa) = 54.49122 61.31949 57.90535
# Shear Modulus (GPa) = 26.95122 29.50935 28.23029
#
# Velocity S-wave (km/s) = 3.60421 3.77139 3.68875
# Velocity P-wave (km/s) = 6.60189 6.96564 6.78620
#
# Compressibility (1/GPa) = 0.01835158
#
# Stress axis : x y z
#
# Youngs Moduli (GPa) = 65.97955 65.89190 49.32669
#
# Poissons Ratio (x) = 0.43603 0.21530
# Poissons Ratio (y) = 0.43661 0.25378
# Poissons Ratio (z) = 0.28799 0.33901
#
# Static dielectric constant tensor:
#      x y z
#    x 3.959860 0.000000 0.045960 
#    y 0.000000 3.826690 0.000000 
#    z 0.045960 0.000000 3.689460 
# 
# 
# High freq. dielectric constant tensor:
#      x y z
#    x 1.831370 0.000000 0.004670 
#    y 0.000000 1.818340 0.000000 
#    z 0.004670 0.000000 1.817920 
# 
# From -- ./inp_files/275228.got.cif
#   From: 2010.06.25/outbox.cif.g09.slc.cpg/sg12_138_cif.got.tgz:275228.got - 2010.06.28 00:19:55.
