data_PCOD8109884
_publ_section_title
;
Structure prediction by ZEFSAII (Michael W. Deem and Ramdas Pophale) SiO2 
 PCOD8109884
Probable space group: C 2/M
;
_chemical_formula_sum "Si O2"
_cell_formula_units_Z 44
_cell_length_a 8.523883
_cell_length_b 12.378215
_cell_length_c 24.670093
_cell_angle_alpha 90.000000
_cell_angle_beta 50.896718
_cell_angle_gamma 90.000000
_cell_volume 2019.918108
_symmetry_space_group_name_H-M "C 2/M"
_symmetry_group_IT_number 12
_symmetry_cell_setting 'monoclinic'
loop_
_space_group_symop_operation_xyz
x,y,z
-x,y,-z
-x,-y,-z
x,-y,z
1/2+x,1/2+y,z
1/2-x,1/2+y,-z
1/2-x,1/2-y,-z
1/2+x,1/2-y,z
loop_
_atom_site_type_symbol
_atom_site_label
_atom_site_fract_x
_atom_site_fract_y
_atom_site_fract_z
Si Si1 0.500000 0.819940 0.000000
Si Si2 0.512567 0.374371 0.788064
Si Si3 0.228692 0.000000 0.016688
Si Si4 0.748160 0.000000 0.110068
Si Si5 0.685534 0.288321 0.857606
Si Si6 0.862588 0.377976 0.627430
Si Si7 0.785074 0.203680 0.550929
O O1 0.695696 0.893792 0.968386
O O2 0.455172 0.743729 0.060946
O O3 0.456332 0.500000 0.804014
O O4 0.541056 0.325670 0.841153
O O5 0.321535 0.310048 0.805531
O O6 0.708046 0.353453 0.709118
O O7 0.326684 0.000000 0.935296
O O8 0.990066 0.000000 0.064720
O O9 0.671071 0.109569 0.156119
O O10 0.837937 0.500000 0.610964
O O11 0.814250 0.299123 0.588262
O O12 0.086134 0.367076 0.606278
O O13 0.750000 0.250000 0.500000
O O14 0.000000 0.138067 0.500000
#
# Coordination Sequence:
#
# PCOD8109884 Si02
#       7
#     4   8   4   4   8   8   8
#     4  11  24  37  62  92 118 159 201 282 326 384
#     4  11  25  44  65  90 124 172 217 258 313 381
#     4  10  22  38  58  88 120 144 202 247 338 401
#     4  11  22  38  60  86 118 158 193 259 327 389
#     4  12  24  42  64  90 125 162 213 271 330 381
#     4  10  21  40  64  90 130 173 207 253 306 360
#     4   9  19  36  63  99 131 161 204 249 298 358
#
# _framework density 21.783059999999999
#
# number of rings (size 3 to 8) (size 9 to 14) (size 15 to 20)
#    0.000    1.455    0.909    4.364    2.545    5.818 
#    1.636    2.727    2.000    0.000    0.000    0.000 
#    0.000    0.000    0.000    0.000    0.000    0.000 
#
# Total GULP energy -272724.488350 kJ/mol
# GULP energy per Si atom -12396.567652 kJ/mol
# Density = 2.173348 g / cm^3
# Si number density = 21.783060 Si / 1000 Ang^3
#
#
#
# Elastic Constant Matrix: (Units=GPa)
#
#
# Indices 1 2 3 4 5 6 
#
# 1 67.6087 28.5545 22.3251 0.0000 4.8614 0.0000
# 2 28.5545 123.4175 46.0775 0.0000 0.8096 0.0000
# 3 22.3251 46.0775 95.2098 0.0000 -10.0298 -0.0001
# 4 0.0000 0.0000 0.0000 27.7337 0.0000 3.0065
# 5 4.8614 0.8096 -10.0298 0.0000 36.7115 0.0000
# 6 0.0000 0.0000 -0.0001 3.0065 0.0000 35.7582
#
#
#
# Elastic Compliance Matrix: (Units=1/GPa)
#
#
# Indices 1 2 3 4 5 6 
#
# 1 0.017193 -0.002849 -0.002972 0.000000 -0.003026 0.000000
# 2 -0.002849 0.010450 -0.004504 0.000000 -0.001084 0.000000
# 3 -0.002972 -0.004504 0.013829 0.000000 0.004271 0.000000
# 4 0.000000 0.000000 0.000000 0.036389 0.000000 -0.003060
# 5 -0.003026 -0.001084 0.004271 0.000000 0.028831 0.000000
# 6 0.000000 0.000000 0.000000 -0.003060 0.000000 0.028223
#
#
# Mechanical properties :
#
#
# Convention : Reuss Voigt Hill
#
# Bulk Modulus (GPa) = 48.01955 53.35004 50.68479
# Shear Modulus (GPa) = 30.76841 32.65928 31.71385
#
# Velocity S-wave (km/s) = 3.76239 3.87628 3.81976
# Velocity P-wave (km/s) = 6.40050 6.67673 6.54007
#
# Compressibility (1/GPa) = 0.02082485
#
# Stress axis : x y z
#
# Youngs Moduli (GPa) = 58.16353 95.69224 72.30961
#
# Poissons Ratio (x) = 0.27258 0.21488
# Poissons Ratio (y) = 0.16568 0.32566
# Poissons Ratio (z) = 0.17284 0.43097
#
# Static dielectric constant tensor:
#      x y z
#    x 4.278670 0.000000 -0.205050 
#    y 0.000000 4.101220 0.000000 
#    z -0.205050 0.000000 4.104830 
# 
# 
# High freq. dielectric constant tensor:
#      x y z
#    x 1.859640 0.000000 -0.000410 
#    y 0.000000 1.860050 0.000000 
#    z -0.000410 0.000000 1.851810 
# 
# From -- ./inp_files/355686.got.cif
#   From: 2010.06.25/outbox.cif.g09.slc.cpg/sg12_178_cif.got.tgz:355686.got - 2010.06.28 00:19:55.
