data_PCOD8109242
_publ_section_title
;
Structure prediction by ZEFSAII (Michael W. Deem and Ramdas Pophale) SiO2 
 PCOD8109242
Probable space group: C 2/M
;
_chemical_formula_sum "Si O2"
_cell_formula_units_Z 64
_cell_length_a 9.017889
_cell_length_b 14.226850
_cell_length_c 28.961540
_cell_angle_alpha 90.000000
_cell_angle_beta 53.660452
_cell_angle_gamma 90.000000
_cell_volume 2993.031755
_symmetry_space_group_name_H-M "C 2/M"
_symmetry_group_IT_number 12
_symmetry_cell_setting 'monoclinic'
loop_
_space_group_symop_operation_xyz
x,y,z
-x,y,-z
-x,-y,-z
x,-y,z
1/2+x,1/2+y,z
1/2-x,1/2+y,-z
1/2-x,1/2-y,-z
1/2+x,1/2-y,z
loop_
_atom_site_type_symbol
_atom_site_label
_atom_site_fract_x
_atom_site_fract_y
_atom_site_fract_z
Si Si1 0.975223 0.391711 0.080048
Si Si2 0.412474 0.889156 0.372774
Si Si3 0.708555 0.607468 0.044050
Si Si4 0.600856 0.712720 0.855659
Si Si5 0.636249 0.888451 0.514078
Si Si6 0.998417 0.247151 0.777527
Si Si7 0.400714 0.286876 0.698243
Si Si8 0.483787 0.389694 0.593741
O O1 0.967815 0.500000 0.097505
O O2 0.830691 0.371698 0.066224
O O3 0.925259 0.325522 0.132466
O O4 0.178836 0.365520 0.022934
O O5 0.435045 0.859679 0.422181
O O6 0.555695 0.824761 0.317783
O O7 0.205555 0.861680 0.395964
O O8 0.453405 0.000000 0.356697
O O9 0.652857 0.500000 0.052050
O O10 0.514906 0.662250 0.082825
O O11 0.527653 0.684150 0.818181
O O12 0.817575 0.687173 0.818597
O O13 0.500000 0.847533 0.500000
O O14 0.844021 0.849547 0.467590
O O15 0.643314 0.000000 0.509657
O O16 0.182572 0.307994 0.735411
O O17 0.967295 0.183862 0.737360
O O18 0.503634 0.348831 0.641581
O O19 0.500057 0.500000 0.595886
#
# Coordination Sequence:
#
# PCOD8109242 Si02
#       8
#     8   8   8   8   8   8   8   8
#     4   9  18  34  59  91 121 150 188 232 285 351
#     4  10  21  39  63  86 115 152 188 233 296 352
#     4   9  18  34  59  91 121 150 188 232 285 351
#     4  11  19  40  59  83 114 161 189 236 290 338
#     4   9  19  34  57  92 122 144 184 236 285 355
#     4  10  24  38  59  81 116 150 202 246 282 326
#     4  11  22  43  57  83 115 152 191 254 286 334
#     4  10  21  39  63  86 115 152 188 233 296 352
#
# _framework density 21.382999999999999
#
# number of rings (size 3 to 8) (size 9 to 14) (size 15 to 20)
#    0.000    2.125    2.500    1.500    1.750    2.000 
#    0.000    8.125    0.000    1.500    0.000    0.000 
#    0.000    0.000    0.000    0.000    0.000    0.000 
#
# Total GULP energy -396637.246162 kJ/mol
# GULP energy per Si atom -12394.913943 kJ/mol
# Density = 2.133433 g / cm^3
# Si number density = 21.383000 Si / 1000 Ang^3
#
#
#
# Elastic Constant Matrix: (Units=GPa)
#
#
# Indices 1 2 3 4 5 6 
#
# 1 106.1184 20.5549 36.5329 0.0000 -4.8445 0.0000
# 2 20.5549 40.4527 35.8193 0.0000 -4.8051 0.0001
# 3 36.5329 35.8193 105.5516 0.0001 -12.7568 0.0000
# 4 0.0000 0.0000 0.0001 19.2138 0.0000 1.0922
# 5 -4.8445 -4.8051 -12.7568 0.0000 39.8032 0.0000
# 6 0.0000 0.0001 0.0000 1.0922 0.0000 16.5795
#
#
#
# Elastic Compliance Matrix: (Units=1/GPa)
#
#
# Indices 1 2 3 4 5 6 
#
# 1 0.010975 -0.003162 -0.002715 0.000000 0.000084 0.000000
# 2 -0.003162 0.036258 -0.011159 0.000000 0.000416 0.000000
# 3 -0.002715 -0.011159 0.014562 0.000000 0.002989 0.000000
# 4 0.000000 0.000000 0.000000 0.052242 0.000000 -0.003442
# 5 0.000084 0.000416 0.002989 0.000000 0.026142 0.000000
# 6 0.000000 0.000000 0.000000 -0.003442 0.000000 0.060542
#
#
# Mechanical properties :
#
#
# Convention : Reuss Voigt Hill
#
# Bulk Modulus (GPa) = 36.07436 48.65967 42.36701
# Shear Modulus (GPa) = 20.48894 25.73367 23.11131
#
# Velocity S-wave (km/s) = 3.09882 3.47286 3.29116
# Velocity P-wave (km/s) = 5.45076 6.23592 5.85651
#
# Compressibility (1/GPa) = 0.02772052
#
# Stress axis : x y z
#
# Youngs Moduli (GPa) = 91.12006 27.58036 68.67138
#
# Poissons Ratio (x) = 0.08722 0.18646
# Poissons Ratio (y) = 0.28815 0.76633
# Poissons Ratio (z) = 0.24741 0.30778
#
# Static dielectric constant tensor:
#      x y z
#    x 3.945760 0.000000 -0.070340 
#    y 0.000000 3.470090 0.000000 
#    z -0.070340 0.000000 4.127410 
# 
# 
# High freq. dielectric constant tensor:
#      x y z
#    x 1.838020 0.000000 -0.005740 
#    y 0.000000 1.799680 0.000000 
#    z -0.005740 0.000000 1.853980 
# 
# From -- ./inp_files/372559.got.cif
#   From: 2010.06.25/outbox.cif.g09.slc.cpg/sg12_187_cif.got.tgz:372559.got - 2010.06.28 00:19:55.
