data_PCOD8109900
_publ_section_title
;
Structure prediction by ZEFSAII (Michael W. Deem and Ramdas Pophale) SiO2 
 PCOD8109900
Probable space group: C 2/M
;
_chemical_formula_sum "Si O2"
_cell_formula_units_Z 56
_cell_length_a 17.805481
_cell_length_b 12.908398
_cell_length_c 15.673453
_cell_angle_alpha 90.000000
_cell_angle_beta 48.731221
_cell_angle_gamma 90.000000
_cell_volume 2707.641662
_symmetry_space_group_name_H-M "C 2/M"
_symmetry_group_IT_number 12
_symmetry_cell_setting 'monoclinic'
loop_
_space_group_symop_operation_xyz
x,y,z
-x,y,-z
-x,-y,-z
x,-y,z
1/2+x,1/2+y,z
1/2-x,1/2+y,-z
1/2-x,1/2-y,-z
1/2+x,1/2-y,z
loop_
_atom_site_type_symbol
_atom_site_label
_atom_site_fract_x
_atom_site_fract_y
_atom_site_fract_z
Si Si1 0.461960 0.790162 0.307754
Si Si2 0.938912 0.384018 0.620293
Si Si3 0.293662 0.119550 0.327752
Si Si4 0.760870 0.880430 0.147891
Si Si5 0.133192 0.381875 0.083746
Si Si6 0.567123 0.380502 0.532194
Si Si7 0.617845 0.190381 0.914271
O O1 0.490456 0.884013 0.349793
O O2 0.353384 0.806854 0.348645
O O3 0.545312 0.798120 0.170405
O O4 0.468438 0.684228 0.357921
O O5 0.919247 0.500000 0.603906
O O6 0.830510 0.337266 0.724404
O O7 0.000000 0.322682 0.500000
O O8 0.178859 0.151834 0.422537
O O9 0.330807 0.136431 0.204146
O O10 0.310640 0.000000 0.339452
O O11 0.729234 0.864840 0.072728
O O12 0.857161 0.812910 0.099992
O O13 0.786041 0.000000 0.148233
O O14 0.094041 0.500000 0.125071
O O15 0.165217 0.364181 0.962127
O O16 0.500000 0.358406 0.500000
O O17 0.560124 0.500000 0.565159
O O18 0.500000 0.173448 0.000000
#
# Coordination Sequence:
#
# PCOD8109900 Si02
#       7
#     8   8   8   8   8   8   8
#     4  11  20  36  64  89 119 159 195 254 310 354
#     4   9  18  33  59  92 118 150 200 253 304 355
#     4  11  24  41  63  91 125 161 204 256 309 362
#     4   9  21  40  59  85 123 161 205 256 301 361
#     4  10  21  40  64  92 121 154 210 266 304 354
#     4  10  24  44  63  91 128 164 203 247 298 375
#     4  12  24  38  62  90 124 166 205 251 314 366
#
# _framework density 20.682205
#
# number of rings (size 3 to 8) (size 9 to 14) (size 15 to 20)
#    0.000    1.714    1.429    3.857    6.000    0.857 
#    0.000    1.429    0.000    0.000    0.000    0.000 
#    0.000    0.000    0.000    0.000    0.000    0.000 
#
# Total GULP energy -347064.979438 kJ/mol
# GULP energy per Si atom -12395.177837 kJ/mol
# Density = 2.063513 g / cm^3
# Si number density = 20.682205 Si / 1000 Ang^3
#
#
#
# Elastic Constant Matrix: (Units=GPa)
#
#
# Indices 1 2 3 4 5 6 
#
# 1 60.1936 16.8377 10.4868 0.0000 1.0093 0.0000
# 2 16.8377 81.4567 19.3550 0.0000 -0.4185 0.0000
# 3 10.4868 19.3550 78.2604 0.0000 14.6026 0.0000
# 4 0.0000 0.0000 0.0000 26.9999 0.0000 4.4467
# 5 1.0093 -0.4185 14.6026 0.0000 29.0695 0.0000
# 6 0.0000 0.0000 0.0000 4.4467 0.0000 25.4824
#
#
#
# Elastic Compliance Matrix: (Units=1/GPa)
#
#
# Indices 1 2 3 4 5 6 
#
# 1 0.017812 -0.003302 -0.001595 0.000000 0.000135 0.000000
# 2 -0.003302 0.013761 -0.003331 0.000000 0.001986 0.000000
# 3 -0.001595 -0.003331 0.015243 0.000000 -0.007650 0.000000
# 4 0.000000 0.000000 0.000000 0.038133 0.000000 -0.006654
# 5 0.000135 0.001986 -0.007650 0.000000 0.038267 0.000000
# 6 0.000000 0.000000 0.000000 -0.006654 0.000000 0.040404
#
#
# Mechanical properties :
#
#
# Convention : Reuss Voigt Hill
#
# Bulk Modulus (GPa) = 32.94010 34.80775 33.87393
# Shear Modulus (GPa) = 26.28848 27.85911 27.07380
#
# Velocity S-wave (km/s) = 3.56907 3.67414 3.62199
# Velocity P-wave (km/s) = 5.73984 5.90470 5.82285
#
# Compressibility (1/GPa) = 0.03035813
#
# Stress axis : x y z
#
# Youngs Moduli (GPa) = 56.14057 72.67013 65.60437
#
# Poissons Ratio (x) = 0.23997 0.10467
# Poissons Ratio (y) = 0.18538 0.21855
# Poissons Ratio (z) = 0.08957 0.24209
#
# Static dielectric constant tensor:
#      x y z
#    x 3.655960 0.000000 0.112970 
#    y 0.000000 3.637090 0.000000 
#    z 0.112970 0.000000 3.925840 
# 
# 
# High freq. dielectric constant tensor:
#      x y z
#    x 1.802670 0.000000 0.008980 
#    y 0.000000 1.802930 0.000000 
#    z 0.008980 0.000000 1.811430 
# 
# From -- ./inp_files/225170.got.cif
#   From: 2010.06.25/outbox.cif.g09.slc.cpg/sg12_113_cif.got.tgz:225170.got - 2010.06.28 00:19:55.
