data_PCOD8109118
_publ_section_title
;
Structure prediction by ZEFSAII (Michael W. Deem and Ramdas Pophale) SiO2 
 PCOD8109118
Probable space group: C 2/M
;
_chemical_formula_sum "Si O2"
_cell_formula_units_Z 64
_cell_length_a 30.409544
_cell_length_b 8.660024
_cell_length_c 19.025399
_cell_angle_alpha 90.000000
_cell_angle_beta 140.150205
_cell_angle_gamma 90.000000
_cell_volume 3210.478767
_symmetry_space_group_name_H-M "C 2/M"
_symmetry_group_IT_number 12
_symmetry_cell_setting 'monoclinic'
loop_
_space_group_symop_operation_xyz
x,y,z
-x,y,-z
-x,-y,-z
x,-y,z
1/2+x,1/2+y,z
1/2-x,1/2+y,-z
1/2-x,1/2-y,-z
1/2+x,1/2-y,z
loop_
_atom_site_type_symbol
_atom_site_label
_atom_site_fract_x
_atom_site_fract_y
_atom_site_fract_z
Si Si1 0.598210 0.817563 0.669896
Si Si2 0.220066 0.819408 0.295896
Si Si3 0.351859 0.320512 0.523293
Si Si4 0.738204 0.817064 0.909032
Si Si5 0.829638 0.681904 0.904229
Si Si6 0.548072 0.816945 0.458020
Si Si7 0.391281 0.680011 0.727673
Si Si8 0.519657 0.182165 0.947980
O O1 0.667146 0.748545 0.789372
O O2 0.590586 0.764853 0.579548
O O3 0.531263 0.765493 0.631603
O O4 0.601970 0.000000 0.675292
O O5 0.292714 0.786536 0.420024
O O6 0.216094 0.724154 0.219232
O O7 0.160231 0.763086 0.274824
O O8 0.214452 0.000000 0.272171
O O9 0.334543 0.500000 0.490982
O O10 0.422795 0.276581 0.572271
O O11 0.357901 0.278626 0.612419
O O12 0.801290 0.766512 0.937982
O O13 0.734975 0.000000 0.909711
O O14 0.750000 0.750000 0.000000
O O15 0.827613 0.500000 0.914693
O O16 0.906596 0.745368 0.986043
O O17 0.554316 0.000000 0.453430
O O18 0.406505 0.500000 0.752848
O O19 0.463002 0.769011 0.821901
O O20 0.523250 0.000000 0.957834
O O21 0.500000 0.253457 0.000000
#
# Coordination Sequence:
#
# PCOD8109118 Si02
#       8
#     8   8   8   8   8   8   8   8
#     4   8  17  35  60  83 108 142 188 239 287 343
#     4  11  22  38  60  85 113 154 201 242 290 353
#     4  11  23  37  53  83 122 154 188 238 295 351
#     4  11  23  40  60  87 122 159 199 243 294 353
#     4  11  23  40  63  91 120 154 198 248 302 358
#     4   9  17  35  61  85 106 141 189 238 289 346
#     4  10  23  39  57  83 117 155 196 243 296 350
#     4  10  21  39  62  87 116 153 198 247 298 353
#
# _framework density 19.934723000000002
#
# number of rings (size 3 to 8) (size 9 to 14) (size 15 to 20)
#    0.000    1.875    1.250    3.375    0.000    4.750 
#    0.000    6.875    0.000    0.000    0.000    0.000 
#    0.000    0.000    0.000    0.000    0.000    0.000 
#
# Total GULP energy -396912.430761 kJ/mol
# GULP energy per Si atom -12403.513461 kJ/mol
# Density = 1.988935 g / cm^3
# Si number density = 19.934723 Si / 1000 Ang^3
#
#
#
# Elastic Constant Matrix: (Units=GPa)
#
#
# Indices 1 2 3 4 5 6 
#
# 1 137.4309 29.4111 60.1160 0.0000 -3.7075 0.0000
# 2 29.4111 35.8255 21.7459 0.0000 -1.0382 0.0000
# 3 60.1160 21.7459 94.0146 0.0000 7.5042 0.0000
# 4 0.0000 0.0000 0.0000 30.5803 0.0000 -1.8747
# 5 -3.7075 -1.0382 7.5042 0.0000 34.9867 0.0000
# 6 0.0000 0.0000 0.0000 -1.8747 0.0000 32.3278
#
#
#
# Elastic Compliance Matrix: (Units=1/GPa)
#
#
# Indices 1 2 3 4 5 6 
#
# 1 0.011148 -0.005404 -0.006064 0.000000 0.002322 0.000000
# 2 -0.005404 0.035330 -0.004837 0.000000 0.001513 0.000000
# 3 -0.006064 -0.004837 0.015969 0.000000 -0.004211 0.000000
# 4 0.000000 0.000000 0.000000 0.032817 0.000000 0.001903
# 5 0.002322 0.001513 -0.004211 0.000000 0.029776 0.000000
# 6 0.000000 0.000000 0.000000 0.001903 0.000000 0.031043
#
#
# Mechanical properties :
#
#
# Convention : Reuss Voigt Hill
#
# Bulk Modulus (GPa) = 33.51575 54.42410 43.96992
# Shear Modulus (GPa) = 25.17129 29.97883 27.57506
#
# Velocity S-wave (km/s) = 3.55728 3.88216 3.72327
# Velocity P-wave (km/s) = 5.80703 6.88878 6.37091
#
# Compressibility (1/GPa) = 0.02983672
#
# Stress axis : x y z
#
# Youngs Moduli (GPa) = 89.70276 28.30494 62.62153
#
# Poissons Ratio (x) = 0.15296 0.37972
# Poissons Ratio (y) = 0.48476 0.30291
# Poissons Ratio (z) = 0.54393 0.13691
#
# Static dielectric constant tensor:
#      x y z
#    x 3.857270 0.000000 0.142840 
#    y 0.000000 3.369790 0.000000 
#    z 0.142840 0.000000 3.755450 
# 
# 
# High freq. dielectric constant tensor:
#      x y z
#    x 1.788900 0.000000 0.005240 
#    y 0.000000 1.760880 0.000000 
#    z 0.005240 0.000000 1.780380 
# 
# From -- ./inp_files/295786.got.cif
#   From: 2010.06.25/outbox.cif.g09.slc.cpg/sg12_148_cif.got.tgz:295786.got - 2010.06.28 00:19:55.
