data_PCOD8109453
_publ_section_title
;
Structure prediction by ZEFSAII (Michael W. Deem and Ramdas Pophale) SiO2 
 PCOD8109453
Probable space group: C 2/M
;
_chemical_formula_sum "Si O2"
_cell_formula_units_Z 56
_cell_length_a 18.830123
_cell_length_b 8.589663
_cell_length_c 18.922267
_cell_angle_alpha 90.000000
_cell_angle_beta 120.093949
_cell_angle_gamma 90.000000
_cell_volume 2648.019372
_symmetry_space_group_name_H-M "C 2/M"
_symmetry_group_IT_number 12
_symmetry_cell_setting 'monoclinic'
loop_
_space_group_symop_operation_xyz
x,y,z
-x,y,-z
-x,-y,-z
x,-y,z
1/2+x,1/2+y,z
1/2-x,1/2+y,-z
1/2-x,1/2-y,-z
1/2+x,1/2-y,z
loop_
_atom_site_type_symbol
_atom_site_label
_atom_site_fract_x
_atom_site_fract_y
_atom_site_fract_z
Si Si1 0.469464 0.676776 0.909927
Si Si2 0.088494 0.316310 0.340970
Si Si3 0.920866 0.315591 0.502046
Si Si4 0.303722 0.180312 0.814544
Si Si5 0.269000 0.181403 0.085847
Si Si6 0.249804 0.683439 0.648227
Si Si7 0.561473 0.324081 0.818328
O O1 0.435578 0.500000 0.900178
O O2 0.398922 0.788640 0.844285
O O3 0.545078 0.682941 0.893870
O O4 0.500000 0.741452 0.000000
O O5 0.077075 0.500000 0.327308
O O6 0.078672 0.260559 0.416745
O O7 0.177782 0.270603 0.356951
O O8 0.018184 0.229667 0.263093
O O9 0.923405 0.500000 0.498406
O O10 0.836795 0.255239 0.424876
O O11 0.000000 0.245846 0.500000
O O12 0.290615 0.239829 0.887309
O O13 0.249297 0.274634 0.730971
O O14 0.282629 0.000000 0.796988
O O15 0.361573 0.213468 0.158193
O O16 0.251263 0.000000 0.075014
O O17 0.250000 0.250000 0.000000
O O18 0.261404 0.500000 0.643482
O O19 0.583694 0.500000 0.806553
#
# Coordination Sequence:
#
# PCOD8109453 Si02
#       7
#     8   8   8   8   8   8   8
#     4  10  21  39  64  92 125 165 211 262 317 375
#     4  11  22  39  65  95 129 168 213 265 322 385
#     4   9  21  40  64  95 126 164 214 265 320 385
#     4  12  25  41  64  95 131 168 217 267 319 384
#     4  12  26  45  67  93 130 173 219 268 325 384
#     4  11  22  40  66  93 128 171 214 264 322 382
#     4  11  23  40  64  95 132 169 214 265 321 383
#
# _framework density 21.147881000000002
#
# number of rings (size 3 to 8) (size 9 to 14) (size 15 to 20)
#    0.000    1.143    1.429    5.143    2.000    2.000 
#    0.000    2.143    0.000    3.429    0.000    0.000 
#    0.000    0.000    0.000    0.000    0.000    0.000 
#
# Total GULP energy -347339.848054 kJ/mol
# GULP energy per Si atom -12404.994573 kJ/mol
# Density = 2.109975 g / cm^3
# Si number density = 21.147881 Si / 1000 Ang^3
#
#
#
# Elastic Constant Matrix: (Units=GPa)
#
#
# Indices 1 2 3 4 5 6 
#
# 1 89.3367 12.8858 22.8467 0.0000 0.2836 0.0000
# 2 12.8858 66.9976 14.1149 0.0000 -2.1781 0.0000
# 3 22.8467 14.1149 106.8070 0.0000 -4.5580 0.0000
# 4 0.0000 0.0000 0.0000 23.1766 0.0000 -0.9871
# 5 0.2836 -2.1781 -4.5580 0.0000 41.4805 0.0000
# 6 0.0000 0.0000 0.0000 -0.9871 0.0000 34.3876
#
#
#
# Elastic Compliance Matrix: (Units=1/GPa)
#
#
# Indices 1 2 3 4 5 6 
#
# 1 0.012063 -0.001838 -0.002356 0.000000 -0.000438 0.000000
# 2 -0.001838 0.015648 -0.001647 0.000000 0.000653 0.000000
# 3 -0.002356 -0.001647 0.010129 0.000000 0.001043 0.000000
# 4 0.000000 0.000000 0.000000 0.043200 0.000000 0.001240
# 5 -0.000438 0.000653 0.001043 0.000000 0.024260 0.000000
# 6 0.000000 0.000000 0.000000 0.001240 0.000000 0.029116
#
#
# Mechanical properties :
#
#
# Convention : Reuss Voigt Hill
#
# Bulk Modulus (GPa) = 38.23019 40.31513 39.27266
# Shear Modulus (GPa) = 32.29661 34.02852 33.16256
#
# Velocity S-wave (km/s) = 3.91215 4.01568 3.96425
# Velocity P-wave (km/s) = 6.20672 6.37226 6.29004
#
# Compressibility (1/GPa) = 0.02615734
#
# Stress axis : x y z
#
# Youngs Moduli (GPa) = 82.90066 63.90764 98.72844
#
# Poissons Ratio (x) = 0.11746 0.23261
# Poissons Ratio (y) = 0.15236 0.16259
# Poissons Ratio (z) = 0.19532 0.10525
#
# Static dielectric constant tensor:
#      x y z
#    x 3.955580 0.000000 -0.087120 
#    y 0.000000 3.710520 0.000000 
#    z -0.087120 0.000000 3.959670 
# 
# 
# High freq. dielectric constant tensor:
#      x y z
#    x 1.837170 0.000000 -0.002020 
#    y 0.000000 1.818230 0.000000 
#    z -0.002020 0.000000 1.842540 
# 
# From -- ./inp_files/281726.got.cif
#   From: 2010.06.25/outbox.cif.g09.slc.cpg/sg12_141_cif.got.tgz:281726.got - 2010.06.28 00:19:55.
