data_PCOD8109140
_publ_section_title
;
Structure prediction by ZEFSAII (Michael W. Deem and Ramdas Pophale) SiO2 
 PCOD8109140
Probable space group: C 2/M
;
_chemical_formula_sum "Si O2"
_cell_formula_units_Z 64
_cell_length_a 28.786276
_cell_length_b 19.195265
_cell_length_c 9.025290
_cell_angle_alpha 90.000000
_cell_angle_beta 142.302676
_cell_angle_gamma 90.000000
_cell_volume 3049.510848
_symmetry_space_group_name_H-M "C 2/M"
_symmetry_group_IT_number 12
_symmetry_cell_setting 'monoclinic'
loop_
_space_group_symop_operation_xyz
x,y,z
-x,y,-z
-x,-y,-z
x,-y,z
1/2+x,1/2+y,z
1/2-x,1/2+y,-z
1/2-x,1/2-y,-z
1/2+x,1/2-y,z
loop_
_atom_site_type_symbol
_atom_site_label
_atom_site_fract_x
_atom_site_fract_y
_atom_site_fract_z
Si Si1 0.925552 0.851076 0.894385
Si Si2 0.213290 0.075944 0.959273
Si Si3 0.727739 0.577092 0.525877
Si Si4 0.262429 0.819571 0.848946
Si Si5 0.422852 0.226629 0.375739
Si Si6 0.927435 0.126215 0.244543
Si Si7 0.675139 0.923552 0.508110
Si Si8 0.872319 0.275671 0.570520
O O1 0.860950 0.905612 0.688389
O O2 0.904422 0.773844 0.781113
O O3 0.938835 0.851380 0.103448
O O4 0.000000 0.878681 0.000000
O O5 0.209382 0.136105 0.826780
O O6 0.147101 0.080839 0.915596
O O7 0.206955 0.000000 0.866260
O O8 0.293388 0.080854 0.245950
O O9 0.741208 0.500000 0.625842
O O10 0.775890 0.634226 0.737201
O O11 0.754047 0.581225 0.423623
O O12 0.214575 0.748759 0.692797
O O13 0.345535 0.808500 0.123776
O O14 0.500000 0.191917 0.500000
O O15 0.418523 0.305652 0.319720
O O16 0.426632 0.224643 0.563947
O O17 0.000000 0.086105 0.500000
O O18 0.623837 0.854760 0.355697
O O19 0.633687 0.000000 0.381762
#
# Coordination Sequence:
#
# PCOD8109140 Si02
#       8
#     8   8   8   8   8   8   8   8
#     4  11  24  38  60  92 124 165 208 250 309 371
#     4  11  21  38  62  87 123 166 205 253 305 365
#     4  10  23  40  60  89 127 163 205 256 306 365
#     4  11  22  37  64  93 121 159 216 257 302 364
#     4  11  22  38  61  91 127 157 194 262 320 358
#     4  11  23  38  58  87 128 160 206 256 307 371
#     4  10  21  39  62  88 117 154 202 257 313 367
#     4  11  22  40  64  91 122 161 208 263 304 368
#
# _framework density 20.986972999999999
#
# number of rings (size 3 to 8) (size 9 to 14) (size 15 to 20)
#    0.000    1.250    3.750    3.000    3.500    1.500 
#    0.000    0.000    0.000    3.750    0.000    0.000 
#    0.000    0.500    0.000    0.000    0.000    0.000 
#
# Total GULP energy -396593.254590 kJ/mol
# GULP energy per Si atom -12393.539206 kJ/mol
# Density = 2.093921 g / cm^3
# Si number density = 20.986973 Si / 1000 Ang^3
#
#
#
# Elastic Constant Matrix: (Units=GPa)
#
#
# Indices 1 2 3 4 5 6 
#
# 1 85.8734 27.5032 20.1577 0.0000 2.3440 0.0000
# 2 27.5032 98.3801 1.7413 0.0000 -5.7801 0.0000
# 3 20.1577 1.7413 67.6643 0.0000 -5.4858 0.0000
# 4 0.0000 0.0000 0.0000 5.5639 0.0000 -11.3584
# 5 2.3440 -5.7801 -5.4858 0.0000 27.1246 0.0000
# 6 0.0000 0.0000 0.0000 -11.3584 0.0000 5.4043
#
#
#
# Elastic Compliance Matrix: (Units=1/GPa)
#
#
# Indices 1 2 3 4 5 6 
#
# 1 0.014024 -0.004017 -0.004313 0.000000 -0.002940 0.000000
# 2 -0.004017 0.011445 0.001147 0.000000 0.003018 0.000000
# 3 -0.004313 0.001147 0.016352 0.000000 0.003924 0.000000
# 4 0.000000 0.000000 0.000000 -0.054619 0.000000 -0.114795
# 5 -0.002940 0.003018 0.003924 0.000000 0.038558 0.000000
# 6 0.000000 0.000000 0.000000 -0.114795 0.000000 -0.056232
#
#
# Mechanical properties :
#
#
# Convention : Reuss Voigt Hill
#
# Bulk Modulus (GPa) = 36.42319 38.96916 37.69618
# Shear Modulus (GPa) = -719.00661 21.11960 -348.94351
#
# Velocity S-wave (km/s) = -18.52945 3.17570 -12.90843
# Velocity P-wave (km/s) = 20.98557 5.66174 14.28879
#
# Compressibility (1/GPa) = 0.02745503
#
# Stress axis : x y z
#
# Youngs Moduli (GPa) = 71.30490 87.37684 61.15334
#
# Poissons Ratio (x) = 0.35100 0.26375
# Poissons Ratio (y) = 0.28644 -0.07013
# Poissons Ratio (z) = 0.30753 -0.10021
#
# Static dielectric constant tensor:
#      x y z
#    x 4.036970 0.000000 0.139160 
#    y 0.000000 3.853710 0.000000 
#    z 0.139160 0.000000 4.172410 
# 
# 
# High freq. dielectric constant tensor:
#      x y z
#    x 1.823980 0.000000 -0.016100 
#    y 0.000000 1.817880 0.000000 
#    z -0.016100 0.000000 1.805910 
# 
# From -- ./inp_files/77513.got.cif
#   From: 2010.06.25/outbox.cif.g09.slc.cpg/sg12_39_cif.got.tgz:77513.got - 2010.06.28 00:19:55.
