data_PCOD8109867
_publ_section_title
;
Structure prediction by ZEFSAII (Michael W. Deem and Ramdas Pophale) SiO2 
 PCOD8109867
Probable space group: C 2/M
;
_chemical_formula_sum "Si O2"
_cell_formula_units_Z 36
_cell_length_a 5.232991
_cell_length_b 20.124285
_cell_length_c 15.622316
_cell_angle_alpha 90.000000
_cell_angle_beta 85.986512
_cell_angle_gamma 90.000000
_cell_volume 1641.154598
_symmetry_space_group_name_H-M "C 2/M"
_symmetry_group_IT_number 12
_symmetry_cell_setting 'monoclinic'
loop_
_space_group_symop_operation_xyz
x,y,z
-x,y,-z
-x,-y,-z
x,-y,z
1/2+x,1/2+y,z
1/2-x,1/2+y,-z
1/2-x,1/2-y,-z
1/2+x,1/2-y,z
loop_
_atom_site_type_symbol
_atom_site_label
_atom_site_fract_x
_atom_site_fract_y
_atom_site_fract_z
Si Si1 0.580486 0.925845 0.763854
Si Si2 0.138550 0.210420 0.646632
Si Si3 0.422041 0.353396 0.182990
Si Si4 0.650358 0.074856 0.409672
Si Si5 0.500000 0.706966 0.000000
O O1 0.326035 0.899701 0.816069
O O2 0.553336 0.920175 0.662267
O O3 0.832386 0.887420 0.782531
O O4 0.619089 0.000000 0.795188
O O5 0.391371 0.252120 0.614181
O O6 0.135237 0.208058 0.751131
O O7 0.145306 0.134818 0.608201
O O8 0.487862 0.336202 0.085030
O O9 0.500000 0.086517 0.500000
O O10 0.778939 0.000000 0.405542
O O11 0.250000 0.750000 0.000000
#
# Coordination Sequence:
#
# PCOD8109867 Si02
#       5
#     8   8   8   8   4
#     4  10  21  40  64  89 123 164 207 254 310 377
#     4  11  22  39  62  89 123 161 203 255 314 371
#     4  11  22  40  62  90 123 162 205 254 317 376
#     4   9  20  40  65  93 126 168 216 263 313 376
#     4  12  24  40  63  90 121 158 208 260 310 378
#
# _framework density 21.935777000000002
#
# number of rings (size 3 to 8) (size 9 to 14) (size 15 to 20)
#    0.000    1.556    0.000    6.000    0.000    1.778 
#    0.000   13.333    0.000   30.667    0.000    0.000 
#    0.000    0.000    0.000    0.000    0.000    0.000 
#
# Total GULP energy -223138.919016 kJ/mol
# GULP energy per Si atom -12396.606612 kJ/mol
# Density = 2.188585 g / cm^3
# Si number density = 21.935777 Si / 1000 Ang^3
#
#
#
# Elastic Constant Matrix: (Units=GPa)
#
#
# Indices 1 2 3 4 5 6 
#
# 1 162.6450 70.3398 31.2208 0.0000 -9.0623 0.0000
# 2 70.3398 141.9318 48.4745 0.0000 -12.8194 0.0000
# 3 31.2208 48.4745 153.9522 0.0000 -16.3036 0.0000
# 4 0.0000 0.0000 0.0000 22.3340 0.0000 -4.8093
# 5 -9.0623 -12.8194 -16.3036 0.0000 23.3341 0.0000
# 6 0.0000 0.0000 0.0000 -4.8093 0.0000 35.2435
#
#
#
# Elastic Compliance Matrix: (Units=1/GPa)
#
#
# Indices 1 2 3 4 5 6 
#
# 1 0.007861 -0.003708 -0.000345 0.000000 0.000775 0.000000
# 2 -0.003708 0.009818 -0.002074 0.000000 0.002504 0.000000
# 3 -0.000345 -0.002074 0.007650 0.000000 0.004072 0.000000
# 4 0.000000 0.000000 0.000000 0.046130 0.000000 0.006295
# 5 0.000775 0.002504 0.004072 0.000000 0.047378 0.000000
# 6 0.000000 0.000000 0.000000 0.006295 0.000000 0.029233
#
#
# Mechanical properties :
#
#
# Convention : Reuss Voigt Hill
#
# Bulk Modulus (GPa) = 76.48125 84.28881 80.38503
# Shear Modulus (GPa) = 30.36147 36.74859 33.55503
#
# Velocity S-wave (km/s) = 3.72440 4.09746 3.91537
# Velocity P-wave (km/s) = 7.31003 7.80348 7.56078
#
# Compressibility (1/GPa) = 0.01307510
#
# Stress axis : x y z
#
# Youngs Moduli (GPa) = 127.20283 101.85327 130.72514
#
# Poissons Ratio (x) = 0.37771 0.04504
# Poissons Ratio (y) = 0.47171 0.27114
# Poissons Ratio (z) = 0.04383 0.21126
#
# Static dielectric constant tensor:
#      x y z
#    x 3.891630 0.000000 -0.003970 
#    y 0.000000 4.211550 0.000000 
#    z -0.003970 0.000000 3.069170 
# 
# 
# High freq. dielectric constant tensor:
#      x y z
#    x 1.868420 0.000000 -0.008770 
#    y 0.000000 1.871120 0.000000 
#    z -0.008770 0.000000 1.857640 
# 
# From -- ./inp_files/191202.got.cif
#   From: 2010.06.25/outbox.cif.g09.slc.cpg/sg12_96_cif.got.tgz:191202.got - 2010.06.28 00:19:55.
