data_PCOD8109914
_publ_section_title
;
Structure prediction by ZEFSAII (Michael W. Deem and Ramdas Pophale) SiO2 
 PCOD8109914
Probable space group: C 2/M
;
_chemical_formula_sum "Si O2"
_cell_formula_units_Z 40
_cell_length_a 7.964936
_cell_length_b 12.555435
_cell_length_c 20.442041
_cell_angle_alpha 90.000000
_cell_angle_beta 58.681363
_cell_angle_gamma 90.000000
_cell_volume 1746.399222
_symmetry_space_group_name_H-M "C 2/M"
_symmetry_group_IT_number 12
_symmetry_cell_setting 'monoclinic'
loop_
_space_group_symop_operation_xyz
x,y,z
-x,y,-z
-x,-y,-z
x,-y,z
1/2+x,1/2+y,z
1/2-x,1/2+y,-z
1/2-x,1/2-y,-z
1/2+x,1/2-y,z
loop_
_atom_site_type_symbol
_atom_site_label
_atom_site_fract_x
_atom_site_fract_y
_atom_site_fract_z
Si Si1 0.045378 0.201108 0.058454
Si Si2 0.282847 0.621590 0.852006
Si Si3 0.557883 0.882104 0.413230
Si Si4 0.009197 0.873614 0.676110
Si Si5 0.177849 0.126563 0.419675
O O1 0.063391 0.126143 0.118230
O O2 0.896251 0.298235 0.102114
O O3 0.250000 0.250000 0.000000
O O4 0.000000 0.136560 0.000000
O O5 0.205432 0.500000 0.860998
O O6 0.398562 0.658873 0.764427
O O7 0.500000 0.887551 0.500000
O O8 0.388847 0.827321 0.402088
O O9 0.769780 0.822041 0.366730
O O10 0.586353 0.000000 0.378685
O O11 0.874475 0.834472 0.642858
O O12 0.034708 0.000000 0.663599
O O13 0.000000 0.174056 0.500000
O O14 0.182673 0.000000 0.426721
#
# Coordination Sequence:
#
# PCOD8109914 Si02
#       5
#     8   8   8   8   8
#     4   9  20  40  65  92 121 158 204 244 300 390
#     4  10  21  40  64  93 130 163 199 259 320 366
#     4   9  14  22  39  66 107 154 201 255 302 353
#     4   9  17  29  46  76 116 155 201 254 308 365
#     4   9  14  22  39  66 107 155 201 254 304 352
#
# _framework density 22.904271000000001
#
# number of rings (size 3 to 8) (size 9 to 14) (size 15 to 20)
#    0.000    2.800    2.000    0.000    0.000    4.000 
#    7.200    3.000    0.000    0.000    0.000    4.200 
#    0.000    0.000    0.000    0.000    0.000    0.400 
#
# Total GULP energy -247789.387582 kJ/mol
# GULP energy per Si atom -12389.469379 kJ/mol
# Density = 2.285214 g / cm^3
# Si number density = 22.904271 Si / 1000 Ang^3
#
#
#
# Elastic Constant Matrix: (Units=GPa)
#
#
# Indices 1 2 3 4 5 6 
#
# 1 210.0472 32.6868 94.5670 0.0000 8.7632 0.0000
# 2 32.6868 54.8680 2.1178 0.0000 -7.6557 0.0000
# 3 94.5670 2.1178 168.1581 0.0000 15.4367 0.0000
# 4 0.0000 0.0000 0.0000 35.4334 0.0000 4.1143
# 5 8.7632 -7.6557 15.4367 0.0000 48.4168 0.0000
# 6 0.0000 0.0000 0.0000 4.1143 0.0000 37.3335
#
#
#
# Elastic Compliance Matrix: (Units=1/GPa)
#
#
# Indices 1 2 3 4 5 6 
#
# 1 0.007230 -0.004256 -0.003946 0.000000 -0.000723 0.000000
# 2 -0.004256 0.021186 0.001801 0.000000 0.003546 0.000000
# 3 -0.003946 0.001801 0.008294 0.000000 -0.001645 0.000000
# 4 0.000000 0.000000 0.000000 0.028588 0.000000 -0.003151
# 5 -0.000723 0.003546 -0.001645 0.000000 0.021870 0.000000
# 6 0.000000 0.000000 0.000000 -0.003151 0.000000 0.027133
#
#
# Mechanical properties :
#
#
# Convention : Reuss Voigt Hill
#
# Bulk Modulus (GPa) = 41.82542 76.86850 59.34696
# Shear Modulus (GPa) = 37.01745 44.48351 40.75048
#
# Velocity S-wave (km/s) = 4.02454 4.41176 4.22259
# Velocity P-wave (km/s) = 6.31637 7.71914 7.05272
#
# Compressibility (1/GPa) = 0.02390890
#
# Stress axis : x y z
#
# Youngs Moduli (GPa) = 138.31801 47.20085 120.56707
#
# Poissons Ratio (x) = 0.20087 0.47573
# Poissons Ratio (y) = 0.58863 -0.21713
# Poissons Ratio (z) = 0.54577 -0.08500
#
# Static dielectric constant tensor:
#      x y z
#    x 5.024560 0.000000 0.096200 
#    y 0.000000 4.081040 0.000000 
#    z 0.096200 0.000000 3.933650 
# 
# 
# High freq. dielectric constant tensor:
#      x y z
#    x 1.930480 0.000000 0.007190 
#    y 0.000000 1.912500 0.000000 
#    z 0.007190 0.000000 1.888380 
# 
# From -- ./inp_files/299691.got.cif
#   From: 2010.06.25/outbox.cif.g09.slc.cpg/sg12_150_cif.got.tgz:299691.got - 2010.06.28 00:19:55.
