data_PCOD8109321
_publ_section_title
;
Structure prediction by ZEFSAII (Michael W. Deem and Ramdas Pophale) SiO2 
 PCOD8109321
Probable space group: C 2/M
;
_chemical_formula_sum "Si O2"
_cell_formula_units_Z 56
_cell_length_a 19.797278
_cell_length_b 8.685676
_cell_length_c 25.313077
_cell_angle_alpha 90.000000
_cell_angle_beta 140.043958
_cell_angle_gamma 90.000000
_cell_volume 2795.272466
_symmetry_space_group_name_H-M "C 2/M"
_symmetry_group_IT_number 12
_symmetry_cell_setting 'monoclinic'
loop_
_space_group_symop_operation_xyz
x,y,z
-x,y,-z
-x,-y,-z
x,-y,z
1/2+x,1/2+y,z
1/2-x,1/2+y,-z
1/2-x,1/2-y,-z
1/2+x,1/2-y,z
loop_
_atom_site_type_symbol
_atom_site_label
_atom_site_fract_x
_atom_site_fract_y
_atom_site_fract_z
Si Si1 0.004281 0.679374 0.242021
Si Si2 0.558445 0.820931 0.481221
Si Si3 0.365578 0.318167 0.069477
Si Si4 0.760203 0.321310 0.642394
Si Si5 0.726079 0.825005 0.229371
Si Si6 0.552137 0.322935 0.683925
Si Si7 0.515887 0.319401 0.067779
O O1 0.988874 0.500000 0.220762
O O2 0.923036 0.773807 0.157948
O O3 0.983623 0.712655 0.290683
O O4 0.121926 0.733185 0.299219
O O5 0.500000 0.774331 0.500000
O O6 0.681523 0.780152 0.560106
O O7 0.510799 0.720109 0.406122
O O8 0.544599 0.000000 0.459623
O O9 0.357125 0.500000 0.061143
O O10 0.431248 0.251124 0.058722
O O11 0.250000 0.250000 0.000000
O O12 0.743961 0.500000 0.618455
O O13 0.735668 0.287095 0.688764
O O14 0.823660 0.796947 0.249282
O O15 0.633226 0.712442 0.157398
O O16 0.684283 0.000000 0.201262
O O17 0.528094 0.500000 0.683404
O O18 0.498697 0.500000 0.054282
O O19 0.500000 0.245313 0.000000
#
# Coordination Sequence:
#
# PCOD8109321 Si02
#       7
#     8   8   8   8   8   8   8
#     4  11  24  43  65  90 124 163 206 254 307 367
#     4  11  23  38  61  94 126 160 205 255 308 361
#     4  11  24  42  64  91 126 166 206 250 306 366
#     4  10  21  40  65  89 120 163 205 251 308 364
#     4  10  21  39  63  91 120 159 206 251 303 361
#     4  11  24  41  63  92 126 163 205 253 307 367
#     4  10  23  41  62  92 125 160 202 251 305 358
#
# _framework density 20.033823999999999
#
# number of rings (size 3 to 8) (size 9 to 14) (size 15 to 20)
#    0.000    1.429    2.857    1.714    2.000    4.857 
#    0.000    0.000    0.000    0.000    0.000    0.000 
#    0.000    0.000    0.000    0.000    0.000    0.000 
#
# Total GULP energy -347353.332875 kJ/mol
# GULP energy per Si atom -12405.476174 kJ/mol
# Density = 1.998823 g / cm^3
# Si number density = 20.033824 Si / 1000 Ang^3
#
#
#
# Elastic Constant Matrix: (Units=GPa)
#
#
# Indices 1 2 3 4 5 6 
#
# 1 94.9951 25.3578 36.0341 0.0000 -1.2678 0.0000
# 2 25.3578 42.3478 26.0857 0.0000 6.2039 0.0001
# 3 36.0341 26.0857 115.2433 0.0000 10.7343 0.0000
# 4 0.0000 0.0000 0.0000 37.9545 0.0000 0.4894
# 5 -1.2678 6.2039 10.7343 0.0000 31.9813 0.0000
# 6 0.0000 0.0001 0.0000 0.4894 0.0000 29.0533
#
#
#
# Elastic Compliance Matrix: (Units=1/GPa)
#
#
# Indices 1 2 3 4 5 6 
#
# 1 0.013465 -0.006647 -0.002968 0.000000 0.002820 0.000000
# 2 -0.006647 0.031072 -0.004510 0.000000 -0.004777 0.000000
# 3 -0.002968 -0.004510 0.010896 0.000000 -0.002900 0.000000
# 4 0.000000 0.000000 0.000000 0.026353 0.000000 -0.000444
# 5 0.002820 -0.004777 -0.002900 0.000000 0.033280 0.000000
# 6 0.000000 0.000000 0.000000 -0.000444 0.000000 0.034427
#
#
# Mechanical properties :
#
#
# Convention : Reuss Voigt Hill
#
# Bulk Modulus (GPa) = 36.78813 47.50461 42.14637
# Shear Modulus (GPa) = 26.76582 30.80506 28.78544
#
# Velocity S-wave (km/s) = 3.65914 3.92555 3.79468
# Velocity P-wave (km/s) = 6.02124 6.65659 6.34687
#
# Compressibility (1/GPa) = 0.02718268
#
# Stress axis : x y z
#
# Youngs Moduli (GPa) = 74.26752 32.18296 91.77425
#
# Poissons Ratio (x) = 0.21394 0.27240
# Poissons Ratio (y) = 0.49369 0.41389
# Poissons Ratio (z) = 0.22043 0.14514
#
# Static dielectric constant tensor:
#      x y z
#    x 3.902790 0.000000 -0.012080 
#    y 0.000000 3.518590 0.000000 
#    z -0.012080 0.000000 3.575680 
# 
# 
# High freq. dielectric constant tensor:
#      x y z
#    x 1.790570 0.000000 0.003030 
#    y 0.000000 1.777350 0.000000 
#    z 0.003030 0.000000 1.789160 
# 
# From -- ./inp_files/230951.got.cif
#   From: 2010.06.25/outbox.cif.g09.slc.cpg/sg12_116_cif.got.tgz:230951.got - 2010.06.28 00:19:55.
