data_PCOD8109031
_publ_section_title
;
Structure prediction by ZEFSAII (Michael W. Deem and Ramdas Pophale) SiO2 
 PCOD8109031
Probable space group: C 2/M
;
_chemical_formula_sum "Si O2"
_cell_formula_units_Z 64
_cell_length_a 9.202234
_cell_length_b 13.429847
_cell_length_c 22.702998
_cell_angle_alpha 90.000000
_cell_angle_beta 85.510498
_cell_angle_gamma 90.000000
_cell_volume 2797.131931
_symmetry_space_group_name_H-M "C 2/M"
_symmetry_group_IT_number 12
_symmetry_cell_setting 'monoclinic'
loop_
_space_group_symop_operation_xyz
x,y,z
-x,y,-z
-x,-y,-z
x,-y,z
1/2+x,1/2+y,z
1/2-x,1/2+y,-z
1/2-x,1/2-y,-z
1/2+x,1/2-y,z
loop_
_atom_site_type_symbol
_atom_site_label
_atom_site_fract_x
_atom_site_fract_y
_atom_site_fract_z
Si Si1 0.628330 0.722766 0.860394
Si Si2 0.155767 0.117987 0.976063
Si Si3 0.547654 0.296016 0.560278
Si Si4 0.987514 0.612239 0.304397
Si Si5 0.134678 0.383731 0.417966
Si Si6 0.387313 0.891733 0.055060
Si Si7 0.899685 0.781351 0.778290
Si Si8 0.836124 0.114281 0.663308
O O1 0.692928 0.649750 0.908138
O O2 0.563774 0.822169 0.893103
O O3 0.745210 0.750338 0.808035
O O4 0.495497 0.672676 0.828576
O O5 0.170283 0.000000 0.977739
O O6 0.254299 0.162544 0.025313
O O7 0.000000 0.159397 0.000000
O O8 0.500000 0.347993 0.500000
O O9 0.715945 0.325402 0.568051
O O10 0.508865 0.176999 0.553815
O O11 0.440287 0.326229 0.616313
O O12 0.969069 0.500000 0.280641
O O13 0.119711 0.617124 0.347337
O O14 0.022424 0.682448 0.248766
O O15 0.833680 0.644960 0.339980
O O16 0.134700 0.500000 0.439980
O O17 0.347778 0.000000 0.083305
O O18 0.500000 0.907435 0.000000
O O19 0.883354 0.864073 0.728689
O O20 0.862496 0.000000 0.648199
#
# Coordination Sequence:
#
# PCOD8109031 Si02
#       8
#     8   8   8   8   8   8   8   8
#     4  12  24  37  63  94 129 166 220 280 335 407
#     4  10  21  39  61  87 124 167 211 268 335 403
#     4  12  26  47  77 112 150 188 239 307 360 429
#     4  10  23  46  71  94 130 185 234 280 346 423
#     4  11  25  45  75 109 145 192 240 291 360 431
#     4  10  21  39  63  89 124 169 215 267 332 402
#     4  12  25  41  63  96 131 175 224 286 343 409
#     4  11  25  47  72  95 136 189 234 288 363 431
#
# _framework density 22.880579999999998
#
# number of rings (size 3 to 8) (size 9 to 14) (size 15 to 20)
#    0.000    1.000    2.500    3.750    1.750    3.250 
#    0.000    1.875    0.000    0.000    0.000    0.000 
#    0.000    0.000    0.000    0.000    0.000    0.000 
#
# Total GULP energy -396579.605107 kJ/mol
# GULP energy per Si atom -12393.112660 kJ/mol
# Density = 2.282850 g / cm^3
# Si number density = 22.880580 Si / 1000 Ang^3
#
#
#
# Elastic Constant Matrix: (Units=GPa)
#
#
# Indices 1 2 3 4 5 6 
#
# 1 105.5518 20.8999 15.3222 0.0000 26.6997 0.0000
# 2 20.8999 77.3626 3.3134 0.0000 0.4156 0.0000
# 3 15.3222 3.3134 89.2707 0.0000 21.1978 0.0000
# 4 0.0000 0.0000 0.0000 15.3672 0.0000 4.1236
# 5 26.6997 0.4156 21.1978 0.0000 27.9687 0.0000
# 6 0.0000 0.0000 0.0000 4.1236 0.0000 30.5652
#
#
#
# Elastic Compliance Matrix: (Units=1/GPa)
#
#
# Indices 1 2 3 4 5 6 
#
# 1 0.013480 -0.003614 0.001053 0.000000 -0.013613 0.000000
# 2 -0.003614 0.013916 -0.000813 0.000000 0.003859 0.000000
# 3 0.001053 -0.000813 0.013764 0.000000 -0.011425 0.000000
# 4 0.000000 0.000000 0.000000 0.067518 0.000000 -0.009109
# 5 -0.013613 0.003859 -0.011425 0.000000 0.057351 0.000000
# 6 0.000000 0.000000 0.000000 -0.009109 0.000000 0.033946
#
#
# Mechanical properties :
#
#
# Convention : Reuss Voigt Hill
#
# Bulk Modulus (GPa) = 29.05788 39.02846 34.04317
# Shear Modulus (GPa) = 22.91534 30.29017 26.60276
#
# Velocity S-wave (km/s) = 3.16811 3.64241 3.41351
# Velocity P-wave (km/s) = 5.10979 5.89779 5.51788
#
# Compressibility (1/GPa) = 0.03441407
#
# Stress axis : x y z
#
# Youngs Moduli (GPa) = 74.18333 71.85729 72.65175
#
# Poissons Ratio (x) = 0.25967 -0.07649
# Poissons Ratio (y) = 0.26808 0.05904
# Poissons Ratio (z) = -0.07810 0.05839
#
# Static dielectric constant tensor:
#      x y z
#    x 4.549820 0.000000 0.351070 
#    y 0.000000 4.244690 0.000000 
#    z 0.351070 0.000000 4.186570 
# 
# 
# High freq. dielectric constant tensor:
#      x y z
#    x 1.908070 0.000000 0.011280 
#    y 0.000000 1.904210 0.000000 
#    z 0.011280 0.000000 1.908570 
# 
# From -- ./inp_files/332938.got.cif
#   From: 2010.06.25/outbox.cif.g09.slc.cpg/sg12_167_cif.got.tgz:332938.got - 2010.06.28 00:19:55.
