data_PCOD8109327
_publ_section_title
;
Structure prediction by ZEFSAII (Michael W. Deem and Ramdas Pophale) SiO2 
 PCOD8109327
Probable space group: C 2/M
;
_chemical_formula_sum "Si O2"
_cell_formula_units_Z 56
_cell_length_a 8.657071
_cell_length_b 17.789113
_cell_length_c 18.360701
_cell_angle_alpha 90.000000
_cell_angle_beta 103.650645
_cell_angle_gamma 90.000000
_cell_volume 2747.706369
_symmetry_space_group_name_H-M "C 2/M"
_symmetry_group_IT_number 12
_symmetry_cell_setting 'monoclinic'
loop_
_space_group_symop_operation_xyz
x,y,z
-x,y,-z
-x,-y,-z
x,-y,z
1/2+x,1/2+y,z
1/2-x,1/2+y,-z
1/2-x,1/2-y,-z
1/2+x,1/2-y,z
loop_
_atom_site_type_symbol
_atom_site_label
_atom_site_fract_x
_atom_site_fract_y
_atom_site_fract_z
Si Si1 0.028569 0.913434 0.419591
Si Si2 0.609122 0.913485 0.580426
Si Si3 0.894664 0.911487 0.141744
Si Si4 0.747256 0.411525 0.141958
Si Si5 0.681635 0.167888 0.999830
Si Si6 0.822709 0.831419 0.280280
Si Si7 0.457390 0.168478 0.280444
O O1 0.209633 0.896807 0.419387
O O2 0.000000 0.893139 0.500000
O O3 0.916690 0.859123 0.361298
O O4 0.983330 0.000000 0.398868
O O5 0.500000 0.893469 0.500000
O O6 0.555129 0.858959 0.638409
O O7 0.584970 0.000000 0.601436
O O8 0.853261 0.889622 0.219120
O O9 0.071078 0.882961 0.142069
O O10 0.881554 0.000000 0.132507
O O11 0.771472 0.875443 0.073065
O O12 0.750888 0.500000 0.132025
O O13 0.802927 0.374845 0.073899
O O14 0.865459 0.390090 0.219677
O O15 0.500000 0.173653 0.000000
O O16 0.750000 0.250000 0.000000
O O17 0.638456 0.827722 0.277201
O O18 0.880794 0.749904 0.262147
#
# Coordination Sequence:
#
# PCOD8109327 Si02
#       7
#     8   8   8   8   8   8   8
#     4  10  21  39  63  91 123 159 201 249 302 361
#     4  10  21  39  63  91 123 159 201 249 302 361
#     4  11  24  43  66  92 124 161 202 249 302 360
#     4  11  24  43  66  92 124 161 202 249 302 360
#     4  12  25  42  65  93 127 163 203 250 301 358
#     4  12  25  41  62  89 123 161 204 252 304 361
#     4  12  25  41  62  89 123 161 204 252 304 361
#
# _framework density 20.380635000000002
#
# number of rings (size 3 to 8) (size 9 to 14) (size 15 to 20)
#    0.000    0.857    0.000    7.714    0.000    9.714 
#    0.000    2.857    0.000    0.000    0.000    0.000 
#    0.000    0.000    0.000    0.000    0.000    0.000 
#
# Total GULP energy -347421.509099 kJ/mol
# GULP energy per Si atom -12407.911039 kJ/mol
# Density = 2.033425 g / cm^3
# Si number density = 20.380635 Si / 1000 Ang^3
#
#
#
# Elastic Constant Matrix: (Units=GPa)
#
#
# Indices 1 2 3 4 5 6 
#
# 1 192.7899 55.0607 65.1162 0.0000 2.3153 0.0000
# 2 55.0607 81.4263 42.5870 0.0000 -0.4772 0.0000
# 3 65.1162 42.5870 120.3109 0.0000 -2.7548 0.0000
# 4 0.0000 0.0000 0.0000 -99.7327 0.0000 6.1392
# 5 2.3153 -0.4772 -2.7548 0.0000 21.7643 0.0000
# 6 0.0000 0.0000 0.0000 6.1392 0.0000 33.4443
#
#
#
# Elastic Compliance Matrix: (Units=1/GPa)
#
#
# Indices 1 2 3 4 5 6 
#
# 1 0.007066 -0.003400 -0.002647 0.000000 -0.001161 0.000000
# 2 -0.003400 0.016710 -0.004070 0.000000 0.000213 0.000000
# 3 -0.002647 -0.004070 0.011222 0.000000 0.001613 0.000000
# 4 0.000000 0.000000 0.000000 -0.009915 0.000000 0.001820
# 5 -0.001161 0.000213 0.001613 0.000000 0.046279 0.000000
# 6 0.000000 0.000000 0.000000 0.001820 0.000000 0.029566
#
#
# Mechanical properties :
#
#
# Convention : Reuss Voigt Hill
#
# Bulk Modulus (GPa) = 67.73436 80.00611 73.87024
# Shear Modulus (GPa) = 39.65563 6.54607 23.10085
#
# Velocity S-wave (km/s) = 4.41585 1.79412 3.37036
# Velocity P-wave (km/s) = 7.70107 6.60553 7.17424
#
# Compressibility (1/GPa) = 0.01476356
#
# Stress axis : x y z
#
# Youngs Moduli (GPa) = 141.51692 59.84391 89.10931
#
# Poissons Ratio (x) = 0.20349 0.23591
# Poissons Ratio (y) = 0.48122 0.36265
# Poissons Ratio (z) = 0.37466 0.24354
#
# Static dielectric constant tensor:
#      x y z
#    x 3.994900 0.000000 0.006460 
#    y 0.000000 3.770240 0.000000 
#    z 0.006460 0.000000 3.865470 
# 
# 
# High freq. dielectric constant tensor:
#      x y z
#    x 1.818490 0.000000 0.000130 
#    y 0.000000 1.805690 0.000000 
#    z 0.000130 0.000000 1.814880 
# 
# From -- ./inp_files/257130.got.cif
#   From: 2010.06.25/outbox.cif.g09.slc.cpg/sg12_129_cif.got.tgz:257130.got - 2010.06.28 00:19:55.
