data_PCOD8109855
_publ_section_title
;
Structure prediction by ZEFSAII (Michael W. Deem and Ramdas Pophale) SiO2 
 PCOD8109855
Probable space group: C 2/M
;
_chemical_formula_sum "Si O2"
_cell_formula_units_Z 48
_cell_length_a 8.532446
_cell_length_b 20.351010
_cell_length_c 17.687073
_cell_angle_alpha 90.000000
_cell_angle_beta 49.373140
_cell_angle_gamma 90.000000
_cell_volume 2330.976460
_symmetry_space_group_name_H-M "C 2/M"
_symmetry_group_IT_number 12
_symmetry_cell_setting 'monoclinic'
loop_
_space_group_symop_operation_xyz
x,y,z
-x,y,-z
-x,-y,-z
x,-y,z
1/2+x,1/2+y,z
1/2-x,1/2+y,-z
1/2-x,1/2-y,-z
1/2+x,1/2-y,z
loop_
_atom_site_type_symbol
_atom_site_label
_atom_site_fract_x
_atom_site_fract_y
_atom_site_fract_z
Si Si1 0.417494 0.427782 0.609220
Si Si2 0.693458 0.657374 0.898594
Si Si3 0.447271 0.796243 0.101161
Si Si4 0.411594 0.812055 0.611593
Si Si5 0.022779 0.187951 0.306645
Si Si6 0.463935 0.924410 0.704236
O O1 0.500000 0.419020 0.500000
O O2 0.475354 0.500000 0.622527
O O3 0.529278 0.373579 0.623964
O O4 0.171719 0.418219 0.687401
O O5 0.590848 0.718131 0.885875
O O6 0.782951 0.604817 0.812601
O O7 0.865640 0.685550 0.901920
O O8 0.500000 0.621568 0.000000
O O9 0.234669 0.828404 0.196841
O O10 0.500000 0.821695 0.000000
O O11 0.500000 0.801749 0.500000
O O12 0.488566 0.754762 0.642195
O O13 0.485234 0.882408 0.620619
O O14 0.163807 0.807277 0.693512
O O15 0.416415 0.000000 0.697865
#
# Coordination Sequence:
#
# PCOD8109855 Si02
#       6
#     8   8   8   8   8   8
#     4  10  21  40  64  88 121 165 206 248 304 371
#     4  11  22  39  65  91 125 158 204 255 313 371
#     4  11  22  37  64  97 120 157 201 253 314 365
#     4  12  25  39  62  94 126 162 206 259 308 368
#     4  12  22  39  65  90 127 157 203 258 315 360
#     4  11  24  42  62  89 125 168 210 253 311 372
#
# _framework density 20.592229
#
# number of rings (size 3 to 8) (size 9 to 14) (size 15 to 20)
#    0.000    0.833    3.333    6.000    2.333    1.333 
#    0.000    0.000    0.000    1.000    0.000    0.000 
#    0.000    0.000    0.000    0.000    0.000    0.000 
#
# Total GULP energy -297610.227484 kJ/mol
# GULP energy per Si atom -12400.426145 kJ/mol
# Density = 2.054536 g / cm^3
# Si number density = 20.592229 Si / 1000 Ang^3
#
#
#
# Elastic Constant Matrix: (Units=GPa)
#
#
# Indices 1 2 3 4 5 6 
#
# 1 53.2489 26.5213 12.0333 0.0000 1.4997 0.0000
# 2 26.5213 125.3181 25.1326 0.0000 14.6312 0.0000
# 3 12.0333 25.1326 81.9423 0.0000 -9.8597 0.0000
# 4 0.0000 0.0000 0.0000 51.0244 0.0000 -2.8572
# 5 1.4997 14.6312 -9.8597 0.0000 31.3964 0.0000
# 6 0.0000 0.0000 0.0000 -2.8572 0.0000 25.8307
#
#
#
# Elastic Compliance Matrix: (Units=1/GPa)
#
#
# Indices 1 2 3 4 5 6 
#
# 1 0.021258 -0.004182 -0.001795 0.000000 0.000370 0.000000
# 2 -0.004182 0.010143 -0.003161 0.000000 -0.005520 0.000000
# 3 -0.001795 -0.003161 0.014159 0.000000 0.006005 0.000000
# 4 0.000000 0.000000 0.000000 0.019721 0.000000 0.002181
# 5 0.000370 -0.005520 0.006005 0.000000 0.036291 0.000000
# 6 0.000000 0.000000 0.000000 0.002181 0.000000 0.038955
#
#
# Mechanical properties :
#
#
# Convention : Reuss Voigt Hill
#
# Bulk Modulus (GPa) = 36.65023 43.09820 39.87421
# Shear Modulus (GPa) = 29.78005 34.77175 32.27590
#
# Velocity S-wave (km/s) = 3.80699 4.11370 3.96331
# Velocity P-wave (km/s) = 6.09598 6.59834 6.35213
#
# Compressibility (1/GPa) = 0.02728496
#
# Stress axis : x y z
#
# Youngs Moduli (GPa) = 47.04156 98.58852 70.62461
#
# Poissons Ratio (x) = 0.41231 0.12674
# Poissons Ratio (y) = 0.19673 0.22325
# Poissons Ratio (z) = 0.08442 0.31164
#
# Static dielectric constant tensor:
#      x y z
#    x 3.810860 0.000000 -0.203350 
#    y 0.000000 3.662100 0.000000 
#    z -0.203350 0.000000 4.081950 
# 
# 
# High freq. dielectric constant tensor:
#      x y z
#    x 1.807820 0.000000 -0.011610 
#    y 0.000000 1.788780 0.000000 
#    z -0.011610 0.000000 1.823340 
# 
# From -- ./inp_files/257904.got.cif
#   From: 2010.06.25/outbox.cif.g09.slc.cpg/sg12_129_cif.got.tgz:257904.got - 2010.06.28 00:19:55.
