data_PCOD8109093
_publ_section_title
;
Structure prediction by ZEFSAII (Michael W. Deem and Ramdas Pophale) SiO2 
 PCOD8109093
Probable space group: C 2/M
;
_chemical_formula_sum "Si O2"
_cell_formula_units_Z 56
_cell_length_a 20.598639
_cell_length_b 8.853550
_cell_length_c 16.115626
_cell_angle_alpha 90.000000
_cell_angle_beta 74.597359
_cell_angle_gamma 90.000000
_cell_volume 2833.463672
_symmetry_space_group_name_H-M "C 2/M"
_symmetry_group_IT_number 12
_symmetry_cell_setting 'monoclinic'
loop_
_space_group_symop_operation_xyz
x,y,z
-x,y,-z
-x,-y,-z
x,-y,z
1/2+x,1/2+y,z
1/2-x,1/2+y,-z
1/2-x,1/2-y,-z
1/2+x,1/2-y,z
loop_
_atom_site_type_symbol
_atom_site_label
_atom_site_fract_x
_atom_site_fract_y
_atom_site_fract_z
Si Si1 0.854482 0.831720 0.181404
Si Si2 0.768408 0.829814 0.374314
Si Si3 0.397073 0.322648 0.420568
Si Si4 0.250516 0.819416 0.909668
Si Si5 0.113317 0.322258 0.225274
Si Si6 0.632196 0.675341 0.391512
Si Si7 0.978683 0.819505 0.238370
O O1 0.801316 0.835767 0.273081
O O2 0.815719 0.754891 0.116530
O O3 0.924857 0.756022 0.188106
O O4 0.873355 0.000000 0.147206
O O5 0.822723 0.761256 0.420913
O O6 0.708012 0.711846 0.391940
O O7 0.743440 0.000000 0.405534
O O8 0.391539 0.500000 0.406591
O O9 0.413532 0.286175 0.511312
O O10 0.454662 0.262552 0.338421
O O11 0.317492 0.764034 0.838869
O O12 0.249375 0.000000 0.914239
O O13 0.250000 0.750000 0.000000
O O14 0.107576 0.500000 0.222112
O O15 0.107762 0.273594 0.322893
O O16 0.051427 0.250507 0.194945
O O17 0.625438 0.500000 0.369812
O O18 0.982724 0.000000 0.233381
#
# Coordination Sequence:
#
# PCOD8109093 Si02
#       7
#     8   8   8   8   8   8   8
#     4   8  15  33  59  81 105 143 181 216 266 322
#     4   9  15  30  52  74 106 146 183 223 277 323
#     4   8  17  31  50  76 108 148 188 228 269 311
#     4  10  21  39  62  86 109 137 174 219 272 331
#     4  11  23  39  56  78 112 148 177 219 281 331
#     4  11  20  30  48  78 111 144 189 233 267 311
#     4   9  18  36  60  80 105 146 192 226 257 312
#
# _framework density 19.763798000000001
#
# number of rings (size 3 to 8) (size 9 to 14) (size 15 to 20)
#    0.000    2.571    1.429    3.000    0.000    1.714 
#    0.000    9.286    0.000    4.286    0.000    0.000 
#    0.000    0.000    0.000    0.000    0.000    0.000 
#
# Total GULP energy -346951.069005 kJ/mol
# GULP energy per Si atom -12391.109607 kJ/mol
# Density = 1.971881 g / cm^3
# Si number density = 19.763798 Si / 1000 Ang^3
#
#
#
# Elastic Constant Matrix: (Units=GPa)
#
#
# Indices 1 2 3 4 5 6 
#
# 1 126.9747 29.1580 61.5924 0.0000 8.6894 0.0000
# 2 29.1580 30.0911 22.2656 0.0000 3.3327 0.0000
# 3 61.5924 22.2656 99.2497 0.0000 28.0808 0.0000
# 4 0.0000 0.0000 0.0000 24.4244 0.0000 2.8505
# 5 8.6894 3.3327 28.0808 0.0000 18.3930 0.0000
# 6 0.0000 0.0000 0.0000 2.8505 0.0000 28.7493
#
#
#
# Elastic Compliance Matrix: (Units=1/GPa)
#
#
# Indices 1 2 3 4 5 6 
#
# 1 0.013400 -0.007105 -0.009321 0.000000 0.009188 0.000000
# 2 -0.007105 0.044998 -0.007620 0.000000 0.006837 0.000000
# 3 -0.009321 -0.007620 0.028049 0.000000 -0.037038 0.000000
# 4 0.000000 0.000000 0.000000 0.041422 0.000000 -0.004107
# 5 0.009188 0.006837 -0.037038 0.000000 0.105336 0.000000
# 6 0.000000 0.000000 0.000000 -0.004107 0.000000 0.035191
#
#
# Mechanical properties :
#
#
# Convention : Reuss Voigt Hill
#
# Bulk Modulus (GPa) = 26.07257 53.59415 39.83336
# Shear Modulus (GPa) = 15.18499 23.86665 19.52582
#
# Velocity S-wave (km/s) = 2.77487 3.47882 3.14659
# Velocity P-wave (km/s) = 4.84637 6.58122 5.77926
#
# Compressibility (1/GPa) = 0.03835449
#
# Stress axis : x y z
#
# Youngs Moduli (GPa) = 74.62751 22.22321 35.65187
#
# Poissons Ratio (x) = 0.15789 0.33232
# Poissons Ratio (y) = 0.53021 0.27167
# Poissons Ratio (z) = 0.69563 0.16934
#
# Static dielectric constant tensor:
#      x y z
#    x 3.858050 0.000000 0.139350 
#    y 0.000000 3.216090 0.000000 
#    z 0.139350 0.000000 3.571130 
# 
# 
# High freq. dielectric constant tensor:
#      x y z
#    x 1.778570 0.000000 0.013890 
#    y 0.000000 1.729330 0.000000 
#    z 0.013890 0.000000 1.756080 
# 
# From -- ./inp_files/280243.got.cif
#   From: 2010.06.25/outbox.cif.g09.slc.cpg/sg12_141_cif.got.tgz:280243.got - 2010.06.28 00:19:55.
