data_PCOD8109135
_publ_section_title
;
Structure prediction by ZEFSAII (Michael W. Deem and Ramdas Pophale) SiO2 
 PCOD8109135
Probable space group: C 2/M
;
_chemical_formula_sum "Si O2"
_cell_formula_units_Z 56
_cell_length_a 21.076638
_cell_length_b 8.687522
_cell_length_c 31.123499
_cell_angle_alpha 90.000000
_cell_angle_beta 151.521316
_cell_angle_gamma 90.000000
_cell_volume 2717.383034
_symmetry_space_group_name_H-M "C 2/M"
_symmetry_group_IT_number 12
_symmetry_cell_setting 'monoclinic'
loop_
_space_group_symop_operation_xyz
x,y,z
-x,y,-z
-x,-y,-z
x,-y,z
1/2+x,1/2+y,z
1/2-x,1/2+y,-z
1/2-x,1/2-y,-z
1/2+x,1/2-y,z
loop_
_atom_site_type_symbol
_atom_site_label
_atom_site_fract_x
_atom_site_fract_y
_atom_site_fract_z
Si Si1 0.627224 0.819530 0.046495
Si Si2 0.760317 0.818820 0.572772
Si Si3 0.742562 0.821385 0.800544
Si Si4 0.124617 0.182321 0.950534
Si Si5 0.149838 0.681487 0.218252
Si Si6 0.440197 0.823162 0.617401
Si Si7 0.652471 0.182426 0.597527
O O1 0.748936 0.752431 0.146967
O O2 0.643450 0.000000 0.047362
O O3 0.500000 0.779921 0.000000
O O4 0.626563 0.732802 0.001133
O O5 0.644573 0.753790 0.472574
O O6 0.902485 0.763700 0.639304
O O7 0.736017 0.757679 0.606261
O O8 0.752205 0.000000 0.569454
O O9 0.835472 0.728363 0.822896
O O10 0.592120 0.799470 0.695553
O O11 0.785129 0.000000 0.826298
O O12 0.987982 0.243021 0.847028
O O13 0.128890 0.000000 0.949582
O O14 0.250000 0.250000 0.000000
O O15 0.137078 0.500000 0.214452
O O16 0.279156 0.740010 0.320748
O O17 0.404890 0.000000 0.604086
O O18 0.500000 0.235673 0.500000
O O19 0.658066 0.000000 0.607773
#
# Coordination Sequence:
#
# PCOD8109135 Si02
#       7
#     8   8   8   8   8   8   8
#     4  11  23  41  66  95 129 163 204 258 314 375
#     4   9  18  34  56  81 114 155 198 246 301 359
#     4  11  22  38  63  91 120 160 210 257 310 373
#     4  12  26  46  71  97 130 171 217 267 328 391
#     4  12  25  41  62  92 128 164 208 263 322 384
#     4   9  19  35  56  84 116 152 196 248 301 358
#     4  10  21  39  62  87 121 166 212 257 311 378
#
# _framework density 20.608063999999999
#
# number of rings (size 3 to 8) (size 9 to 14) (size 15 to 20)
#    0.000    1.429    1.429    4.286    0.000    6.000 
#    0.000    5.714    0.000    0.000    0.000    0.000 
#    0.000    0.000    0.000    0.000    0.000    0.000 
#
# Total GULP energy -347235.159507 kJ/mol
# GULP energy per Si atom -12401.255697 kJ/mol
# Density = 2.056116 g / cm^3
# Si number density = 20.608064 Si / 1000 Ang^3
#
#
#
# Elastic Constant Matrix: (Units=GPa)
#
#
# Indices 1 2 3 4 5 6 
#
# 1 110.1740 46.5043 37.4899 -0.0002 0.3834 0.0005
# 2 46.5043 111.6658 46.6113 -0.0011 5.0617 0.0014
# 3 37.4899 46.6113 104.0342 0.0003 -0.0858 0.0001
# 4 -0.0002 -0.0011 0.0003 30.5470 0.0002 -2.0374
# 5 0.3834 5.0617 -0.0858 0.0002 32.4410 -0.0003
# 6 0.0005 0.0014 0.0001 -2.0374 -0.0003 35.6653
#
#
#
# Elastic Compliance Matrix: (Units=1/GPa)
#
#
# Indices 1 2 3 4 5 6 
#
# 1 0.011508 -0.003791 -0.002448 0.000000 0.000449 0.000000
# 2 -0.003791 0.012362 -0.004174 0.000000 -0.001895 0.000000
# 3 -0.002448 -0.004174 0.012365 0.000000 0.000713 0.000000
# 4 0.000000 0.000000 0.000000 0.032862 0.000000 0.001877
# 5 0.000449 -0.001895 0.000713 0.000000 0.031117 0.000000
# 6 0.000000 0.000000 0.000000 0.001877 0.000000 0.028146
#
#
# Mechanical properties :
#
#
# Convention : Reuss Voigt Hill
#
# Bulk Modulus (GPa) = 64.89780 65.23167 65.06474
# Shear Modulus (GPa) = 32.39929 32.74855 32.57392
#
# Velocity S-wave (km/s) = 3.96936 3.99069 3.98004
# Velocity P-wave (km/s) = 7.25035 7.27711 7.26374
#
# Compressibility (1/GPa) = 0.01540884
#
# Stress axis : x y z
#
# Youngs Moduli (GPa) = 86.89375 80.89002 80.87176
#
# Poissons Ratio (x) = 0.30667 0.19799
# Poissons Ratio (y) = 0.32943 0.33758
# Poissons Ratio (z) = 0.21273 0.33765
#
# Static dielectric constant tensor:
#      x y z
#    x 3.875110 0.000000 -0.064530 
#    y 0.000000 3.654500 0.000000 
#    z -0.064530 0.000000 3.904630 
# 
# 
# High freq. dielectric constant tensor:
#      x y z
#    x 1.808610 0.000000 -0.000160 
#    y 0.000000 1.802740 0.000000 
#    z -0.000160 0.000000 1.811090 
# 
# From -- ./inp_files/329440.got.cif
#   From: 2010.06.25/outbox.cif.g09.slc.cpg/sg12_165_cif.got.tgz:329440.got - 2010.06.28 00:19:55.
