data_PCOD8109163
_publ_section_title
;
Structure prediction by ZEFSAII (Michael W. Deem and Ramdas Pophale) SiO2 
 PCOD8109163
Probable space group: C 2/M
;
_chemical_formula_sum "Si O2"
_cell_formula_units_Z 48
_cell_length_a 29.398672
_cell_length_b 8.746206
_cell_length_c 14.852198
_cell_angle_alpha 90.000000
_cell_angle_beta 38.266296
_cell_angle_gamma 90.000000
_cell_volume 2365.110005
_symmetry_space_group_name_H-M "C 2/M"
_symmetry_group_IT_number 12
_symmetry_cell_setting 'monoclinic'
loop_
_space_group_symop_operation_xyz
x,y,z
-x,y,-z
-x,-y,-z
x,-y,z
1/2+x,1/2+y,z
1/2-x,1/2+y,-z
1/2-x,1/2-y,-z
1/2+x,1/2-y,z
loop_
_atom_site_type_symbol
_atom_site_label
_atom_site_fract_x
_atom_site_fract_y
_atom_site_fract_z
Si Si1 0.961408 0.676695 0.974661
Si Si2 0.216598 0.323550 0.462295
Si Si3 0.525513 0.680170 0.364198
Si Si4 0.800812 0.323047 0.172997
Si Si5 0.051546 0.675939 0.672828
Si Si6 0.816516 0.181600 0.953257
O O1 0.985487 0.500000 0.936107
O O2 0.991960 0.746494 0.834647
O O3 0.874817 0.698277 0.115440
O O4 0.000000 0.758161 0.000000
O O5 0.240476 0.500000 0.422616
O O6 0.250000 0.250000 0.500000
O O7 0.239197 0.242866 0.334210
O O8 0.129468 0.303127 0.599769
O O9 0.500000 0.747866 0.500000
O O10 0.530680 0.500000 0.361265
O O11 0.459698 0.727698 0.399980
O O12 0.605542 0.743668 0.207796
O O13 0.784865 0.500000 0.175749
O O14 0.805882 0.231790 0.072587
O O15 0.036511 0.500000 0.671417
O O16 0.813160 0.000000 0.953185
O O17 0.750000 0.250000 0.000000
#
# Coordination Sequence:
#
# PCOD8109163 Si02
#       6
#     8   8   8   8   8   8
#     4   9  17  33  59  87 115 152 198 243 294 359
#     4  11  24  41  62  92 128 167 211 256 305 364
#     4  10  23  42  63  90 123 159 199 252 313 367
#     4  11  22  39  64  90 124 165 204 254 311 365
#     4  10  21  39  62  89 120 159 205 251 300 364
#     4  11  24  42  64  92 126 161 205 255 309 374
#
# _framework density 20.295038999999999
#
# number of rings (size 3 to 8) (size 9 to 14) (size 15 to 20)
#    0.000    1.667    1.667    2.500    2.333    5.000 
#    0.000    0.000    0.000    2.500    0.000    0.000 
#    0.000    0.000    0.000    0.000    0.000    0.000 
#
# Total GULP energy -297584.415175 kJ/mol
# GULP energy per Si atom -12399.350632 kJ/mol
# Density = 2.024885 g / cm^3
# Si number density = 20.295039 Si / 1000 Ang^3
#
#
#
# Elastic Constant Matrix: (Units=GPa)
#
#
# Indices 1 2 3 4 5 6 
#
# 1 120.1864 27.0693 24.7701 -0.0001 11.8512 0.0000
# 2 27.0693 57.3257 25.4992 -0.0008 -1.2246 0.0000
# 3 24.7701 25.4992 92.8354 -0.0003 13.4113 0.0000
# 4 -0.0001 -0.0008 -0.0003 26.0780 0.0001 2.0395
# 5 11.8512 -1.2246 13.4113 0.0001 37.8794 0.0000
# 6 0.0000 0.0000 0.0000 2.0395 0.0000 35.7437
#
#
#
# Elastic Compliance Matrix: (Units=1/GPa)
#
#
# Indices 1 2 3 4 5 6 
#
# 1 0.009761 -0.004206 -0.001042 0.000000 -0.002821 0.000000
# 2 -0.004206 0.021953 -0.005481 0.000001 0.003966 0.000000
# 3 -0.001042 -0.005481 0.013209 0.000000 -0.004528 0.000000
# 4 0.000000 0.000001 0.000000 0.038518 0.000000 -0.002198
# 5 -0.002821 0.003966 -0.004528 0.000000 0.029014 0.000000
# 6 0.000000 0.000000 0.000000 -0.002198 0.000000 0.028102
#
#
# Mechanical properties :
#
#
# Convention : Reuss Voigt Hill
#
# Bulk Modulus (GPa) = 42.61391 47.22497 44.91944
# Shear Modulus (GPa) = 29.44038 32.80748 31.12393
#
# Velocity S-wave (km/s) = 3.81283 4.02497 3.92033
# Velocity P-wave (km/s) = 6.35817 6.70225 6.53248
#
# Compressibility (1/GPa) = 0.02346652
#
# Stress axis : x y z
#
# Youngs Moduli (GPa) = 102.45362 45.55236 75.70528
#
# Poissons Ratio (x) = 0.19159 0.07885
# Poissons Ratio (y) = 0.43091 0.41490
# Poissons Ratio (z) = 0.10671 0.24965
#
# Static dielectric constant tensor:
#      x y z
#    x 3.781490 0.000000 0.118860 
#    y 0.000000 3.530840 0.000000 
#    z 0.118860 0.000000 3.986150 
# 
# 
# High freq. dielectric constant tensor:
#      x y z
#    x 1.806240 0.000000 0.004500 
#    y 0.000000 1.773230 0.000000 
#    z 0.004500 0.000000 1.805600 
# 
# From -- ./inp_files/244711.got.cif
#   From: 2010.06.25/outbox.cif.g09.slc.cpg/sg12_123_cif.got.tgz:244711.got - 2010.06.28 00:19:55.
