data_PCOD8109299
_publ_section_title
;
Structure prediction by ZEFSAII (Michael W. Deem and Ramdas Pophale) SiO2 
 PCOD8109299
Probable space group: C 2/M
;
_chemical_formula_sum "Si O2"
_cell_formula_units_Z 36
_cell_length_a 14.667771
_cell_length_b 9.524128
_cell_length_c 21.803259
_cell_angle_alpha 90.000000
_cell_angle_beta 146.454209
_cell_angle_gamma 90.000000
_cell_volume 1683.155327
_symmetry_space_group_name_H-M "C 2/M"
_symmetry_group_IT_number 12
_symmetry_cell_setting 'monoclinic'
loop_
_space_group_symop_operation_xyz
x,y,z
-x,y,-z
-x,-y,-z
x,-y,z
1/2+x,1/2+y,z
1/2-x,1/2+y,-z
1/2-x,1/2-y,-z
1/2+x,1/2-y,z
loop_
_atom_site_type_symbol
_atom_site_label
_atom_site_fract_x
_atom_site_fract_y
_atom_site_fract_z
Si Si1 0.838286 0.656313 0.741742
Si Si2 0.000000 0.258748 0.500000
Si Si3 0.146158 0.838155 0.893710
Si Si4 0.817430 0.843217 0.221783
Si Si5 0.095388 0.344558 0.425369
O O1 0.906771 0.500000 0.766225
O O2 0.656165 0.665865 0.609474
O O3 0.828565 0.677697 0.810447
O O4 0.962394 0.772628 0.784450
O O5 0.055333 0.355796 0.474880
O O6 0.241326 0.829622 0.881698
O O7 0.130213 0.000000 0.906168
O O8 0.250000 0.750000 0.000000
O O9 0.948527 0.721627 0.304815
O O10 0.894750 0.000000 0.274866
O O11 0.128210 0.500000 0.418117
O O12 0.250000 0.250000 0.500000
#
# Coordination Sequence:
#
# PCOD8109299 Si02
#       5
#     8   4   8   8   8
#     4  10  21  39  63  90 120 156 198 242 289 347
#     4  10  22  38  60  90 124 160 194 236 292 352
#     4  11  24  42  63  87 117 155 198 246 298 351
#     4   9  21  40  59  82 115 153 193 238 293 351
#     4  11  22  35  55  83 118 157 196 239 288 345
#
# _framework density 21.388400000000001
#
# number of rings (size 3 to 8) (size 9 to 14) (size 15 to 20)
#    0.000    1.778    0.000    3.333    0.000   13.333 
#    0.000    4.444    0.000    0.000    0.000    0.000 
#    0.000    0.000    0.000    0.000    0.000    0.000 
#
# Total GULP energy -223121.245679 kJ/mol
# GULP energy per Si atom -12395.624760 kJ/mol
# Density = 2.133972 g / cm^3
# Si number density = 21.388400 Si / 1000 Ang^3
#
#
#
# Elastic Constant Matrix: (Units=GPa)
#
#
# Indices 1 2 3 4 5 6 
#
# 1 81.6386 28.2145 30.2947 0.0000 -19.1089 0.0000
# 2 28.2145 154.7586 30.3149 0.0000 -3.1837 0.0000
# 3 30.2947 30.3149 79.5684 0.0006 -14.3518 0.0002
# 4 0.0000 0.0000 0.0006 29.9312 0.0002 6.5486
# 5 -19.1089 -3.1837 -14.3518 0.0002 34.0886 0.0000
# 6 0.0000 0.0000 0.0002 6.5486 0.0000 28.7795
#
#
#
# Elastic Compliance Matrix: (Units=1/GPa)
#
#
# Indices 1 2 3 4 5 6 
#
# 1 0.016126 -0.001991 -0.004095 0.000000 0.007129 0.000000
# 2 -0.001991 0.007237 -0.002249 0.000000 -0.001387 0.000000
# 3 -0.004095 -0.002249 0.015726 0.000000 0.004115 0.000000
# 4 0.000000 0.000000 0.000000 0.035160 0.000000 -0.008001
# 5 0.007129 -0.001387 0.004115 0.000000 0.034935 0.000000
# 6 0.000000 0.000000 0.000000 -0.008001 0.000000 0.036567
#
#
# Mechanical properties :
#
#
# Convention : Reuss Voigt Hill
#
# Bulk Modulus (GPa) = 44.60772 54.84598 49.72685
# Shear Modulus (GPa) = 29.42998 33.70262 31.56630
#
# Velocity S-wave (km/s) = 3.71344 3.97387 3.84586
# Velocity P-wave (km/s) = 6.26798 6.83769 6.55902
#
# Compressibility (1/GPa) = 0.02241764
#
# Stress axis : x y z
#
# Youngs Moduli (GPa) = 62.01312 138.18390 63.58806
#
# Poissons Ratio (x) = 0.27513 0.26040
# Poissons Ratio (y) = 0.12347 0.14303
# Poissons Ratio (z) = 0.25395 0.31081
#
# Static dielectric constant tensor:
#      x y z
#    x 4.317960 0.000000 -0.185930 
#    y 0.000000 3.834430 0.000000 
#    z -0.185930 0.000000 3.608520 
# 
# 
# High freq. dielectric constant tensor:
#      x y z
#    x 1.848920 0.000000 -0.019900 
#    y 0.000000 1.845090 0.000000 
#    z -0.019900 0.000000 1.819200 
# 
# From -- ./inp_files/273919.got.cif
#   From: 2010.06.25/outbox.cif.g09.slc.cpg/sg12_137_cif.got.tgz:273919.got - 2010.06.28 00:19:55.
