data_PCOD8109168
_publ_section_title
;
Structure prediction by ZEFSAII (Michael W. Deem and Ramdas Pophale) SiO2 
 PCOD8109168
Probable space group: C 2/M
;
_chemical_formula_sum "Si O2"
_cell_formula_units_Z 40
_cell_length_a 9.442654
_cell_length_b 26.170888
_cell_length_c 8.160370
_cell_angle_alpha 90.000000
_cell_angle_beta 83.884517
_cell_angle_gamma 90.000000
_cell_volume 2005.136027
_symmetry_space_group_name_H-M "C 2/M"
_symmetry_group_IT_number 12
_symmetry_cell_setting 'monoclinic'
loop_
_space_group_symop_operation_xyz
x,y,z
-x,y,-z
-x,-y,-z
x,-y,z
1/2+x,1/2+y,z
1/2-x,1/2+y,-z
1/2-x,1/2-y,-z
1/2+x,1/2-y,z
loop_
_atom_site_type_symbol
_atom_site_label
_atom_site_fract_x
_atom_site_fract_y
_atom_site_fract_z
Si Si1 0.568018 0.500000 0.728823
Si Si2 0.227991 0.000000 0.042852
Si Si3 0.647064 0.597567 0.515063
Si Si4 0.836266 0.399941 0.176191
Si Si5 0.906952 0.357727 0.665826
Si Si6 0.652852 0.201752 0.031068
O O1 0.410840 0.500000 0.825200
O O2 0.588352 0.546840 0.605593
O O3 0.685186 0.500000 0.858106
O O4 0.324850 0.050366 0.062405
O O5 0.500000 0.630272 0.500000
O O6 0.724585 0.590464 0.333512
O O7 0.757963 0.618916 0.631114
O O8 0.996916 0.395237 0.230479
O O9 0.798564 0.348261 0.079613
O O10 0.856350 0.309365 0.774949
O O11 0.000000 0.339396 0.500000
O O12 0.500000 0.221590 0.000000
O O13 0.750000 0.250000 0.000000
#
# Coordination Sequence:
#
# PCOD8109168 Si02
#       6
#     4   4   8   8   8   8
#     4  11  22  34  53  88 131 162 202 256 292 346
#     4  11  21  37  60  88 127 166 202 247 306 358
#     4  11  20  36  57  85 123 163 201 247 297 354
#     4  10  21  39  62  89 121 160 202 248 302 362
#     4   9  21  40  62  86 121 154 201 254 299 359
#     4  10  22  43  64  91 121 155 200 256 304 362
#
# _framework density 19.948771000000001
#
# number of rings (size 3 to 8) (size 9 to 14) (size 15 to 20)
#    0.000    1.800    2.000    2.100    0.000    2.400 
#    3.600   18.500    0.000    0.000    0.000    0.000 
#    0.000    0.000    0.000    0.000    0.000    0.000 
#
# Total GULP energy -247777.554693 kJ/mol
# GULP energy per Si atom -12388.877735 kJ/mol
# Density = 1.990337 g / cm^3
# Si number density = 19.948771 Si / 1000 Ang^3
#
#
#
# Elastic Constant Matrix: (Units=GPa)
#
#
# Indices 1 2 3 4 5 6 
#
# 1 140.5272 68.1829 54.4367 0.0000 16.1067 0.0000
# 2 68.1829 131.3390 65.8898 0.0000 7.3498 0.0000
# 3 54.4367 65.8898 117.1666 0.0000 9.5470 0.0000
# 4 0.0000 0.0000 0.0000 33.1529 0.0000 -7.2249
# 5 16.1067 7.3498 9.5470 0.0000 34.7763 0.0000
# 6 0.0000 0.0000 0.0000 -7.2249 0.0000 32.5609
#
#
#
# Elastic Compliance Matrix: (Units=1/GPa)
#
#
# Indices 1 2 3 4 5 6 
#
# 1 0.010333 -0.004048 -0.002255 0.000000 -0.003311 0.000000
# 2 -0.004048 0.012205 -0.005038 0.000000 0.000678 0.000000
# 3 -0.002255 -0.005038 0.012524 0.000000 -0.001329 0.000000
# 4 0.000000 0.000000 0.000000 0.031696 0.000000 0.007033
# 5 -0.003311 0.000678 -0.001329 0.000000 0.030510 0.000000
# 6 0.000000 0.000000 0.000000 0.007033 0.000000 0.032272
#
#
# Mechanical properties :
#
#
# Convention : Reuss Voigt Hill
#
# Bulk Modulus (GPa) = 80.77206 85.11685 82.94445
# Shear Modulus (GPa) = 31.97992 33.46627 32.72309
#
# Velocity S-wave (km/s) = 4.00822 4.10031 4.05453
# Velocity P-wave (km/s) = 7.87393 8.07323 7.97420
#
# Compressibility (1/GPa) = 0.01238052
#
# Stress axis : x y z
#
# Youngs Moduli (GPa) = 96.77781 81.93506 79.84725
#
# Poissons Ratio (x) = 0.33166 0.18003
# Poissons Ratio (y) = 0.39174 0.40228
# Poissons Ratio (z) = 0.21820 0.41280
#
# Static dielectric constant tensor:
#      x y z
#    x 3.974330 0.000000 0.151630 
#    y 0.000000 3.302190 0.000000 
#    z 0.151630 0.000000 3.977680 
# 
# 
# High freq. dielectric constant tensor:
#      x y z
#    x 1.796300 0.000000 0.005550 
#    y 0.000000 1.742740 0.000000 
#    z 0.005550 0.000000 1.805940 
# 
# From -- ./inp_files/40434.got.cif
#   From: 2010.06.25/outbox.cif.g09.slc.cpg/sg12_21_cif.got.tgz:40434.got - 2010.06.28 00:19:55.
