data_PCOD8109378
_publ_section_title
;
Structure prediction by ZEFSAII (Michael W. Deem and Ramdas Pophale) SiO2 
 PCOD8109378
Probable space group: C 2/M
;
_chemical_formula_sum "Si O2"
_cell_formula_units_Z 56
_cell_length_a 29.788936
_cell_length_b 8.583991
_cell_length_c 21.640165
_cell_angle_alpha 90.000000
_cell_angle_beta 152.203061
_cell_angle_gamma 90.000000
_cell_volume 2580.518073
_symmetry_space_group_name_H-M "C 2/M"
_symmetry_group_IT_number 12
_symmetry_cell_setting 'monoclinic'
loop_
_space_group_symop_operation_xyz
x,y,z
-x,y,-z
-x,-y,-z
x,-y,z
1/2+x,1/2+y,z
1/2-x,1/2+y,-z
1/2-x,1/2-y,-z
1/2+x,1/2-y,z
loop_
_atom_site_type_symbol
_atom_site_label
_atom_site_fract_x
_atom_site_fract_y
_atom_site_fract_z
Si Si1 0.873745 0.819155 0.692605
Si Si2 0.525945 0.175117 0.960593
Si Si3 0.099391 0.183986 0.652700
Si Si4 0.793240 0.679373 0.427485
Si Si5 0.272545 0.320286 0.787920
Si Si6 0.030746 0.182309 0.314212
Si Si7 0.152318 0.316897 0.851766
O O1 0.771899 0.752142 0.594669
O O2 0.914088 0.745497 0.678428
O O3 0.953973 0.793925 0.841501
O O4 0.858776 0.000000 0.663599
O O5 0.514895 0.000000 0.920889
O O6 0.500000 0.179005 0.000000
O O7 0.632101 0.234454 0.073542
O O8 0.183171 0.233627 0.709066
O O9 0.121391 0.251931 0.747340
O O10 0.000000 0.245157 0.500000
O O11 0.095159 0.000000 0.655520
O O12 0.821427 0.500000 0.472957
O O13 0.731291 0.696130 0.290365
O O14 0.890860 0.780399 0.537020
O O15 0.273604 0.500000 0.810397
O O16 0.932089 0.274204 0.203171
O O17 0.007009 0.000000 0.281273
O O18 0.164799 0.500000 0.861212
O O19 0.250000 0.250000 0.000000
#
# Coordination Sequence:
#
# PCOD8109378 Si02
#       7
#     8   8   8   8   8   8   8
#     4  10  22  40  62  90 127 170 214 257 313 384
#     4  11  23  38  59  90 126 166 213 267 320 376
#     4  11  25  46  72 102 135 170 218 279 337 398
#     4  10  21  39  63  94 130 171 214 258 312 380
#     4  11  23  39  65  94 128 171 212 261 320 387
#     4  11  24  41  65  94 128 168 212 264 322 382
#     4  12  27  48  72  97 132 175 224 279 336 400
#
# _framework density 21.701067999999999
#
# number of rings (size 3 to 8) (size 9 to 14) (size 15 to 20)
#    0.000    1.143    1.429    4.286    2.000    6.857 
#    0.000    0.000    0.000    0.000    0.000    0.000 
#    0.000    0.000    0.000    0.000    0.000    0.000 
#
# Total GULP energy -347157.369847 kJ/mol
# GULP energy per Si atom -12398.477495 kJ/mol
# Density = 2.165168 g / cm^3
# Si number density = 21.701068 Si / 1000 Ang^3
#
#
#
# Elastic Constant Matrix: (Units=GPa)
#
#
# Indices 1 2 3 4 5 6 
#
# 1 107.9629 36.3553 53.3731 0.0000 20.8134 0.0000
# 2 36.3553 74.2147 31.4419 0.0000 1.2057 0.0000
# 3 53.3731 31.4419 119.5020 0.0000 26.2193 0.0000
# 4 0.0000 0.0000 0.0000 31.7672 0.0000 -1.4534
# 5 20.8134 1.2057 26.2193 0.0000 42.7130 0.0000
# 6 0.0000 0.0000 0.0000 -1.4534 0.0000 30.6825
#
#
#
# Elastic Compliance Matrix: (Units=1/GPa)
#
#
# Indices 1 2 3 4 5 6 
#
# 1 0.013654 -0.004976 -0.003883 0.000000 -0.004129 0.000000
# 2 -0.004976 0.017183 -0.003148 0.000000 0.003872 0.000000
# 3 -0.003883 -0.003148 0.012129 0.000000 -0.005465 0.000000
# 4 0.000000 0.000000 0.000000 0.031547 0.000000 0.001494
# 5 -0.004129 0.003872 -0.005465 0.000000 0.028669 0.000000
# 6 0.000000 0.000000 0.000000 0.001494 0.000000 0.032663
#
#
# Mechanical properties :
#
#
# Convention : Reuss Voigt Hill
#
# Bulk Modulus (GPa) = 52.76544 60.44669 56.60606
# Shear Modulus (GPa) = 30.08831 33.06650 31.57741
#
# Velocity S-wave (km/s) = 3.72760 3.90773 3.81873
# Velocity P-wave (km/s) = 6.54936 6.94803 6.75164
#
# Compressibility (1/GPa) = 0.01895180
#
# Stress axis : x y z
#
# Youngs Moduli (GPa) = 73.23961 58.19719 82.44366
#
# Poissons Ratio (x) = 0.28961 0.32012
# Poissons Ratio (y) = 0.36447 0.25953
# Poissons Ratio (z) = 0.28438 0.18320
#
# Static dielectric constant tensor:
#      x y z
#    x 4.064590 0.000000 -0.158970 
#    y 0.000000 3.883400 0.000000 
#    z -0.158970 0.000000 3.563570 
# 
# 
# High freq. dielectric constant tensor:
#      x y z
#    x 1.863000 0.000000 0.008240 
#    y 0.000000 1.849810 0.000000 
#    z 0.008240 0.000000 1.866430 
# 
# From -- ./inp_files/329640.got.cif
#   From: 2010.06.25/outbox.cif.g09.slc.cpg/sg12_165_cif.got.tgz:329640.got - 2010.06.28 00:19:55.
