data_PCOD8109690
_publ_section_title
;
Structure prediction by ZEFSAII (Michael W. Deem and Ramdas Pophale) SiO2 
 PCOD8109690
Probable space group: C 2/M
;
_chemical_formula_sum "Si O2"
_cell_formula_units_Z 44
_cell_length_a 21.711166
_cell_length_b 20.094692
_cell_length_c 4.833862
_cell_angle_alpha 90.000000
_cell_angle_beta 73.572198
_cell_angle_gamma 90.000000
_cell_volume 2022.820947
_symmetry_space_group_name_H-M "C 2/M"
_symmetry_group_IT_number 12
_symmetry_cell_setting 'monoclinic'
loop_
_space_group_symop_operation_xyz
x,y,z
-x,y,-z
-x,-y,-z
x,-y,z
1/2+x,1/2+y,z
1/2-x,1/2+y,-z
1/2-x,1/2-y,-z
1/2+x,1/2-y,z
loop_
_atom_site_type_symbol
_atom_site_label
_atom_site_fract_x
_atom_site_fract_y
_atom_site_fract_z
Si Si1 0.459233 0.335527 0.778640
Si Si2 0.568936 0.801113 0.480720
Si Si3 0.047923 0.500000 0.178294
Si Si4 0.624263 0.867948 0.938099
Si Si5 0.246075 0.924158 0.422234
Si Si6 0.339814 0.575928 0.973183
O O1 0.500000 0.379242 0.500000
O O2 0.436814 0.276136 0.598245
O O3 0.500000 0.312361 0.000000
O O4 0.399412 0.376972 0.966708
O O5 0.500000 0.835983 0.500000
O O6 0.583878 0.820736 0.778934
O O7 0.627441 0.827998 0.220185
O O8 0.000000 0.500000 0.500000
O O9 0.092939 0.436421 0.080427
O O10 0.000000 0.500000 0.000000
O O11 0.694831 0.877010 0.726233
O O12 0.221153 0.905947 0.758059
O O13 0.270756 0.000000 0.373656
O O14 0.184615 0.912793 0.305436
O O15 0.361528 0.500000 0.999747
#
# Coordination Sequence:
#
# PCOD8109690 Si02
#       6
#     8   8   4   8   8   8
#     4  11  23  42  66  93 124 161 205 258 327 390
#     4  11  23  39  59  84 123 166 208 257 314 371
#     4  12  24  36  58  92 126 162 218 276 302 350
#     4  12  22  39  60  87 121 171 215 249 312 363
#     4  10  21  40  60  88 125 167 206 252 315 374
#     4  10  22  40  66  93 125 159 204 259 319 383
#
# _framework density 21.751804
#
# number of rings (size 3 to 8) (size 9 to 14) (size 15 to 20)
#    0.000    1.091    0.909    7.636    0.000    0.727 
#    0.000    5.455    0.000    0.000    0.000    0.000 
#    0.000    0.000    0.000    0.000    0.000    0.000 
#
# Total GULP energy -272542.544595 kJ/mol
# GULP energy per Si atom -12388.297482 kJ/mol
# Density = 2.170230 g / cm^3
# Si number density = 21.751804 Si / 1000 Ang^3
#
#
#
# Elastic Constant Matrix: (Units=GPa)
#
#
# Indices 1 2 3 4 5 6 
#
# 1 66.7815 36.2737 21.0144 0.0000 -16.3762 0.0000
# 2 36.2737 77.4979 33.9018 0.0000 -15.0288 0.0000
# 3 21.0144 33.9018 107.2798 0.0000 -0.6280 0.0000
# 4 0.0000 0.0000 0.0000 30.1026 0.0000 -2.6509
# 5 -16.3762 -15.0288 -0.6280 0.0000 35.4042 0.0000
# 6 0.0000 0.0000 0.0000 -2.6509 0.0000 24.7809
#
#
#
# Elastic Compliance Matrix: (Units=1/GPa)
#
#
# Indices 1 2 3 4 5 6 
#
# 1 0.021458 -0.008086 -0.001610 0.000000 0.006465 0.000000
# 2 -0.008086 0.019556 -0.004570 0.000000 0.004480 0.000000
# 3 -0.001610 -0.004570 0.011066 0.000000 -0.002488 0.000000
# 4 0.000000 0.000000 0.000000 0.033536 0.000000 0.003587
# 5 0.006465 0.004480 -0.002488 0.000000 0.033093 0.000000
# 6 0.000000 0.000000 0.000000 0.003587 0.000000 0.040737
#
#
# Mechanical properties :
#
#
# Convention : Reuss Voigt Hill
#
# Bulk Modulus (GPa) = 42.46470 48.21544 45.34007
# Shear Modulus (GPa) = 25.53261 28.74881 27.14071
#
# Velocity S-wave (km/s) = 3.42982 3.63943 3.53618
# Velocity P-wave (km/s) = 5.93714 6.31466 6.12881
#
# Compressibility (1/GPa) = 0.02354897
#
# Stress axis : x y z
#
# Youngs Moduli (GPa) = 46.60264 51.13502 90.36333
#
# Poissons Ratio (x) = 0.41346 0.14551
# Poissons Ratio (y) = 0.37681 0.41295
# Poissons Ratio (z) = 0.07504 0.23368
#
# Static dielectric constant tensor:
#      x y z
#    x 3.752650 0.000000 -0.118420 
#    y 0.000000 3.708040 0.000000 
#    z -0.118420 0.000000 4.347090 
# 
# 
# High freq. dielectric constant tensor:
#      x y z
#    x 1.838770 0.000000 -0.004140 
#    y 0.000000 1.833320 0.000000 
#    z -0.004140 0.000000 1.888810 
# 
# From -- ./inp_files/20900.got.cif
#   From: 2010.06.25/outbox.cif.g09.slc.cpg/sg12_11_cif.got.tgz:20900.got - 2010.06.28 00:19:55.
