data_PCOD8109780
_publ_section_title
;
Structure prediction by ZEFSAII (Michael W. Deem and Ramdas Pophale) SiO2 
 PCOD8109780
Probable space group: C 2/M
;
_chemical_formula_sum "Si O2"
_cell_formula_units_Z 40
_cell_length_a 18.905286
_cell_length_b 8.736354
_cell_length_c 26.951406
_cell_angle_alpha 90.000000
_cell_angle_beta 151.996434
_cell_angle_gamma 90.000000
_cell_volume 2090.042053
_symmetry_space_group_name_H-M "C 2/M"
_symmetry_group_IT_number 12
_symmetry_cell_setting 'monoclinic'
loop_
_space_group_symop_operation_xyz
x,y,z
-x,y,-z
-x,-y,-z
x,-y,z
1/2+x,1/2+y,z
1/2-x,1/2+y,-z
1/2-x,1/2-y,-z
1/2+x,1/2-y,z
loop_
_atom_site_type_symbol
_atom_site_label
_atom_site_fract_x
_atom_site_fract_y
_atom_site_fract_z
Si Si1 0.949535 0.675621 0.914289
Si Si2 0.588040 0.679188 0.906997
Si Si3 0.688717 0.819758 0.315615
Si Si4 0.174092 0.320492 0.501072
Si Si5 0.636995 0.325412 0.675276
O O1 0.994622 0.500000 0.930232
O O2 0.769781 0.694877 0.797714
O O3 0.034602 0.786712 0.929540
O O4 0.000000 0.724942 0.000000
O O5 0.594404 0.500000 0.901648
O O6 0.475337 0.752247 0.797177
O O7 0.750000 0.750000 0.000000
O O8 0.749596 0.748728 0.403352
O O9 0.803314 0.778465 0.342162
O O10 0.672322 0.000000 0.311402
O O11 0.200225 0.500000 0.516711
O O12 0.250000 0.250000 0.500000
O O13 0.996694 0.285411 0.391348
O O14 0.577751 0.500000 0.637739
#
# Coordination Sequence:
#
# PCOD8109780 Si02
#       5
#     8   8   8   8   8
#     4   9  19  37  60  85 115 151 190 234 285 336
#     4  11  22  37  58  85 118 153 192 234 279 334
#     4  10  21  40  63  85 112 147 189 235 286 342
#     4  12  25  39  57  83 116 151 190 236 286 338
#     4   9  19  37  60  84 113 149 188 233 285 340
#
# _framework density 19.138370999999999
#
# number of rings (size 3 to 8) (size 9 to 14) (size 15 to 20)
#    0.000    1.800    0.000    6.000    0.000    8.400 
#    0.000    6.000    0.000    0.000    0.000    0.000 
#    0.000    0.000    0.000    0.000    0.000    0.000 
#
# Total GULP energy -248084.388604 kJ/mol
# GULP energy per Si atom -12404.219430 kJ/mol
# Density = 1.909481 g / cm^3
# Si number density = 19.138371 Si / 1000 Ang^3
#
#
#
# Elastic Constant Matrix: (Units=GPa)
#
#
# Indices 1 2 3 4 5 6 
#
# 1 102.9350 55.5256 82.0627 -0.0010 -8.6749 -0.0001
# 2 55.5256 125.7056 57.0060 -0.0014 4.7510 -0.0003
# 3 82.0627 57.0060 142.2123 -0.0019 -6.3175 0.0001
# 4 -0.0010 -0.0014 -0.0019 36.6274 0.0003 2.5082
# 5 -8.6749 4.7510 -6.3175 0.0003 41.8476 0.0001
# 6 -0.0001 -0.0003 0.0001 2.5082 0.0001 34.2386
#
#
#
# Elastic Compliance Matrix: (Units=1/GPa)
#
#
# Indices 1 2 3 4 5 6 
#
# 1 0.020190 -0.004673 -0.009632 0.000000 0.003262 0.000000
# 2 -0.004673 0.010926 -0.001793 0.000000 -0.002480 0.000000
# 3 -0.009632 -0.001793 0.013318 0.000000 0.000218 0.000000
# 4 0.000000 0.000000 0.000000 0.027440 0.000000 -0.002010
# 5 0.003262 -0.002480 0.000218 0.000000 0.024887 0.000000
# 6 0.000000 0.000000 0.000000 -0.002010 0.000000 0.029354
#
#
# Mechanical properties :
#
#
# Convention : Reuss Voigt Hill
#
# Bulk Modulus (GPa) = 81.71956 84.44905 83.08430
# Shear Modulus (GPa) = 30.78990 34.29331 32.54161
#
# Velocity S-wave (km/s) = 4.01534 4.23763 4.12798
# Velocity P-wave (km/s) = 8.01806 8.25619 8.13800
#
# Compressibility (1/GPa) = 0.01223697
#
# Stress axis : x y z
#
# Youngs Moduli (GPa) = 49.53055 91.52238 75.08408
#
# Poissons Ratio (x) = 0.42770 0.72322
# Poissons Ratio (y) = 0.23147 0.13465
# Poissons Ratio (z) = 0.47708 0.16413
#
# Static dielectric constant tensor:
#      x y z
#    x 3.483070 0.000010 -0.055900 
#    y 0.000010 3.618340 -0.000030 
#    z -0.055900 -0.000030 3.757740 
# 
# 
# High freq. dielectric constant tensor:
#      x y z
#    x 1.738890 0.000000 -0.003140 
#    y 0.000000 1.749540 0.000000 
#    z -0.003140 0.000000 1.760090 
# 
# From -- ./inp_files/280708.got.cif
#   From: 2010.06.25/outbox.cif.g09.slc.cpg/sg12_141_cif.got.tgz:280708.got - 2010.06.28 00:19:55.
