data_PCOD8109754
_publ_section_title
;
Structure prediction by ZEFSAII (Michael W. Deem and Ramdas Pophale) SiO2 
 PCOD8109754
Probable space group: C 2/M
;
_chemical_formula_sum "Si O2"
_cell_formula_units_Z 64
_cell_length_a 30.679621
_cell_length_b 23.212190
_cell_length_c 9.453887
_cell_angle_alpha 90.000000
_cell_angle_beta 28.246480
_cell_angle_gamma 90.000000
_cell_volume 3186.261418
_symmetry_space_group_name_H-M "C 2/M"
_symmetry_group_IT_number 12
_symmetry_cell_setting 'monoclinic'
loop_
_space_group_symop_operation_xyz
x,y,z
-x,y,-z
-x,-y,-z
x,-y,z
1/2+x,1/2+y,z
1/2-x,1/2+y,-z
1/2-x,1/2-y,-z
1/2+x,1/2-y,z
loop_
_atom_site_type_symbol
_atom_site_label
_atom_site_fract_x
_atom_site_fract_y
_atom_site_fract_z
Si Si1 0.712448 0.434411 0.174341
Si Si2 0.202121 0.365011 0.818213
Si Si3 0.092597 0.435073 0.913653
Si Si4 0.441161 0.234902 0.798529
Si Si5 0.853305 0.848457 0.152804
Si Si6 0.783331 0.608798 0.683206
Si Si7 0.003963 0.933288 0.825653
Si Si8 0.458298 0.833900 0.259881
O O1 0.727147 0.500000 0.186254
O O2 0.765656 0.389955 0.123646
O O3 0.604887 0.419142 0.479368
O O4 0.747433 0.429587 0.914437
O O5 0.145439 0.415018 0.902900
O O6 0.288645 0.347073 0.475058
O O7 0.137863 0.309384 0.025945
O O8 0.059292 0.500000 0.030152
O O9 0.160826 0.431166 0.585066
O O10 0.001591 0.397699 0.150833
O O11 0.500000 0.259606 0.500000
O O12 0.517561 0.204062 0.675518
O O13 0.397535 0.285772 0.013895
O O14 0.799853 0.860646 0.160440
O O15 0.931102 0.896828 0.945217
O O16 0.848608 0.659619 0.557785
O O17 0.977056 0.000000 0.883237
O O18 0.000000 0.915039 0.000000
O O19 0.500000 0.804033 0.000000
#
# Coordination Sequence:
#
# PCOD8109754 Si02
#       8
#     8   8   8   8   8   8   8   8
#     4  11  22  37  61  92 127 157 194 245 303 355
#     4  10  21  40  62  88 119 156 205 247 288 347
#     4   9  18  34  60  88 120 162 199 233 288 357
#     4  11  24  42  63  86 120 155 199 253 303 348
#     4  11  24  42  64  87 117 159 205 241 296 365
#     4  10  22  37  57  89 126 151 195 244 302 350
#     4  10  22  41  63  90 120 155 199 250 295 352
#     4   9  20  40  59  85 121 160 196 246 290 351
#
# _framework density 20.086237000000001
#
# number of rings (size 3 to 8) (size 9 to 14) (size 15 to 20)
#    0.000    1.875    1.250    2.625    1.750    5.750 
#    2.250    2.500    0.000    4.125    0.000    0.000 
#    0.000    0.000    0.000    0.000    0.000    0.000 
#
# Total GULP energy -396874.749970 kJ/mol
# GULP energy per Si atom -12402.335937 kJ/mol
# Density = 2.004052 g / cm^3
# Si number density = 20.086237 Si / 1000 Ang^3
#
#
#
# Elastic Constant Matrix: (Units=GPa)
#
#
# Indices 1 2 3 4 5 6 
#
# 1 108.8341 49.9842 49.0487 0.0000 -18.3701 0.0000
# 2 49.9842 91.3383 19.1473 0.0000 -9.5003 0.0000
# 3 49.0487 19.1473 71.9950 0.0000 -2.7060 0.0000
# 4 0.0000 0.0000 0.0000 19.3430 0.0000 3.3799
# 5 -18.3701 -9.5003 -2.7060 0.0000 36.5679 0.0000
# 6 0.0000 0.0000 0.0000 3.3799 0.0000 15.1861
#
#
#
# Elastic Compliance Matrix: (Units=1/GPa)
#
#
# Indices 1 2 3 4 5 6 
#
# 1 0.018177 -0.007121 -0.010244 0.000000 0.006523 0.000000
# 2 -0.007121 0.014676 0.000960 0.000000 0.000307 0.000000
# 3 -0.010244 0.000960 0.020487 0.000000 -0.003381 0.000000
# 4 0.000000 0.000000 0.000000 0.053790 0.000000 -0.011972
# 5 0.006523 0.000307 -0.003381 0.000000 0.030453 0.000000
# 6 0.000000 0.000000 0.000000 -0.011972 0.000000 0.068514
#
#
# Mechanical properties :
#
#
# Convention : Reuss Voigt Hill
#
# Bulk Modulus (GPa) = 48.71338 56.50308 52.60823
# Shear Modulus (GPa) = 20.34586 24.48520 22.41553
#
# Velocity S-wave (km/s) = 3.18610 3.49521 3.34423
# Velocity P-wave (km/s) = 6.15140 6.66933 6.41560
#
# Compressibility (1/GPa) = 0.02052824
#
# Stress axis : x y z
#
# Youngs Moduli (GPa) = 55.01569 68.13889 48.81201
#
# Poissons Ratio (x) = 0.48522 0.50005
# Poissons Ratio (y) = 0.39177 -0.04685
# Poissons Ratio (z) = 0.56360 -0.06540
#
# Static dielectric constant tensor:
#      x y z
#    x 3.714860 0.000000 -0.083820 
#    y 0.000000 3.405170 0.000000 
#    z -0.083820 0.000000 3.658800 
# 
# 
# High freq. dielectric constant tensor:
#      x y z
#    x 1.793870 0.000000 -0.004400 
#    y 0.000000 1.769460 0.000000 
#    z -0.004400 0.000000 1.787980 
# 
# From -- ./inp_files/113623.got.cif
#   From: 2010.06.25/outbox.cif.g09.slc.cpg/sg12_57_cif.got.tgz:113623.got - 2010.06.28 00:19:55.
