data_PCOD8109022
_publ_section_title
;
Structure prediction by ZEFSAII (Michael W. Deem and Ramdas Pophale) SiO2 
 PCOD8109022
Probable space group: C 2/M
;
_chemical_formula_sum "Si O2"
_cell_formula_units_Z 64
_cell_length_a 9.372917
_cell_length_b 16.059253
_cell_length_c 21.049975
_cell_angle_alpha 90.000000
_cell_angle_beta 91.567743
_cell_angle_gamma 90.000000
_cell_volume 3167.299254
_symmetry_space_group_name_H-M "C 2/M"
_symmetry_group_IT_number 12
_symmetry_cell_setting 'monoclinic'
loop_
_space_group_symop_operation_xyz
x,y,z
-x,y,-z
-x,-y,-z
x,-y,z
1/2+x,1/2+y,z
1/2-x,1/2+y,-z
1/2-x,1/2-y,-z
1/2+x,1/2-y,z
loop_
_atom_site_type_symbol
_atom_site_label
_atom_site_fract_x
_atom_site_fract_y
_atom_site_fract_z
Si Si1 0.404845 0.674070 0.139315
Si Si2 0.485430 0.779582 0.656369
Si Si3 0.804420 0.593809 0.958989
Si Si4 0.357761 0.311402 0.537385
Si Si5 0.739659 0.739590 0.740647
Si Si6 0.192896 0.095299 0.191696
Si Si7 0.591929 0.146111 0.910866
Si Si8 0.093252 0.404627 0.559093
O O1 0.329438 0.623499 0.082951
O O2 0.295470 0.689518 0.195901
O O3 0.539462 0.620736 0.162569
O O4 0.454861 0.762541 0.112772
O O5 0.400295 0.722271 0.606402
O O6 0.615359 0.727651 0.687528
O O7 0.380735 0.803304 0.713188
O O8 0.544925 0.861601 0.623435
O O9 0.776248 0.500000 0.981648
O O10 0.946798 0.594847 0.917951
O O11 0.822485 0.651747 0.021365
O O12 0.500000 0.333310 0.500000
O O13 0.250000 0.250000 0.500000
O O14 0.262265 0.393799 0.547871
O O15 0.764975 0.838688 0.752897
O O16 0.310523 0.098730 0.138286
O O17 0.186555 0.000000 0.218001
O O18 0.053960 0.500000 0.566146
O O19 0.000000 0.364930 0.500000
#
# Coordination Sequence:
#
# PCOD8109022 Si02
#       8
#     8   8   8   8   8   8   8   8
#     4  11  23  40  60  88 119 161 207 254 307 368
#     4  12  21  41  67  90 122 167 215 247 296 375
#     4  11  22  38  60  89 121 155 202 259 315 368
#     4  12  20  38  69 100 125 172 210 255 310 373
#     4  11  24  40  63  89 118 166 215 251 297 372
#     4  11  23  41  61  87 123 158 201 262 318 360
#     4  10  21  39  61  87 118 159 202 248 311 384
#     4  11  24  41  64  98 134 161 204 264 317 362
#
# _framework density 20.206491
#
# number of rings (size 3 to 8) (size 9 to 14) (size 15 to 20)
#    0.000    0.875    5.000    3.750    1.750    2.250 
#    0.000    2.500    0.000    0.000    0.000    0.000 
#    0.000    0.000    0.000    0.000    0.000    0.000 
#
# Total GULP energy -396842.869246 kJ/mol
# GULP energy per Si atom -12401.339664 kJ/mol
# Density = 2.016050 g / cm^3
# Si number density = 20.206491 Si / 1000 Ang^3
#
#
#
# Elastic Constant Matrix: (Units=GPa)
#
#
# Indices 1 2 3 4 5 6 
#
# 1 91.7359 12.8385 18.9111 0.0000 -1.3695 0.0000
# 2 12.8385 60.7013 10.0925 0.0000 -4.0298 0.0000
# 3 18.9111 10.0925 72.6307 0.0000 -4.0899 0.0000
# 4 0.0000 0.0000 0.0000 22.5532 0.0000 4.3197
# 5 -1.3695 -4.0298 -4.0899 0.0000 45.3124 0.0000
# 6 0.0000 0.0000 0.0000 4.3197 0.0000 23.3566
#
#
#
# Elastic Compliance Matrix: (Units=1/GPa)
#
#
# Indices 1 2 3 4 5 6 
#
# 1 0.011758 -0.002029 -0.002784 0.000000 -0.000076 0.000000
# 2 -0.002029 0.017290 -0.001800 0.000000 0.001314 0.000000
# 3 -0.002784 -0.001800 0.014805 0.000000 0.001092 0.000000
# 4 0.000000 0.000000 0.000000 0.045968 0.000000 -0.008501
# 5 -0.000076 0.001314 0.001092 0.000000 0.022282 0.000000
# 6 0.000000 0.000000 0.000000 -0.008501 0.000000 0.044387
#
#
# Mechanical properties :
#
#
# Convention : Reuss Voigt Hill
#
# Bulk Modulus (GPa) = 32.65181 34.30579 33.47880
# Shear Modulus (GPa) = 27.78960 30.45949 29.12455
#
# Velocity S-wave (km/s) = 3.71250 3.88675 3.80063
# Velocity P-wave (km/s) = 5.87971 6.09565 5.98865
#
# Compressibility (1/GPa) = 0.03062617
#
# Stress axis : x y z
#
# Youngs Moduli (GPa) = 85.05192 57.83765 67.54597
#
# Poissons Ratio (x) = 0.11735 0.18803
# Poissons Ratio (y) = 0.17257 0.12160
# Poissons Ratio (z) = 0.23676 0.10412
#
# Static dielectric constant tensor:
#      x y z
#    x 3.904910 0.000000 0.023550 
#    y 0.000000 3.506190 0.000000 
#    z 0.023550 0.000000 3.838280 
# 
# 
# High freq. dielectric constant tensor:
#      x y z
#    x 1.806060 0.000000 0.003130 
#    y 0.000000 1.766090 0.000000 
#    z 0.003130 0.000000 1.796550 
# 
# From -- ./inp_files/300790.got.cif
#   From: 2010.06.25/outbox.cif.g09.slc.cpg/sg12_151_cif.got.tgz:300790.got - 2010.06.28 00:19:55.
