data_PCOD8109913
_publ_section_title
;
Structure prediction by ZEFSAII (Michael W. Deem and Ramdas Pophale) SiO2 
 PCOD8109913
Probable space group: C 2/M
;
_chemical_formula_sum "Si O2"
_cell_formula_units_Z 56
_cell_length_a 23.499128
_cell_length_b 7.958503
_cell_length_c 29.038092
_cell_angle_alpha 90.000000
_cell_angle_beta 151.671397
_cell_angle_gamma 90.000000
_cell_volume 2576.990253
_symmetry_space_group_name_H-M "C 2/M"
_symmetry_group_IT_number 12
_symmetry_cell_setting 'monoclinic'
loop_
_space_group_symop_operation_xyz
x,y,z
-x,y,-z
-x,-y,-z
x,-y,z
1/2+x,1/2+y,z
1/2-x,1/2+y,-z
1/2-x,1/2-y,-z
1/2+x,1/2-y,z
loop_
_atom_site_type_symbol
_atom_site_label
_atom_site_fract_x
_atom_site_fract_y
_atom_site_fract_z
Si Si1 0.622105 0.313206 0.390573
Si Si2 0.362719 0.500000 0.458672
Si Si3 0.953826 0.807291 0.850686
Si Si4 0.783186 0.801000 0.972587
Si Si5 0.695919 0.307371 0.342786
Si Si6 0.862694 0.693463 0.215444
Si Si7 0.381255 0.500000 0.365166
Si Si8 0.748930 0.805069 0.769972
O O1 0.610755 0.500000 0.401496
O O2 0.750000 0.250000 0.500000
O O3 0.612332 0.306041 0.328317
O O4 0.504314 0.218956 0.325685
O O5 0.299367 0.673470 0.428365
O O6 0.393303 0.500000 0.427578
O O7 0.494607 0.500000 0.575429
O O8 0.875849 0.734057 0.752431
O O9 0.888602 0.786211 0.853948
O O10 0.970657 0.000000 0.849530
O O11 0.085418 0.724138 0.946219
O O12 0.687731 0.722880 0.867764
O O13 0.784503 0.000000 0.969735
O O14 0.750000 0.750000 0.000000
O O15 0.744706 0.500000 0.369440
O O16 0.837613 0.500000 0.192884
O O17 0.778773 0.756128 0.197905
O O18 0.317468 0.676143 0.310146
O O19 0.707453 0.000000 0.732419
#
# Coordination Sequence:
#
# PCOD8109913 Si02
#       8
#     8   4   8   8   8   8   4   8
#     4  11  25  41  62  88 123 165 207 260 314 373
#     4  11  24  38  64  91 126 163 212 266 314 372
#     4   9  18  38  65  88 119 161 203 249 309 370
#     4  10  21  40  64  93 125 160 206 257 314 375
#     4  10  22  40  61  90 122 161 212 256 314 376
#     4  10  23  40  61  92 126 164 210 256 314 377
#     4  11  24  40  60  96 125 166 213 256 320 374
#     4  10  22  41  63  89 128 168 207 260 313 378
#
# _framework density 21.730777
#
# number of rings (size 3 to 8) (size 9 to 14) (size 15 to 20)
#    0.000    1.857    1.429    1.286    5.000    2.857 
#    2.571    4.286    0.000    0.857    0.000    0.000 
#    0.000    0.000    0.000    0.000    0.000    0.000 
#
# Total GULP energy -346875.838729 kJ/mol
# GULP energy per Si atom -12388.422812 kJ/mol
# Density = 2.168132 g / cm^3
# Si number density = 21.730777 Si / 1000 Ang^3
#
#
#
# Elastic Constant Matrix: (Units=GPa)
#
#
# Indices 1 2 3 4 5 6 
#
# 1 138.0851 10.4213 51.5896 -0.0002 17.1375 0.0002
# 2 10.4213 64.6764 9.8961 -0.0048 11.7104 0.0030
# 3 51.5896 9.8961 113.4745 -0.0130 27.0313 -0.0002
# 4 -0.0002 -0.0048 -0.0130 20.2074 0.0013 2.9706
# 5 17.1375 11.7104 27.0313 0.0013 34.1829 0.0002
# 6 0.0002 0.0030 -0.0002 2.9706 0.0002 29.2882
#
#
#
# Elastic Compliance Matrix: (Units=1/GPa)
#
#
# Indices 1 2 3 4 5 6 
#
# 1 0.008812 -0.000623 -0.003635 -0.000002 -0.001330 0.000000
# 2 -0.000623 0.016529 0.000143 0.000005 -0.005464 -0.000002
# 3 -0.003635 0.000143 0.012358 0.000009 -0.007999 -0.000001
# 4 -0.000002 0.000005 0.000009 0.050236 -0.000009 -0.005095
# 5 -0.001330 -0.005464 -0.007999 -0.000009 0.038119 0.000001
# 6 0.000000 -0.000002 -0.000001 -0.005095 0.000001 0.034660
#
#
# Mechanical properties :
#
#
# Convention : Reuss Voigt Hill
#
# Bulk Modulus (GPa) = 33.93293 51.11665 42.52479
# Shear Modulus (GPa) = 27.96929 33.02430 30.49679
#
# Velocity S-wave (km/s) = 3.59148 3.90256 3.75025
# Velocity P-wave (km/s) = 5.73126 6.62423 6.19386
#
# Compressibility (1/GPa) = 0.02946990
#
# Stress axis : x y z
#
# Youngs Moduli (GPa) = 113.48033 60.49868 80.91719
#
# Poissons Ratio (x) = 0.03768 0.29415
# Poissons Ratio (y) = 0.07068 -0.01158
# Poissons Ratio (z) = 0.41252 -0.00866
#
# Static dielectric constant tensor:
#      x y z
#    x 4.308010 0.000010 -0.020610 
#    y 0.000010 4.183810 -0.000020 
#    z -0.020610 -0.000020 4.139900 
# 
# 
# High freq. dielectric constant tensor:
#      x y z
#    x 1.869970 0.000000 0.006790 
#    y 0.000000 1.840430 0.000000 
#    z 0.006790 0.000000 1.841580 
# 
# From -- ./inp_files/380830.got.cif
#   From: 2010.06.25/outbox.cif.g09.slc.cpg/sg12_191_cif.got.tgz:380830.got - 2010.06.28 00:19:55.
