data_PCOD8109340
_publ_section_title
;
Structure prediction by ZEFSAII (Michael W. Deem and Ramdas Pophale) SiO2 
 PCOD8109340
Probable space group: C 2/M
;
_chemical_formula_sum "Si O2"
_cell_formula_units_Z 56
_cell_length_a 26.139333
_cell_length_b 15.030775
_cell_length_c 7.709226
_cell_angle_alpha 90.000000
_cell_angle_beta 120.158734
_cell_angle_gamma 90.000000
_cell_volume 2618.908962
_symmetry_space_group_name_H-M "C 2/M"
_symmetry_group_IT_number 12
_symmetry_cell_setting 'monoclinic'
loop_
_space_group_symop_operation_xyz
x,y,z
-x,y,-z
-x,-y,-z
x,-y,z
1/2+x,1/2+y,z
1/2-x,1/2+y,-z
1/2-x,1/2-y,-z
1/2+x,1/2-y,z
loop_
_atom_site_type_symbol
_atom_site_label
_atom_site_fract_x
_atom_site_fract_y
_atom_site_fract_z
Si Si1 0.837586 0.897157 0.032742
Si Si2 0.169344 0.097125 0.595811
Si Si3 0.438055 0.901014 0.297671
Si Si4 0.244505 0.151663 0.419287
Si Si5 0.374031 0.098312 0.531428
Si Si6 0.071558 0.775331 0.290770
Si Si7 0.441465 0.720508 0.126321
O O1 0.805429 0.888152 0.165758
O O2 0.900607 0.847053 0.164595
O O3 0.847528 0.000000 0.998018
O O4 0.800426 0.849279 0.819163
O O5 0.221863 0.094877 0.544654
O O6 0.123465 0.174714 0.477612
O O7 0.137983 0.000000 0.536044
O O8 0.500000 0.883593 0.500000
O O9 0.384132 0.894645 0.342174
O O10 0.426150 0.824289 0.135846
O O11 0.438495 0.000000 0.212036
O O12 0.250000 0.250000 0.500000
O O13 0.305550 0.112899 0.455602
O O14 0.415713 0.169949 0.695118
O O15 0.392834 0.000000 0.628790
O O16 0.010581 0.795038 0.288570
O O17 0.068906 0.806545 0.089660
#
# Coordination Sequence:
#
# PCOD8109340 Si02
#       7
#     8   8   8   8   8   8   8
#     4  11  25  44  70 102 134 178 222 270 335 395
#     4  11  24  44  67  93 134 178 220 273 330 390
#     4  10  21  39  63  91 127 172 219 276 337 390
#     4  12  24  45  69  96 135 174 220 276 330 393
#     4  11  22  40  65  91 128 173 214 272 337 392
#     4  11  23  41  61  99 129 175 224 272 338 391
#     4  11  23  39  66  92 136 172 223 281 327 401
#
# _framework density 21.382950000000001
#
# number of rings (size 3 to 8) (size 9 to 14) (size 15 to 20)
#    0.000    1.000    4.286    2.143    0.000    1.714 
#    2.571    4.286    0.000    0.000    0.000    0.000 
#    0.000    0.000    0.000    0.000    0.000    0.000 
#
# Total GULP energy -347115.907530 kJ/mol
# GULP energy per Si atom -12396.996698 kJ/mol
# Density = 2.133428 g / cm^3
# Si number density = 21.382950 Si / 1000 Ang^3
#
#
#
# Elastic Constant Matrix: (Units=GPa)
#
#
# Indices 1 2 3 4 5 6 
#
# 1 136.5131 25.5093 51.4028 0.0000 -5.6231 0.0000
# 2 25.5093 125.3643 47.0442 0.0000 -1.6573 0.0000
# 3 51.4028 47.0442 76.8716 0.0000 -6.9083 0.0000
# 4 0.0000 0.0000 0.0000 25.8428 0.0000 -4.7979
# 5 -5.6231 -1.6573 -6.9083 0.0000 30.9154 0.0000
# 6 0.0000 0.0000 0.0000 -4.7979 0.0000 31.1230
#
#
#
# Elastic Compliance Matrix: (Units=1/GPa)
#
#
# Indices 1 2 3 4 5 6 
#
# 1 0.009828 0.000598 -0.006913 0.000000 0.000275 0.000000
# 2 0.000598 0.010415 -0.006851 0.000000 -0.000864 0.000000
# 3 -0.006913 -0.006851 0.022122 0.000000 0.003319 0.000000
# 4 0.000000 0.000000 0.000000 0.039836 0.000000 0.006141
# 5 0.000275 -0.000864 0.003319 0.000000 0.033092 0.000000
# 6 0.000000 0.000000 0.000000 0.006141 0.000000 0.033077
#
#
# Mechanical properties :
#
#
# Convention : Reuss Voigt Hill
#
# Bulk Modulus (GPa) = 62.37276 65.18462 63.77869
# Shear Modulus (GPa) = 27.77072 31.89577 29.83324
#
# Velocity S-wave (km/s) = 3.60770 3.86637 3.73927
# Velocity P-wave (km/s) = 6.82545 7.10509 6.96667
#
# Compressibility (1/GPa) = 0.01603264
#
# Stress axis : x y z
#
# Youngs Moduli (GPa) = 101.75079 96.01925 45.20314
#
# Poissons Ratio (x) = -0.05742 0.31249
# Poissons Ratio (y) = -0.06085 0.30969
# Poissons Ratio (z) = 0.70341 0.65784
#
# Static dielectric constant tensor:
#      x y z
#    x 4.373580 0.000000 -0.173270 
#    y 0.000000 4.256160 0.000000 
#    z -0.173270 0.000000 3.598730 
# 
# 
# High freq. dielectric constant tensor:
#      x y z
#    x 1.853500 0.000000 -0.015280 
#    y 0.000000 1.852160 0.000000 
#    z -0.015280 0.000000 1.813340 
# 
# From -- ./inp_files/104722.got.cif
#   From: 2010.06.25/outbox.cif.g09.slc.cpg/sg12_53_cif.got.tgz:104722.got - 2010.06.28 00:19:55.
