data_PCOD8109366
_publ_section_title
;
Structure prediction by ZEFSAII (Michael W. Deem and Ramdas Pophale) SiO2 
 PCOD8109366
Probable space group: C 2/M
;
_chemical_formula_sum "Si O2"
_cell_formula_units_Z 48
_cell_length_a 12.476105
_cell_length_b 19.700240
_cell_length_c 11.121004
_cell_angle_alpha 90.000000
_cell_angle_beta 121.735226
_cell_angle_gamma 90.000000
_cell_volume 2324.677253
_symmetry_space_group_name_H-M "C 2/M"
_symmetry_group_IT_number 12
_symmetry_cell_setting 'monoclinic'
loop_
_space_group_symop_operation_xyz
x,y,z
-x,y,-z
-x,-y,-z
x,-y,z
1/2+x,1/2+y,z
1/2-x,1/2+y,-z
1/2-x,1/2-y,-z
1/2+x,1/2-y,z
loop_
_atom_site_type_symbol
_atom_site_label
_atom_site_fract_x
_atom_site_fract_y
_atom_site_fract_z
Si Si1 0.070047 0.812482 0.423260
Si Si2 0.984124 0.424096 0.694566
Si Si3 0.134179 0.422974 0.128461
Si Si4 0.845706 0.170739 0.138003
Si Si5 0.791910 0.324360 0.172596
Si Si6 0.674716 0.831782 0.533539
O O1 0.211304 0.839908 0.493519
O O2 0.083476 0.730744 0.442781
O O3 0.000000 0.841096 0.500000
O O4 0.989999 0.841556 0.262667
O O5 0.033799 0.500000 0.701219
O O6 0.101258 0.377689 0.802434
O O7 0.877407 0.421560 0.734498
O O8 0.916020 0.396751 0.533447
O O9 0.159830 0.500000 0.097127
O O10 0.247350 0.374744 0.154314
O O11 0.000000 0.396398 0.000000
O O12 0.829269 0.248461 0.164999
O O13 0.828513 0.158494 0.984328
O O14 0.764073 0.328400 0.298013
#
# Coordination Sequence:
#
# PCOD8109366 Si02
#       6
#     8   8   8   8   8   8
#     4  11  21  39  61  87 123 166 206 259 317 374
#     4  11  22  40  66  94 129 167 216 268 314 382
#     4  10  21  39  63  93 126 169 213 260 321 372
#     4  11  22  38  61  90 131 166 212 266 312 382
#     4  11  23  37  57  95 125 164 216 260 323 377
#     4  11  23  39  60  88 128 166 212 257 322 381
#
# _framework density 20.648026999999999
#
# number of rings (size 3 to 8) (size 9 to 14) (size 15 to 20)
#    0.000    1.167    5.000    1.500    2.333    2.000 
#    0.000    0.833    0.000    3.000    0.000    3.500 
#    0.000    0.000    0.000    0.000    0.000    0.000 
#
# Total GULP energy -297406.731755 kJ/mol
# GULP energy per Si atom -12391.947156 kJ/mol
# Density = 2.060103 g / cm^3
# Si number density = 20.648027 Si / 1000 Ang^3
#
#
#
# Elastic Constant Matrix: (Units=GPa)
#
#
# Indices 1 2 3 4 5 6 
#
# 1 78.6504 36.1243 34.8356 0.0000 5.6406 0.0000
# 2 36.1243 113.8861 36.3190 0.0000 9.6027 0.0000
# 3 34.8356 36.3190 153.1966 0.0000 4.5673 0.0000
# 4 0.0000 0.0000 0.0000 14.9816 0.0000 9.6809
# 5 5.6406 9.6027 4.5673 0.0000 27.9349 0.0000
# 6 0.0000 0.0000 0.0000 9.6809 0.0000 25.8522
#
#
#
# Elastic Compliance Matrix: (Units=1/GPa)
#
#
# Indices 1 2 3 4 5 6 
#
# 1 0.015835 -0.004081 -0.002593 0.000000 -0.001371 0.000000
# 2 -0.004081 0.010792 -0.001552 0.000000 -0.002632 0.000000
# 3 -0.002593 -0.001552 0.007490 0.000000 -0.000168 0.000000
# 4 0.000000 0.000000 0.000000 0.088056 0.000000 -0.032975
# 5 -0.001371 -0.002632 -0.000168 0.000000 0.037007 0.000000
# 6 0.000000 0.000000 0.000000 -0.032975 0.000000 0.051030
#
#
# Mechanical properties :
#
#
# Convention : Reuss Voigt Hill
#
# Bulk Modulus (GPa) = 56.60320 62.25453 59.42887
# Shear Modulus (GPa) = 21.50082 29.65068 25.57575
#
# Velocity S-wave (km/s) = 3.23042 3.79358 3.52327
# Velocity P-wave (km/s) = 6.43328 7.02881 6.73762
#
# Compressibility (1/GPa) = 0.01766685
#
# Stress axis : x y z
#
# Youngs Moduli (GPa) = 63.15005 92.66167 133.51035
#
# Poissons Ratio (x) = 0.37811 0.34613
# Poissons Ratio (y) = 0.25769 0.20723
# Poissons Ratio (z) = 0.16372 0.14382
#
# Static dielectric constant tensor:
#      x y z
#    x 3.559750 0.000000 -0.018940 
#    y 0.000000 3.637880 0.000000 
#    z -0.018940 0.000000 4.187470 
# 
# 
# High freq. dielectric constant tensor:
#      x y z
#    x 1.791420 0.000000 -0.005410 
#    y 0.000000 1.784530 0.000000 
#    z -0.005410 0.000000 1.826230 
# 
# From -- ./inp_files/133399.got.cif
#   From: 2010.06.25/outbox.cif.g09.slc.cpg/sg12_67_cif.got.tgz:133399.got - 2010.06.28 00:19:55.
