data_PCOD8109067
_publ_section_title
;
Structure prediction by ZEFSAII (Michael W. Deem and Ramdas Pophale) SiO2 
 PCOD8109067
Probable space group: C 2/M
;
_chemical_formula_sum "Si O2"
_cell_formula_units_Z 64
_cell_length_a 28.330907
_cell_length_b 12.594213
_cell_length_c 8.643187
_cell_angle_alpha 90.000000
_cell_angle_beta 80.857224
_cell_angle_gamma 90.000000
_cell_volume 3044.756449
_symmetry_space_group_name_H-M "C 2/M"
_symmetry_group_IT_number 12
_symmetry_cell_setting 'monoclinic'
loop_
_space_group_symop_operation_xyz
x,y,z
-x,y,-z
-x,-y,-z
x,-y,z
1/2+x,1/2+y,z
1/2-x,1/2+y,-z
1/2-x,1/2-y,-z
1/2+x,1/2-y,z
loop_
_atom_site_type_symbol
_atom_site_label
_atom_site_fract_x
_atom_site_fract_y
_atom_site_fract_z
Si Si1 0.135207 0.121400 0.805194
Si Si2 0.220853 0.379773 0.885091
Si Si3 0.870597 0.703491 0.633556
Si Si4 0.876877 0.618292 0.944183
Si Si5 0.673121 0.377095 0.131586
Si Si6 0.548164 0.241594 0.893336
Si Si7 0.455053 0.121758 0.413107
Si Si8 0.800264 0.284697 0.412865
O O1 0.080384 0.161001 0.815008
O O2 0.170401 0.186411 0.674998
O O3 0.137627 0.000000 0.749277
O O4 0.150620 0.133445 0.974773
O O5 0.223265 0.500000 0.941871
O O6 0.272519 0.328297 0.897053
O O7 0.208577 0.375035 0.709675
O O8 0.175043 0.325218 0.994834
O O9 0.881926 0.614880 0.756794
O O10 0.859635 0.815137 0.725898
O O11 0.916675 0.705617 0.499460
O O12 0.827289 0.666821 0.546423
O O13 0.877178 0.500000 0.012674
O O14 0.920132 0.679649 0.998364
O O15 0.674547 0.500000 0.184850
O O16 0.532330 0.162014 0.765187
O O17 0.500000 0.284636 0.000000
O O18 0.500000 0.127640 0.500000
O O19 0.436083 0.000000 0.412883
O O20 0.750000 0.250000 0.500000
#
# Coordination Sequence:
#
# PCOD8109067 Si02
#       8
#     8   8   8   8   8   8   8   8
#     4  11  25  47  68  93 128 173 222 270 321 378
#     4  10  21  39  61  90 129 171 214 260 316 383
#     4  12  22  39  63  92 131 167 210 264 322 381
#     4  11  23  39  64  97 129 168 214 262 318 387
#     4  10  22  40  66  93 126 173 222 267 315 378
#     4  12  24  44  72  96 126 169 221 272 320 382
#     4  11  25  44  66  97 133 166 205 261 331 395
#     4  12  24  38  62  94 131 177 210 264 317 384
#
# _framework density 21.019742999999998
#
# number of rings (size 3 to 8) (size 9 to 14) (size 15 to 20)
#    0.000    0.875    5.000    1.500    1.750    6.250 
#    0.000    0.000    0.000    0.750    0.000    0.000 
#    0.000    0.000    0.000    0.000    0.000    0.000 
#
# Total GULP energy -396689.565937 kJ/mol
# GULP energy per Si atom -12396.548936 kJ/mol
# Density = 2.097190 g / cm^3
# Si number density = 21.019743 Si / 1000 Ang^3
#
#
#
# Elastic Constant Matrix: (Units=GPa)
#
#
# Indices 1 2 3 4 5 6 
#
# 1 134.4555 37.5194 41.8303 0.0000 -11.6849 0.0000
# 2 37.5194 64.6689 4.3413 0.0000 -9.8875 0.0000
# 3 41.8303 4.3413 95.0263 0.0000 0.0128 0.0000
# 4 0.0000 0.0000 0.0000 19.0998 0.0000 0.3754
# 5 -11.6849 -9.8875 0.0128 0.0000 52.6372 0.0000
# 6 0.0000 0.0000 0.0000 0.3754 0.0000 26.3809
#
#
#
# Elastic Compliance Matrix: (Units=1/GPa)
#
#
# Indices 1 2 3 4 5 6 
#
# 1 0.010459 -0.005581 -0.004349 0.000000 0.001274 0.000000
# 2 -0.005581 0.018949 0.001591 0.000000 0.002320 0.000000
# 3 -0.004349 0.001591 0.012365 0.000000 -0.000670 0.000000
# 4 0.000000 0.000000 0.000000 0.052371 0.000000 -0.000745
# 5 0.001274 0.002320 -0.000670 0.000000 0.019717 0.000000
# 6 0.000000 0.000000 0.000000 -0.000745 0.000000 0.037917
#
#
# Mechanical properties :
#
#
# Convention : Reuss Voigt Hill
#
# Bulk Modulus (GPa) = 39.84937 51.28139 45.56538
# Shear Modulus (GPa) = 28.27712 33.65422 30.96567
#
# Velocity S-wave (km/s) = 3.67176 4.00569 3.84235
# Velocity P-wave (km/s) = 6.08071 6.77080 6.43501
#
# Compressibility (1/GPa) = 0.02509450
#
# Stress axis : x y z
#
# Youngs Moduli (GPa) = 95.61570 52.77236 80.87184
#
# Poissons Ratio (x) = 0.29452 0.35171
# Poissons Ratio (y) = 0.53363 -0.12864
# Poissons Ratio (z) = 0.41583 -0.08395
#
# Static dielectric constant tensor:
#      x y z
#    x 3.917360 0.000000 -0.048810 
#    y 0.000000 3.808250 0.000000 
#    z -0.048810 0.000000 3.917980 
# 
# 
# High freq. dielectric constant tensor:
#      x y z
#    x 1.832600 0.000000 0.004580 
#    y 0.000000 1.811530 0.000000 
#    z 0.004580 0.000000 1.831730 
# 
# From -- ./inp_files/104598.got.cif
#   From: 2010.06.25/outbox.cif.g09.slc.cpg/sg12_53_cif.got.tgz:104598.got - 2010.06.28 00:19:55.
