data_PCOD8109833
_publ_section_title
;
Structure prediction by ZEFSAII (Michael W. Deem and Ramdas Pophale) SiO2 
 PCOD8109833
Probable space group: C 2/M
;
_chemical_formula_sum "Si O2"
_cell_formula_units_Z 56
_cell_length_a 13.997159
_cell_length_b 23.259442
_cell_length_c 9.306577
_cell_angle_alpha 90.000000
_cell_angle_beta 114.938204
_cell_angle_gamma 90.000000
_cell_volume 2747.406920
_symmetry_space_group_name_H-M "C 2/M"
_symmetry_group_IT_number 12
_symmetry_cell_setting 'monoclinic'
loop_
_space_group_symop_operation_xyz
x,y,z
-x,y,-z
-x,-y,-z
x,-y,z
1/2+x,1/2+y,z
1/2-x,1/2+y,-z
1/2-x,1/2-y,-z
1/2+x,1/2-y,z
loop_
_atom_site_type_symbol
_atom_site_label
_atom_site_fract_x
_atom_site_fract_y
_atom_site_fract_z
Si Si1 0.193837 0.934674 0.969091
Si Si2 0.483223 0.830996 0.323894
Si Si3 0.325153 0.265748 0.178106
Si Si4 0.820518 0.263101 0.679056
Si Si5 0.033415 0.871833 0.688858
Si Si6 0.065023 0.434397 0.901342
Si Si7 0.395772 0.354395 0.848068
O O1 0.118760 0.920214 0.785018
O O2 0.172152 0.000000 0.001701
O O3 0.311856 0.925552 0.987745
O O4 0.175914 0.896353 0.100487
O O5 0.500000 0.842091 0.500000
O O6 0.376715 0.794876 0.249573
O O7 0.576377 0.797616 0.300035
O O8 0.471369 0.893702 0.249799
O O9 0.254666 0.296826 0.257225
O O10 0.420147 0.311344 0.219243
O O11 0.250000 0.250000 0.000000
O O12 0.750000 0.250000 0.500000
O O13 0.838858 0.205081 0.780569
O O14 0.000000 0.870816 0.500000
O O15 0.927092 0.883369 0.714264
O O16 0.040508 0.500000 0.840577
O O17 0.000000 0.416436 0.000000
O O18 0.500000 0.339648 0.000000
#
# Coordination Sequence:
#
# PCOD8109833 Si02
#       7
#     8   8   8   8   8   8   8
#     4  10  23  44  68  92 123 171 220 265 319 387
#     4  12  25  42  64  98 132 171 212 261 329 391
#     4  12  24  39  61  92 131 171 215 258 323 387
#     4  12  24  38  61  92 133 168 206 261 322 387
#     4  11  22  39  61  93 134 164 203 271 332 384
#     4  10  24  47  69  93 126 167 224 278 313 372
#     4  10  21  40  63  91 129 164 212 262 316 384
#
# _framework density 20.382856
#
# number of rings (size 3 to 8) (size 9 to 14) (size 15 to 20)
#    0.000    1.000    2.857    4.714    4.000    3.143 
#    0.000    0.000    0.000    0.000    0.000    0.000 
#    0.000    0.000    0.000    0.000    0.000    0.000 
#
# Total GULP energy -347009.438976 kJ/mol
# GULP energy per Si atom -12393.194249 kJ/mol
# Density = 2.033646 g / cm^3
# Si number density = 20.382856 Si / 1000 Ang^3
#
#
#
# Elastic Constant Matrix: (Units=GPa)
#
#
# Indices 1 2 3 4 5 6 
#
# 1 124.9596 36.8277 44.2256 0.0000 -18.8174 0.0000
# 2 36.8277 112.7590 44.1401 0.0000 -2.6115 0.0000
# 3 44.2256 44.1401 117.8732 0.0000 -14.9327 0.0000
# 4 0.0000 0.0000 0.0000 25.6728 0.0000 -0.2208
# 5 -18.8174 -2.6115 -14.9327 0.0000 32.6542 0.0000
# 6 0.0000 0.0000 0.0000 -0.2208 0.0000 27.6967
#
#
#
# Elastic Compliance Matrix: (Units=1/GPa)
#
#
# Indices 1 2 3 4 5 6 
#
# 1 0.010220 -0.002295 -0.002391 0.000000 0.004612 0.000000
# 2 -0.002295 0.010939 -0.003494 0.000000 -0.002046 0.000000
# 3 -0.002391 -0.003494 0.011124 0.000000 0.003430 0.000000
# 4 0.000000 0.000000 0.000000 0.038954 0.000000 0.000310
# 5 0.004612 -0.002046 0.003430 0.000000 0.034687 0.000000
# 6 0.000000 0.000000 0.000000 0.000310 0.000000 0.036108
#
#
# Mechanical properties :
#
#
# Convention : Reuss Voigt Hill
#
# Bulk Modulus (GPa) = 62.80648 67.33096 65.06872
# Shear Modulus (GPa) = 30.54407 32.56463 31.55435
#
# Velocity S-wave (km/s) = 3.87527 4.00140 3.93884
# Velocity P-wave (km/s) = 7.13470 7.37923 7.25799
#
# Compressibility (1/GPa) = 0.01592193
#
# Stress axis : x y z
#
# Youngs Moduli (GPa) = 97.85058 91.42001 89.89899
#
# Poissons Ratio (x) = 0.20982 0.21491
# Poissons Ratio (y) = 0.22458 0.31412
# Poissons Ratio (z) = 0.23392 0.31944
#
# Static dielectric constant tensor:
#      x y z
#    x 3.442050 0.000000 0.027000 
#    y 0.000000 3.222290 0.000000 
#    z 0.027000 0.000000 3.666080 
# 
# 
# High freq. dielectric constant tensor:
#      x y z
#    x 1.824590 0.000000 -0.005490 
#    y 0.000000 1.784110 0.000000 
#    z -0.005490 0.000000 1.796280 
# 
# From -- ./inp_files/65980.got.cif
#   From: 2010.06.25/outbox.cif.g09.slc.cpg/sg12_33_cif.got.tgz:65980.got - 2010.06.28 00:19:55.
