data_PCOD8109917
_publ_section_title
;
Structure prediction by ZEFSAII (Michael W. Deem and Ramdas Pophale) SiO2 
 PCOD8109917
Probable space group: C 2/M
;
_chemical_formula_sum "Si O2"
_cell_formula_units_Z 64
_cell_length_a 32.459129
_cell_length_b 13.916511
_cell_length_c 9.557409
_cell_angle_alpha 90.000000
_cell_angle_beta 136.489227
_cell_angle_gamma 90.000000
_cell_volume 2972.388947
_symmetry_space_group_name_H-M "C 2/M"
_symmetry_group_IT_number 12
_symmetry_cell_setting 'monoclinic'
loop_
_space_group_symop_operation_xyz
x,y,z
-x,y,-z
-x,-y,-z
x,-y,z
1/2+x,1/2+y,z
1/2-x,1/2+y,-z
1/2-x,1/2-y,-z
1/2+x,1/2-y,z
loop_
_atom_site_type_symbol
_atom_site_label
_atom_site_fract_x
_atom_site_fract_y
_atom_site_fract_z
Si Si1 0.264407 0.607422 0.357699
Si Si2 0.053951 0.217709 0.396931
Si Si3 0.582310 0.278598 0.948281
Si Si4 0.634531 0.106188 0.532997
Si Si5 0.396108 0.387002 0.727982
Si Si6 0.252977 0.137886 0.001691
Si Si7 0.846128 0.613264 0.740855
Si Si8 0.125333 0.106835 0.801831
O O1 0.275382 0.500000 0.437528
O O2 0.329769 0.656697 0.528596
O O3 0.238090 0.607317 0.136694
O O4 0.216479 0.651868 0.348111
O O5 0.087166 0.320225 0.481168
O O6 0.056790 0.170168 0.251042
O O7 0.083872 0.142466 0.574596
O O8 0.985499 0.234158 0.270993
O O9 0.622515 0.314687 0.918109
O O10 0.587713 0.363720 0.073653
O O11 0.602331 0.175344 0.057179
O O12 0.653993 0.135581 0.424165
O O13 0.604928 0.000000 0.457199
O O14 0.692589 0.099882 0.772900
O O15 0.401526 0.500000 0.712259
O O16 0.192644 0.094177 0.914526
O O17 0.250000 0.250000 0.000000
O O18 0.856738 0.500000 0.799378
O O19 0.103492 0.000000 0.794664
#
# Coordination Sequence:
#
# PCOD8109917 Si02
#       8
#     8   8   8   8   8   8   8   8
#     4  10  21  40  64  94 128 164 209 264 330 395
#     4  12  25  46  65  93 131 177 226 271 325 390
#     4  12  27  43  65  95 132 174 229 273 322 394
#     4  11  24  43  69 101 133 171 221 274 332 398
#     4  11  23  41  66  95 128 169 217 273 334 396
#     4  12  22  41  69  99 133 172 213 269 335 399
#     4  10  24  44  68  98 134 172 215 277 337 393
#     4  12  26  45  69  99 135 175 220 274 334 396
#
# _framework density 21.531503000000001
#
# number of rings (size 3 to 8) (size 9 to 14) (size 15 to 20)
#    0.000    0.750    3.750    3.375    1.750    4.000 
#    0.000    1.250    0.000    1.500    0.000    0.000 
#    0.000    0.000    0.000    0.000    0.000    0.000 
#
# Total GULP energy -396867.691288 kJ/mol
# GULP energy per Si atom -12402.115353 kJ/mol
# Density = 2.148250 g / cm^3
# Si number density = 21.531503 Si / 1000 Ang^3
#
#
#
# Elastic Constant Matrix: (Units=GPa)
#
#
# Indices 1 2 3 4 5 6 
#
# 1 44.6944 12.5455 32.0179 0.0000 -0.8491 0.0000
# 2 12.5455 107.8845 22.9309 0.0000 7.4619 0.0000
# 3 32.0179 22.9309 99.1572 0.0000 1.3228 0.0000
# 4 0.0000 0.0000 0.0000 9.6782 0.0000 -20.2330
# 5 -0.8491 7.4619 1.3228 0.0000 35.6854 0.0000
# 6 0.0000 0.0000 0.0000 -20.2330 0.0000 16.9684
#
#
#
# Elastic Compliance Matrix: (Units=1/GPa)
#
#
# Indices 1 2 3 4 5 6 
#
# 1 0.029393 -0.001568 -0.009146 0.000000 0.001366 0.000000
# 2 -0.001568 0.009970 -0.001772 0.000000 -0.002056 0.000000
# 3 -0.009146 -0.001772 0.013453 0.000000 -0.000346 0.000000
# 4 0.000000 0.000000 0.000000 -0.069216 0.000000 -0.082533
# 5 0.001366 -0.002056 -0.000346 0.000000 0.028498 0.000000
# 6 0.000000 0.000000 0.000000 -0.082533 0.000000 -0.039479
#
#
# Mechanical properties :
#
#
# Convention : Reuss Voigt Hill
#
# Bulk Modulus (GPa) = 35.91643 42.96942 39.44293
# Shear Modulus (GPa) = 727.45133 24.74919 376.10026
#
# Velocity S-wave (km/s) = 18.40076 3.39402 13.23078
# Velocity P-wave (km/s) = 21.63718 5.94634 15.86705
#
# Compressibility (1/GPa) = 0.02784241
#
# Stress axis : x y z
#
# Youngs Moduli (GPa) = 34.02217 100.29687 74.33434
#
# Poissons Ratio (x) = 0.15731 0.67989
# Poissons Ratio (y) = 0.05336 0.13171
# Poissons Ratio (z) = 0.31118 0.17771
#
# Static dielectric constant tensor:
#      x y z
#    x 4.054600 0.000000 0.082470 
#    y 0.000000 3.969830 0.000000 
#    z 0.082470 0.000000 3.868510 
# 
# 
# High freq. dielectric constant tensor:
#      x y z
#    x 1.843210 0.000000 -0.007630 
#    y 0.000000 1.858530 0.000000 
#    z -0.007630 0.000000 1.844240 
# 
# From -- ./inp_files/112039.got.cif
#   From: 2010.06.25/outbox.cif.g09.slc.cpg/sg12_57_cif.got.tgz:112039.got - 2010.06.28 00:19:55.
