data_PCOD8109597
_publ_section_title
;
Structure prediction by ZEFSAII (Michael W. Deem and Ramdas Pophale) SiO2 
 PCOD8109597
Probable space group: C 2/M
;
_chemical_formula_sum "Si O2"
_cell_formula_units_Z 64
_cell_length_a 17.894713
_cell_length_b 14.547519
_cell_length_c 16.732395
_cell_angle_alpha 90.000000
_cell_angle_beta 138.384297
_cell_angle_gamma 90.000000
_cell_volume 2892.848036
_symmetry_space_group_name_H-M "C 2/M"
_symmetry_group_IT_number 12
_symmetry_cell_setting 'monoclinic'
loop_
_space_group_symop_operation_xyz
x,y,z
-x,y,-z
-x,-y,-z
x,-y,z
1/2+x,1/2+y,z
1/2-x,1/2+y,-z
1/2-x,1/2-y,-z
1/2+x,1/2-y,z
loop_
_atom_site_type_symbol
_atom_site_label
_atom_site_fract_x
_atom_site_fract_y
_atom_site_fract_z
Si Si1 0.561416 0.102360 0.278975
Si Si2 0.362829 0.893359 0.233258
Si Si3 0.379495 0.396064 0.028508
Si Si4 0.213268 0.285505 0.681283
Si Si5 0.254724 0.346452 0.542087
Si Si6 0.510234 0.602686 0.719718
Si Si7 0.607135 0.398207 0.637306
Si Si8 0.456089 0.236763 0.886037
O O1 0.466393 0.142262 0.262244
O O2 0.678414 0.091658 0.422198
O O3 0.563143 0.171239 0.205393
O O4 0.530337 0.000000 0.223357
O O5 0.364713 0.838279 0.317912
O O6 0.378454 0.000000 0.266893
O O7 0.250405 0.875517 0.092743
O O8 0.412370 0.500000 0.025851
O O9 0.397862 0.388208 0.137884
O O10 0.454547 0.318215 0.049458
O O11 0.201617 0.340136 0.588210
O O12 0.184026 0.176388 0.652737
O O13 0.341161 0.290017 0.812729
O O14 0.250000 0.250000 0.500000
O O15 0.386740 0.369602 0.651926
O O16 0.495474 0.500000 0.676540
O O17 0.566104 0.651482 0.687294
O O18 0.500000 0.417672 0.500000
O O19 0.667917 0.500000 0.696247
O O20 0.500000 0.180539 0.000000
#
# Coordination Sequence:
#
# PCOD8109597 Si02
#       8
#     8   8   8   8   8   8   8   8
#     4  11  27  48  68  95 143 189 223 273 340 418
#     4  10  25  45  68  98 134 181 223 273 345 406
#     4  10  21  41  69  98 132 170 226 288 336 390
#     4  12  25  39  69 101 138 171 219 287 336 400
#     4  12  23  41  65  99 133 175 224 271 338 405
#     4  10  21  39  66  94 124 169 227 279 329 393
#     4  10  24  42  63  95 131 173 222 273 333 392
#     4  12  25  44  66 105 133 179 231 278 345 397
#
# _framework density 22.123526999999999
#
# number of rings (size 3 to 8) (size 9 to 14) (size 15 to 20)
#    0.000    1.125    3.750    1.125    5.250    4.000 
#    0.000    2.500    0.000    0.000    0.000    0.000 
#    0.000    0.000    0.000    0.000    0.000    0.000 
#
# Total GULP energy -396528.639889 kJ/mol
# GULP energy per Si atom -12391.519997 kJ/mol
# Density = 2.207317 g / cm^3
# Si number density = 22.123527 Si / 1000 Ang^3
#
#
#
# Elastic Constant Matrix: (Units=GPa)
#
#
# Indices 1 2 3 4 5 6 
#
# 1 65.3118 7.2923 10.5470 0.0000 -20.5459 0.0000
# 2 7.2923 55.3478 8.2204 0.0000 -11.0107 0.0000
# 3 10.5470 8.2204 91.2623 0.0000 -19.2573 0.0000
# 4 0.0000 0.0000 0.0000 37.0994 0.0000 26.8749
# 5 -20.5459 -11.0107 -19.2573 0.0000 38.9753 0.0000
# 6 0.0000 0.0000 0.0000 26.8749 0.0000 40.4070
#
#
#
# Elastic Compliance Matrix: (Units=1/GPa)
#
#
# Indices 1 2 3 4 5 6 
#
# 1 0.018370 -0.000519 -0.000071 0.000000 0.009502 0.000000
# 2 -0.000519 0.019193 -0.000650 0.000000 0.004827 0.000000
# 3 -0.000071 -0.000650 0.012255 0.000000 0.005834 0.000000
# 4 0.000000 0.000000 0.000000 0.052016 0.000000 -0.034596
# 5 0.009502 0.004827 0.005834 0.000000 0.034912 0.000000
# 6 0.000000 0.000000 0.000000 -0.034596 0.000000 0.047758
#
#
# Mechanical properties :
#
#
# Convention : Reuss Voigt Hill
#
# Bulk Modulus (GPa) = 21.12555 29.33792 25.23173
# Shear Modulus (GPa) = 24.65910 35.68716 30.17313
#
# Velocity S-wave (km/s) = 3.34220 4.02068 3.69704
# Velocity P-wave (km/s) = 4.94604 5.90290 5.44553
#
# Compressibility (1/GPa) = 0.04733605
#
# Stress axis : x y z
#
# Youngs Moduli (GPa) = 54.43732 52.10277 81.59774
#
# Poissons Ratio (x) = 0.02707 0.00581
# Poissons Ratio (y) = 0.02828 0.05306
# Poissons Ratio (z) = 0.00388 0.03388
#
# Static dielectric constant tensor:
#      x y z
#    x 3.989100 0.000000 -0.013100 
#    y 0.000000 3.923220 0.000000 
#    z -0.013100 0.000000 3.773160 
# 
# 
# High freq. dielectric constant tensor:
#      x y z
#    x 1.873400 0.000000 -0.008020 
#    y 0.000000 1.871300 0.000000 
#    z -0.008020 0.000000 1.875450 
# 
# From -- ./inp_files/278166.got.cif
#   From: 2010.06.25/outbox.cif.g09.slc.cpg/sg12_140_cif.got.tgz:278166.got - 2010.06.28 00:19:55.
