data_PCOD8109862
_publ_section_title
;
Structure prediction by ZEFSAII (Michael W. Deem and Ramdas Pophale) SiO2 
 PCOD8109862
Probable space group: C 2/M
;
_chemical_formula_sum "Si O2"
_cell_formula_units_Z 64
_cell_length_a 27.926296
_cell_length_b 15.357025
_cell_length_c 9.374375
_cell_angle_alpha 90.000000
_cell_angle_beta 127.344096
_cell_angle_gamma 90.000000
_cell_volume 3196.197660
_symmetry_space_group_name_H-M "C 2/M"
_symmetry_group_IT_number 12
_symmetry_cell_setting 'monoclinic'
loop_
_space_group_symop_operation_xyz
x,y,z
-x,y,-z
-x,-y,-z
x,-y,z
1/2+x,1/2+y,z
1/2-x,1/2+y,-z
1/2-x,1/2-y,-z
1/2+x,1/2-y,z
loop_
_atom_site_type_symbol
_atom_site_label
_atom_site_fract_x
_atom_site_fract_y
_atom_site_fract_z
Si Si1 0.235303 0.101590 0.526673
Si Si2 0.100294 0.294169 0.931854
Si Si3 0.686461 0.403509 0.756659
Si Si4 0.690999 0.896915 0.903140
Si Si5 0.887999 0.330736 0.488577
Si Si6 0.504362 0.097640 0.166932
Si Si7 0.932623 0.809789 0.376354
Si Si8 0.663049 0.763443 0.324674
O O1 0.210711 0.100416 0.641043
O O2 0.300421 0.146919 0.639259
O O3 0.195842 0.169913 0.360908
O O4 0.236621 0.000000 0.470906
O O5 0.155047 0.347522 0.962006
O O6 0.087527 0.205484 0.822531
O O7 0.040064 0.350655 0.810431
O O8 0.110648 0.265929 0.113377
O O9 0.675404 0.500000 0.789760
O O10 0.620561 0.362613 0.644998
O O11 0.739109 0.364484 0.955611
O O12 0.665913 0.874650 0.700003
O O13 0.686370 0.000000 0.923724
O O14 0.927931 0.400471 0.647304
O O15 0.933683 0.281058 0.464982
O O16 0.859886 0.265038 0.553934
O O17 0.480621 0.000000 0.119639
O O18 0.500000 0.137378 0.000000
O O19 0.000000 0.852429 0.500000
#
# Coordination Sequence:
#
# PCOD8109862 Si02
#       8
#     8   8   8   8   8   8   8   8
#     4  10  22  39  62  93 128 163 203 256 316 377
#     4  11  22  37  59  86 122 164 203 247 309 376
#     4  10  21  40  64  89 119 158 203 258 316 368
#     4  10  22  38  58  88 126 161 199 254 313 371
#     4  11  22  38  59  89 124 162 208 249 306 368
#     4  11  22  35  56  88 123 163 207 252 301 369
#     4  11  23  40  62  87 118 159 207 254 299 366
#     4  11  22  39  63  93 123 166 206 253 314 375
#
# _framework density 20.023792
#
# number of rings (size 3 to 8) (size 9 to 14) (size 15 to 20)
#    0.000    1.375    5.000    0.750    0.000    5.750 
#    0.000    3.750    0.000    0.000    0.000    2.625 
#    0.000    0.000    0.000    0.000    0.000    0.000 
#
# Total GULP energy -396487.273483 kJ/mol
# GULP energy per Si atom -12390.227296 kJ/mol
# Density = 1.997822 g / cm^3
# Si number density = 20.023792 Si / 1000 Ang^3
#
#
#
# Elastic Constant Matrix: (Units=GPa)
#
#
# Indices 1 2 3 4 5 6 
#
# 1 85.3660 19.8942 35.6817 0.0000 14.9566 0.0000
# 2 19.8942 84.9938 28.5847 0.0000 7.3794 0.0000
# 3 35.6817 28.5847 115.9209 0.0000 11.6996 0.0000
# 4 0.0000 0.0000 0.0000 20.1166 0.0000 0.0602
# 5 14.9566 7.3794 11.6996 0.0000 34.5948 0.0000
# 6 0.0000 0.0000 0.0000 0.0602 0.0000 17.4775
#
#
#
# Elastic Compliance Matrix: (Units=1/GPa)
#
#
# Indices 1 2 3 4 5 6 
#
# 1 0.014422 -0.001784 -0.003529 0.000000 -0.004661 0.000000
# 2 -0.001784 0.013151 -0.002576 0.000000 -0.001163 0.000000
# 3 -0.003529 -0.002576 0.010497 0.000000 -0.001475 0.000000
# 4 0.000000 0.000000 0.000000 0.049711 0.000000 -0.000171
# 5 -0.004661 -0.001163 -0.001475 0.000000 0.031668 0.000000
# 6 0.000000 0.000000 0.000000 -0.000171 0.000000 0.057217
#
#
# Mechanical properties :
#
#
# Convention : Reuss Voigt Hill
#
# Bulk Modulus (GPa) = 44.86169 50.51132 47.68650
# Shear Modulus (GPa) = 25.01585 27.91247 26.46416
#
# Velocity S-wave (km/s) = 3.53839 3.73763 3.63937
# Velocity P-wave (km/s) = 6.25671 6.62623 6.44412
#
# Compressibility (1/GPa) = 0.02229074
#
# Stress axis : x y z
#
# Youngs Moduli (GPa) = 69.34013 76.04253 95.26641
#
# Poissons Ratio (x) = 0.13567 0.33617
# Poissons Ratio (y) = 0.12371 0.24543
# Poissons Ratio (z) = 0.24468 0.19590
#
# Static dielectric constant tensor:
#      x y z
#    x 3.586050 0.000000 0.046520 
#    y 0.000000 3.562130 0.000000 
#    z 0.046520 0.000000 3.713450 
# 
# 
# High freq. dielectric constant tensor:
#      x y z
#    x 1.780690 0.000000 0.002030 
#    y 0.000000 1.760290 0.000000 
#    z 0.002030 0.000000 1.788090 
# 
# From -- ./inp_files/112003.got.cif
#   From: 2010.06.25/outbox.cif.g09.slc.cpg/sg12_57_cif.got.tgz:112003.got - 2010.06.28 00:19:55.
