data_PCOD8109191
_publ_section_title
;
Structure prediction by ZEFSAII (Michael W. Deem and Ramdas Pophale) SiO2 
 PCOD8109191
Probable space group: C 2/M
;
_chemical_formula_sum "Si O2"
_cell_formula_units_Z 48
_cell_length_a 19.010740
_cell_length_b 12.541890
_cell_length_c 11.426683
_cell_angle_alpha 90.000000
_cell_angle_beta 53.555613
_cell_angle_gamma 90.000000
_cell_volume 2191.656651
_symmetry_space_group_name_H-M "C 2/M"
_symmetry_group_IT_number 12
_symmetry_cell_setting 'monoclinic'
loop_
_space_group_symop_operation_xyz
x,y,z
-x,y,-z
-x,-y,-z
x,-y,z
1/2+x,1/2+y,z
1/2-x,1/2+y,-z
1/2-x,1/2-y,-z
1/2+x,1/2-y,z
loop_
_atom_site_type_symbol
_atom_site_label
_atom_site_fract_x
_atom_site_fract_y
_atom_site_fract_z
Si Si1 0.554293 0.715998 0.214321
Si Si2 0.330105 0.745720 0.688160
Si Si3 0.722511 0.882411 0.626201
Si Si4 0.171824 0.122797 0.903414
Si Si5 0.451741 0.883923 0.426051
Si Si6 0.627005 0.325453 0.688544
O O1 0.602253 0.688685 0.289903
O O2 0.520613 0.838403 0.262145
O O3 0.466714 0.645666 0.277110
O O4 0.620242 0.699825 0.043065
O O5 0.264955 0.655260 0.706170
O O6 0.272692 0.838531 0.806302
O O7 0.375513 0.797065 0.527615
O O8 0.643071 0.803718 0.669039
O O9 0.795666 0.886542 0.453004
O O10 0.683673 0.000000 0.682497
O O11 0.126995 0.133914 0.821542
O O12 0.168221 0.000000 0.948858
O O13 0.500000 0.900950 0.500000
O O14 0.414973 0.000000 0.420717
#
# Coordination Sequence:
#
# PCOD8109191 Si02
#       6
#     8   8   8   8   8   8
#     4  11  22  39  61  95 125 154 203 263 307 357
#     4  10  21  41  64  93 124 157 204 262 305 371
#     4  10  21  39  62  90 123 162 201 253 318 366
#     4  11  24  41  63  88 125 170 206 248 307 374
#     4   9  18  35  61  90 120 156 200 251 305 356
#     4  10  22  40  60  89 123 162 209 255 296 368
#
# _framework density 21.901242
#
# number of rings (size 3 to 8) (size 9 to 14) (size 15 to 20)
#    0.000    1.833    1.667    2.000    0.000    4.000 
#    0.000    4.167    0.000    5.000    0.000    0.000 
#    0.000    0.000    0.000    0.000    0.000    0.000 
#
# Total GULP energy -297466.194441 kJ/mol
# GULP energy per Si atom -12394.424768 kJ/mol
# Density = 2.185139 g / cm^3
# Si number density = 21.901242 Si / 1000 Ang^3
#
#
#
# Elastic Constant Matrix: (Units=GPa)
#
#
# Indices 1 2 3 4 5 6 
#
# 1 146.8407 11.7466 24.6153 0.0000 2.4020 0.0000
# 2 11.7466 106.2598 37.2882 0.0000 -2.1402 0.0000
# 3 24.6153 37.2882 116.9789 0.0000 0.5477 0.0000
# 4 0.0000 0.0000 0.0000 12.9577 0.0000 -6.0378
# 5 2.4020 -2.1402 0.5477 0.0000 30.8945 0.0000
# 6 0.0000 0.0000 0.0000 -6.0378 0.0000 10.0885
#
#
#
# Elastic Compliance Matrix: (Units=1/GPa)
#
#
# Indices 1 2 3 4 5 6 
#
# 1 0.007076 -0.000306 -0.001389 0.000000 -0.000547 0.000000
# 2 -0.000306 0.010629 -0.003328 0.000000 0.000819 0.000000
# 3 -0.001389 -0.003328 0.009903 0.000000 -0.000298 0.000000
# 4 0.000000 0.000000 0.000000 0.107018 0.000000 0.064048
# 5 -0.000547 0.000819 -0.000298 0.000000 0.032473 0.000000
# 6 0.000000 0.000000 0.000000 0.064048 0.000000 0.137453
#
#
# Mechanical properties :
#
#
# Convention : Reuss Voigt Hill
#
# Bulk Modulus (GPa) = 56.93663 57.48661 57.21162
# Shear Modulus (GPa) = 15.60299 30.55009 23.07654
#
# Velocity S-wave (km/s) = 2.67202 3.73889 3.24954
# Velocity P-wave (km/s) = 5.96431 6.70404 6.34497
#
# Compressibility (1/GPa) = 0.01756338
#
# Stress axis : x y z
#
# Youngs Moduli (GPa) = 141.31572 94.08319 100.98041
#
# Poissons Ratio (x) = 0.02878 0.14026
# Poissons Ratio (y) = 0.04322 0.33602
# Poissons Ratio (z) = 0.19629 0.31307
#
# Static dielectric constant tensor:
#      x y z
#    x 4.131640 0.000000 0.002890 
#    y 0.000000 3.830390 0.000000 
#    z 0.002890 0.000000 3.762550 
# 
# 
# High freq. dielectric constant tensor:
#      x y z
#    x 1.884790 0.000000 0.003570 
#    y 0.000000 1.839410 0.000000 
#    z 0.003570 0.000000 1.842660 
# 
# From -- ./inp_files/165450.got.cif
#   From: 2010.06.25/outbox.cif.g09.slc.cpg/sg12_83_cif.got.tgz:165450.got - 2010.06.28 00:19:55.
