data_PCOD8109604
_publ_section_title
;
Structure prediction by ZEFSAII (Michael W. Deem and Ramdas Pophale) SiO2 
 PCOD8109604
Probable space group: C 2/M
;
_chemical_formula_sum "Si O2"
_cell_formula_units_Z 64
_cell_length_a 18.655743
_cell_length_b 13.643964
_cell_length_c 15.133136
_cell_angle_alpha 90.000000
_cell_angle_beta 49.682972
_cell_angle_gamma 90.000000
_cell_volume 2937.029241
_symmetry_space_group_name_H-M "C 2/M"
_symmetry_group_IT_number 12
_symmetry_cell_setting 'monoclinic'
loop_
_space_group_symop_operation_xyz
x,y,z
-x,y,-z
-x,-y,-z
x,-y,z
1/2+x,1/2+y,z
1/2-x,1/2+y,-z
1/2-x,1/2-y,-z
1/2+x,1/2-y,z
loop_
_atom_site_type_symbol
_atom_site_label
_atom_site_fract_x
_atom_site_fract_y
_atom_site_fract_z
Si Si1 0.969610 0.610688 0.425003
Si Si2 0.824818 0.892129 0.024210
Si Si3 0.883408 0.387319 0.848648
Si Si4 0.221311 0.111724 0.238382
Si Si5 0.062754 0.108785 0.242796
Si Si6 0.736087 0.886625 0.598245
Si Si7 0.116914 0.236309 0.613105
Si Si8 0.091300 0.295102 0.985426
O O1 0.929641 0.500000 0.448232
O O2 0.052320 0.627943 0.288253
O O3 0.000000 0.630861 0.500000
O O4 0.890635 0.691676 0.466319
O O5 0.719771 0.848977 0.096554
O O6 0.887304 0.821149 0.035455
O O7 0.822375 0.000000 0.071250
O O8 0.868690 0.899945 0.893469
O O9 0.877933 0.500000 0.882170
O O10 0.922998 0.327455 0.901143
O O11 0.126136 0.156360 0.271027
O O12 0.211182 0.122715 0.351156
O O13 0.319124 0.153717 0.127895
O O14 0.222367 0.000000 0.206470
O O15 0.979315 0.182670 0.285760
O O16 0.023024 0.000000 0.299253
O O17 0.806281 0.847950 0.466024
O O18 0.646626 0.811953 0.668352
O O19 0.705934 0.000000 0.604354
O O20 0.000000 0.320464 0.000000
#
# Coordination Sequence:
#
# PCOD8109604 Si02
#       8
#     8   8   8   8   8   8   8   8
#     4  10  23  39  61  95 129 163 212 269 316 370
#     4  10  22  41  62  89 126 169 213 261 312 370
#     4  10  21  40  65  93 126 166 210 263 321 376
#     4  10  23  41  62  93 131 161 205 269 323 376
#     4  10  21  39  66  95 124 162 215 271 318 371
#     4  10  24  44  63  92 132 169 208 262 324 388
#     4  11  23  39  67  93 122 172 215 260 321 384
#     4  12  25  37  62  95 129 170 214 256 317 388
#
# _framework density 21.790725999999999
#
# number of rings (size 3 to 8) (size 9 to 14) (size 15 to 20)
#    0.000    1.625    1.250    2.250    7.000    1.250 
#    0.000    1.875    0.000    0.750    0.000    0.000 
#    0.000    0.000    0.000    0.000    0.000    0.000 
#
# Total GULP energy -396659.275477 kJ/mol
# GULP energy per Si atom -12395.602359 kJ/mol
# Density = 2.174113 g / cm^3
# Si number density = 21.790726 Si / 1000 Ang^3
#
#
#
# Elastic Constant Matrix: (Units=GPa)
#
#
# Indices 1 2 3 4 5 6 
#
# 1 95.8203 38.1499 32.2987 0.0000 -23.3462 0.0000
# 2 38.1499 98.9215 25.2603 0.0000 -17.0123 0.0000
# 3 32.2987 25.2603 66.6301 0.0000 -0.7203 0.0000
# 4 0.0000 0.0000 0.0000 22.9100 0.0000 -2.6677
# 5 -23.3462 -17.0123 -0.7203 0.0000 24.7393 0.0000
# 6 0.0000 0.0000 0.0000 -2.6677 0.0000 40.2921
#
#
#
# Elastic Compliance Matrix: (Units=1/GPa)
#
#
# Indices 1 2 3 4 5 6 
#
# 1 0.017419 -0.002309 -0.007410 0.000000 0.014635 0.000000
# 2 -0.002309 0.013124 -0.003784 0.000000 0.006736 0.000000
# 3 -0.007410 -0.003784 0.019937 0.000000 -0.009014 0.000000
# 4 0.000000 0.000000 0.000000 0.043988 0.000000 0.002912
# 5 0.014635 0.006736 -0.009014 0.000000 0.058602 0.000000
# 6 0.000000 0.000000 0.000000 0.002912 0.000000 0.025012
#
#
# Mechanical properties :
#
#
# Convention : Reuss Voigt Hill
#
# Bulk Modulus (GPa) = 42.59817 50.30997 46.45407
# Shear Modulus (GPa) = 23.48392 28.63249 26.05820
#
# Velocity S-wave (km/s) = 3.28640 3.62881 3.46184
# Velocity P-wave (km/s) = 5.83025 6.37931 6.11095
#
# Compressibility (1/GPa) = 0.02347519
#
# Stress axis : x y z
#
# Youngs Moduli (GPa) = 57.40905 76.19644 50.15726
#
# Poissons Ratio (x) = 0.17591 0.37168
# Poissons Ratio (y) = 0.13254 0.18977
# Poissons Ratio (z) = 0.42542 0.28829
#
# Static dielectric constant tensor:
#      x y z
#    x 4.001530 0.000000 -0.022320 
#    y 0.000000 4.508190 0.000000 
#    z -0.022320 0.000000 3.655250 
# 
# 
# High freq. dielectric constant tensor:
#      x y z
#    x 1.851180 0.000000 -0.007390 
#    y 0.000000 1.878010 0.000000 
#    z -0.007390 0.000000 1.839020 
# 
# From -- ./inp_files/225713.got.cif
#   From: 2010.06.25/outbox.cif.g09.slc.cpg/sg12_113_cif.got.tgz:225713.got - 2010.06.28 00:19:55.
