data_PCOD8109256
_publ_section_title
;
Structure prediction by ZEFSAII (Michael W. Deem and Ramdas Pophale) SiO2 
 PCOD8109256
Probable space group: C 2/M
;
_chemical_formula_sum "Si O2"
_cell_formula_units_Z 56
_cell_length_a 9.297670
_cell_length_b 16.472110
_cell_length_c 17.592603
_cell_angle_alpha 90.000000
_cell_angle_beta 74.142978
_cell_angle_gamma 90.000000
_cell_volume 2591.817393
_symmetry_space_group_name_H-M "C 2/M"
_symmetry_group_IT_number 12
_symmetry_cell_setting 'monoclinic'
loop_
_space_group_symop_operation_xyz
x,y,z
-x,y,-z
-x,-y,-z
x,-y,z
1/2+x,1/2+y,z
1/2-x,1/2+y,-z
1/2-x,1/2-y,-z
1/2+x,1/2-y,z
loop_
_atom_site_type_symbol
_atom_site_label
_atom_site_fract_x
_atom_site_fract_y
_atom_site_fract_z
Si Si1 0.413013 0.906400 0.356378
Si Si2 0.371536 0.804950 0.074900
Si Si3 0.990661 0.407803 0.817020
Si Si4 0.902515 0.907373 0.940086
Si Si5 0.161349 0.903170 0.501147
Si Si6 0.758296 0.594103 0.650554
Si Si7 0.677301 0.648685 0.820678
O O1 0.436239 0.866040 0.269167
O O2 0.280082 0.865107 0.424137
O O3 0.563758 0.898157 0.383225
O O4 0.372275 0.000000 0.349515
O O5 0.447150 0.873623 0.114255
O O6 0.234580 0.843789 0.046697
O O7 0.314951 0.736482 0.140839
O O8 0.500000 0.770749 0.000000
O O9 0.038716 0.500000 0.810370
O O10 0.810683 0.402516 0.839869
O O11 0.017028 0.894532 0.854185
O O12 0.842213 0.000000 0.949633
O O13 0.000000 0.886533 0.000000
O O14 0.189585 0.872149 0.582419
O O15 0.000000 0.871526 0.500000
O O16 0.174231 0.000000 0.499133
O O17 0.714222 0.500000 0.673697
O O18 0.698755 0.651888 0.726743
#
# Coordination Sequence:
#
# PCOD8109256 Si02
#       7
#     8   8   8   8   8   8   8
#     4   8  15  29  50  78 111 149 193 237 284 341
#     4  12  26  42  61  88 121 156 196 245 304 362
#     4  10  21  39  63  88 118 157 200 246 294 351
#     4  11  24  41  63  89 117 152 197 250 302 356
#     4   9  16  26  46  81 121 154 188 237 291 341
#     4   9  17  31  54  81 112 154 199 240 285 345
#     4  11  22  39  60  86 120 156 199 246 297 355
#
# _framework density 21.606459999999998
#
# number of rings (size 3 to 8) (size 9 to 14) (size 15 to 20)
#    0.000    2.000    0.000    5.143    0.000    6.857 
#    0.000    2.857    0.000    0.857    0.000    2.000 
#    0.000    0.000    0.000    0.000    0.000    0.143 
#
# Total GULP energy -347115.672157 kJ/mol
# GULP energy per Si atom -12396.988291 kJ/mol
# Density = 2.155728 g / cm^3
# Si number density = 21.606460 Si / 1000 Ang^3
#
#
#
# Elastic Constant Matrix: (Units=GPa)
#
#
# Indices 1 2 3 4 5 6 
#
# 1 98.5088 12.8469 62.8795 0.0000 -2.7541 0.0000
# 2 12.8469 59.1956 31.9578 0.0000 -3.3132 0.0000
# 3 62.8795 31.9578 127.6656 0.0000 -10.5091 0.0000
# 4 0.0000 0.0000 0.0000 23.1499 0.0000 2.1882
# 5 -2.7541 -3.3132 -10.5091 0.0000 38.0206 0.0000
# 6 0.0000 0.0000 0.0000 2.1882 0.0000 22.2739
#
#
#
# Elastic Compliance Matrix: (Units=1/GPa)
#
#
# Indices 1 2 3 4 5 6 
#
# 1 0.014876 0.000828 -0.007613 0.000000 -0.000954 0.000000
# 2 0.000828 0.019584 -0.005285 0.000000 0.000306 0.000000
# 3 -0.007613 -0.005285 0.013121 0.000000 0.002615 0.000000
# 4 0.000000 0.000000 0.000000 0.043602 0.000000 -0.004283
# 5 -0.000954 0.000306 0.002615 0.000000 0.026982 0.000000
# 6 0.000000 0.000000 0.000000 -0.004283 0.000000 0.045316
#
#
# Mechanical properties :
#
#
# Convention : Reuss Voigt Hill
#
# Bulk Modulus (GPa) = 42.66023 55.63762 49.14892
# Shear Modulus (GPa) = 25.58418 28.53461 27.05939
#
# Velocity S-wave (km/s) = 3.44481 3.63802 3.54273
# Velocity P-wave (km/s) = 5.96735 6.59191 6.28739
#
# Compressibility (1/GPa) = 0.02344104
#
# Stress axis : x y z
#
# Youngs Moduli (GPa) = 67.22208 51.06281 76.21545
#
# Poissons Ratio (x) = -0.04228 0.58021
# Poissons Ratio (y) = -0.05566 0.40279
# Poissons Ratio (z) = 0.51175 0.26986
#
# Static dielectric constant tensor:
#      x y z
#    x 3.924240 0.000000 -0.034090 
#    y 0.000000 3.473110 0.000000 
#    z -0.034090 0.000000 4.319220 
# 
# 
# High freq. dielectric constant tensor:
#      x y z
#    x 1.847000 0.000000 -0.001760 
#    y 0.000000 1.811310 0.000000 
#    z -0.001760 0.000000 1.862080 
# 
# From -- ./inp_files/257029.got.cif
#   From: 2010.06.25/outbox.cif.g09.slc.cpg/sg12_129_cif.got.tgz:257029.got - 2010.06.28 00:19:55.
