data_PCOD8109730
_publ_section_title
;
Structure prediction by ZEFSAII (Michael W. Deem and Ramdas Pophale) SiO2 
 PCOD8109730
Probable space group: C 2/M
;
_chemical_formula_sum "Si O2"
_cell_formula_units_Z 48
_cell_length_a 18.646089
_cell_length_b 9.238956
_cell_length_c 14.585594
_cell_angle_alpha 90.000000
_cell_angle_beta 80.411417
_cell_angle_gamma 90.000000
_cell_volume 2477.562219
_symmetry_space_group_name_H-M "C 2/M"
_symmetry_group_IT_number 12
_symmetry_cell_setting 'monoclinic'
loop_
_space_group_symop_operation_xyz
x,y,z
-x,y,-z
-x,-y,-z
x,-y,z
1/2+x,1/2+y,z
1/2-x,1/2+y,-z
1/2-x,1/2-y,-z
1/2+x,1/2-y,z
loop_
_atom_site_type_symbol
_atom_site_label
_atom_site_fract_x
_atom_site_fract_y
_atom_site_fract_z
Si Si1 0.954684 0.838686 0.926690
Si Si2 0.197233 0.161860 0.947742
Si Si3 0.218631 0.830510 0.418964
Si Si4 0.671837 0.830826 0.765766
Si Si5 0.490763 0.830219 0.252370
Si Si6 0.055700 0.837167 0.405462
O O1 0.961339 0.736094 0.838592
O O2 0.985034 0.000000 0.896868
O O3 0.872869 0.848638 0.974873
O O4 0.000000 0.768397 0.000000
O O5 0.183965 0.240467 0.854699
O O6 0.226829 0.000000 0.921106
O O7 0.250000 0.250000 0.000000
O O8 0.250000 0.750000 0.500000
O O9 0.266020 0.788521 0.319992
O O10 0.135320 0.782356 0.419827
O O11 0.223888 0.000000 0.438443
O O12 0.593916 0.788200 0.739477
O O13 0.674905 0.000000 0.790277
O O14 0.522790 0.770681 0.339090
O O15 0.502058 0.000000 0.248815
O O16 0.000000 0.835758 0.500000
O O17 0.062563 0.000000 0.363408
#
# Coordination Sequence:
#
# PCOD8109730 Si02
#       6
#     8   8   8   8   8   8
#     4  10  21  40  62  85 116 158 202 241 289 349
#     4  11  24  40  61  87 119 158 199 245 292 348
#     4  10  22  40  62  87 117 154 193 238 294 353
#     4  10  22  40  59  85 121 158 196 242 298 350
#     4  11  23  37  60  90 120 154 196 250 298 344
#     4  10  22  40  62  88 118 154 197 243 294 356
#
# _framework density 19.373881999999998
#
# number of rings (size 3 to 8) (size 9 to 14) (size 15 to 20)
#    0.000    1.667    1.667    2.000    2.333    4.000 
#    0.000    0.000    0.000    0.000    0.000    0.000 
#    0.000    0.000    0.000    0.000    0.000    0.000 
#
# Total GULP energy -297643.243884 kJ/mol
# GULP energy per Si atom -12401.801828 kJ/mol
# Density = 1.932979 g / cm^3
# Si number density = 19.373882 Si / 1000 Ang^3
#
#
#
# Elastic Constant Matrix: (Units=GPa)
#
#
# Indices 1 2 3 4 5 6 
#
# 1 132.2180 58.7236 65.2690 0.0000 10.3924 0.0000
# 2 58.7236 101.8757 72.2207 0.0000 14.8037 0.0000
# 3 65.2690 72.2207 118.6015 0.0000 8.9394 0.0000
# 4 0.0000 0.0000 0.0000 28.7269 0.0000 8.4992
# 5 10.3924 14.8037 8.9394 0.0000 38.8793 0.0000
# 6 0.0000 0.0000 0.0000 8.4992 0.0000 30.6554
#
#
#
# Elastic Compliance Matrix: (Units=1/GPa)
#
#
# Indices 1 2 3 4 5 6 
#
# 1 0.011121 -0.003528 -0.003917 0.000000 -0.000729 0.000000
# 2 -0.003528 0.019103 -0.009377 0.000000 -0.004175 0.000000
# 3 -0.003917 -0.009377 0.016230 0.000000 0.000885 0.000000
# 4 0.000000 0.000000 0.000000 0.037921 0.000000 -0.010514
# 5 -0.000729 -0.004175 0.000885 0.000000 0.027301 0.000000
# 6 0.000000 0.000000 0.000000 -0.010514 0.000000 0.035536
#
#
# Mechanical properties :
#
#
# Convention : Reuss Voigt Hill
#
# Bulk Modulus (GPa) = 78.05332 82.79133 80.42232
# Shear Modulus (GPa) = 27.00869 30.08444 28.54657
#
# Velocity S-wave (km/s) = 3.73779 3.94488 3.84273
# Velocity P-wave (km/s) = 7.68137 7.97343 7.82876
#
# Compressibility (1/GPa) = 0.01281176
#
# Stress axis : x y z
#
# Youngs Moduli (GPa) = 89.92008 52.34758 61.61343
#
# Poissons Ratio (x) = 0.18466 0.24134
# Poissons Ratio (y) = 0.31721 0.57772
# Poissons Ratio (z) = 0.35222 0.49084
#
# Static dielectric constant tensor:
#      x y z
#    x 3.793090 0.000000 0.121480 
#    y 0.000000 3.720940 0.000000 
#    z 0.121480 0.000000 3.387120 
# 
# 
# High freq. dielectric constant tensor:
#      x y z
#    x 1.768130 0.000000 0.000140 
#    y 0.000000 1.755700 0.000000 
#    z 0.000140 0.000000 1.760900 
# 
# From -- ./inp_files/221658.got.cif
#   From: 2010.06.25/outbox.cif.g09.slc.cpg/sg12_111_cif.got.tgz:221658.got - 2010.06.28 00:19:55.
