data_PCOD8109856
_publ_section_title
;
Structure prediction by ZEFSAII (Michael W. Deem and Ramdas Pophale) SiO2 
 PCOD8109856
Probable space group: C 2/M
;
_chemical_formula_sum "Si O2"
_cell_formula_units_Z 56
_cell_length_a 18.977474
_cell_length_b 8.938811
_cell_length_c 21.906976
_cell_angle_alpha 90.000000
_cell_angle_beta 54.879144
_cell_angle_gamma 90.000000
_cell_volume 3039.640550
_symmetry_space_group_name_H-M "C 2/M"
_symmetry_group_IT_number 12
_symmetry_cell_setting 'monoclinic'
loop_
_space_group_symop_operation_xyz
x,y,z
-x,y,-z
-x,-y,-z
x,-y,z
1/2+x,1/2+y,z
1/2-x,1/2+y,-z
1/2-x,1/2-y,-z
1/2+x,1/2-y,z
loop_
_atom_site_type_symbol
_atom_site_label
_atom_site_fract_x
_atom_site_fract_y
_atom_site_fract_z
Si Si1 0.445920 0.828259 0.693048
Si Si2 0.378420 0.173953 0.442189
Si Si3 0.199044 0.325610 0.079638
Si Si4 0.234802 0.175118 0.601526
Si Si5 0.838037 0.823853 0.235631
Si Si6 0.223664 0.823409 0.196442
Si Si7 0.995302 0.669620 0.805774
O O1 0.519226 0.789637 0.605858
O O2 0.363471 0.723496 0.724234
O O3 0.489113 0.799043 0.736945
O O4 0.414360 0.000000 0.703475
O O5 0.330748 0.219351 0.529338
O O6 0.337178 0.257371 0.405946
O O7 0.365125 0.000000 0.435267
O O8 0.221889 0.500000 0.072389
O O9 0.227275 0.250108 0.128448
O O10 0.097738 0.301643 0.117607
O O11 0.250000 0.250000 0.000000
O O12 0.220467 0.230447 0.677751
O O13 0.220156 0.000000 0.606620
O O14 0.805757 0.734663 0.192828
O O15 0.937564 0.783356 0.197522
O O16 0.830110 0.000000 0.227875
O O17 0.227693 0.000000 0.187516
O O18 0.026191 0.500000 0.802280
#
# Coordination Sequence:
#
# PCOD8109856 Si02
#       7
#     8   8   8   8   8   8   8
#     4   9  17  32  53  76 104 140 183 229 274 323
#     4   9  16  29  49  73 103 139 180 227 277 322
#     4  10  21  40  64  89 115 141 172 213 259 315
#     4   9  18  29  46  75 106 139 180 227 274 320
#     4  11  21  34  52  78 112 145 182 226 270 320
#     4  11  23  37  56  79 108 145 182 222 270 320
#     4   9  18  33  55  82 109 141 177 215 261 315
#
# _framework density 18.423231000000001
#
# number of rings (size 3 to 8) (size 9 to 14) (size 15 to 20)
#    0.000    2.286    1.429    3.000    0.000    4.000 
#    0.000    1.429    0.000    8.571    0.000    0.000 
#    0.000    0.000    0.000    0.000    0.000    0.000 
#
# Total GULP energy -347144.743839 kJ/mol
# GULP energy per Si atom -12398.026566 kJ/mol
# Density = 1.838130 g / cm^3
# Si number density = 18.423231 Si / 1000 Ang^3
#
#
#
# Elastic Constant Matrix: (Units=GPa)
#
#
# Indices 1 2 3 4 5 6 
#
# 1 80.5912 45.5574 36.7431 0.0000 -1.1891 0.0000
# 2 45.5574 91.2161 45.4306 -0.0001 0.8284 0.0000
# 3 36.7431 45.4306 97.8309 0.0000 -11.5092 0.0000
# 4 0.0000 -0.0001 0.0000 26.6711 0.0000 -3.7865
# 5 -1.1891 0.8284 -11.5092 0.0000 21.2649 0.0000
# 6 0.0000 0.0000 0.0000 -3.7865 0.0000 32.1155
#
#
#
# Elastic Compliance Matrix: (Units=1/GPa)
#
#
# Indices 1 2 3 4 5 6 
#
# 1 0.018119 -0.007312 -0.003478 0.000000 -0.000585 0.000000
# 2 -0.007312 0.017612 -0.005940 0.000000 -0.004310 0.000000
# 3 -0.003478 -0.005940 0.015263 0.000000 0.008297 0.000000
# 4 0.000000 0.000000 0.000000 0.038132 0.000000 0.004496
# 5 -0.000585 -0.004310 0.008297 0.000000 0.051652 0.000000
# 6 0.000000 0.000000 0.000000 0.004496 0.000000 0.031668
#
#
# Mechanical properties :
#
#
# Convention : Reuss Voigt Hill
#
# Bulk Modulus (GPa) = 57.03173 58.34449 57.68811
# Shear Modulus (GPa) = 23.61288 25.47077 24.54182
#
# Velocity S-wave (km/s) = 3.58395 3.72228 3.65377
# Velocity P-wave (km/s) = 6.93901 7.08601 7.01290
#
# Compressibility (1/GPa) = 0.01753410
#
# Stress axis : x y z
#
# Youngs Moduli (GPa) = 55.19160 56.77912 65.51993
#
# Poissons Ratio (x) = 0.41514 0.22791
# Poissons Ratio (y) = 0.40354 0.38917
# Poissons Ratio (z) = 0.19198 0.33725
#
# Static dielectric constant tensor:
#      x y z
#    x 1.616390 -0.000080 0.678240 
#    y -0.000080 3.249610 0.000040 
#    z 0.678240 0.000040 3.116860 
# 
# 
# High freq. dielectric constant tensor:
#      x y z
#    x 1.695870 0.000000 -0.015530 
#    y 0.000000 1.714940 0.000000 
#    z -0.015530 0.000000 1.711980 
# 
# From -- ./inp_files/275137.got.cif
#   From: 2010.06.25/outbox.cif.g09.slc.cpg/sg12_138_cif.got.tgz:275137.got - 2010.06.28 00:19:55.
