data_PCOD8109391
_publ_section_title
;
Structure prediction by ZEFSAII (Michael W. Deem and Ramdas Pophale) SiO2 
 PCOD8109391
Probable space group: C 2/M
;
_chemical_formula_sum "Si O2"
_cell_formula_units_Z 48
_cell_length_a 25.436699
_cell_length_b 17.558232
_cell_length_c 5.279411
_cell_angle_alpha 90.000000
_cell_angle_beta 63.202005
_cell_angle_gamma 90.000000
_cell_volume 2104.673176
_symmetry_space_group_name_H-M "C 2/M"
_symmetry_group_IT_number 12
_symmetry_cell_setting 'monoclinic'
loop_
_space_group_symop_operation_xyz
x,y,z
-x,y,-z
-x,-y,-z
x,-y,z
1/2+x,1/2+y,z
1/2-x,1/2+y,-z
1/2-x,1/2-y,-z
1/2+x,1/2-y,z
loop_
_atom_site_type_symbol
_atom_site_label
_atom_site_fract_x
_atom_site_fract_y
_atom_site_fract_z
Si Si1 0.280580 0.813941 0.772800
Si Si2 0.063558 0.732224 0.352888
Si Si3 0.292527 0.586010 0.384931
Si Si4 0.671798 0.083350 0.944053
Si Si5 0.632598 0.724288 0.700633
Si Si6 0.452443 0.086802 0.897001
O O1 0.229910 0.876119 0.827693
O O2 0.309149 0.778511 0.452630
O O3 0.250000 0.750000 0.000000
O O4 0.332790 0.852505 0.826465
O O5 0.091346 0.753236 0.559452
O O6 0.049264 0.641450 0.346046
O O7 0.000000 0.773900 0.500000
O O8 0.101870 0.763698 0.035788
O O9 0.314978 0.500000 0.290731
O O10 0.235697 0.588489 0.684895
O O11 0.346651 0.636255 0.373363
O O12 0.664743 0.000000 0.087249
O O13 0.616979 0.092581 0.861481
O O14 0.469098 0.000000 0.785399
O O15 0.500000 0.117397 0.000000
#
# Coordination Sequence:
#
# PCOD8109391 Si02
#       6
#     8   8   8   8   8   8
#     4  12  22  39  66 104 145 187 235 289 352 434
#     4  12  26  47  70 101 135 184 242 301 354 422
#     4  11  25  42  67 102 142 187 232 292 362 435
#     4  10  21  39  63  98 143 188 234 283 348 421
#     4  12  25  44  73 102 142 183 236 296 358 423
#     4  10  21  40  65  97 141 191 238 285 339 410
#
# _framework density 22.806393
#
# number of rings (size 3 to 8) (size 9 to 14) (size 15 to 20)
#    0.000    0.833    3.333    4.500    0.000    0.333 
#    0.000    1.667    0.000    3.000    0.000    0.000 
#    0.000    0.000    0.000    0.000    0.000    0.000 
#
# Total GULP energy -297344.820040 kJ/mol
# GULP energy per Si atom -12389.367502 kJ/mol
# Density = 2.275448 g / cm^3
# Si number density = 22.806393 Si / 1000 Ang^3
#
#
#
# Elastic Constant Matrix: (Units=GPa)
#
#
# Indices 1 2 3 4 5 6 
#
# 1 122.6894 52.8760 -2.8281 0.0000 3.3315 0.0000
# 2 52.8760 147.6560 3.9126 0.0000 -0.0923 0.0000
# 3 -2.8281 3.9126 48.8513 0.0000 -13.8498 0.0000
# 4 0.0000 0.0000 0.0000 20.0954 0.0000 9.5179
# 5 3.3315 -0.0923 -13.8498 0.0000 35.3019 0.0000
# 6 0.0000 0.0000 0.0000 9.5179 0.0000 33.7495
#
#
#
# Elastic Compliance Matrix: (Units=1/GPa)
#
#
# Indices 1 2 3 4 5 6 
#
# 1 0.009686 -0.003486 0.000651 0.000000 -0.000668 0.000000
# 2 -0.003486 0.008043 -0.000840 0.000000 0.000020 0.000000
# 3 0.000651 -0.000840 0.023130 0.000000 0.009011 0.000000
# 4 0.000000 0.000000 0.000000 0.057435 0.000000 -0.016198
# 5 -0.000668 0.000020 0.009011 0.000000 0.031925 0.000000
# 6 0.000000 0.000000 0.000000 -0.016198 0.000000 0.034198
#
#
# Mechanical properties :
#
#
# Convention : Reuss Voigt Hill
#
# Bulk Modulus (GPa) = 29.84404 47.45749 38.65077
# Shear Modulus (GPa) = 27.33158 35.51176 31.42167
#
# Velocity S-wave (km/s) = 3.46557 3.95029 3.71584
# Velocity P-wave (km/s) = 5.39702 6.45449 5.94929
#
# Compressibility (1/GPa) = 0.03350753
#
# Stress axis : x y z
#
# Youngs Moduli (GPa) = 103.23828 124.32791 43.23404
#
# Poissons Ratio (x) = 0.43345 -0.02813
# Poissons Ratio (y) = 0.35993 0.03633
# Poissons Ratio (z) = -0.06717 0.10447
#
# Static dielectric constant tensor:
#      x y z
#    x 4.600910 0.000000 -0.229110 
#    y 0.000000 4.468100 0.000000 
#    z -0.229110 0.000000 3.990680 
# 
# 
# High freq. dielectric constant tensor:
#      x y z
#    x 1.912290 0.000000 -0.008080 
#    y 0.000000 1.892230 0.000000 
#    z -0.008080 0.000000 1.886120 
# 
# From -- ./inp_files/28437.got.cif
#   From: 2010.06.25/outbox.cif.g09.slc.cpg/sg12_15_cif.got.tgz:28437.got - 2010.06.28 00:19:55.
