data_PCOD8109618
_publ_section_title
;
Structure prediction by ZEFSAII (Michael W. Deem and Ramdas Pophale) SiO2 
 PCOD8109618
Probable space group: C 2/M
;
_chemical_formula_sum "Si O2"
_cell_formula_units_Z 40
_cell_length_a 14.184400
_cell_length_b 14.350602
_cell_length_c 13.175961
_cell_angle_alpha 90.000000
_cell_angle_beta 139.078891
_cell_angle_gamma 90.000000
_cell_volume 1756.780283
_symmetry_space_group_name_H-M "C 2/M"
_symmetry_group_IT_number 12
_symmetry_cell_setting 'monoclinic'
loop_
_space_group_symop_operation_xyz
x,y,z
-x,y,-z
-x,-y,-z
x,-y,z
1/2+x,1/2+y,z
1/2-x,1/2+y,-z
1/2-x,1/2-y,-z
1/2+x,1/2-y,z
loop_
_atom_site_type_symbol
_atom_site_label
_atom_site_fract_x
_atom_site_fract_y
_atom_site_fract_z
Si Si1 0.233941 0.217556 0.670145
Si Si2 0.018140 0.771825 0.677379
Si Si3 0.666697 0.603306 0.159093
Si Si4 0.512480 0.892236 0.207214
Si Si5 0.698735 0.605080 0.960430
O O1 0.141431 0.207173 0.696195
O O2 0.289954 0.324526 0.717198
O O3 0.369471 0.147408 0.776137
O O4 0.134861 0.195165 0.492108
O O5 0.069040 0.830163 0.816710
O O6 0.987414 0.666112 0.687547
O O7 0.714737 0.500000 0.233824
O O8 0.500000 0.606493 0.000000
O O9 0.739659 0.630103 0.110430
O O10 0.546445 0.000000 0.259678
O O11 0.351897 0.882752 0.026485
O O12 0.639850 0.500000 0.904467
#
# Coordination Sequence:
#
# PCOD8109618 Si02
#       5
#     8   8   8   8   8
#     4  11  25  40  67 101 134 176 218 273 335 391
#     4  11  24  43  65  97 138 178 216 269 336 396
#     4  10  21  39  67 100 129 169 224 275 326 387
#     4  11  24  43  67  98 132 174 223 273 328 389
#     4  10  22  42  69  95 128 174 223 274 326 387
#
# _framework density 22.768926
#
# number of rings (size 3 to 8) (size 9 to 14) (size 15 to 20)
#    0.000    1.400    2.000    2.400    2.800    2.400 
#    0.000    8.000    0.000    0.000    0.000    0.000 
#    0.000    0.000    0.000    0.000    0.000    0.000 
#
# Total GULP energy -247822.597118 kJ/mol
# GULP energy per Si atom -12391.129856 kJ/mol
# Density = 2.271710 g / cm^3
# Si number density = 22.768926 Si / 1000 Ang^3
#
#
#
# Elastic Constant Matrix: (Units=GPa)
#
#
# Indices 1 2 3 4 5 6 
#
# 1 99.7894 40.9982 19.9327 0.0000 23.2478 0.0000
# 2 40.9982 149.6667 58.8496 0.0000 6.4196 0.0000
# 3 19.9327 58.8496 93.4006 0.0001 9.3886 0.0000
# 4 0.0000 0.0000 0.0001 23.2705 0.0000 0.1933
# 5 23.2478 6.4196 9.3886 0.0000 22.0511 0.0000
# 6 0.0000 0.0000 0.0000 0.1933 0.0000 36.8447
#
#
#
# Elastic Compliance Matrix: (Units=1/GPa)
#
#
# Indices 1 2 3 4 5 6 
#
# 1 0.014876 -0.003691 0.000647 0.000000 -0.014884 0.000000
# 2 -0.003691 0.009799 -0.005736 0.000000 0.003481 0.000000
# 3 0.000647 -0.005736 0.014713 0.000000 -0.005277 0.000000
# 4 0.000000 0.000000 0.000000 0.042975 0.000000 -0.000226
# 5 -0.014884 0.003481 -0.005277 0.000000 0.062274 0.000000
# 6 0.000000 0.000000 0.000000 -0.000226 0.000000 0.027142
#
#
# Mechanical properties :
#
#
# Convention : Reuss Voigt Hill
#
# Bulk Modulus (GPa) = 45.81363 64.71308 55.26336
# Shear Modulus (GPa) = 25.43042 31.30500 28.36771
#
# Velocity S-wave (km/s) = 3.34562 3.71199 3.53355
# Velocity P-wave (km/s) = 5.92360 6.84508 6.40094
#
# Compressibility (1/GPa) = 0.02182757
#
# Stress axis : x y z
#
# Youngs Moduli (GPa) = 67.22332 102.05365 67.96651
#
# Poissons Ratio (x) = 0.37667 -0.04398
# Poissons Ratio (y) = 0.24812 0.38987
# Poissons Ratio (z) = -0.04350 0.58540
#
# Static dielectric constant tensor:
#      x y z
#    x 4.426370 0.000000 0.267480 
#    y 0.000000 4.079890 0.000000 
#    z 0.267480 0.000000 3.960570 
# 
# 
# High freq. dielectric constant tensor:
#      x y z
#    x 1.908020 0.000000 0.026790 
#    y 0.000000 1.893490 0.000000 
#    z 0.026790 0.000000 1.882790 
# 
# From -- ./inp_files/215075.got.cif
#   From: 2010.06.25/outbox.cif.g09.slc.cpg/sg12_108_cif.got.tgz:215075.got - 2010.06.28 00:19:55.
