data_PCOD8109368
_publ_section_title
;
Structure prediction by ZEFSAII (Michael W. Deem and Ramdas Pophale) SiO2 
 PCOD8109368
Probable space group: C 2/M
;
_chemical_formula_sum "Si O2"
_cell_formula_units_Z 56
_cell_length_a 9.357068
_cell_length_b 17.545424
_cell_length_c 31.062186
_cell_angle_alpha 90.000000
_cell_angle_beta 147.461137
_cell_angle_gamma 90.000000
_cell_volume 2742.926939
_symmetry_space_group_name_H-M "C 2/M"
_symmetry_group_IT_number 12
_symmetry_cell_setting 'monoclinic'
loop_
_space_group_symop_operation_xyz
x,y,z
-x,y,-z
-x,-y,-z
x,-y,z
1/2+x,1/2+y,z
1/2-x,1/2+y,-z
1/2-x,1/2-y,-z
1/2+x,1/2-y,z
loop_
_atom_site_type_symbol
_atom_site_label
_atom_site_fract_x
_atom_site_fract_y
_atom_site_fract_z
Si Si1 0.902427 0.320375 0.775790
Si Si2 0.098409 0.085958 0.069479
Si Si3 0.188831 0.826681 0.508986
Si Si4 0.596649 0.913004 0.666540
Si Si5 0.869594 0.165551 0.202384
Si Si6 0.725798 0.588654 0.650332
Si Si7 0.534882 0.086567 0.961570
O O1 0.167955 0.367115 0.850648
O O2 0.986083 0.236650 0.782828
O O3 0.718458 0.315932 0.771359
O O4 0.738812 0.361369 0.696698
O O5 0.203338 0.000000 0.087536
O O6 0.850977 0.087248 0.038219
O O7 0.000000 0.123289 0.000000
O O8 0.250000 0.750000 0.500000
O O9 0.463248 0.861481 0.595934
O O10 0.000000 0.803865 0.500000
O O11 0.045917 0.889145 0.442724
O O12 0.479173 0.893279 0.684042
O O13 0.913159 0.901503 0.744665
O O14 0.528540 0.000000 0.638541
O O15 0.609621 0.139632 0.109988
O O16 0.715916 0.500000 0.660487
O O17 0.424985 0.000000 0.929723
O O18 0.500000 0.121245 0.000000
#
# Coordination Sequence:
#
# PCOD8109368 Si02
#       7
#     8   8   8   8   8   8   8
#     4  12  26  41  61  89 124 164 204 254 307 363
#     4  10  21  41  64  87 118 158 202 250 306 361
#     4  10  21  39  63  93 128 163 201 246 300 359
#     4  10  22  41  66  92 123 162 204 252 303 359
#     4  12  26  42  60  89 126 161 205 254 308 362
#     4  10  22  41  66  93 122 161 207 250 300 363
#     4  10  23  41  64  90 119 157 203 252 303 365
#
# _framework density 20.416146999999999
#
# number of rings (size 3 to 8) (size 9 to 14) (size 15 to 20)
#    0.000    1.429    1.429    3.000    4.000    8.000 
#    0.000    0.000    0.000    2.571    0.000    0.000 
#    0.000    0.000    0.000    0.000    0.000    0.000 
#
# Total GULP energy -347280.819509 kJ/mol
# GULP energy per Si atom -12402.886411 kJ/mol
# Density = 2.036968 g / cm^3
# Si number density = 20.416147 Si / 1000 Ang^3
#
#
#
# Elastic Constant Matrix: (Units=GPa)
#
#
# Indices 1 2 3 4 5 6 
#
# 1 112.0659 31.0706 33.9699 -0.0009 -13.5203 -0.0015
# 2 31.0706 85.7990 21.3059 0.0020 -9.9885 0.0003
# 3 33.9699 21.3059 80.8698 0.0045 -7.0146 -0.0005
# 4 -0.0009 0.0020 0.0045 31.5636 -0.0003 -3.3405
# 5 -13.5203 -9.9885 -7.0146 -0.0003 36.2883 -0.0011
# 6 -0.0015 0.0003 -0.0005 -3.3405 -0.0011 35.6263
#
#
#
# Elastic Compliance Matrix: (Units=1/GPa)
#
#
# Indices 1 2 3 4 5 6 
#
# 1 0.011148 -0.002805 -0.003713 0.000001 0.002664 0.000001
# 2 -0.002805 0.013472 -0.002177 -0.000001 0.002243 0.000000
# 3 -0.003713 -0.002177 0.014571 -0.000002 0.000834 0.000000
# 4 0.000001 -0.000001 -0.000002 0.032000 0.000000 0.003000
# 5 0.002664 0.002243 0.000834 0.000000 0.029328 0.000001
# 6 0.000001 0.000000 0.000000 0.003000 0.000001 0.028351
#
#
# Mechanical properties :
#
#
# Convention : Reuss Voigt Hill
#
# Bulk Modulus (GPa) = 45.86617 50.15864 48.01240
# Shear Modulus (GPa) = 32.56788 33.52151 33.04470
#
# Velocity S-wave (km/s) = 3.99833 4.05645 4.02749
# Velocity P-wave (km/s) = 6.62042 6.82357 6.72276
#
# Compressibility (1/GPa) = 0.02180256
#
# Stress axis : x y z
#
# Youngs Moduli (GPa) = 89.70418 74.22529 68.62985
#
# Poissons Ratio (x) = 0.20820 0.25480
# Poissons Ratio (y) = 0.25161 0.14939
# Poissons Ratio (z) = 0.33304 0.16157
#
# Static dielectric constant tensor:
#      x y z
#    x 3.791120 0.000000 -0.103580 
#    y 0.000000 3.698440 0.000000 
#    z -0.103580 0.000000 3.823110 
# 
# 
# High freq. dielectric constant tensor:
#      x y z
#    x 1.802470 0.000000 -0.003200 
#    y 0.000000 1.799830 0.000000 
#    z -0.003200 0.000000 1.805250 
# 
# From -- ./inp_files/257134.got.cif
#   From: 2010.06.25/outbox.cif.g09.slc.cpg/sg12_129_cif.got.tgz:257134.got - 2010.06.28 00:19:55.
