data_PCOD8109124
_publ_section_title
;
Structure prediction by ZEFSAII (Michael W. Deem and Ramdas Pophale) SiO2 
 PCOD8109124
Probable space group: C 2/M
;
_chemical_formula_sum "Si O2"
_cell_formula_units_Z 64
_cell_length_a 8.890605
_cell_length_b 30.835223
_cell_length_c 17.887736
_cell_angle_alpha 90.000000
_cell_angle_beta 41.794576
_cell_angle_gamma 90.000000
_cell_volume 3268.203642
_symmetry_space_group_name_H-M "C 2/M"
_symmetry_group_IT_number 12
_symmetry_cell_setting 'monoclinic'
loop_
_space_group_symop_operation_xyz
x,y,z
-x,y,-z
-x,-y,-z
x,-y,z
1/2+x,1/2+y,z
1/2-x,1/2+y,-z
1/2-x,1/2-y,-z
1/2+x,1/2-y,z
loop_
_atom_site_type_symbol
_atom_site_label
_atom_site_fract_x
_atom_site_fract_y
_atom_site_fract_z
Si Si1 0.991552 0.048701 0.223422
Si Si2 0.320968 0.676537 0.999996
Si Si3 0.607029 0.625291 0.379764
Si Si4 0.336517 0.206314 0.228008
Si Si5 0.253674 0.625297 0.379765
Si Si6 0.323068 0.422937 0.999984
Si Si7 0.520519 0.293682 0.772002
Si Si8 0.661808 0.048702 0.776607
O O1 0.204644 0.059345 0.196890
O O2 0.790619 0.082329 0.315725
O O3 0.900136 0.000000 0.270813
O O4 0.073703 0.052730 0.108734
O O5 0.412726 0.699698 0.892756
O O6 0.500000 0.681741 0.000000
O O7 0.268768 0.626679 0.999968
O O8 0.090978 0.699683 0.107260
O O9 0.500000 0.627920 0.500000
O O10 0.762591 0.667082 0.308750
O O11 0.404768 0.623274 0.396820
O O12 0.762237 0.582328 0.315693
O O13 0.329569 0.249999 0.280292
O O14 0.175352 0.210457 0.216435
O O15 0.311197 0.667081 0.308724
O O16 0.000000 0.627945 0.500000
O O17 0.100096 0.447264 0.108692
O O18 0.500000 0.426260 0.000000
O O19 0.712532 0.000000 0.729228
#
# Coordination Sequence:
#
# PCOD8109124 Si02
#       8
#     8   8   8   8   8   8   8   8
#     4  10  21  39  62  87 118 157 197 236 287 352
#     4  11  22  37  60  90 121 156 192 236 293 349
#     4  10  23  41  61  85 115 154 198 244 291 340
#     4  11  23  40  62  88 119 155 194 239 290 349
#     4  10  23  41  61  85 115 154 198 244 291 340
#     4  11  22  35  58  91 124 154 190 240 293 345
#     4  11  23  40  62  88 119 155 194 239 290 349
#     4  10  21  39  62  87 118 157 197 236 287 352
#
# _framework density 19.582622000000001
#
# number of rings (size 3 to 8) (size 9 to 14) (size 15 to 20)
#    0.000    1.500    2.500    2.250    0.000    7.000 
#    0.000    2.500    0.000    0.000    0.000    0.000 
#    0.000    0.000    0.000    0.000    0.000    0.000 
#
# Total GULP energy -396954.405295 kJ/mol
# GULP energy per Si atom -12404.825165 kJ/mol
# Density = 1.953805 g / cm^3
# Si number density = 19.582622 Si / 1000 Ang^3
#
#
#
# Elastic Constant Matrix: (Units=GPa)
#
#
# Indices 1 2 3 4 5 6 
#
# 1 59.2332 48.7431 41.8835 0.0000 0.6455 0.0000
# 2 48.7431 169.1000 73.0174 0.0000 0.3184 0.0000
# 3 41.8835 73.0174 152.2061 0.0000 0.5255 0.0000
# 4 0.0000 0.0000 0.0000 3.9974 0.0000 -0.3294
# 5 0.6455 0.3184 0.5255 0.0000 34.8438 0.0000
# 6 0.0000 0.0000 0.0000 -0.3294 0.0000 30.5798
#
#
#
# Elastic Compliance Matrix: (Units=1/GPa)
#
#
# Indices 1 2 3 4 5 6 
#
# 1 0.024051 -0.005139 -0.004152 0.000000 -0.000336 0.000000
# 2 -0.005139 0.008557 -0.002691 0.000000 0.000058 0.000000
# 3 -0.004152 -0.002691 0.009003 0.000000 -0.000034 0.000000
# 4 0.000000 0.000000 0.000000 0.250384 0.000000 0.002697
# 5 -0.000336 0.000058 -0.000034 0.000000 0.028706 0.000000
# 6 0.000000 0.000000 0.000000 0.002697 0.000000 0.032730
#
#
# Mechanical properties :
#
#
# Convention : Reuss Voigt Hill
#
# Bulk Modulus (GPa) = 56.66537 78.64750 67.65643
# Shear Modulus (GPa) = 13.04537 28.34389 20.69463
#
# Velocity S-wave (km/s) = 2.58383 3.80860 3.25435
# Velocity P-wave (km/s) = 6.15637 7.71943 6.98178
#
# Compressibility (1/GPa) = 0.01764746
#
# Stress axis : x y z
#
# Youngs Moduli (GPa) = 41.57861 116.86425 111.06800
#
# Poissons Ratio (x) = 0.60061 0.46111
# Poissons Ratio (y) = 0.21369 0.29888
# Poissons Ratio (z) = 0.17262 0.31448
#
# Static dielectric constant tensor:
#      x y z
#    x 3.523930 0.000000 -0.000480 
#    y 0.000000 4.013480 0.000000 
#    z -0.000480 0.000000 3.485120 
# 
# 
# High freq. dielectric constant tensor:
#      x y z
#    x 1.761560 0.000000 -0.000080 
#    y 0.000000 1.785710 0.000000 
#    z -0.000080 0.000000 1.755340 
# 
# From -- ./inp_files/260323.got.cif
#   From: 2010.06.25/outbox.cif.g09.slc.cpg/sg12_131_cif.got.tgz:260323.got - 2010.06.28 00:19:55.
