data_PCOD8109838
_publ_section_title
;
Structure prediction by ZEFSAII (Michael W. Deem and Ramdas Pophale) SiO2 
 PCOD8109838
Probable space group: C 2/M
;
_chemical_formula_sum "Si O2"
_cell_formula_units_Z 48
_cell_length_a 18.420517
_cell_length_b 26.598184
_cell_length_c 8.636924
_cell_angle_alpha 90.000000
_cell_angle_beta 31.762832
_cell_angle_gamma 90.000000
_cell_volume 2227.575197
_symmetry_space_group_name_H-M "C 2/M"
_symmetry_group_IT_number 12
_symmetry_cell_setting 'monoclinic'
loop_
_space_group_symop_operation_xyz
x,y,z
-x,y,-z
-x,-y,-z
x,-y,z
1/2+x,1/2+y,z
1/2-x,1/2+y,-z
1/2-x,1/2-y,-z
1/2+x,1/2-y,z
loop_
_atom_site_type_symbol
_atom_site_label
_atom_site_fract_x
_atom_site_fract_y
_atom_site_fract_z
Si Si1 0.265999 0.354285 0.687429
Si Si2 0.548822 0.210593 0.240582
Si Si3 0.853856 0.916542 0.786096
Si Si4 0.110979 0.444134 0.424715
Si Si5 0.071865 0.825895 0.138279
Si Si6 0.671673 0.148192 0.522603
O O1 0.280971 0.407611 0.751124
O O2 0.416240 0.335044 0.363787
O O3 0.172425 0.360706 0.705059
O O4 0.191895 0.316267 0.939749
O O5 0.500000 0.194159 0.500000
O O6 0.583923 0.268964 0.171344
O O7 0.429323 0.194261 0.336832
O O8 0.886922 0.860949 0.792904
O O9 0.000000 0.945539 0.500000
O O10 0.759012 0.948218 0.072265
O O11 0.076128 0.500000 0.552553
O O12 0.113125 0.403576 0.556819
O O13 0.000000 0.426038 0.500000
O O14 0.174733 0.837965 0.810678
#
# Coordination Sequence:
#
# PCOD8109838 Si02
#       6
#     8   8   8   8   8   8
#     4  11  22  36  56  83 118 152 187 237 293 337
#     4  12  23  36  56  82 116 158 202 237 277 337
#     4   9  19  37  59  82 112 150 191 233 280 337
#     4  10  21  40  64  85 109 147 192 236 284 340
#     4  10  22  38  57  82 115 159 198 231 277 339
#     4  11  23  38  58  85 120 152 187 240 291 340
#
# _framework density 21.548093999999999
#
# number of rings (size 3 to 8) (size 9 to 14) (size 15 to 20)
#    0.000    1.500    0.000    7.000    0.000    6.333 
#    0.000    0.833    0.000   17.000    0.000    0.000 
#    0.000    0.000    0.000    0.000    0.000    0.000 
#
# Total GULP energy -297608.095146 kJ/mol
# GULP energy per Si atom -12400.337298 kJ/mol
# Density = 2.149905 g / cm^3
# Si number density = 21.548094 Si / 1000 Ang^3
#
#
#
# Elastic Constant Matrix: (Units=GPa)
#
#
# Indices 1 2 3 4 5 6 
#
# 1 121.1124 31.8470 7.9976 0.0000 3.1434 0.0000
# 2 31.8470 88.0924 20.0276 0.0000 0.0133 0.0000
# 3 7.9976 20.0276 63.2867 0.0000 -5.6495 0.0000
# 4 0.0000 0.0000 0.0000 18.4357 0.0000 -4.1256
# 5 3.1434 0.0133 -5.6495 0.0000 32.3655 0.0000
# 6 0.0000 0.0000 0.0000 -4.1256 0.0000 -1.5594
#
#
#
# Elastic Compliance Matrix: (Units=1/GPa)
#
#
# Indices 1 2 3 4 5 6 
#
# 1 0.009152 -0.003261 -0.000207 0.000000 -0.000924 0.000000
# 2 -0.003261 0.013409 -0.003864 0.000000 -0.000363 0.000000
# 3 -0.000207 -0.003864 0.017322 0.000000 0.003045 0.000000
# 4 0.000000 0.000000 0.000000 0.034071 0.000000 -0.090139
# 5 -0.000924 -0.000363 0.003045 0.000000 0.031519 0.000000
# 6 0.000000 0.000000 0.000000 -0.090139 0.000000 -0.402795
#
#
# Mechanical properties :
#
#
# Convention : Reuss Voigt Hill
#
# Bulk Modulus (GPa) = 39.65273 43.58176 41.61724
# Shear Modulus (GPa) = -18.23141 24.02296 2.89578
#
# Velocity S-wave (km/s) = -2.91190 3.34256 1.16051
# Velocity P-wave (km/s) = 2.67140 5.93011 4.59905
#
# Compressibility (1/GPa) = 0.02521895
#
# Stress axis : x y z
#
# Youngs Moduli (GPa) = 109.26526 74.57532 57.73071
#
# Poissons Ratio (x) = 0.24322 0.01194
# Poissons Ratio (y) = 0.35636 0.22306
# Poissons Ratio (z) = 0.02261 0.28814
#
# Static dielectric constant tensor:
#      x y z
#    x 3.710340 0.000000 -0.131390 
#    y 0.000000 3.516640 0.000000 
#    z -0.131390 0.000000 4.322440 
# 
# 
# High freq. dielectric constant tensor:
#      x y z
#    x 1.837290 0.000000 -0.012250 
#    y 0.000000 1.820830 0.000000 
#    z -0.012250 0.000000 1.870250 
# 
# From -- ./inp_files/80596.got.cif
#   From: 2010.06.25/outbox.cif.g09.slc.cpg/sg12_41_cif.got.tgz:80596.got - 2010.06.28 00:19:55.
