data_PCOD8109759
_publ_section_title
;
Structure prediction by ZEFSAII (Michael W. Deem and Ramdas Pophale) SiO2 
 PCOD8109759
Probable space group: C 2/M
;
_chemical_formula_sum "Si O2"
_cell_formula_units_Z 48
_cell_length_a 26.259448
_cell_length_b 13.115547
_cell_length_c 20.592470
_cell_angle_alpha 90.000000
_cell_angle_beta 160.097603
_cell_angle_gamma 90.000000
_cell_volume 2414.315878
_symmetry_space_group_name_H-M "C 2/M"
_symmetry_group_IT_number 12
_symmetry_cell_setting 'monoclinic'
loop_
_space_group_symop_operation_xyz
x,y,z
-x,y,-z
-x,-y,-z
x,-y,z
1/2+x,1/2+y,z
1/2-x,1/2+y,-z
1/2-x,1/2-y,-z
1/2+x,1/2-y,z
loop_
_atom_site_type_symbol
_atom_site_label
_atom_site_fract_x
_atom_site_fract_y
_atom_site_fract_z
Si Si1 0.334851 0.753674 0.318488
Si Si2 0.142070 0.614541 0.887882
Si Si3 0.164563 0.619106 0.549767
Si Si4 0.943068 0.616114 0.004304
Si Si5 0.172168 0.189180 0.002444
Si Si6 0.372949 0.720194 0.699314
O O1 0.500000 0.712578 0.500000
O O2 0.332793 0.821131 0.380167
O O3 0.225930 0.657579 0.195729
O O4 0.279596 0.825573 0.193169
O O5 0.135367 0.500000 0.907707
O O6 0.177901 0.690718 0.989443
O O7 0.985710 0.648267 0.668683
O O8 0.272335 0.619259 0.989865
O O9 0.172830 0.500000 0.575108
O O10 0.306376 0.650770 0.676470
O O11 0.943865 0.500000 0.029230
O O12 0.000000 0.626793 0.000000
O O13 0.054161 0.677607 0.184287
O O14 0.003583 0.156558 0.819483
O O15 0.250000 0.750000 0.500000
#
# Coordination Sequence:
#
# PCOD8109759 Si02
#       6
#     8   8   8   8   8   8
#     4  11  22  40  64  92 128 161 205 255 309 367
#     4  10  21  40  62  89 122 157 204 255 306 364
#     4  11  23  40  64  92 123 163 207 254 312 369
#     4  10  22  41  64  88 121 164 205 250 306 365
#     4  10  22  37  63  91 122 162 199 251 309 365
#     4  11  22  40  64  90 127 161 206 255 308 367
#
# _framework density 19.881408
#
# number of rings (size 3 to 8) (size 9 to 14) (size 15 to 20)
#    0.000    1.500    5.000    0.000    0.000    5.333 
#    0.000    5.833    0.000    0.000    0.000    0.000 
#    0.000    0.000    0.000    0.000    0.000    0.000 
#
# Total GULP energy -297651.863640 kJ/mol
# GULP energy per Si atom -12402.160985 kJ/mol
# Density = 1.983616 g / cm^3
# Si number density = 19.881408 Si / 1000 Ang^3
#
#
#
# Elastic Constant Matrix: (Units=GPa)
#
#
# Indices 1 2 3 4 5 6 
#
# 1 110.8474 24.6373 43.4554 0.0010 21.6768 0.0006
# 2 24.6373 77.5859 32.9657 0.0007 2.4644 0.0005
# 3 43.4554 32.9657 128.1420 0.0020 19.0710 0.0016
# 4 0.0010 0.0007 0.0020 26.0134 0.0017 -0.2778
# 5 21.6768 2.4644 19.0710 0.0017 39.0908 0.0010
# 6 0.0006 0.0005 0.0016 -0.2778 0.0010 11.3934
#
#
#
# Elastic Compliance Matrix: (Units=1/GPa)
#
#
# Indices 1 2 3 4 5 6 
#
# 1 0.011536 -0.002423 -0.002544 0.000000 -0.005003 0.000000
# 2 -0.002423 0.015014 -0.003343 0.000000 0.002028 0.000000
# 3 -0.002544 -0.003343 0.010012 0.000000 -0.003263 -0.000001
# 4 0.000000 0.000000 0.000000 0.038452 -0.000002 0.000938
# 5 -0.005003 0.002028 -0.003263 -0.000002 0.029820 -0.000002
# 6 0.000000 0.000000 -0.000001 0.000938 -0.000002 0.087793
#
#
# Mechanical properties :
#
#
# Convention : Reuss Voigt Hill
#
# Bulk Modulus (GPa) = 50.14461 57.63246 53.88854
# Shear Modulus (GPa) = 23.15955 29.66732 26.41344
#
# Velocity S-wave (km/s) = 3.41674 3.86711 3.64888
# Velocity P-wave (km/s) = 6.39078 6.99932 6.70196
#
# Compressibility (1/GPa) = 0.01994232
#
# Stress axis : x y z
#
# Youngs Moduli (GPa) = 86.68742 66.60320 99.87914
#
# Poissons Ratio (x) = 0.16140 0.25409
# Poissons Ratio (y) = 0.21007 0.33385
# Poissons Ratio (z) = 0.22053 0.22263
#
# Static dielectric constant tensor:
#      x y z
#    x 3.925990 0.000000 0.183110 
#    y 0.000000 3.376590 0.000000 
#    z 0.183110 0.000000 3.847050 
# 
# 
# High freq. dielectric constant tensor:
#      x y z
#    x 1.804220 0.000000 0.006330 
#    y 0.000000 1.752110 0.000000 
#    z 0.006330 0.000000 1.780550 
# 
# From -- ./inp_files/328007.got.cif
#   From: 2010.06.25/outbox.cif.g09.slc.cpg/sg12_165_cif.got.tgz:328007.got - 2010.06.28 00:19:55.
