data_PCOD8109517
_publ_section_title
;
Structure prediction by ZEFSAII (Michael W. Deem and Ramdas Pophale) SiO2 
 PCOD8109517
Probable space group: C 2/M
;
_chemical_formula_sum "Si O2"
_cell_formula_units_Z 40
_cell_length_a 24.307201
_cell_length_b 9.422942
_cell_length_c 9.214821
_cell_angle_alpha 90.000000
_cell_angle_beta 103.806242
_cell_angle_gamma 90.000000
_cell_volume 2049.632666
_symmetry_space_group_name_H-M "C 2/M"
_symmetry_group_IT_number 12
_symmetry_cell_setting 'monoclinic'
loop_
_space_group_symop_operation_xyz
x,y,z
-x,y,-z
-x,-y,-z
x,-y,z
1/2+x,1/2+y,z
1/2-x,1/2+y,-z
1/2-x,1/2-y,-z
1/2+x,1/2-y,z
loop_
_atom_site_type_symbol
_atom_site_label
_atom_site_fract_x
_atom_site_fract_y
_atom_site_fract_z
Si Si1 0.525294 0.500000 0.671508
Si Si2 0.211250 0.000000 0.780412
Si Si3 0.619545 0.730467 0.762317
Si Si4 0.324534 0.000000 0.696162
Si Si5 0.234153 0.000000 0.122467
Si Si6 0.444951 0.500000 0.869540
Si Si7 0.349682 0.000000 0.371736
Si Si8 0.142941 0.232715 0.103151
O O1 0.500000 0.500000 0.500000
O O2 0.562109 0.639818 0.727182
O O3 0.466440 0.500000 0.720105
O O4 0.172295 0.137762 0.739989
O O5 0.256983 0.000000 0.680490
O O6 0.244218 0.000000 0.955211
O O7 0.613477 0.862223 0.648625
O O8 0.631932 0.785844 0.932507
O O9 0.352846 0.137094 0.785141
O O10 0.336006 0.000000 0.532629
O O11 0.292859 0.000000 0.241744
O O12 0.200254 0.859069 0.146218
O O13 0.409584 0.640078 0.878503
O O14 0.500000 0.500000 0.000000
#
# Coordination Sequence:
#
# PCOD8109517 Si02
#       8
#     4   4   8   4   4   4   4   8
#     4  11  24  41  68  90 114 150 189 243 308 349
#     4   9  19  38  64  84 114 157 208 232 275 352
#     4  10  21  41  62  88 115 158 198 237 288 354
#     4  12  25  36  53  92 126 157 189 243 295 340
#     4   9  19  38  62  87 114 160 196 237 287 349
#     4  11  20  43  70  90 106 144 205 251 282 346
#     4  12  25  36  53  88 134 155 185 239 303 349
#     4  10  21  39  65  88 114 153 205 241 280 344
#
# _framework density 19.515692000000001
#
# number of rings (size 3 to 8) (size 9 to 14) (size 15 to 20)
#    0.000    1.600    2.000    4.200    2.800    6.400 
#    3.600    2.000    0.000    0.000    0.000    0.000 
#    0.000    0.000    0.000    0.000    0.000    0.000 
#
# Total GULP energy -248035.384261 kJ/mol
# GULP energy per Si atom -12401.769213 kJ/mol
# Density = 1.947127 g / cm^3
# Si number density = 19.515692 Si / 1000 Ang^3
#
#
#
# Elastic Constant Matrix: (Units=GPa)
#
#
# Indices 1 2 3 4 5 6 
#
# 1 84.4068 30.8316 16.4361 0.0000 -22.1053 0.0000
# 2 30.8316 124.8572 43.2134 0.0000 -18.2012 0.0000
# 3 16.4361 43.2134 96.2563 0.0000 -25.6604 0.0000
# 4 0.0000 0.0000 0.0000 21.7102 0.0000 -9.1469
# 5 -22.1053 -18.2012 -25.6604 0.0000 38.6120 0.0000
# 6 0.0000 0.0000 0.0000 -9.1469 0.0000 8.5922
#
#
#
# Elastic Compliance Matrix: (Units=1/GPa)
#
#
# Indices 1 2 3 4 5 6 
#
# 1 0.014712 -0.002789 0.000771 0.000000 0.007620 0.000000
# 2 -0.002789 0.010139 -0.003922 0.000000 0.000576 0.000000
# 3 0.000771 -0.003922 0.014150 0.000000 0.007996 0.000000
# 4 0.000000 0.000000 0.000000 0.083522 0.000000 0.088913
# 5 0.007620 0.000576 0.007996 0.000000 0.035847 0.000000
# 6 0.000000 0.000000 0.000000 0.088913 0.000000 0.211037
#
#
# Mechanical properties :
#
#
# Convention : Reuss Voigt Hill
#
# Bulk Modulus (GPa) = 36.87111 54.05360 45.46235
# Shear Modulus (GPa) = 12.80980 28.11885 20.46433
#
# Velocity S-wave (km/s) = 2.56478 3.79995 3.24174
# Velocity P-wave (km/s) = 5.26354 6.85642 6.11209
#
# Compressibility (1/GPa) = 0.02712151
#
# Stress axis : x y z
#
# Youngs Moduli (GPa) = 67.97361 98.62618 70.67307
#
# Poissons Ratio (x) = 0.27506 -0.05452
# Poissons Ratio (y) = 0.18957 0.27718
# Poissons Ratio (z) = -0.05244 0.38682
#
# Static dielectric constant tensor:
#      x y z
#    x 3.100280 0.000000 0.010930 
#    y 0.000000 3.675160 0.000000 
#    z 0.010930 0.000000 3.534500 
# 
# 
# High freq. dielectric constant tensor:
#      x y z
#    x 1.758460 0.000000 -0.008260 
#    y 0.000000 1.766670 0.000000 
#    z -0.008260 0.000000 1.756650 
# 
# From -- ./inp_files/93087.got.cif
#   From: 2010.06.25/outbox.cif.g09.slc.cpg/sg12_47_cif.got.tgz:93087.got - 2010.06.28 00:19:55.
