data_PCOD8109039
_publ_section_title
;
Structure prediction by ZEFSAII (Michael W. Deem and Ramdas Pophale) SiO2 
 PCOD8109039
Probable space group: C 2/M
;
_chemical_formula_sum "Si O2"
_cell_formula_units_Z 64
_cell_length_a 15.228055
_cell_length_b 8.526172
_cell_length_c 33.148644
_cell_angle_alpha 90.000000
_cell_angle_beta 133.486859
_cell_angle_gamma 90.000000
_cell_volume 3122.633414
_symmetry_space_group_name_H-M "C 2/M"
_symmetry_group_IT_number 12
_symmetry_cell_setting 'monoclinic'
loop_
_space_group_symop_operation_xyz
x,y,z
-x,y,-z
-x,-y,-z
x,-y,z
1/2+x,1/2+y,z
1/2-x,1/2+y,-z
1/2-x,1/2-y,-z
1/2+x,1/2-y,z
loop_
_atom_site_type_symbol
_atom_site_label
_atom_site_fract_x
_atom_site_fract_y
_atom_site_fract_z
Si Si1 0.885099 0.827917 0.491969
Si Si2 0.022725 0.684112 0.687836
Si Si3 0.592217 0.818422 0.993742
Si Si4 0.684270 0.816505 0.891902
Si Si5 0.720447 0.185892 0.813406
Si Si6 0.063594 0.184791 0.613125
Si Si7 0.267518 0.681338 0.621233
Si Si8 0.988758 0.816958 0.881547
O O1 0.789876 0.710472 0.441360
O O2 0.000000 0.845462 0.500000
O O3 0.937115 0.763731 0.551155
O O4 0.823970 0.000000 0.477723
O O5 0.036686 0.500000 0.684758
O O6 0.890585 0.720784 0.663596
O O7 0.119140 0.748639 0.750749
O O8 0.051437 0.773125 0.655685
O O9 0.557937 0.711991 0.945168
O O10 0.586154 0.000000 0.979177
O O11 0.500000 0.776800 0.000000
O O12 0.726480 0.776649 0.050353
O O13 0.695282 0.748640 0.850218
O O14 0.549179 0.781223 0.864545
O O15 0.714427 0.000000 0.903241
O O16 0.851522 0.245434 0.840659
O O17 0.716419 0.000000 0.813782
O O18 0.178429 0.269972 0.629260
O O19 0.082791 0.000000 0.613324
O O20 0.299138 0.500000 0.635246
O O21 0.993474 0.000000 0.872714
#
# Coordination Sequence:
#
# PCOD8109039 Si02
#       8
#     8   8   8   8   8   8   8   8
#     4   8  16  33  57  84 117 154 192 239 294 352
#     4  11  23  41  62  86 117 155 202 250 297 350
#     4  11  22  37  60  92 124 154 192 236 287 345
#     4  11  22  40  63  89 119 155 195 236 290 347
#     4   9  22  42  62  83 114 154 198 245 294 345
#     4  10  21  39  61  88 120 155 196 243 298 356
#     4  11  22  37  59  89 121 156 197 241 296 357
#     4  11  22  40  63  89 119 154 194 238 292 347
#
# _framework density 20.495522000000001
#
# number of rings (size 3 to 8) (size 9 to 14) (size 15 to 20)
#    0.000    1.750    1.250    4.125    0.000    4.750 
#    0.000    7.500    0.000    0.000    0.000    0.000 
#    0.000    0.000    0.000    0.000    0.000    0.000 
#
# Total GULP energy -396867.156681 kJ/mol
# GULP energy per Si atom -12402.098646 kJ/mol
# Density = 2.044887 g / cm^3
# Si number density = 20.495522 Si / 1000 Ang^3
#
#
#
# Elastic Constant Matrix: (Units=GPa)
#
#
# Indices 1 2 3 4 5 6 
#
# 1 89.2840 11.9465 24.5633 0.0000 15.8414 0.0000
# 2 11.9465 49.5931 12.4407 0.0000 -0.7262 0.0000
# 3 24.5633 12.4407 105.4517 0.0000 16.3630 0.0000
# 4 0.0000 0.0000 0.0000 14.8567 0.0000 0.8830
# 5 15.8414 -0.7262 16.3630 0.0000 19.5100 0.0000
# 6 0.0000 0.0000 0.0000 0.8830 0.0000 32.3199
#
#
#
# Elastic Compliance Matrix: (Units=1/GPa)
#
#
# Indices 1 2 3 4 5 6 
#
# 1 0.013787 -0.003159 -0.001246 0.000000 -0.010268 0.000000
# 2 -0.003159 0.021684 -0.002697 0.000000 0.005634 0.000000
# 3 -0.001246 -0.002697 0.011439 0.000000 -0.008682 0.000000
# 4 0.000000 0.000000 0.000000 0.067419 0.000000 -0.001842
# 5 -0.010268 0.005634 -0.008682 0.000000 0.067085 0.000000
# 6 0.000000 0.000000 0.000000 -0.001842 0.000000 0.030991
#
#
# Mechanical properties :
#
#
# Convention : Reuss Voigt Hill
#
# Bulk Modulus (GPa) = 30.57405 38.02554 34.29980
# Shear Modulus (GPa) = 21.05176 26.36253 23.70714
#
# Velocity S-wave (km/s) = 3.20838 3.59033 3.40472
# Velocity P-wave (km/s) = 5.35488 5.98170 5.67695
#
# Compressibility (1/GPa) = 0.03270747
#
# Stress axis : x y z
#
# Youngs Moduli (GPa) = 72.52999 46.11685 87.42376
#
# Poissons Ratio (x) = 0.14569 0.10889
# Poissons Ratio (y) = 0.22913 0.23574
# Poissons Ratio (z) = 0.09034 0.12435
#
# Static dielectric constant tensor:
#      x y z
#    x 3.746920 0.000000 0.023770 
#    y 0.000000 3.540210 0.000000 
#    z 0.023770 0.000000 3.969100 
# 
# 
# High freq. dielectric constant tensor:
#      x y z
#    x 1.806360 0.000000 -0.000280 
#    y 0.000000 1.792570 0.000000 
#    z -0.000280 0.000000 1.799700 
# 
# From -- ./inp_files/375648.got.cif
#   From: 2010.06.25/outbox.cif.g09.slc.cpg/sg12_188_cif.got.tgz:375648.got - 2010.06.28 00:19:55.
