data_PCOD8109812
_publ_section_title
;
Structure prediction by ZEFSAII (Michael W. Deem and Ramdas Pophale) SiO2 
 PCOD8109812
Probable space group: C 2/M
;
_chemical_formula_sum "Si O2"
_cell_formula_units_Z 56
_cell_length_a 9.190109
_cell_length_b 17.221402
_cell_length_c 19.490659
_cell_angle_alpha 90.000000
_cell_angle_beta 118.032384
_cell_angle_gamma 90.000000
_cell_volume 2722.826767
_symmetry_space_group_name_H-M "C 2/M"
_symmetry_group_IT_number 12
_symmetry_cell_setting 'monoclinic'
loop_
_space_group_symop_operation_xyz
x,y,z
-x,y,-z
-x,-y,-z
x,-y,z
1/2+x,1/2+y,z
1/2-x,1/2+y,-z
1/2-x,1/2-y,-z
1/2+x,1/2-y,z
loop_
_atom_site_type_symbol
_atom_site_label
_atom_site_fract_x
_atom_site_fract_y
_atom_site_fract_z
Si Si1 0.306926 0.307328 0.454158
Si Si2 0.358288 0.214609 0.085039
Si Si3 0.029341 0.410591 0.426035
Si Si4 0.999372 0.089892 0.211096
Si Si5 0.738715 0.203972 0.684630
Si Si6 0.628130 0.412817 0.088594
Si Si7 0.766699 0.693670 0.825218
O O1 0.500000 0.323521 0.500000
O O2 0.250000 0.250000 0.500000
O O3 0.216992 0.390044 0.446725
O O4 0.249469 0.268291 0.371139
O O5 0.285168 0.138031 0.104260
O O6 0.361394 0.276587 0.145855
O O7 0.546330 0.195882 0.104742
O O8 0.250000 0.250000 0.000000
O O9 0.991417 0.500000 0.398311
O O10 0.000000 0.395319 0.500000
O O11 0.921093 0.350728 0.357695
O O12 0.109727 0.143973 0.284791
O O13 0.041350 0.110644 0.140710
O O14 0.808755 0.106095 0.193650
O O15 0.037462 0.000000 0.233881
O O16 0.736663 0.254027 0.752913
O O17 0.694193 0.500000 0.106457
O O18 0.500000 0.399591 0.000000
#
# Coordination Sequence:
#
# PCOD8109812 Si02
#       7
#     8   8   8   8   8   8   8
#     4  12  23  42  69  96 127 170 215 261 316 381
#     4  12  23  40  64  92 127 167 220 269 316 380
#     4  11  24  43  68  98 129 167 214 262 318 383
#     4  11  24  42  64  95 132 169 210 266 326 375
#     4  12  22  42  69  91 129 172 215 261 312 389
#     4  10  21  40  63  88 124 168 211 259 321 383
#     4  12  24  39  64  96 124 166 219 264 320 383
#
# _framework density 20.566862
#
# number of rings (size 3 to 8) (size 9 to 14) (size 15 to 20)
#    0.000    0.571    5.714    3.429    0.000    0.857 
#    0.000    0.714    0.000    4.286    0.000    0.000 
#    0.000    0.000    0.000    0.000    0.000    0.000 
#
# Total GULP energy -347033.979226 kJ/mol
# GULP energy per Si atom -12394.070687 kJ/mol
# Density = 2.052005 g / cm^3
# Si number density = 20.566862 Si / 1000 Ang^3
#
#
#
# Elastic Constant Matrix: (Units=GPa)
#
#
# Indices 1 2 3 4 5 6 
#
# 1 135.6465 55.8128 37.1920 0.0000 16.9644 0.0000
# 2 55.8128 108.9826 43.1649 0.0000 0.2565 0.0000
# 3 37.1920 43.1649 105.3749 0.0000 5.7910 0.0000
# 4 0.0000 0.0000 0.0000 18.3026 0.0000 -2.3994
# 5 16.9644 0.2565 5.7910 0.0000 21.7745 0.0000
# 6 0.0000 0.0000 0.0000 -2.3994 0.0000 38.9990
#
#
#
# Elastic Compliance Matrix: (Units=1/GPa)
#
#
# Indices 1 2 3 4 5 6 
#
# 1 0.010784 -0.004978 -0.001328 0.000000 -0.007990 0.000000
# 2 -0.004978 0.013276 -0.003943 0.000000 0.004770 0.000000
# 3 -0.001328 -0.003943 0.011685 0.000000 -0.002027 0.000000
# 4 0.000000 0.000000 0.000000 0.055081 0.000000 0.003389
# 5 -0.007990 0.004770 -0.002027 0.000000 0.052633 0.000000
# 6 0.000000 0.000000 0.000000 0.003389 0.000000 0.025850
#
#
# Mechanical properties :
#
#
# Convention : Reuss Voigt Hill
#
# Bulk Modulus (GPa) = 65.58938 69.14925 67.36932
# Shear Modulus (GPa) = 25.65563 30.07085 27.86324
#
# Velocity S-wave (km/s) = 3.53572 3.82789 3.68470
# Velocity P-wave (km/s) = 6.97341 7.29601 7.13653
#
# Compressibility (1/GPa) = 0.01524637
#
# Stress axis : x y z
#
# Youngs Moduli (GPa) = 92.73404 75.32583 85.57734
#
# Poissons Ratio (x) = 0.37495 0.11364
# Poissons Ratio (y) = 0.46161 0.33747
# Poissons Ratio (z) = 0.12314 0.29704
#
# Static dielectric constant tensor:
#      x y z
#    x 3.778530 0.000000 0.123950 
#    y 0.000000 3.898340 0.000000 
#    z 0.123950 0.000000 3.704460 
# 
# 
# High freq. dielectric constant tensor:
#      x y z
#    x 1.806650 0.000000 0.002090 
#    y 0.000000 1.809670 0.000000 
#    z 0.002090 0.000000 1.809890 
# 
# From -- ./inp_files/257215.got.cif
#   From: 2010.06.25/outbox.cif.g09.slc.cpg/sg12_129_cif.got.tgz:257215.got - 2010.06.28 00:19:55.
