data_PCOD8109945
_publ_section_title
;
Structure prediction by ZEFSAII (Michael W. Deem and Ramdas Pophale) SiO2 
 PCOD8109945
Probable space group: C 2/M
;
_chemical_formula_sum "Si O2"
_cell_formula_units_Z 48
_cell_length_a 17.996298
_cell_length_b 10.842563
_cell_length_c 22.215268
_cell_angle_alpha 90.000000
_cell_angle_beta 33.439327
_cell_angle_gamma 90.000000
_cell_volume 2388.694233
_symmetry_space_group_name_H-M "C 2/M"
_symmetry_group_IT_number 12
_symmetry_cell_setting 'monoclinic'
loop_
_space_group_symop_operation_xyz
x,y,z
-x,y,-z
-x,-y,-z
x,-y,z
1/2+x,1/2+y,z
1/2-x,1/2+y,-z
1/2-x,1/2-y,-z
1/2+x,1/2-y,z
loop_
_atom_site_type_symbol
_atom_site_label
_atom_site_fract_x
_atom_site_fract_y
_atom_site_fract_z
Si Si1 0.934149 0.860009 0.867265
Si Si2 0.476609 0.500000 0.426605
Si Si3 0.637563 0.751003 0.525765
Si Si4 0.191857 0.641835 0.119044
Si Si5 0.283195 0.738711 0.302017
Si Si6 0.862863 0.362804 0.711230
Si Si7 0.271751 0.500000 0.674013
O O1 0.908918 0.749293 0.836756
O O2 0.086158 0.847304 0.788908
O O3 0.916836 0.000000 0.852058
O O4 0.835798 0.842335 0.990208
O O5 0.437218 0.620821 0.416353
O O6 0.389636 0.500000 0.545551
O O7 0.639257 0.500000 0.325030
O O8 0.750000 0.750000 0.500000
O O9 0.700514 0.783222 0.418695
O O10 0.523070 0.852490 0.615332
O O11 0.136472 0.500000 0.146642
O O12 0.214613 0.667825 0.174236
O O13 0.185030 0.720810 0.311504
O O14 0.325691 0.882441 0.267949
O O15 0.829102 0.500000 0.713478
#
# Coordination Sequence:
#
# PCOD8109945 Si02
#       7
#     8   4   8   8   8   8   4
#     4  10  21  40  65  91 118 152 199 248 294 346
#     4   9  18  38  58  77 111 155 201 231 286 353
#     4  11  23  38  57  86 118 155 194 244 292 353
#     4   9  21  42  64  86 119 160 196 239 296 358
#     4  11  22  38  59  87 119 157 196 244 297 351
#     4  11  23  39  58  85 119 156 195 239 297 354
#     4   9  18  36  60  80 111 158 200 232 291 357
#
# _framework density 20.094660000000001
#
# number of rings (size 3 to 8) (size 9 to 14) (size 15 to 20)
#    0.000    1.833    1.667    2.000    2.333    2.667 
#    6.000    2.500    0.000    1.000    0.000    0.000 
#    0.000    0.000    0.000    0.000    0.000    0.000 
#
# Total GULP energy -297467.625194 kJ/mol
# GULP energy per Si atom -12394.484383 kJ/mol
# Density = 2.004892 g / cm^3
# Si number density = 20.094660 Si / 1000 Ang^3
#
#
#
# Elastic Constant Matrix: (Units=GPa)
#
#
# Indices 1 2 3 4 5 6 
#
# 1 88.7744 37.6755 27.2297 -0.0005 16.3513 0.0001
# 2 37.6755 111.9488 34.7877 -0.0003 9.8473 0.0001
# 3 27.2297 34.7877 62.1226 -0.0010 5.0450 0.0002
# 4 -0.0005 -0.0003 -0.0010 28.8623 0.0003 -3.6353
# 5 16.3513 9.8473 5.0450 0.0003 30.3345 -0.0001
# 6 0.0001 0.0001 0.0002 -3.6353 -0.0001 30.3099
#
#
#
# Elastic Compliance Matrix: (Units=1/GPa)
#
#
# Indices 1 2 3 4 5 6 
#
# 1 0.015120 -0.003181 -0.004326 0.000000 -0.006398 0.000000
# 2 -0.003181 0.011680 -0.005046 0.000000 -0.001238 0.000000
# 3 -0.004326 -0.005046 0.020777 0.000001 0.000514 0.000000
# 4 0.000000 0.000000 0.000001 0.035179 0.000000 0.004219
# 5 -0.006398 -0.001238 0.000514 0.000000 0.036731 0.000000
# 6 0.000000 0.000000 0.000000 0.004219 0.000000 0.033499
#
#
# Mechanical properties :
#
#
# Convention : Reuss Voigt Hill
#
# Bulk Modulus (GPa) = 44.50260 51.35907 47.93084
# Shear Modulus (GPa) = 26.94217 28.77819 27.86018
#
# Velocity S-wave (km/s) = 3.66562 3.78846 3.72754
# Velocity P-wave (km/s) = 6.33326 6.68959 6.51386
#
# Compressibility (1/GPa) = 0.02247060
#
# Stress axis : x y z
#
# Youngs Moduli (GPa) = 66.13691 85.61557 48.12950
#
# Poissons Ratio (x) = 0.27238 0.20823
# Poissons Ratio (y) = 0.21041 0.24285
# Poissons Ratio (z) = 0.28613 0.43199
#
# Static dielectric constant tensor:
#      x y z
#    x 3.467800 0.000000 0.041770 
#    y 0.000000 4.047030 0.000000 
#    z 0.041770 0.000000 3.474020 
# 
# 
# High freq. dielectric constant tensor:
#      x y z
#    x 1.773950 0.000000 0.001520 
#    y 0.000000 1.802570 0.000000 
#    z 0.001520 0.000000 1.770560 
# 
# From -- ./inp_files/310226.got.cif
#   From: 2010.06.25/outbox.cif.g09.slc.cpg/sg12_156_cif.got.tgz:310226.got - 2010.06.28 00:19:55.
