data_PCOD8109811
_publ_section_title
;
Structure prediction by ZEFSAII (Michael W. Deem and Ramdas Pophale) SiO2 
 PCOD8109811
Probable space group: C 2/M
;
_chemical_formula_sum "Si O2"
_cell_formula_units_Z 64
_cell_length_a 30.170802
_cell_length_b 8.532111
_cell_length_c 16.185639
_cell_angle_alpha 90.000000
_cell_angle_beta 132.836879
_cell_angle_gamma 90.000000
_cell_volume 3055.275485
_symmetry_space_group_name_H-M "C 2/M"
_symmetry_group_IT_number 12
_symmetry_cell_setting 'monoclinic'
loop_
_space_group_symop_operation_xyz
x,y,z
-x,y,-z
-x,-y,-z
x,-y,z
1/2+x,1/2+y,z
1/2-x,1/2+y,-z
1/2-x,1/2-y,-z
1/2+x,1/2-y,z
loop_
_atom_site_type_symbol
_atom_site_label
_atom_site_fract_x
_atom_site_fract_y
_atom_site_fract_z
Si Si1 0.699940 0.818462 0.074956
Si Si2 0.884417 0.179252 0.492477
Si Si3 0.664358 0.317368 0.194070
Si Si4 0.262890 0.321094 0.428159
Si Si5 0.956518 0.814063 0.873751
Si Si6 0.621298 0.316469 0.837538
Si Si7 0.492524 0.686156 0.740916
Si Si8 0.169711 0.681120 0.736775
O O1 0.658205 0.774660 0.100217
O O2 0.769440 0.782662 0.183358
O O3 0.692833 0.000000 0.045038
O O4 0.678143 0.720250 0.968305
O O5 0.833712 0.190223 0.499266
O O6 0.868245 0.284175 0.393557
O O7 0.945798 0.244959 0.611595
O O8 0.891783 0.000000 0.471761
O O9 0.659766 0.500000 0.167117
O O10 0.728508 0.279837 0.315948
O O11 0.611754 0.264359 0.190106
O O12 0.240105 0.500000 0.395848
O O13 0.250000 0.250000 0.500000
O O14 0.974754 0.742181 0.807944
O O15 0.962935 0.000000 0.878343
O O16 0.000000 0.745575 0.000000
O O17 0.619563 0.500000 0.815893
O O18 0.559647 0.257902 0.802592
O O19 0.627413 0.223223 0.760190
O O20 0.488494 0.500000 0.740824
O O21 0.188017 0.500000 0.761859
#
# Coordination Sequence:
#
# PCOD8109811 Si02
#       8
#     8   8   8   8   8   8   8   8
#     4  12  24  41  63  91 127 162 203 255 312 376
#     4  10  21  40  63  88 122 165 209 256 304 362
#     4  11  21  35  60  91 122 157 202 252 307 364
#     4  11  22  36  58  86 121 160 203 251 302 359
#     4   9  17  32  57  90 124 160 205 253 299 358
#     4  11  23  41  66  93 121 159 207 258 310 368
#     4   9  19  37  62  91 123 163 211 256 302 362
#     4  12  25  42  64  91 123 160 204 257 318 375
#
# _framework density 20.947374
#
# number of rings (size 3 to 8) (size 9 to 14) (size 15 to 20)
#    0.000    1.375    1.250    5.250    0.000    5.000 
#    0.000    3.750    0.000    9.750    0.000    0.000 
#    0.000    0.000    0.000    0.000    0.000    0.000 
#
# Total GULP energy -396961.700626 kJ/mol
# GULP energy per Si atom -12405.053145 kJ/mol
# Density = 2.089970 g / cm^3
# Si number density = 20.947374 Si / 1000 Ang^3
#
#
#
# Elastic Constant Matrix: (Units=GPa)
#
#
# Indices 1 2 3 4 5 6 
#
# 1 114.4728 23.4539 42.3594 0.0000 -12.2364 0.0000
# 2 23.4539 57.2180 14.5481 0.0000 -2.9419 0.0000
# 3 42.3594 14.5481 125.2476 0.0000 -6.2816 0.0000
# 4 0.0000 0.0000 0.0000 28.6688 0.0000 -5.8509
# 5 -12.2364 -2.9419 -6.2816 0.0000 41.0863 0.0000
# 6 0.0000 0.0000 0.0000 -5.8509 0.0000 27.0300
#
#
#
# Elastic Compliance Matrix: (Units=1/GPa)
#
#
# Indices 1 2 3 4 5 6 
#
# 1 0.010893 -0.003536 -0.003148 0.000000 0.002510 0.000000
# 2 -0.003536 0.019196 -0.001026 0.000000 0.000165 0.000000
# 3 -0.003148 -0.001026 0.009188 0.000000 0.000394 0.000000
# 4 0.000000 0.000000 0.000000 0.036493 0.000000 0.007899
# 5 0.002510 0.000165 0.000394 0.000000 0.025158 0.000000
# 6 0.000000 0.000000 0.000000 0.007899 0.000000 0.038706
#
#
# Mechanical properties :
#
#
# Convention : Reuss Voigt Hill
#
# Bulk Modulus (GPa) = 41.91387 50.85124 46.38256
# Shear Modulus (GPa) = 30.67402 33.79550 32.23476
#
# Velocity S-wave (km/s) = 3.83082 4.02101 3.92707
# Velocity P-wave (km/s) = 6.29440 6.77396 6.53858
#
# Compressibility (1/GPa) = 0.02385845
#
# Stress axis : x y z
#
# Youngs Moduli (GPa) = 91.80092 52.09532 108.84265
#
# Poissons Ratio (x) = 0.18420 0.34259
# Poissons Ratio (y) = 0.32459 0.11163
# Poissons Ratio (z) = 0.28895 0.05343
#
# Static dielectric constant tensor:
#      x y z
#    x 3.905370 0.000000 -0.047910 
#    y 0.000000 3.557400 0.000000 
#    z -0.047910 0.000000 3.895840 
# 
# 
# High freq. dielectric constant tensor:
#      x y z
#    x 1.830030 0.000000 -0.006380 
#    y 0.000000 1.794400 0.000000 
#    z -0.006380 0.000000 1.828310 
# 
# From -- ./inp_files/250006.got.cif
#   From: 2010.06.25/outbox.cif.g09.slc.cpg/sg12_126_cif.got.tgz:250006.got - 2010.06.28 00:19:55.
