data_PCOD8109459
_publ_section_title
;
Structure prediction by ZEFSAII (Michael W. Deem and Ramdas Pophale) SiO2 
 PCOD8109459
Probable space group: C 2/M
;
_chemical_formula_sum "Si O2"
_cell_formula_units_Z 56
_cell_length_a 25.309408
_cell_length_b 8.641130
_cell_length_c 13.709268
_cell_angle_alpha 90.000000
_cell_angle_beta 67.188934
_cell_angle_gamma 90.000000
_cell_volume 2763.745059
_symmetry_space_group_name_H-M "C 2/M"
_symmetry_group_IT_number 12
_symmetry_cell_setting 'monoclinic'
loop_
_space_group_symop_operation_xyz
x,y,z
-x,y,-z
-x,-y,-z
x,-y,z
1/2+x,1/2+y,z
1/2-x,1/2+y,-z
1/2-x,1/2-y,-z
1/2+x,1/2-y,z
loop_
_atom_site_type_symbol
_atom_site_label
_atom_site_fract_x
_atom_site_fract_y
_atom_site_fract_z
Si Si1 0.238359 0.816452 0.113828
Si Si2 0.308803 0.823552 0.427130
Si Si3 0.834290 0.324248 0.186902
Si Si4 0.125013 0.320532 0.285538
Si Si5 0.501463 0.180583 0.296378
Si Si6 0.404416 0.681044 0.486261
Si Si7 0.539709 0.185011 0.884698
O O1 0.288698 0.745713 0.146517
O O2 0.176684 0.770446 0.199080
O O3 0.241163 0.000000 0.109281
O O4 0.250000 0.750000 0.000000
O O5 0.250000 0.750000 0.500000
O O6 0.308176 0.814708 0.312134
O O7 0.361130 0.724774 0.430982
O O8 0.314123 0.000000 0.460203
O O9 0.842901 0.500000 0.146934
O O10 0.897025 0.244913 0.140311
O O11 0.140914 0.500000 0.274426
O O12 0.068665 0.287786 0.261536
O O13 0.114516 0.268391 0.403166
O O14 0.467754 0.269791 0.406168
O O15 0.483588 0.244911 0.202808
O O16 0.486288 0.000000 0.317614
O O17 0.402841 0.500000 0.508461
O O18 0.540850 0.000000 0.881040
O O19 0.500000 0.247658 0.000000
#
# Coordination Sequence:
#
# PCOD8109459 Si02
#       7
#     8   8   8   8   8   8   8
#     4  11  24  42  64  92 126 166 209 255 308 372
#     4  11  21  37  61  90 123 161 206 259 310 366
#     4   9  19  36  60  87 118 154 202 252 300 356
#     4  11  24  41  64  92 123 163 212 264 313 370
#     4  10  21  39  64  93 122 158 208 261 316 375
#     4  12  24  39  60  90 128 168 205 249 315 386
#     4   9  17  32  61  93 117 148 196 256 309 360
#
# _framework density 20.262360000000001
#
# number of rings (size 3 to 8) (size 9 to 14) (size 15 to 20)
#    0.000    1.571    1.429    3.857    2.000    4.000 
#    0.000    2.143    0.000    0.429    0.000    0.000 
#    0.000    0.000    0.000    0.000    0.000    0.000 
#
# Total GULP energy -347251.257663 kJ/mol
# GULP energy per Si atom -12401.830631 kJ/mol
# Density = 2.021624 g / cm^3
# Si number density = 20.262360 Si / 1000 Ang^3
#
#
#
# Elastic Constant Matrix: (Units=GPa)
#
#
# Indices 1 2 3 4 5 6 
#
# 1 150.4100 36.2617 66.0665 0.0000 1.6051 0.0000
# 2 36.2617 50.9952 24.9841 0.0000 -0.3184 0.0000
# 3 66.0665 24.9841 134.8842 0.0000 -5.5570 0.0000
# 4 0.0000 0.0000 0.0000 28.8197 0.0000 -5.0927
# 5 1.6051 -0.3184 -5.5570 0.0000 38.3113 0.0000
# 6 0.0000 0.0000 0.0000 -5.0927 0.0000 29.2332
#
#
#
# Elastic Compliance Matrix: (Units=1/GPa)
#
#
# Indices 1 2 3 4 5 6 
#
# 1 0.009507 -0.004910 -0.003787 0.000000 -0.000988 0.000000
# 2 -0.004910 0.024109 -0.002056 0.000000 0.000108 0.000000
# 3 -0.003787 -0.002056 0.009714 0.000000 0.001551 0.000000
# 4 0.000000 0.000000 0.000000 0.035801 0.000000 0.006237
# 5 -0.000988 0.000108 0.001551 0.000000 0.026369 0.000000
# 6 0.000000 0.000000 0.000000 0.006237 0.000000 0.035294
#
#
# Mechanical properties :
#
#
# Convention : Reuss Voigt Hill
#
# Bulk Modulus (GPa) = 45.82641 65.65709 55.74175
# Shear Modulus (GPa) = 29.48540 33.20465 31.34503
#
# Velocity S-wave (km/s) = 3.81882 4.05252 3.93741
# Velocity P-wave (km/s) = 6.48923 7.37367 6.94555
#
# Compressibility (1/GPa) = 0.02182148
#
# Stress axis : x y z
#
# Youngs Moduli (GPa) = 105.19113 41.47748 102.94844
#
# Poissons Ratio (x) = 0.20367 0.38991
# Poissons Ratio (y) = 0.51654 0.21167
# Poissons Ratio (z) = 0.39841 0.08528
#
# Static dielectric constant tensor:
#      x y z
#    x 17.706410 0.000000 -5.294090 
#    y 0.000000 3.395470 0.000000 
#    z -5.294090 0.000000 5.829340 
# 
# 
# High freq. dielectric constant tensor:
#      x y z
#    x 1.812370 0.000000 -0.000500 
#    y 0.000000 1.762590 0.000000 
#    z -0.000500 0.000000 1.801400 
# 
# From -- ./inp_files/180835.got.cif
#   From: 2010.06.25/outbox.cif.g09.slc.cpg/sg12_91_cif.got.tgz:180835.got - 2010.06.28 00:19:55.
