data_PCOD8109280
_publ_section_title
;
Structure prediction by ZEFSAII (Michael W. Deem and Ramdas Pophale) SiO2 
 PCOD8109280
Probable space group: C 2/M
;
_chemical_formula_sum "Si O2"
_cell_formula_units_Z 56
_cell_length_a 9.628890
_cell_length_b 27.903715
_cell_length_c 11.803317
_cell_angle_alpha 90.000000
_cell_angle_beta 122.048354
_cell_angle_gamma 90.000000
_cell_volume 2688.026631
_symmetry_space_group_name_H-M "C 2/M"
_symmetry_group_IT_number 12
_symmetry_cell_setting 'monoclinic'
loop_
_space_group_symop_operation_xyz
x,y,z
-x,y,-z
-x,-y,-z
x,-y,z
1/2+x,1/2+y,z
1/2-x,1/2+y,-z
1/2-x,1/2-y,-z
1/2+x,1/2-y,z
loop_
_atom_site_type_symbol
_atom_site_label
_atom_site_fract_x
_atom_site_fract_y
_atom_site_fract_z
Si Si1 0.306302 0.726573 0.910330
Si Si2 0.099980 0.790240 0.655058
Si Si3 0.170101 0.632985 0.764612
Si Si4 0.305173 0.874427 0.662325
Si Si5 0.170629 0.944574 0.782079
Si Si6 0.617159 0.627787 0.358831
Si Si7 0.823029 0.946155 0.956999
O O1 0.193611 0.747286 0.758885
O O2 0.268437 0.670133 0.887703
O O3 0.500000 0.736104 0.000000
O O4 0.250000 0.750000 0.000000
O O5 0.248595 0.825180 0.692407
O O6 0.000000 0.771552 0.500000
O O7 0.974404 0.820480 0.679694
O O8 0.235905 0.633593 0.665522
O O9 0.188558 0.580945 0.826449
O O10 0.977040 0.639994 0.682484
O O11 0.296607 0.917547 0.751236
O O12 0.181534 0.887584 0.509107
O O13 0.999579 0.916616 0.719349
O O14 0.146287 0.000000 0.732238
O O15 0.235896 0.943186 0.938438
O O16 0.822443 0.000000 0.911967
O O17 0.000000 0.923515 0.000000
#
# Coordination Sequence:
#
# PCOD8109280 Si02
#       7
#     8   8   8   8   8   8   8
#     4  12  26  41  64  98 129 165 216 271 322 369
#     4   9  21  44  65  87 125 175 216 255 312 387
#     4  12  24  39  61  92 131 164 202 262 322 375
#     4  10  23  39  61  93 125 163 207 263 314 373
#     4  10  21  40  66  90 120 163 213 260 313 379
#     4  10  21  40  65  89 124 166 215 253 310 381
#     4  10  21  39  63  89 119 163 208 249 311 389
#
# _framework density 20.833126
#
# number of rings (size 3 to 8) (size 9 to 14) (size 15 to 20)
#    0.000    1.571    1.429    3.857    4.000    3.429 
#    0.000    5.000    0.000    2.571    0.000    0.000 
#    0.000    0.000    0.000    0.000    0.000    0.000 
#
# Total GULP energy -347010.522411 kJ/mol
# GULP energy per Si atom -12393.232943 kJ/mol
# Density = 2.078571 g / cm^3
# Si number density = 20.833126 Si / 1000 Ang^3
#
#
#
# Elastic Constant Matrix: (Units=GPa)
#
#
# Indices 1 2 3 4 5 6 
#
# 1 145.6915 29.4797 22.4024 0.0000 -6.1701 0.0000
# 2 29.4797 75.2441 32.5471 0.0000 1.8867 0.0000
# 3 22.4024 32.5471 69.0916 0.0000 3.0082 0.0000
# 4 0.0000 0.0000 0.0000 29.4605 0.0000 -2.4381
# 5 -6.1701 1.8867 3.0082 0.0000 31.5169 0.0000
# 6 0.0000 0.0000 0.0000 -2.4381 0.0000 13.3779
#
#
#
# Elastic Compliance Matrix: (Units=1/GPa)
#
#
# Indices 1 2 3 4 5 6 
#
# 1 0.007648 -0.002430 -0.001412 0.000000 0.001778 0.000000
# 2 -0.002430 0.017465 -0.007404 0.000000 -0.000815 0.000000
# 3 -0.001412 -0.007404 0.018489 0.000000 -0.001598 0.000000
# 4 0.000000 0.000000 0.000000 0.034464 0.000000 0.006281
# 5 0.001778 -0.000815 -0.001598 0.000000 0.032278 0.000000
# 6 0.000000 0.000000 0.000000 0.006281 0.000000 0.075895
#
#
# Mechanical properties :
#
#
# Convention : Reuss Voigt Hill
#
# Bulk Modulus (GPa) = 47.37280 50.98727 49.18003
# Shear Modulus (GPa) = 23.17303 28.57759 25.87531
#
# Velocity S-wave (km/s) = 3.33876 3.70772 3.52806
# Velocity P-wave (km/s) = 6.13609 6.54651 6.34462
#
# Compressibility (1/GPa) = 0.02110916
#
# Stress axis : x y z
#
# Youngs Moduli (GPa) = 130.75352 57.25690 54.08647
#
# Poissons Ratio (x) = 0.13913 0.07640
# Poissons Ratio (y) = 0.31773 0.40045
# Poissons Ratio (z) = 0.18469 0.42393
#
# Static dielectric constant tensor:
#      x y z
#    x 4.229530 0.000000 0.031770 
#    y 0.000000 3.811610 0.000000 
#    z 0.031770 0.000000 3.840910 
# 
# 
# High freq. dielectric constant tensor:
#      x y z
#    x 1.823340 0.000000 -0.008610 
#    y 0.000000 1.816490 0.000000 
#    z -0.008610 0.000000 1.814030 
# 
# From -- ./inp_files/124374.got.cif
#   From: 2010.06.25/outbox.cif.g09.slc.cpg/sg12_63_cif.got.tgz:124374.got - 2010.06.28 00:19:55.
