data_PCOD8109213
_publ_section_title
;
Structure prediction by ZEFSAII (Michael W. Deem and Ramdas Pophale) SiO2 
 PCOD8109213
Probable space group: C 2/M
;
_chemical_formula_sum "Si O2"
_cell_formula_units_Z 48
_cell_length_a 16.792167
_cell_length_b 29.949179
_cell_length_c 9.282791
_cell_angle_alpha 90.000000
_cell_angle_beta 149.336084
_cell_angle_gamma 90.000000
_cell_volume 2380.901988
_symmetry_space_group_name_H-M "C 2/M"
_symmetry_group_IT_number 12
_symmetry_cell_setting 'monoclinic'
loop_
_space_group_symop_operation_xyz
x,y,z
-x,y,-z
-x,-y,-z
x,-y,z
1/2+x,1/2+y,z
1/2-x,1/2+y,-z
1/2-x,1/2-y,-z
1/2+x,1/2-y,z
loop_
_atom_site_type_symbol
_atom_site_label
_atom_site_fract_x
_atom_site_fract_y
_atom_site_fract_z
Si Si1 0.360402 0.500000 0.886694
Si Si2 0.047722 0.166165 0.410453
Si Si3 0.530960 0.088706 0.381632
Si Si4 0.432870 0.253850 0.753475
Si Si5 0.459788 0.000000 0.767020
Si Si6 0.091146 0.658138 0.006861
Si Si7 0.116190 0.903748 0.046072
O O1 0.221740 0.500000 0.554380
O O2 0.369073 0.454720 0.995271
O O3 0.500000 0.500000 0.000000
O O4 0.017007 0.215620 0.301938
O O5 0.000000 0.166253 0.500000
O O6 0.229361 0.157667 0.669141
O O7 0.942449 0.128953 0.169121
O O8 0.500000 0.078912 0.500000
O O9 0.423401 0.129083 0.159871
O O10 0.707504 0.106473 0.628431
O O11 0.474998 0.045003 0.205823
O O12 0.250000 0.250000 0.500000
O O13 0.519025 0.206781 0.864275
O O14 0.500000 0.277922 0.000000
O O15 0.500000 0.000000 0.000000
O O16 0.000000 0.635883 0.000000
O O17 0.000000 0.900448 0.000000
#
# Coordination Sequence:
#
# PCOD8109213 Si02
#       7
#     4   8   8   8   4   8   8
#     4   8  18  37  59  91 117 152 212 246 290 353
#     4  12  25  40  61  94 126 157 203 259 311 359
#     4  11  23  39  61  92 127 162 203 256 311 357
#     4  11  23  44  66  89 119 163 207 251 303 370
#     4  10  21  39  62  91 123 166 207 252 298 365
#     4  11  23  41  62  89 122 159 211 251 299 373
#     4  10  21  39  65  87 120 168 206 247 298 373
#
# _framework density 20.160426999999999
#
# number of rings (size 3 to 8) (size 9 to 14) (size 15 to 20)
#    0.000    1.333    3.333    3.250    2.333    4.000 
#    0.000    0.417    0.000    0.000    0.000    0.000 
#    0.000    0.000    0.000    0.000    0.000    0.000 
#
# Total GULP energy -297405.797946 kJ/mol
# GULP energy per Si atom -12391.908248 kJ/mol
# Density = 2.011454 g / cm^3
# Si number density = 20.160427 Si / 1000 Ang^3
#
#
#
# Elastic Constant Matrix: (Units=GPa)
#
#
# Indices 1 2 3 4 5 6 
#
# 1 98.4525 30.2840 31.7526 0.0000 -24.1656 0.0000
# 2 30.2840 125.8113 58.1436 0.0000 -24.5889 0.0000
# 3 31.7526 58.1436 97.2221 0.0000 -8.1242 0.0000
# 4 0.0000 0.0000 0.0000 40.2067 0.0000 -9.2994
# 5 -24.1656 -24.5889 -8.1242 0.0000 43.7897 0.0000
# 6 0.0000 0.0000 0.0000 -9.2994 0.0000 23.0650
#
#
#
# Elastic Compliance Matrix: (Units=1/GPa)
#
#
# Indices 1 2 3 4 5 6 
#
# 1 0.012933 -0.000229 -0.003557 0.000000 0.006349 0.000000
# 2 -0.000229 0.012198 -0.006763 0.000000 0.005468 0.000000
# 3 -0.003557 -0.006763 0.015247 0.000000 -0.002932 0.000000
# 4 0.000000 0.000000 0.000000 0.027429 0.000000 0.011059
# 5 0.006349 0.005468 -0.002932 0.000000 0.028867 0.000000
# 6 0.000000 0.000000 0.000000 0.011059 0.000000 0.047814
#
#
# Mechanical properties :
#
#
# Convention : Reuss Voigt Hill
#
# Bulk Modulus (GPa) = 51.86480 62.42738 57.14609
# Shear Modulus (GPa) = 29.06763 34.83267 31.95015
#
# Velocity S-wave (km/s) = 3.80124 4.16116 3.98527
# Velocity P-wave (km/s) = 6.71177 7.35660 7.04157
#
# Compressibility (1/GPa) = 0.01928090
#
# Stress axis : x y z
#
# Youngs Moduli (GPa) = 77.32199 81.98157 65.58600
#
# Poissons Ratio (x) = 0.01873 0.23327
# Poissons Ratio (y) = 0.01767 0.44358
# Poissons Ratio (z) = 0.27501 0.55447
#
# Static dielectric constant tensor:
#      x y z
#    x 3.572620 0.000000 0.101010 
#    y 0.000000 3.830140 0.000000 
#    z 0.101010 0.000000 3.833040 
# 
# 
# High freq. dielectric constant tensor:
#      x y z
#    x 1.775910 0.000000 0.009360 
#    y 0.000000 1.800550 0.000000 
#    z 0.009360 0.000000 1.795820 
# 
# From -- ./inp_files/80887.got.cif
#   From: 2010.06.25/outbox.cif.g09.slc.cpg/sg12_41_cif.got.tgz:80887.got - 2010.06.28 00:19:55.
