data_PCOD8109609
_publ_section_title
;
Structure prediction by ZEFSAII (Michael W. Deem and Ramdas Pophale) SiO2 
 PCOD8109609
Probable space group: C 2/M
;
_chemical_formula_sum "Si O2"
_cell_formula_units_Z 64
_cell_length_a 11.863156
_cell_length_b 23.492712
_cell_length_c 11.131984
_cell_angle_alpha 90.000000
_cell_angle_beta 73.412784
_cell_angle_gamma 90.000000
_cell_volume 2973.353627
_symmetry_space_group_name_H-M "C 2/M"
_symmetry_group_IT_number 12
_symmetry_cell_setting 'monoclinic'
loop_
_space_group_symop_operation_xyz
x,y,z
-x,y,-z
-x,-y,-z
x,-y,z
1/2+x,1/2+y,z
1/2-x,1/2+y,-z
1/2-x,1/2-y,-z
1/2+x,1/2-y,z
loop_
_atom_site_type_symbol
_atom_site_label
_atom_site_fract_x
_atom_site_fract_y
_atom_site_fract_z
Si Si1 0.265390 0.151429 0.155749
Si Si2 0.237776 0.145787 0.886728
Si Si3 0.651909 0.063937 0.293300
Si Si4 0.839733 0.636001 0.470912
Si Si5 0.919074 0.757608 0.133622
Si Si6 0.598172 0.063006 0.748910
Si Si7 0.375114 0.684083 0.587287
Si Si8 0.948168 0.289994 0.696136
O O1 0.308408 0.215547 0.164739
O O2 0.370145 0.106806 0.153554
O O3 0.157605 0.147047 0.283437
O O4 0.222910 0.141987 0.033987
O O5 0.240534 0.082500 0.826999
O O6 0.125084 0.178263 0.870033
O O7 0.359404 0.175496 0.808404
O O8 0.644894 0.113194 0.398141
O O9 0.538319 0.065150 0.243232
O O10 0.671528 0.000000 0.339419
O O11 0.827146 0.579971 0.391819
O O12 0.723900 0.674952 0.486306
O O13 0.956739 0.668689 0.393253
O O14 0.986099 0.755542 0.239253
O O15 0.000000 0.737827 0.000000
O O16 0.635070 0.000000 0.779441
O O17 0.500000 0.661806 0.500000
O O18 0.383122 0.752544 0.613015
#
# Coordination Sequence:
#
# PCOD8109609 Si02
#       8
#     8   8   8   8   8   8   8   8
#     4  11  22  43  61  96 136 172 215 271 320 392
#     4  12  24  40  65  98 132 173 217 262 333 389
#     4  11  25  43  66  97 131 171 222 272 329 391
#     4  11  23  42  63  95 133 174 216 272 323 389
#     4  12  22  38  65  95 135 179 216 257 325 400
#     4  10  21  39  66  95 126 172 217 268 328 380
#     4  11  26  41  63  96 135 170 218 260 326 391
#     4  12  22  38  63  98 137 173 209 265 321 398
#
# _framework density 21.524518
#
# number of rings (size 3 to 8) (size 9 to 14) (size 15 to 20)
#    0.000    0.750    6.250    1.875    3.500    2.000 
#    0.000    1.250    0.000    9.750    0.000    0.000 
#    0.000    0.000    0.000    0.000    0.000    0.000 
#
# Total GULP energy -396636.810512 kJ/mol
# GULP energy per Si atom -12394.900329 kJ/mol
# Density = 2.147553 g / cm^3
# Si number density = 21.524518 Si / 1000 Ang^3
#
#
#
# Elastic Constant Matrix: (Units=GPa)
#
#
# Indices 1 2 3 4 5 6 
#
# 1 73.7693 37.8244 48.1000 0.0000 2.0399 0.0000
# 2 37.8244 98.8462 37.5789 0.0000 1.3659 0.0000
# 3 48.1000 37.5789 114.6032 0.0000 -3.2760 0.0000
# 4 0.0000 0.0000 0.0000 23.4815 0.0000 3.3794
# 5 2.0399 1.3659 -3.2760 0.0000 29.2001 0.0000
# 6 0.0000 0.0000 0.0000 3.3794 0.0000 27.8464
#
#
#
# Elastic Compliance Matrix: (Units=1/GPa)
#
#
# Indices 1 2 3 4 5 6 
#
# 1 0.020968 -0.005287 -0.007124 0.000000 -0.002017 0.000000
# 2 -0.005287 0.012918 -0.002030 0.000000 -0.000463 0.000000
# 3 -0.007124 -0.002030 0.012438 0.000000 0.001988 0.000000
# 4 0.000000 0.000000 0.000000 0.043344 0.000000 -0.005260
# 5 -0.002017 -0.000463 0.001988 0.000000 0.034632 0.000000
# 6 0.000000 0.000000 0.000000 -0.005260 0.000000 0.036550
#
#
# Mechanical properties :
#
#
# Convention : Reuss Voigt Hill
#
# Bulk Modulus (GPa) = 57.33558 59.35836 58.34697
# Shear Modulus (GPa) = 25.56937 27.01996 26.29467
#
# Velocity S-wave (km/s) = 3.45036 3.54688 3.49895
# Velocity P-wave (km/s) = 6.52445 6.66414 6.59467
#
# Compressibility (1/GPa) = 0.01744118
#
# Stress axis : x y z
#
# Youngs Moduli (GPa) = 47.69229 77.41089 80.39628
#
# Poissons Ratio (x) = 0.40928 0.57277
# Poissons Ratio (y) = 0.25216 0.16321
# Poissons Ratio (z) = 0.33977 0.15715
#
# Static dielectric constant tensor:
#      x y z
#    x 3.824830 0.000000 0.055890 
#    y 0.000000 4.125230 0.000000 
#    z 0.055890 0.000000 4.127120 
# 
# 
# High freq. dielectric constant tensor:
#      x y z
#    x 1.828180 0.000000 0.009280 
#    y 0.000000 1.829080 0.000000 
#    z 0.009280 0.000000 1.855050 
# 
# From -- ./inp_files/135910.got.cif
#   From: 2010.06.25/outbox.cif.g09.slc.cpg/sg12_68_cif.got.tgz:135910.got - 2010.06.28 00:19:55.
