data_PCOD8109491
_publ_section_title
;
Structure prediction by ZEFSAII (Michael W. Deem and Ramdas Pophale) SiO2 
 PCOD8109491
Probable space group: C 2/M
;
_chemical_formula_sum "Si O2"
_cell_formula_units_Z 40
_cell_length_a 19.312332
_cell_length_b 7.584531
_cell_length_c 13.360782
_cell_angle_alpha 90.000000
_cell_angle_beta 74.464928
_cell_angle_gamma 90.000000
_cell_volume 1885.523858
_symmetry_space_group_name_H-M "C 2/M"
_symmetry_group_IT_number 12
_symmetry_cell_setting 'monoclinic'
loop_
_space_group_symop_operation_xyz
x,y,z
-x,y,-z
-x,-y,-z
x,-y,z
1/2+x,1/2+y,z
1/2-x,1/2+y,-z
1/2-x,1/2-y,-z
1/2+x,1/2-y,z
loop_
_atom_site_type_symbol
_atom_site_label
_atom_site_fract_x
_atom_site_fract_y
_atom_site_fract_z
Si Si1 0.911657 0.500000 0.426063
Si Si2 0.864800 0.801186 0.811952
Si Si3 0.712575 0.293908 0.821315
Si Si4 0.078289 0.790762 0.997048
Si Si5 0.079627 0.500000 0.347203
Si Si6 0.188950 0.203621 0.602560
O O1 0.893199 0.500000 0.550100
O O2 0.880371 0.322773 0.389971
O O3 0.994908 0.500000 0.370660
O O4 0.778201 0.801821 0.852159
O O5 0.889248 0.676538 0.712896
O O6 0.891803 0.000000 0.780464
O O7 0.898766 0.727846 0.901501
O O8 0.719893 0.500000 0.840367
O O9 0.637325 0.220996 0.894757
O O10 0.717687 0.252640 0.701784
O O11 0.075196 0.000000 0.993578
O O12 0.000000 0.710801 0.000000
O O13 0.250000 0.250000 0.500000
O O14 0.165578 0.000000 0.602342
#
# Coordination Sequence:
#
# PCOD8109491 Si02
#       6
#     4   8   8   8   4   8
#     4  11  26  44  65  94 133 166 216 272 318 380
#     4  11  23  41  69  92 128 173 215 260 323 390
#     4  10  21  39  64  94 132 170 213 270 317 377
#     4   9  20  39  63  94 131 169 213 264 323 383
#     4  11  26  46  64  93 133 168 210 273 326 379
#     4  11  23  40  67  97 129 170 218 264 318 379
#
# _framework density 21.214262000000002
#
# number of rings (size 3 to 8) (size 9 to 14) (size 15 to 20)
#    0.000    1.600    2.000    1.800    4.200    3.200 
#    1.800    2.500    0.000    0.000    0.000    0.000 
#    0.000    0.000    0.000    0.000    0.000    0.000 
#
# Total GULP energy -248067.911477 kJ/mol
# GULP energy per Si atom -12403.395574 kJ/mol
# Density = 2.116598 g / cm^3
# Si number density = 21.214262 Si / 1000 Ang^3
#
#
#
# Elastic Constant Matrix: (Units=GPa)
#
#
# Indices 1 2 3 4 5 6 
#
# 1 147.5550 34.4908 70.8693 0.0000 16.1315 0.0000
# 2 34.4908 96.9401 33.0119 0.0000 8.0193 0.0000
# 3 70.8693 33.0119 98.1306 0.0000 -3.4230 0.0000
# 4 0.0000 0.0000 0.0000 11.0906 0.0000 9.1177
# 5 16.1315 8.0193 -3.4230 0.0000 34.8566 0.0000
# 6 0.0000 0.0000 0.0000 9.1177 0.0000 19.1233
#
#
#
# Elastic Compliance Matrix: (Units=1/GPa)
#
#
# Indices 1 2 3 4 5 6 
#
# 1 0.011626 -0.000800 -0.008337 0.000000 -0.006015 0.000000
# 2 -0.000800 0.012043 -0.003570 0.000000 -0.002751 0.000000
# 3 -0.008337 -0.003570 0.017636 0.000000 0.006411 0.000000
# 4 0.000000 0.000000 0.000000 0.148293 0.000000 -0.070704
# 5 -0.006015 -0.002751 0.006411 0.000000 0.032735 0.000000
# 6 0.000000 0.000000 0.000000 -0.070704 0.000000 0.086003
#
#
# Mechanical properties :
#
#
# Convention : Reuss Voigt Hill
#
# Bulk Modulus (GPa) = 62.92415 68.81886 65.87150
# Shear Modulus (GPa) = 14.74722 26.63102 20.68912
#
# Velocity S-wave (km/s) = 2.63944 3.54692 3.12628
# Velocity P-wave (km/s) = 6.24616 7.02029 6.64451
#
# Compressibility (1/GPa) = 0.01589215
#
# Stress axis : x y z
#
# Youngs Moduli (GPa) = 86.01568 83.03246 56.70253
#
# Poissons Ratio (x) = 0.06641 0.47272
# Poissons Ratio (y) = 0.06879 0.20242
# Poissons Ratio (z) = 0.71710 0.29642
#
# Static dielectric constant tensor:
#      x y z
#    x 4.072820 0.000000 0.043430 
#    y 0.000000 3.874140 0.000000 
#    z 0.043430 0.000000 3.922220 
# 
# 
# High freq. dielectric constant tensor:
#      x y z
#    x 1.840240 0.000000 0.004820 
#    y 0.000000 1.827130 0.000000 
#    z 0.004820 0.000000 1.838160 
# 
# From -- ./inp_files/151782.got.cif
#   From: 2010.06.25/outbox.cif.g09.slc.cpg/sg12_76_cif.got.tgz:151782.got - 2010.06.28 00:19:55.
