data_PCOD8109531
_publ_section_title
;
Structure prediction by ZEFSAII (Michael W. Deem and Ramdas Pophale) SiO2 
 PCOD8109531
Probable space group: C 2/M
;
_chemical_formula_sum "Si O2"
_cell_formula_units_Z 48
_cell_length_a 14.192879
_cell_length_b 15.254765
_cell_length_c 11.949875
_cell_angle_alpha 90.000000
_cell_angle_beta 60.230099
_cell_angle_gamma 90.000000
_cell_volume 2245.806435
_symmetry_space_group_name_H-M "C 2/M"
_symmetry_group_IT_number 12
_symmetry_cell_setting 'monoclinic'
loop_
_space_group_symop_operation_xyz
x,y,z
-x,y,-z
-x,-y,-z
x,-y,z
1/2+x,1/2+y,z
1/2-x,1/2+y,-z
1/2-x,1/2-y,-z
1/2+x,1/2-y,z
loop_
_atom_site_type_symbol
_atom_site_label
_atom_site_fract_x
_atom_site_fract_y
_atom_site_fract_z
Si Si1 0.108956 0.132561 0.496945
Si Si2 0.669720 0.269131 0.150158
Si Si3 0.618803 0.823766 0.404920
Si Si4 0.210434 0.402494 0.766068
Si Si5 0.045414 0.252964 0.853537
Si Si6 0.334560 0.596190 0.294463
O O1 0.125979 0.236446 0.475162
O O2 0.211493 0.082667 0.385371
O O3 0.096945 0.107092 0.632805
O O4 0.000000 0.101571 0.500000
O O5 0.651614 0.194788 0.255732
O O6 0.718130 0.357061 0.177650
O O7 0.548117 0.278272 0.175231
O O8 0.750000 0.250000 0.000000
O O9 0.500000 0.864854 0.500000
O O10 0.707020 0.892717 0.397424
O O11 0.170217 0.500000 0.828170
O O12 0.110270 0.341730 0.783025
O O13 0.128707 0.171400 0.814375
O O14 0.000000 0.275589 0.000000
O O15 0.355864 0.500000 0.230141
#
# Coordination Sequence:
#
# PCOD8109531 Si02
#       6
#     8   8   8   8   8   8
#     4  10  21  40  66  95 130 168 215 271 334 397
#     4  11  22  44  67  93 132 178 215 272 337 403
#     4  10  21  39  65  91 128 176 216 264 334 392
#     4  11  24  43  70 103 133 172 227 279 334 402
#     4  12  24  44  70  92 134 172 226 280 339 395
#     4  12  24  39  64  97 132 173 220 269 331 405
#
# _framework density 21.373169000000001
#
# number of rings (size 3 to 8) (size 9 to 14) (size 15 to 20)
#    0.000    1.000    5.000    4.000    2.333    4.333 
#    0.000    3.333    0.000    0.000    0.000    0.000 
#    0.000    0.000    0.000    0.000    0.000    0.000 
#
# Total GULP energy -297402.997141 kJ/mol
# GULP energy per Si atom -12391.791548 kJ/mol
# Density = 2.132452 g / cm^3
# Si number density = 21.373169 Si / 1000 Ang^3
#
#
#
# Elastic Constant Matrix: (Units=GPa)
#
#
# Indices 1 2 3 4 5 6 
#
# 1 115.8267 34.7743 13.5884 0.0000 -20.1819 0.0000
# 2 34.7743 121.7667 20.4454 0.0000 -16.3176 0.0000
# 3 13.5884 20.4454 96.6840 0.0000 -21.0020 0.0000
# 4 0.0000 0.0000 0.0000 9.9207 0.0000 6.9406
# 5 -20.1819 -16.3176 -21.0020 0.0000 32.6502 0.0000
# 6 0.0000 0.0000 0.0000 6.9406 0.0000 6.7102
#
#
#
# Elastic Compliance Matrix: (Units=1/GPa)
#
#
# Indices 1 2 3 4 5 6 
#
# 1 0.010208 -0.002235 0.000193 0.000000 0.005317 0.000000
# 2 -0.002235 0.009385 -0.001106 0.000000 0.002597 0.000000
# 3 0.000193 -0.001106 0.012154 0.000000 0.007384 0.000000
# 4 0.000000 0.000000 0.000000 0.364723 0.000000 -0.377247
# 5 0.005317 0.002597 0.007384 0.000000 0.039962 0.000000
# 6 0.000000 0.000000 0.000000 -0.377247 0.000000 0.539228
#
#
# Mechanical properties :
#
#
# Convention : Reuss Voigt Hill
#
# Bulk Modulus (GPa) = 39.29318 52.43264 45.86291
# Shear Modulus (GPa) = 5.04826 27.55416 16.30121
#
# Velocity S-wave (km/s) = 1.53853 3.59443 2.76469
# Velocity P-wave (km/s) = 4.64547 6.46621 5.62993
#
# Compressibility (1/GPa) = 0.02544971
#
# Stress axis : x y z
#
# Youngs Moduli (GPa) = 97.95761 106.55859 82.27866
#
# Poissons Ratio (x) = 0.23818 -0.01587
# Poissons Ratio (y) = 0.21896 0.09102
# Poissons Ratio (z) = -0.01890 0.11788
#
# Static dielectric constant tensor:
#      x y z
#    x 4.231850 0.000000 -0.149830 
#    y 0.000000 3.670650 0.000000 
#    z -0.149830 0.000000 3.990890 
# 
# 
# High freq. dielectric constant tensor:
#      x y z
#    x 1.850850 0.000000 -0.013790 
#    y 0.000000 1.813680 0.000000 
#    z -0.013790 0.000000 1.836670 
# 
# From -- ./inp_files/143512.got.cif
#   From: 2010.06.25/outbox.cif.g09.slc.cpg/sg12_72_cif.got.tgz:143512.got - 2010.06.28 00:19:55.
