data_PCOD8109787
_publ_section_title
;
Structure prediction by ZEFSAII (Michael W. Deem and Ramdas Pophale) SiO2 
 PCOD8109787
Probable space group: C 2/M
;
_chemical_formula_sum "Si O2"
_cell_formula_units_Z 48
_cell_length_a 24.288025
_cell_length_b 9.012720
_cell_length_c 11.520587
_cell_angle_alpha 90.000000
_cell_angle_beta 69.244700
_cell_angle_gamma 90.000000
_cell_volume 2358.206733
_symmetry_space_group_name_H-M "C 2/M"
_symmetry_group_IT_number 12
_symmetry_cell_setting 'monoclinic'
loop_
_space_group_symop_operation_xyz
x,y,z
-x,y,-z
-x,-y,-z
x,-y,z
1/2+x,1/2+y,z
1/2-x,1/2+y,-z
1/2-x,1/2-y,-z
1/2+x,1/2-y,z
loop_
_atom_site_type_symbol
_atom_site_label
_atom_site_fract_x
_atom_site_fract_y
_atom_site_fract_z
Si Si1 0.942557 0.327517 0.970146
Si Si2 0.379653 0.175835 0.643869
Si Si3 0.153147 0.169500 0.813416
Si Si4 0.767616 0.329576 0.868912
Si Si5 0.474113 0.674662 0.715947
Si Si6 0.609481 0.327977 0.595794
O O1 0.939416 0.500000 0.939178
O O2 0.941923 0.231690 0.854791
O O3 0.886036 0.284019 0.086135
O O4 0.000000 0.287726 0.000000
O O5 0.329388 0.229671 0.771688
O O6 0.442015 0.249393 0.630698
O O7 0.362807 0.231114 0.527945
O O8 0.385393 0.000000 0.638948
O O9 0.219937 0.194015 0.803052
O O10 0.147929 0.206242 0.681150
O O11 0.131989 0.000000 0.852118
O O12 0.773776 0.500000 0.897992
O O13 0.750000 0.250000 0.000000
O O14 0.466094 0.500000 0.711326
O O15 0.542179 0.721645 0.668755
O O16 0.612256 0.500000 0.558931
#
# Coordination Sequence:
#
# PCOD8109787 Si02
#       6
#     8   8   8   8   8   8
#     4  11  22  35  56  89 124 152 187 239 299 352
#     4  11  24  40  59  87 122 156 194 243 299 350
#     4  10  21  40  63  86 117 158 201 244 288 345
#     4  10  23  42  63  87 116 152 196 243 292 348
#     4  11  22  38  61  87 118 158 203 244 287 347
#     4  10  22  39  60  87 117 153 201 246 289 350
#
# _framework density 20.354451000000001
#
# number of rings (size 3 to 8) (size 9 to 14) (size 15 to 20)
#    0.000    1.500    1.667    3.000    0.000   10.000 
#    0.000    0.000    0.000    0.000    0.000    0.000 
#    0.000    0.000    0.000    0.000    0.000    0.000 
#
# Total GULP energy -297729.182397 kJ/mol
# GULP energy per Si atom -12405.382600 kJ/mol
# Density = 2.030812 g / cm^3
# Si number density = 20.354451 Si / 1000 Ang^3
#
#
#
# Elastic Constant Matrix: (Units=GPa)
#
#
# Indices 1 2 3 4 5 6 
#
# 1 102.7341 35.7478 40.6887 0.0000 12.8583 0.0000
# 2 35.7478 64.8765 48.0685 0.0000 1.8745 0.0000
# 3 40.6887 48.0685 121.2035 0.0000 15.1246 0.0000
# 4 0.0000 0.0000 0.0000 38.2708 0.0000 -0.9556
# 5 12.8583 1.8745 15.1246 0.0000 32.1292 0.0000
# 6 0.0000 0.0000 0.0000 -0.9556 0.0000 21.0724
#
#
#
# Elastic Compliance Matrix: (Units=1/GPa)
#
#
# Indices 1 2 3 4 5 6 
#
# 1 0.012882 -0.005885 -0.001477 0.000000 -0.004117 0.000000
# 2 -0.005885 0.024788 -0.008466 0.000000 0.004894 0.000000
# 3 -0.001477 -0.008466 0.012715 0.000000 -0.004901 0.000000
# 4 0.000000 0.000000 0.000000 0.026159 0.000000 0.001186
# 5 -0.004117 0.004894 -0.004901 0.000000 0.034793 0.000000
# 6 0.000000 0.000000 0.000000 0.001186 0.000000 0.047509
#
#
# Mechanical properties :
#
#
# Convention : Reuss Voigt Hill
#
# Bulk Modulus (GPa) = 53.39075 59.75824 56.57450
# Shear Modulus (GPa) = 25.41363 29.24841 27.33102
#
# Velocity S-wave (km/s) = 3.53732 3.79483 3.66834
# Velocity P-wave (km/s) = 6.55523 6.97306 6.76737
#
# Compressibility (1/GPa) = 0.01872984
#
# Stress axis : x y z
#
# Youngs Moduli (GPa) = 77.62908 40.34273 78.64477
#
# Poissons Ratio (x) = 0.23741 0.11615
# Poissons Ratio (y) = 0.45683 0.66579
# Poissons Ratio (z) = 0.11465 0.34153
#
# Static dielectric constant tensor:
#      x y z
#    x 3.842590 0.000000 0.101040 
#    y 0.000000 3.606080 0.000000 
#    z 0.101040 0.000000 3.708820 
# 
# 
# High freq. dielectric constant tensor:
#      x y z
#    x 1.801470 0.000000 0.011250 
#    y 0.000000 1.792480 0.000000 
#    z 0.011250 0.000000 1.800340 
# 
# From -- ./inp_files/172869.got.cif
#   From: 2010.06.25/outbox.cif.g09.slc.cpg/sg12_87_cif.got.tgz:172869.got - 2010.06.28 00:19:55.
