data_PCOD8109990
_publ_section_title
;
Structure prediction by ZEFSAII (Michael W. Deem and Ramdas Pophale) SiO2 
 PCOD8109990
Probable space group: C 2/M
;
_chemical_formula_sum "Si O2"
_cell_formula_units_Z 40
_cell_length_a 18.861732
_cell_length_b 8.769437
_cell_length_c 11.823104
_cell_angle_alpha 90.000000
_cell_angle_beta 102.654689
_cell_angle_gamma 90.000000
_cell_volume 1908.115687
_symmetry_space_group_name_H-M "C 2/M"
_symmetry_group_IT_number 12
_symmetry_cell_setting 'monoclinic'
loop_
_space_group_symop_operation_xyz
x,y,z
-x,y,-z
-x,-y,-z
x,-y,z
1/2+x,1/2+y,z
1/2-x,1/2+y,-z
1/2-x,1/2-y,-z
1/2+x,1/2-y,z
loop_
_atom_site_type_symbol
_atom_site_label
_atom_site_fract_x
_atom_site_fract_y
_atom_site_fract_z
Si Si1 0.561856 0.827316 0.106199
Si Si2 0.112265 0.822136 0.718384
Si Si3 0.826146 0.327416 0.043326
Si Si4 0.054281 0.823997 0.338627
Si Si5 0.822181 0.320579 0.472278
O O1 0.566378 0.712936 0.211817
O O2 0.544151 0.000000 0.141683
O O3 0.500000 0.768733 0.000000
O O4 0.637584 0.822101 0.066995
O O5 0.124738 0.759591 0.848313
O O6 0.166732 0.740258 0.650811
O O7 0.028758 0.790801 0.654457
O O8 0.130117 0.000000 0.723109
O O9 0.816244 0.500000 0.082013
O O10 0.750000 0.250000 0.000000
O O11 0.107009 0.720126 0.430563
O O12 0.074156 0.000000 0.367104
O O13 0.811996 0.500000 0.465492
O O14 0.750000 0.250000 0.500000
#
# Coordination Sequence:
#
# PCOD8109990 Si02
#       5
#     8   8   8   8   8
#     4  10  21  40  65  94 129 169 216 263 313 377
#     4  11  24  44  68  96 131 169 216 267 320 384
#     4  11  24  41  64  94 132 174 216 267 323 380
#     4  11  24  42  68  98 131 170 214 264 319 382
#     4  12  27  46  69  95 128 168 214 267 325 384
#
# _framework density 20.963089
#
# number of rings (size 3 to 8) (size 9 to 14) (size 15 to 20)
#    0.000    1.000    2.000    4.200    2.800    6.800 
#    0.000    0.000    0.000    0.000    0.000    0.000 
#    0.000    0.000    0.000    0.000    0.000    0.000 
#
# Total GULP energy -248128.112059 kJ/mol
# GULP energy per Si atom -12406.405603 kJ/mol
# Density = 2.091538 g / cm^3
# Si number density = 20.963089 Si / 1000 Ang^3
#
#
#
# Elastic Constant Matrix: (Units=GPa)
#
#
# Indices 1 2 3 4 5 6 
#
# 1 101.3515 57.2286 14.1907 0.0000 -8.8933 0.0000
# 2 57.2286 145.5114 33.5775 0.0000 -6.3231 0.0000
# 3 14.1907 33.5775 64.0227 0.0000 -12.7889 0.0000
# 4 0.0000 0.0000 0.0000 40.6684 0.0000 1.0175
# 5 -8.8933 -6.3231 -12.7889 0.0000 37.7332 0.0000
# 6 0.0000 0.0000 0.0000 1.0175 0.0000 35.3519
#
#
#
# Elastic Compliance Matrix: (Units=1/GPa)
#
#
# Indices 1 2 3 4 5 6 
#
# 1 0.012865 -0.005015 0.000232 0.000000 0.002270 0.000000
# 2 -0.005015 0.009773 -0.004208 0.000000 -0.000970 0.000000
# 3 0.000232 -0.004208 0.018927 0.000000 0.005764 0.000000
# 4 0.000000 0.000000 0.000000 0.024607 0.000000 -0.000708
# 5 0.002270 -0.000970 0.005764 0.000000 0.028828 0.000000
# 6 0.000000 0.000000 0.000000 -0.000708 0.000000 0.028307
#
#
# Mechanical properties :
#
#
# Convention : Reuss Voigt Hill
#
# Bulk Modulus (GPa) = 42.40281 57.87546 50.13914
# Shear Modulus (GPa) = 33.52339 36.47661 35.00000
#
# Velocity S-wave (km/s) = 4.00329 4.17590 4.09051
# Velocity P-wave (km/s) = 6.45289 7.13576 6.80290
#
# Compressibility (1/GPa) = 0.02358334
#
# Stress axis : x y z
#
# Youngs Moduli (GPa) = 77.73099 102.31883 52.83593
#
# Poissons Ratio (x) = 0.51308 -0.01226
# Poissons Ratio (y) = 0.38978 0.22234
# Poissons Ratio (z) = -0.01803 0.43057
#
# Static dielectric constant tensor:
#      x y z
#    x 3.858450 0.000000 -0.107860 
#    y 0.000000 3.914710 0.000000 
#    z -0.107860 0.000000 3.968770 
# 
# 
# High freq. dielectric constant tensor:
#      x y z
#    x 1.832940 0.000000 -0.004360 
#    y 0.000000 1.829760 0.000000 
#    z -0.004360 0.000000 1.826300 
# 
# From -- ./inp_files/151652.got.cif
#   From: 2010.06.25/outbox.cif.g09.slc.cpg/sg12_76_cif.got.tgz:151652.got - 2010.06.28 00:19:55.
