data_PCOD8109799
_publ_section_title
;
Structure prediction by ZEFSAII (Michael W. Deem and Ramdas Pophale) SiO2 
 PCOD8109799
Probable space group: C 2/M
;
_chemical_formula_sum "Si O2"
_cell_formula_units_Z 64
_cell_length_a 9.367936
_cell_length_b 32.441491
_cell_length_c 17.969070
_cell_angle_alpha 90.000000
_cell_angle_beta 142.060227
_cell_angle_gamma 90.000000
_cell_volume 3357.587637
_symmetry_space_group_name_H-M "C 2/M"
_symmetry_group_IT_number 12
_symmetry_cell_setting 'monoclinic'
loop_
_space_group_symop_operation_xyz
x,y,z
-x,y,-z
-x,-y,-z
x,-y,z
1/2+x,1/2+y,z
1/2-x,1/2+y,-z
1/2-x,1/2-y,-z
1/2+x,1/2-y,z
loop_
_atom_site_type_symbol
_atom_site_label
_atom_site_fract_x
_atom_site_fract_y
_atom_site_fract_z
Si Si1 0.697124 0.453098 0.522197
Si Si2 0.286612 0.826215 0.864138
Si Si3 0.911719 0.612311 0.284475
Si Si4 0.022785 0.700843 0.393625
Si Si5 0.355901 0.452996 0.254624
Si Si6 0.091532 0.098862 0.868429
Si Si7 0.012139 0.390864 0.853312
Si Si8 0.859064 0.773553 0.655051
O O1 0.500000 0.440664 0.500000
O O2 0.780748 0.500000 0.571497
O O3 0.600331 0.448771 0.398297
O O4 0.909067 0.422353 0.617537
O O5 0.128570 0.856582 0.847764
O O6 0.390295 0.850255 0.836267
O O7 0.121523 0.789246 0.772027
O O8 0.500000 0.807999 0.000000
O O9 0.663691 0.594919 0.204843
O O10 0.904466 0.621059 0.194036
O O11 0.968417 0.654371 0.349944
O O12 0.116455 0.726091 0.360686
O O13 0.228364 0.699416 0.538804
O O14 0.792760 0.723592 0.331957
O O15 0.273673 0.500000 0.217453
O O16 0.371802 0.436456 0.177523
O O17 0.167521 0.428345 0.225362
O O18 0.275199 0.092950 0.009750
#
# Coordination Sequence:
#
# PCOD8109799 Si02
#       8
#     8   8   8   8   8   8   8   8
#     4  10  22  40  60  90 127 157 198 254 305 370
#     4   9  19  39  62  81 118 162 202 248 301 365
#     4  12  23  38  63  93 120 165 203 252 318 368
#     4  10  24  37  63  88 124 160 201 263 311 365
#     4  10  21  40  63  87 119 162 206 249 303 373
#     4  10  22  39  58  88 123 153 207 257 303 353
#     4  10  22  37  60  89 118 163 203 254 296 372
#     4  10  21  43  57  89 122 159 204 263 304 366
#
# _framework density 19.061304
#
# number of rings (size 3 to 8) (size 9 to 14) (size 15 to 20)
#    0.000    1.875    2.500    1.500    5.250    2.000 
#    2.250    3.125    0.000    2.250    0.000    0.000 
#    0.000    0.000    0.000    0.000    0.000    0.000 
#
# Total GULP energy -396862.208708 kJ/mol
# GULP energy per Si atom -12401.944022 kJ/mol
# Density = 1.901792 g / cm^3
# Si number density = 19.061304 Si / 1000 Ang^3
#
#
#
# Elastic Constant Matrix: (Units=GPa)
#
#
# Indices 1 2 3 4 5 6 
#
# 1 90.5776 33.0015 29.0517 0.0000 8.5478 0.0000
# 2 33.0015 65.9887 32.6233 0.0000 6.5152 0.0000
# 3 29.0517 32.6233 90.1160 0.0000 5.7580 0.0000
# 4 0.0000 0.0000 0.0000 20.8227 0.0000 0.1274
# 5 8.5478 6.5152 5.7580 0.0000 30.8500 0.0000
# 6 0.0000 0.0000 0.0000 0.1274 0.0000 20.4433
#
#
#
# Elastic Compliance Matrix: (Units=1/GPa)
#
#
# Indices 1 2 3 4 5 6 
#
# 1 0.014065 -0.005652 -0.002343 0.000000 -0.002266 0.000000
# 2 -0.005652 0.020951 -0.005647 0.000000 -0.001805 0.000000
# 3 -0.002343 -0.005647 0.013945 0.000000 -0.000761 0.000000
# 4 0.000000 0.000000 0.000000 0.048026 0.000000 -0.000299
# 5 -0.002266 -0.001805 -0.000761 0.000000 0.033566 0.000000
# 6 0.000000 0.000000 0.000000 -0.000299 0.000000 0.048918
#
#
# Mechanical properties :
#
#
# Convention : Reuss Voigt Hill
#
# Bulk Modulus (GPa) = 46.13359 48.44837 47.29098
# Shear Modulus (GPa) = 23.36663 24.55692 23.96177
#
# Velocity S-wave (km/s) = 3.50504 3.59320 3.54939
# Velocity P-wave (km/s) = 6.37461 6.53354 6.45456
#
# Compressibility (1/GPa) = 0.02167618
#
# Stress axis : x y z
#
# Youngs Moduli (GPa) = 71.09893 47.73148 71.70894
#
# Poissons Ratio (x) = 0.26976 0.16805
# Poissons Ratio (y) = 0.40183 0.40495
# Poissons Ratio (z) = 0.16662 0.26954
#
# Static dielectric constant tensor:
#      x y z
#    x 3.530840 0.000000 -0.026830 
#    y 0.000000 3.268090 0.000000 
#    z -0.026830 0.000000 3.585640 
# 
# 
# High freq. dielectric constant tensor:
#      x y z
#    x 1.742890 0.000000 -0.001590 
#    y 0.000000 1.730130 0.000000 
#    z -0.001590 0.000000 1.750590 
# 
# From -- ./inp_files/260338.got.cif
#   From: 2010.06.25/outbox.cif.g09.slc.cpg/sg12_131_cif.got.tgz:260338.got - 2010.06.28 00:19:55.
