data_PCOD8109539
_publ_section_title
;
Structure prediction by ZEFSAII (Michael W. Deem and Ramdas Pophale) SiO2 
 PCOD8109539
Probable space group: C 2/M
;
_chemical_formula_sum "Si O2"
_cell_formula_units_Z 40
_cell_length_a 24.985332
_cell_length_b 8.556343
_cell_length_c 19.031760
_cell_angle_alpha 90.000000
_cell_angle_beta 151.422341
_cell_angle_gamma 90.000000
_cell_volume 1946.245245
_symmetry_space_group_name_H-M "C 2/M"
_symmetry_group_IT_number 12
_symmetry_cell_setting 'monoclinic'
loop_
_space_group_symop_operation_xyz
x,y,z
-x,y,-z
-x,-y,-z
x,-y,z
1/2+x,1/2+y,z
1/2-x,1/2+y,-z
1/2-x,1/2-y,-z
1/2+x,1/2-y,z
loop_
_atom_site_type_symbol
_atom_site_label
_atom_site_fract_x
_atom_site_fract_y
_atom_site_fract_z
Si Si1 0.470977 0.681475 0.827728
Si Si2 0.664664 0.183846 0.845690
Si Si3 0.723619 0.819088 0.313668
Si Si4 0.928206 0.317361 0.629643
Si Si5 0.219090 0.183180 0.160711
O O1 0.466235 0.500000 0.800968
O O2 0.384269 0.716770 0.790030
O O3 0.439274 0.787334 0.724979
O O4 0.593233 0.728882 0.995128
O O5 0.539620 0.241731 0.718214
O O6 0.698485 0.238035 0.806613
O O7 0.672775 0.000000 0.861621
O O8 0.750000 0.250000 0.000000
O O9 0.825679 0.782091 0.482728
O O10 0.757661 0.776806 0.273651
O O11 0.692886 0.000000 0.284570
O O12 0.905815 0.500000 0.590697
O O13 0.230545 0.000000 0.189182
#
# Coordination Sequence:
#
# PCOD8109539 Si02
#       5
#     8   8   8   8   8
#     4  11  22  40  66  91 122 161 203 250 301 363
#     4  10  21  39  65  93 121 156 199 248 299 361
#     4  12  26  41  59  88 126 163 205 254 303 356
#     4  11  23  40  64  92 124 161 202 248 301 360
#     4  10  22  41  64  91 123 160 199 246 306 363
#
# _framework density 20.552395000000001
#
# number of rings (size 3 to 8) (size 9 to 14) (size 15 to 20)
#    0.000    1.200    2.000    4.200    0.000    6.400 
#    0.000    4.000    0.000    0.000    0.000    0.000 
#    0.000    0.000    0.000    0.000    0.000    0.000 
#
# Total GULP energy -248146.706090 kJ/mol
# GULP energy per Si atom -12407.335305 kJ/mol
# Density = 2.050562 g / cm^3
# Si number density = 20.552395 Si / 1000 Ang^3
#
#
#
# Elastic Constant Matrix: (Units=GPa)
#
#
# Indices 1 2 3 4 5 6 
#
# 1 110.8695 13.2579 8.5556 0.0000 -1.9416 0.0000
# 2 13.2579 44.2583 19.5374 0.0000 1.5586 0.0000
# 3 8.5556 19.5374 49.1903 0.0000 -6.5040 0.0000
# 4 0.0000 0.0000 0.0000 32.3208 0.0000 -7.3545
# 5 -1.9416 1.5586 -6.5040 0.0000 35.9848 0.0000
# 6 0.0000 0.0000 0.0000 -7.3545 0.0000 30.2483
#
#
#
# Elastic Compliance Matrix: (Units=1/GPa)
#
#
# Indices 1 2 3 4 5 6 
#
# 1 0.009380 -0.002593 -0.000532 0.000000 0.000522 0.000000
# 2 -0.002593 0.028487 -0.011315 0.000000 -0.003419 0.000000
# 3 -0.000532 -0.011315 0.025589 0.000000 0.005086 0.000000
# 4 0.000000 0.000000 0.000000 0.032752 0.000000 0.007963
# 5 0.000522 -0.003419 0.005086 0.000000 0.028885 0.000000
# 6 0.000000 0.000000 0.000000 0.007963 0.000000 0.034996
#
#
# Mechanical properties :
#
#
# Convention : Reuss Voigt Hill
#
# Bulk Modulus (GPa) = 28.92404 31.89111 30.40757
# Shear Modulus (GPa) = 24.93828 30.57525 27.75676
#
# Velocity S-wave (km/s) = 3.48717 3.86122 3.67895
# Velocity P-wave (km/s) = 5.50615 5.95226 5.73354
#
# Compressibility (1/GPa) = 0.03457331
#
# Stress axis : x y z
#
# Youngs Moduli (GPa) = 106.61049 35.10375 39.07988
#
# Poissons Ratio (x) = 0.09103 0.02081
# Poissons Ratio (y) = 0.27646 0.44221
# Poissons Ratio (z) = 0.05676 0.39722
#
# Static dielectric constant tensor:
#      x y z
#    x 4.069980 0.000000 0.158720 
#    y 0.000000 3.627350 0.000000 
#    z 0.158720 0.000000 3.660030 
# 
# 
# High freq. dielectric constant tensor:
#      x y z
#    x 1.820710 0.000000 0.002280 
#    y 0.000000 1.799110 0.000000 
#    z 0.002280 0.000000 1.805150 
# 
# From -- ./inp_files/162366.got.cif
#   From: 2010.06.25/outbox.cif.g09.slc.cpg/sg12_82_cif.got.tgz:162366.got - 2010.06.28 00:19:55.
