data_PCOD8109909
_publ_section_title
;
Structure prediction by ZEFSAII (Michael W. Deem and Ramdas Pophale) SiO2 
 PCOD8109909
Probable space group: C 2/M
;
_chemical_formula_sum "Si O2"
_cell_formula_units_Z 64
_cell_length_a 29.371917
_cell_length_b 15.022060
_cell_length_c 8.853162
_cell_angle_alpha 90.000000
_cell_angle_beta 126.689853
_cell_angle_gamma 90.000000
_cell_volume 3132.350655
_symmetry_space_group_name_H-M "C 2/M"
_symmetry_group_IT_number 12
_symmetry_cell_setting 'monoclinic'
loop_
_space_group_symop_operation_xyz
x,y,z
-x,y,-z
-x,-y,-z
x,-y,z
1/2+x,1/2+y,z
1/2-x,1/2+y,-z
1/2-x,1/2-y,-z
1/2+x,1/2-y,z
loop_
_atom_site_type_symbol
_atom_site_label
_atom_site_fract_x
_atom_site_fract_y
_atom_site_fract_z
Si Si1 0.559450 0.264929 0.689593
Si Si2 0.243896 0.397127 0.884564
Si Si3 0.618883 0.899806 0.308849
Si Si4 0.753834 0.653010 0.440592
Si Si5 0.940083 0.762364 0.954043
Si Si6 0.383089 0.897932 0.343319
Si Si7 0.146805 0.896099 0.715001
Si Si8 0.357919 0.599167 0.639586
O O1 0.500000 0.292574 0.500000
O O2 0.576375 0.165957 0.671111
O O3 0.604357 0.339087 0.730754
O O4 0.553163 0.266050 0.855031
O O5 0.245035 0.500000 0.835601
O O6 0.257083 0.340650 0.760708
O O7 0.181960 0.374474 0.828708
O O8 0.289326 0.375283 0.103764
O O9 0.685105 0.888603 0.401808
O O10 0.580057 0.835612 0.132652
O O11 0.607353 0.879372 0.461128
O O12 0.600820 0.000000 0.232024
O O13 0.750000 0.750000 0.500000
O O14 0.705977 0.593439 0.424956
O O15 0.894440 0.834868 0.812717
O O16 0.000000 0.786584 0.000000
O O17 0.397731 0.000000 0.330850
O O18 0.142291 0.865679 0.532746
O O19 0.132248 0.000000 0.707277
O O20 0.384089 0.500000 0.699370
#
# Coordination Sequence:
#
# PCOD8109909 Si02
#       8
#     8   8   8   8   8   8   8   8
#     4  12  26  42  64  89 119 161 205 260 306 365
#     4   9  19  38  61  91 126 164 203 246 302 364
#     4  10  21  40  64  92 128 167 206 255 306 362
#     4  11  20  34  62  96 130 165 202 251 302 366
#     4  12  26  44  65  90 122 160 211 259 309 372
#     4   9  20  40  65  91 124 163 203 250 304 359
#     4  10  23  41  64  92 125 162 204 253 306 364
#     4  11  23  42  65  92 127 164 204 255 308 368
#
# _framework density 20.431937999999999
#
# number of rings (size 3 to 8) (size 9 to 14) (size 15 to 20)
#    0.000    1.500    1.250    4.875    1.750    4.500 
#    0.000    1.250    0.000    0.000    0.000    0.000 
#    0.000    0.000    0.000    0.000    0.000    0.000 
#
# Total GULP energy -396956.624537 kJ/mol
# GULP energy per Si atom -12404.894517 kJ/mol
# Density = 2.038543 g / cm^3
# Si number density = 20.431938 Si / 1000 Ang^3
#
#
#
# Elastic Constant Matrix: (Units=GPa)
#
#
# Indices 1 2 3 4 5 6 
#
# 1 81.4813 9.1599 23.1245 0.0000 -10.2205 0.0000
# 2 9.1599 76.3016 32.2405 0.0000 -9.1602 0.0000
# 3 23.1245 32.2405 112.2201 0.0000 -11.4513 0.0000
# 4 0.0000 0.0000 0.0000 19.8274 0.0000 -3.1669
# 5 -10.2205 -9.1602 -11.4513 0.0000 31.3316 0.0000
# 6 0.0000 0.0000 0.0000 -3.1669 0.0000 21.5754
#
#
#
# Elastic Compliance Matrix: (Units=1/GPa)
#
#
# Indices 1 2 3 4 5 6 
#
# 1 0.013395 -0.000201 -0.002350 0.000000 0.003452 0.000000
# 2 -0.000201 0.015178 -0.004023 0.000000 0.002902 0.000000
# 3 -0.002350 -0.004023 0.010754 0.000000 0.001987 0.000000
# 4 0.000000 0.000000 0.000000 0.051646 0.000000 0.007581
# 5 0.003452 0.002902 0.001987 0.000000 0.034617 0.000000
# 6 0.000000 0.000000 0.000000 0.007581 0.000000 0.047462
#
#
# Mechanical properties :
#
#
# Convention : Reuss Voigt Hill
#
# Bulk Modulus (GPa) = 38.19817 44.33922 41.26870
# Shear Modulus (GPa) = 25.65048 28.24541 26.94794
#
# Velocity S-wave (km/s) = 3.54702 3.72212 3.63562
# Velocity P-wave (km/s) = 5.95912 6.34194 6.15351
#
# Compressibility (1/GPa) = 0.02617927
#
# Stress axis : x y z
#
# Youngs Moduli (GPa) = 74.65279 65.88344 92.98794
#
# Poissons Ratio (x) = 0.01321 0.21856
# Poissons Ratio (y) = 0.01497 0.37412
# Poissons Ratio (z) = 0.17547 0.26507
#
# Static dielectric constant tensor:
#      x y z
#    x 3.795080 0.000000 0.033140 
#    y 0.000000 3.764800 0.000000 
#    z 0.033140 0.000000 3.748450 
# 
# 
# High freq. dielectric constant tensor:
#      x y z
#    x 1.798680 0.000000 -0.000420 
#    y 0.000000 1.808540 0.000000 
#    z -0.000420 0.000000 1.799110 
# 
# From -- ./inp_files/111992.got.cif
#   From: 2010.06.25/outbox.cif.g09.slc.cpg/sg12_56_cif.got.tgz:111992.got - 2010.06.28 00:19:55.
