data_PCOD8109322
_publ_section_title
;
Structure prediction by ZEFSAII (Michael W. Deem and Ramdas Pophale) SiO2 
 PCOD8109322
Probable space group: C 2/M
;
_chemical_formula_sum "Si O2"
_cell_formula_units_Z 48
_cell_length_a 29.306982
_cell_length_b 9.316032
_cell_length_c 9.209717
_cell_angle_alpha 90.000000
_cell_angle_beta 80.772798
_cell_angle_gamma 90.000000
_cell_volume 2481.944217
_symmetry_space_group_name_H-M "C 2/M"
_symmetry_group_IT_number 12
_symmetry_cell_setting 'monoclinic'
loop_
_space_group_symop_operation_xyz
x,y,z
-x,y,-z
-x,-y,-z
x,-y,z
1/2+x,1/2+y,z
1/2-x,1/2+y,-z
1/2-x,1/2-y,-z
1/2+x,1/2-y,z
loop_
_atom_site_type_symbol
_atom_site_label
_atom_site_fract_x
_atom_site_fract_y
_atom_site_fract_z
Si Si1 0.954436 0.169240 0.431065
Si Si2 0.274464 0.842054 0.607166
Si Si3 0.283743 0.659180 0.079088
Si Si4 0.123923 0.668781 0.353826
Si Si5 0.539369 0.835692 0.870187
Si Si6 0.628577 0.837311 0.020086
O O1 0.910611 0.241797 0.529198
O O2 0.960879 0.233448 0.268163
O O3 0.000000 0.204025 0.500000
O O4 0.945484 0.000000 0.423107
O O5 0.250000 0.750000 0.500000
O O6 0.237684 0.849904 0.752707
O O7 0.323837 0.780450 0.635399
O O8 0.283356 0.000000 0.537932
O O9 0.289467 0.500000 0.009737
O O10 0.250000 0.750000 0.000000
O O11 0.333181 0.732891 0.063256
O O12 0.116610 0.500000 0.387462
O O13 0.113850 0.706478 0.190780
O O14 0.530310 0.000000 0.825029
O O15 0.500000 0.782546 0.000000
O O16 0.586856 0.822264 0.931324
O O17 0.648009 0.000000 0.014386
#
# Coordination Sequence:
#
# PCOD8109322 Si02
#       6
#     8   8   8   8   8   8
#     4  11  25  42  61  89 125 160 196 242 299 358
#     4  10  23  40  59  86 121 160 202 248 296 350
#     4  11  22  39  61  88 121 160 203 246 298 354
#     4  10  21  41  64  87 118 158 203 248 294 351
#     4  10  22  41  67  94 118 154 200 246 298 356
#     4  10  21  39  63  91 121 153 199 252 299 353
#
# _framework density 19.339676999999998
#
# number of rings (size 3 to 8) (size 9 to 14) (size 15 to 20)
#    0.000    1.667    1.667    2.000    2.333    6.333 
#    0.000    0.000    0.000    0.000    0.000    0.000 
#    0.000    0.000    0.000    0.000    0.000    0.000 
#
# Total GULP energy -297636.004200 kJ/mol
# GULP energy per Si atom -12401.500175 kJ/mol
# Density = 1.929566 g / cm^3
# Si number density = 19.339677 Si / 1000 Ang^3
#
#
#
# Elastic Constant Matrix: (Units=GPa)
#
#
# Indices 1 2 3 4 5 6 
#
# 1 105.1008 66.8609 58.6545 0.0000 -15.8115 0.0000
# 2 66.8609 111.0087 67.0496 0.0000 -4.3805 0.0000
# 3 58.6545 67.0496 124.1732 0.0000 1.9030 0.0000
# 4 0.0000 0.0000 0.0000 33.8021 0.0000 0.0314
# 5 -15.8115 -4.3805 1.9030 0.0000 38.4506 0.0000
# 6 0.0000 0.0000 0.0000 0.0314 0.0000 30.8979
#
#
#
# Elastic Compliance Matrix: (Units=1/GPa)
#
#
# Indices 1 2 3 4 5 6 
#
# 1 0.017997 -0.007982 -0.004294 0.000000 0.006704 0.000000
# 2 -0.007982 0.017045 -0.005417 0.000000 -0.001072 0.000000
# 3 -0.004294 -0.005417 0.013053 0.000000 -0.003029 0.000000
# 4 0.000000 0.000000 0.000000 0.029584 0.000000 -0.000030
# 5 0.006704 -0.001072 -0.003029 0.000000 0.028792 0.000000
# 6 0.000000 0.000000 0.000000 -0.000030 0.000000 0.032365
#
#
# Mechanical properties :
#
#
# Convention : Reuss Voigt Hill
#
# Bulk Modulus (GPa) = 78.67957 80.60143 79.64050
# Shear Modulus (GPa) = 28.01755 30.47795 29.24775
#
# Velocity S-wave (km/s) = 3.81032 3.97410 3.89307
# Velocity P-wave (km/s) = 7.75431 7.92623 7.84074
#
# Compressibility (1/GPa) = 0.01270978
#
# Stress axis : x y z
#
# Youngs Moduli (GPa) = 55.56395 58.66658 76.60910
#
# Poissons Ratio (x) = 0.46825 0.32897
# Poissons Ratio (y) = 0.44349 0.41502
# Poissons Ratio (z) = 0.23860 0.31782
#
# Static dielectric constant tensor:
#      x y z
#    x 3.727080 0.000000 0.026630 
#    y 0.000000 3.825160 0.000000 
#    z 0.026630 0.000000 3.475040 
# 
# 
# High freq. dielectric constant tensor:
#      x y z
#    x 1.767070 0.000000 0.000270 
#    y 0.000000 1.752840 0.000000 
#    z 0.000270 0.000000 1.759020 
# 
# From -- ./inp_files/108629.got.cif
#   From: 2010.06.25/outbox.cif.g09.slc.cpg/sg12_55_cif.got.tgz:108629.got - 2010.06.28 00:19:55.
