data_PCOD8109269
_publ_section_title
;
Structure prediction by ZEFSAII (Michael W. Deem and Ramdas Pophale) SiO2 
 PCOD8109269
Probable space group: C 2/M
;
_chemical_formula_sum "Si O2"
_cell_formula_units_Z 48
_cell_length_a 15.111848
_cell_length_b 8.486996
_cell_length_c 29.623571
_cell_angle_alpha 90.000000
_cell_angle_beta 39.254631
_cell_angle_gamma 90.000000
_cell_volume 2404.105021
_symmetry_space_group_name_H-M "C 2/M"
_symmetry_group_IT_number 12
_symmetry_cell_setting 'monoclinic'
loop_
_space_group_symop_operation_xyz
x,y,z
-x,y,-z
-x,-y,-z
x,-y,z
1/2+x,1/2+y,z
1/2-x,1/2+y,-z
1/2-x,1/2-y,-z
1/2+x,1/2-y,z
loop_
_atom_site_type_symbol
_atom_site_label
_atom_site_fract_x
_atom_site_fract_y
_atom_site_fract_z
Si Si1 0.284884 0.814078 0.072266
Si Si2 0.960559 0.313347 0.087429
Si Si3 0.525730 0.315077 0.821593
Si Si4 0.973549 0.318231 0.420096
Si Si5 0.291936 0.318096 0.417560
Si Si6 0.262200 0.181149 0.332963
O O1 0.338072 0.765480 0.100920
O O2 0.130387 0.746676 0.124769
O O3 0.283453 0.000000 0.069369
O O4 0.391657 0.753414 0.991605
O O5 0.961579 0.500000 0.096330
O O6 0.928921 0.218503 0.145226
O O7 0.536364 0.500000 0.806993
O O8 0.627190 0.220468 0.749097
O O9 0.017836 0.500000 0.405750
O O10 0.860420 0.272784 0.502954
O O11 0.910668 0.283803 0.395499
O O12 0.108322 0.212437 0.374790
O O13 0.324309 0.500000 0.414420
O O14 0.295489 0.286545 0.363207
O O15 0.274611 0.000000 0.341996
#
# Coordination Sequence:
#
# PCOD8109269 Si02
#       6
#     8   8   8   8   8   8
#     4   8  17  34  58  81 106 142 181 224 276 336
#     4   9  17  35  59  82 106 139 184 227 274 337
#     4  11  22  36  53  79 113 147 183 229 285 338
#     4  10  21  39  63  89 115 146 187 234 283 338
#     4  10  21  39  63  89 116 147 185 232 284 339
#     4  12  25  39  56  81 115 156 196 236 284 335
#
# _framework density 19.965848999999999
#
# number of rings (size 3 to 8) (size 9 to 14) (size 15 to 20)
#    0.000    2.000    0.000    5.000    0.000    5.333 
#    0.000    9.167    0.000    0.000    0.000    0.000 
#    0.000    0.000    0.000    0.000    0.000    0.000 
#
# Total GULP energy -297687.489235 kJ/mol
# GULP energy per Si atom -12403.645385 kJ/mol
# Density = 1.992041 g / cm^3
# Si number density = 19.965849 Si / 1000 Ang^3
#
#
#
# Elastic Constant Matrix: (Units=GPa)
#
#
# Indices 1 2 3 4 5 6 
#
# 1 92.1720 10.8627 51.3060 -0.0008 13.9106 -0.0035
# 2 10.8627 51.5555 14.3767 -0.0014 -0.8562 -0.0050
# 3 51.3060 14.3767 103.2247 -0.0005 5.6811 -0.0009
# 4 -0.0008 -0.0014 -0.0005 20.7467 0.0020 7.0782
# 5 13.9106 -0.8562 5.6811 0.0020 53.5194 0.0015
# 6 -0.0035 -0.0050 -0.0009 7.0782 0.0015 32.3291
#
#
#
# Elastic Compliance Matrix: (Units=1/GPa)
#
#
# Indices 1 2 3 4 5 6 
#
# 1 0.015618 -0.001281 -0.007403 0.000000 -0.003294 0.000001
# 2 -0.001281 0.020306 -0.002241 0.000000 0.000896 0.000003
# 3 -0.007403 -0.002241 0.013655 0.000000 0.000439 -0.000001
# 4 0.000000 0.000000 0.000000 0.052092 -0.000002 -0.011405
# 5 -0.003294 0.000896 0.000439 -0.000002 0.019509 -0.000001
# 6 0.000001 0.000003 -0.000001 -0.011405 -0.000001 0.033429
#
#
# Mechanical properties :
#
#
# Convention : Reuss Voigt Hill
#
# Bulk Modulus (GPa) = 36.06221 44.44921 40.25571
# Shear Modulus (GPa) = 26.92492 32.67948 29.80220
#
# Velocity S-wave (km/s) = 3.67624 4.05009 3.86769
# Velocity P-wave (km/s) = 6.01006 6.64695 6.33651
#
# Compressibility (1/GPa) = 0.02772986
#
# Stress axis : x y z
#
# Youngs Moduli (GPa) = 64.02797 49.24603 73.23282
#
# Poissons Ratio (x) = 0.06309 0.54214
# Poissons Ratio (y) = 0.08202 0.16410
# Poissons Ratio (z) = 0.47400 0.11035
#
# Static dielectric constant tensor:
#      x y z
#    x 3.785390 0.000000 -0.154200 
#    y 0.000000 3.395760 0.000000 
#    z -0.154200 0.000000 3.681630 
# 
# 
# High freq. dielectric constant tensor:
#      x y z
#    x 1.789060 0.000000 0.002160 
#    y 0.000000 1.767050 0.000000 
#    z 0.002160 0.000000 1.775880 
# 
# From -- ./inp_files/308267.got.cif
#   From: 2010.06.25/outbox.cif.g09.slc.cpg/sg12_155_cif.got.tgz:308267.got - 2010.06.28 00:19:55.
