data_PCOD8109982
_publ_section_title
;
Structure prediction by ZEFSAII (Michael W. Deem and Ramdas Pophale) SiO2 
 PCOD8109982
Probable space group: C 2/M
;
_chemical_formula_sum "Si O2"
_cell_formula_units_Z 56
_cell_length_a 18.866127
_cell_length_b 28.041121
_cell_length_c 8.774383
_cell_angle_alpha 90.000000
_cell_angle_beta 34.763325
_cell_angle_gamma 90.000000
_cell_volume 2646.748397
_symmetry_space_group_name_H-M "C 2/M"
_symmetry_group_IT_number 12
_symmetry_cell_setting 'monoclinic'
loop_
_space_group_symop_operation_xyz
x,y,z
-x,y,-z
-x,-y,-z
x,-y,z
1/2+x,1/2+y,z
1/2-x,1/2+y,-z
1/2-x,1/2-y,-z
1/2+x,1/2-y,z
loop_
_atom_site_type_symbol
_atom_site_label
_atom_site_fract_x
_atom_site_fract_y
_atom_site_fract_z
Si Si1 0.910904 0.816936 0.955289
Si Si2 0.833272 0.370874 0.047125
Si Si3 0.115733 0.730181 0.180889
Si Si4 0.127104 0.103688 0.191754
Si Si5 0.302395 0.446376 0.229039
Si Si6 0.981828 0.446002 0.354883
Si Si7 0.665096 0.640389 0.622263
O O1 0.922775 0.760997 0.900414
O O2 0.856800 0.842392 0.900404
O O3 0.040478 0.844001 0.756262
O O4 0.817643 0.824111 0.263425
O O5 0.735092 0.402166 0.124730
O O6 0.779806 0.354786 0.304940
O O7 0.878286 0.324659 0.876216
O O8 0.945091 0.407731 0.877067
O O9 0.000000 0.737178 0.500000
O O10 0.250000 0.750000 0.000000
O O11 0.000000 0.094313 0.500000
O O12 0.130895 0.066204 0.047314
O O13 0.336812 0.500000 0.215238
O O14 0.346807 0.413268 0.290569
O O15 0.157709 0.439852 0.452781
O O16 0.029183 0.500000 0.241503
O O17 0.000000 0.432617 0.500000
#
# Coordination Sequence:
#
# PCOD8109982 Si02
#       7
#     8   8   8   8   8   8   8
#     4  10  21  43  63  91 133 180 214 266 342 396
#     4  12  23  38  67 103 130 170 227 277 332 407
#     4  12  25  41  71 106 133 174 232 288 335 397
#     4  11  20  37  68  93 130 173 219 280 336 390
#     4  10  23  43  66  94 131 177 229 277 334 406
#     4  10  21  40  65  93 129 172 217 279 341 388
#     4  10  23  41  66  91 135 185 212 268 345 403
#
# _framework density 21.158038000000001
#
# number of rings (size 3 to 8) (size 9 to 14) (size 15 to 20)
#    0.000    1.286    4.286    1.714    0.000    2.000 
#    0.000   10.000    0.000    0.000    0.000    0.000 
#    0.000    0.000    0.000    0.000    0.000    0.000 
#
# Total GULP energy -347122.373102 kJ/mol
# GULP energy per Si atom -12397.227611 kJ/mol
# Density = 2.110988 g / cm^3
# Si number density = 21.158038 Si / 1000 Ang^3
#
#
#
# Elastic Constant Matrix: (Units=GPa)
#
#
# Indices 1 2 3 4 5 6 
#
# 1 64.9217 39.4359 33.1131 0.0000 3.8018 0.0000
# 2 39.4359 124.3228 49.1093 0.0000 -1.5949 0.0000
# 3 33.1131 49.1093 145.5266 0.0000 12.4489 0.0000
# 4 0.0000 0.0000 0.0000 15.1178 0.0000 -4.5117
# 5 3.8018 -1.5949 12.4489 0.0000 25.1945 0.0000
# 6 0.0000 0.0000 0.0000 -4.5117 0.0000 31.6512
#
#
#
# Elastic Compliance Matrix: (Units=1/GPa)
#
#
# Indices 1 2 3 4 5 6 
#
# 1 0.020115 -0.005389 -0.002579 0.000000 -0.002102 0.000000
# 2 -0.005389 0.010846 -0.002675 0.000000 0.002822 0.000000
# 3 -0.002579 -0.002675 0.008710 0.000000 -0.004084 0.000000
# 4 0.000000 0.000000 0.000000 0.069086 0.000000 0.009848
# 5 -0.002102 0.002822 -0.004084 0.000000 0.042205 0.000000
# 6 0.000000 0.000000 0.000000 0.009848 0.000000 0.032998
#
#
# Mechanical properties :
#
#
# Convention : Reuss Voigt Hill
#
# Bulk Modulus (GPa) = 54.38965 64.23196 59.31081
# Shear Modulus (GPa) = 23.65463 28.60021 26.12742
#
# Velocity S-wave (km/s) = 3.34727 3.68059 3.51788
# Velocity P-wave (km/s) = 6.37975 6.96322 6.67786
#
# Compressibility (1/GPa) = 0.01838585
#
# Stress axis : x y z
#
# Youngs Moduli (GPa) = 49.71430 92.20026 114.80427
#
# Poissons Ratio (x) = 0.49687 0.29603
# Poissons Ratio (y) = 0.26791 0.30713
# Poissons Ratio (z) = 0.12819 0.24666
#
# Static dielectric constant tensor:
#      x y z
#    x 3.993520 0.000000 0.107630 
#    y 0.000000 3.887770 0.000000 
#    z 0.107630 0.000000 3.929260 
# 
# 
# High freq. dielectric constant tensor:
#      x y z
#    x 1.824760 0.000000 0.000810 
#    y 0.000000 1.827520 0.000000 
#    z 0.000810 0.000000 1.833130 
# 
# From -- ./inp_files/91568.got.cif
#   From: 2010.06.25/outbox.cif.g09.slc.cpg/sg12_46_cif.got.tgz:91568.got - 2010.06.28 00:19:55.
