data_PCOD8109769
_publ_section_title
;
Structure prediction by ZEFSAII (Michael W. Deem and Ramdas Pophale) SiO2 
 PCOD8109769
Probable space group: C 2/M
;
_chemical_formula_sum "Si O2"
_cell_formula_units_Z 36
_cell_length_a 11.032861
_cell_length_b 26.127735
_cell_length_c 15.561716
_cell_angle_alpha 90.000000
_cell_angle_beta 155.336694
_cell_angle_gamma 90.000000
_cell_volume 1871.890005
_symmetry_space_group_name_H-M "C 2/M"
_symmetry_group_IT_number 12
_symmetry_cell_setting 'monoclinic'
loop_
_space_group_symop_operation_xyz
x,y,z
-x,y,-z
-x,-y,-z
x,-y,z
1/2+x,1/2+y,z
1/2-x,1/2+y,-z
1/2-x,1/2-y,-z
1/2+x,1/2-y,z
loop_
_atom_site_type_symbol
_atom_site_label
_atom_site_fract_x
_atom_site_fract_y
_atom_site_fract_z
Si Si1 0.791482 0.500000 0.946051
Si Si2 0.217637 0.500000 0.377092
Si Si3 0.500000 0.856377 0.500000
Si Si4 0.079557 0.817903 0.452972
Si Si5 0.674428 0.211521 0.759014
Si Si6 0.882779 0.916555 0.616052
O O1 0.604997 0.448810 0.816419
O O2 0.000000 0.500000 0.000000
O O3 0.940964 0.500000 0.135744
O O4 0.500000 0.500000 0.500000
O O5 0.214621 0.450341 0.436291
O O6 0.306017 0.817477 0.319376
O O7 0.664984 0.894097 0.544244
O O8 0.429844 0.813842 0.663803
O O9 0.959871 0.869471 0.330867
O O10 0.000000 0.821934 0.500000
O O11 0.909689 0.770739 0.302371
O O12 0.000000 0.206428 0.000000
#
# Coordination Sequence:
#
# PCOD8109769 Si02
#       6
#     4   4   4   8   8   8
#     4  11  23  40  62  94 122 153 202 257 316 365
#     4  11  21  42  60  88 126 151 200 263 304 367
#     4  10  22  45  60  90 128 163 208 252 310 374
#     4  10  21  40  62  91 125 166 213 255 312 372
#     4  10  22  41  60  89 131 167 206 264 306 366
#     4  10  23  40  64  88 124 163 201 260 307 369
#
# _framework density 19.231898999999999
#
# number of rings (size 3 to 8) (size 9 to 14) (size 15 to 20)
#    0.000    1.778    3.333    0.667    0.000    7.111 
#    0.000    1.111    0.000    0.000    0.000    0.000 
#    0.000    0.000    0.000    0.000    0.000    0.000 
#
# Total GULP energy -223092.032683 kJ/mol
# GULP energy per Si atom -12394.001816 kJ/mol
# Density = 1.918813 g / cm^3
# Si number density = 19.231899 Si / 1000 Ang^3
#
#
#
# Elastic Constant Matrix: (Units=GPa)
#
#
# Indices 1 2 3 4 5 6 
#
# 1 128.4558 58.8782 54.0452 -0.0175 -17.1434 0.0091
# 2 58.8782 158.8385 62.4163 -0.0016 -15.4717 0.0066
# 3 54.0452 62.4163 151.6671 -0.0188 -25.5772 0.0293
# 4 -0.0175 -0.0016 -0.0188 -17.6096 -0.0262 4.6516
# 5 -17.1434 -15.4717 -25.5772 -0.0262 25.4815 0.0071
# 6 0.0091 0.0066 0.0293 4.6516 0.0071 25.9000
#
#
#
# Elastic Compliance Matrix: (Units=1/GPa)
#
#
# Indices 1 2 3 4 5 6 
#
# 1 0.010310 -0.002715 -0.002004 -0.000013 0.003276 0.000001
# 2 -0.002715 0.008291 -0.002292 0.000003 0.000907 0.000001
# 3 -0.002004 -0.002292 0.009376 -0.000020 0.006671 -0.000008
# 4 -0.000013 0.000003 -0.000020 -0.054215 -0.000085 0.009737
# 5 0.003276 0.000907 0.006671 -0.000085 0.048695 -0.000007
# 6 0.000001 0.000001 -0.000008 0.009737 -0.000007 0.036861
#
#
# Mechanical properties :
#
#
# Convention : Reuss Voigt Hill
#
# Bulk Modulus (GPa) = 71.65823 87.73786 79.69804
# Shear Modulus (GPa) = 64.11060 24.32916 44.21988
#
# Velocity S-wave (km/s) = 5.77996 3.56060 4.80030
# Velocity P-wave (km/s) = 9.04903 7.91353 8.50026
#
# Compressibility (1/GPa) = 0.01395513
#
# Stress axis : x y z
#
# Youngs Moduli (GPa) = 96.99768 120.61364 106.66048
#
# Poissons Ratio (x) = 0.32746 0.21374
# Poissons Ratio (y) = 0.26335 0.24442
# Poissons Ratio (z) = 0.19438 0.27639
#
# Static dielectric constant tensor:
#      x y z
#    x 3.821390 -0.000100 0.005500 
#    y -0.000100 3.881730 0.000320 
#    z 0.005500 0.000320 2.868010 
# 
# 
# High freq. dielectric constant tensor:
#      x y z
#    x 1.761900 0.000000 -0.003060 
#    y 0.000000 1.773620 0.000000 
#    z -0.003060 0.000000 1.725640 
# 
# From -- ./inp_files/266006.got.cif
#   From: 2010.06.25/outbox.cif.g09.slc.cpg/sg12_134_cif.got.tgz:266006.got - 2010.06.28 00:19:55.
