data_PCOD8109607
_publ_section_title
;
Structure prediction by ZEFSAII (Michael W. Deem and Ramdas Pophale) SiO2 
 PCOD8109607
Probable space group: C 2/M
;
_chemical_formula_sum "Si O2"
_cell_formula_units_Z 40
_cell_length_a 8.914737
_cell_length_b 20.852721
_cell_length_c 9.488054
_cell_angle_alpha 90.000000
_cell_angle_beta 77.981955
_cell_angle_gamma 90.000000
_cell_volume 1725.137493
_symmetry_space_group_name_H-M "C 2/M"
_symmetry_group_IT_number 12
_symmetry_cell_setting 'monoclinic'
loop_
_space_group_symop_operation_xyz
x,y,z
-x,y,-z
-x,-y,-z
x,-y,z
1/2+x,1/2+y,z
1/2-x,1/2+y,-z
1/2-x,1/2-y,-z
1/2+x,1/2-y,z
loop_
_atom_site_type_symbol
_atom_site_label
_atom_site_fract_x
_atom_site_fract_y
_atom_site_fract_z
Si Si1 0.671235 0.571123 0.502007
Si Si2 0.984151 0.731721 0.671073
Si Si3 0.787370 0.426190 0.940820
Si Si4 0.112627 0.608744 0.777699
Si Si5 0.680667 0.662736 0.743283
O O1 0.500000 0.594350 0.500000
O O2 0.665285 0.500000 0.570093
O O3 0.778432 0.567773 0.344443
O O4 0.740947 0.620125 0.600992
O O5 0.811336 0.715386 0.748831
O O6 0.000000 0.736662 0.500000
O O7 0.100125 0.679692 0.714661
O O8 0.024068 0.800207 0.735401
O O9 0.735375 0.500000 0.970718
O O10 0.658945 0.385249 0.880549
O O11 0.946121 0.424471 0.821353
O O12 0.808415 0.390479 0.084975
#
# Coordination Sequence:
#
# PCOD8109607 Si02
#       5
#     8   8   8   8   8
#     4  11  23  39  63  95 129 166 211 261 317 378
#     4  11  22  39  63  94 128 165 213 266 311 372
#     4  10  21  41  67  94 127 163 208 264 318 378
#     4  10  21  39  66  95 126 164 208 263 322 370
#     4  11  24  39  65  93 128 169 213 260 318 370
#
# _framework density 23.186554999999998
#
# number of rings (size 3 to 8) (size 9 to 14) (size 15 to 20)
#    0.000    1.400    2.000    4.200    2.800    0.800 
#    0.000    4.000    0.000    3.600    0.000    0.000 
#    0.000    0.000    0.000    0.000    0.000    0.000 
#
# Total GULP energy -248008.458512 kJ/mol
# GULP energy per Si atom -12400.422926 kJ/mol
# Density = 2.313378 g / cm^3
# Si number density = 23.186555 Si / 1000 Ang^3
#
#
#
# Elastic Constant Matrix: (Units=GPa)
#
#
# Indices 1 2 3 4 5 6 
#
# 1 64.5799 48.7757 40.9980 0.0000 19.5887 0.0000
# 2 48.7757 132.0575 55.7078 0.0000 36.3673 0.0000
# 3 40.9980 55.7078 101.5885 0.0000 34.2432 0.0000
# 4 0.0000 0.0000 0.0000 30.8721 0.0000 13.0564
# 5 19.5887 36.3673 34.2432 0.0000 33.6340 0.0000
# 6 0.0000 0.0000 0.0000 13.0564 0.0000 28.0059
#
#
#
# Elastic Compliance Matrix: (Units=1/GPa)
#
#
# Indices 1 2 3 4 5 6 
#
# 1 0.024304 -0.006027 -0.005981 0.000000 -0.001548 0.000000
# 2 -0.006027 0.012923 -0.001716 0.000000 -0.008715 0.000000
# 3 -0.005981 -0.001716 0.017355 0.000000 -0.012330 0.000000
# 4 0.000000 0.000000 0.000000 0.040347 0.000000 -0.018810
# 5 -0.001548 -0.008715 -0.012330 0.000000 0.052610 0.000000
# 6 0.000000 0.000000 0.000000 -0.018810 0.000000 0.044476
#
#
# Mechanical properties :
#
#
# Convention : Reuss Voigt Hill
#
# Bulk Modulus (GPa) = 36.85736 65.46541 51.16139
# Shear Modulus (GPa) = 21.88122 28.68537 25.28330
#
# Velocity S-wave (km/s) = 3.07531 3.52114 3.30575
# Velocity P-wave (km/s) = 5.34233 6.69528 6.05670
#
# Compressibility (1/GPa) = 0.02713162
#
# Stress axis : x y z
#
# Youngs Moduli (GPa) = 41.14628 77.38332 57.62111
#
# Poissons Ratio (x) = 0.46639 0.34465
# Poissons Ratio (y) = 0.24799 0.09890
# Poissons Ratio (z) = 0.24611 0.13282
#
# Static dielectric constant tensor:
#      x y z
#    x 3.983620 0.000000 0.288150 
#    y 0.000000 4.226700 0.000000 
#    z 0.288150 0.000000 4.071390 
# 
# 
# High freq. dielectric constant tensor:
#      x y z
#    x 1.901720 0.000000 0.019190 
#    y 0.000000 1.925910 0.000000 
#    z 0.019190 0.000000 1.907690 
# 
# From -- ./inp_files/39230.got.cif
#   From: 2010.06.25/outbox.cif.g09.slc.cpg/sg12_20_cif.got.tgz:39230.got - 2010.06.28 00:19:55.
