data_PCOD8109874
_publ_section_title
;
Structure prediction by ZEFSAII (Michael W. Deem and Ramdas Pophale) SiO2 
 PCOD8109874
Probable space group: C 2/M
;
_chemical_formula_sum "Si O2"
_cell_formula_units_Z 48
_cell_length_a 15.284450
_cell_length_b 15.762975
_cell_length_c 11.387538
_cell_angle_alpha 90.000000
_cell_angle_beta 56.167869
_cell_angle_gamma 90.000000
_cell_volume 2279.017227
_symmetry_space_group_name_H-M "C 2/M"
_symmetry_group_IT_number 12
_symmetry_cell_setting 'monoclinic'
loop_
_space_group_symop_operation_xyz
x,y,z
-x,y,-z
-x,-y,-z
x,-y,z
1/2+x,1/2+y,z
1/2-x,1/2+y,-z
1/2-x,1/2-y,-z
1/2+x,1/2-y,z
loop_
_atom_site_type_symbol
_atom_site_label
_atom_site_fract_x
_atom_site_fract_y
_atom_site_fract_z
Si Si1 0.712145 0.336792 0.584270
Si Si2 0.452232 0.757225 0.154146
Si Si3 0.816675 0.598662 0.150427
Si Si4 0.383625 0.901559 0.624352
Si Si5 0.657283 0.185972 0.104036
Si Si6 0.385792 0.597096 0.570962
O O1 0.750000 0.250000 0.500000
O O2 0.627201 0.315220 0.746418
O O3 0.809342 0.386959 0.567771
O O4 0.658248 0.395332 0.527333
O O5 0.398228 0.848277 0.168630
O O6 0.543671 0.768928 0.181867
O O7 0.500000 0.718998 0.000000
O O8 0.830839 0.500000 0.173126
O O9 0.699637 0.633452 0.272287
O O10 0.837460 0.611075 0.996813
O O11 0.500000 0.869771 0.500000
O O12 0.334194 0.850485 0.771208
O O13 0.386924 0.000000 0.656191
O O14 0.750000 0.250000 0.000000
O O15 0.500000 0.643557 0.500000
O O16 0.402125 0.500000 0.591436
#
# Coordination Sequence:
#
# PCOD8109874 Si02
#       6
#     8   8   8   8   8   8
#     4  12  23  40  64  91 126 167 204 256 316 371
#     4  10  22  39  59  93 123 160 209 258 305 366
#     4  10  21  40  64  90 121 162 208 259 311 360
#     4  11  25  43  65  96 132 170 211 259 319 381
#     4  11  24  41  64  94 128 165 209 260 313 379
#     4  10  23  41  64  91 121 160 211 259 307 368
#
# _framework density 21.061709
#
# number of rings (size 3 to 8) (size 9 to 14) (size 15 to 20)
#    0.000    1.333    1.667    4.000    2.333    4.333 
#    0.000    0.000    0.000    2.000    0.000    0.000 
#    0.000    0.000    0.000    0.000    0.000    0.000 
#
# Total GULP energy -297594.139142 kJ/mol
# GULP energy per Si atom -12399.755798 kJ/mol
# Density = 2.101377 g / cm^3
# Si number density = 21.061709 Si / 1000 Ang^3
#
#
#
# Elastic Constant Matrix: (Units=GPa)
#
#
# Indices 1 2 3 4 5 6 
#
# 1 147.9015 10.7029 44.0092 0.0000 -11.1247 0.0000
# 2 10.7029 42.4948 23.0108 0.0000 -9.9301 0.0000
# 3 44.0092 23.0108 124.0476 0.0000 -15.7566 0.0000
# 4 0.0000 0.0000 0.0000 36.0715 0.0000 0.9809
# 5 -11.1247 -9.9301 -15.7566 0.0000 40.3582 0.0000
# 6 0.0000 0.0000 0.0000 0.9809 0.0000 25.8403
#
#
#
# Elastic Compliance Matrix: (Units=1/GPa)
#
#
# Indices 1 2 3 4 5 6 
#
# 1 0.007609 -0.000315 -0.002509 0.000000 0.001040 0.000000
# 2 -0.000315 0.027079 -0.004289 0.000000 0.004902 0.000000
# 3 -0.002509 -0.004289 0.010022 0.000000 0.002166 0.000000
# 4 0.000000 0.000000 0.000000 0.027751 0.000000 -0.001053
# 5 0.001040 0.004902 0.002166 0.000000 0.027117 0.000000
# 6 0.000000 0.000000 0.000000 -0.001053 0.000000 0.038739
#
#
# Mechanical properties :
#
#
# Convention : Reuss Voigt Hill
#
# Bulk Modulus (GPa) = 32.80263 52.20995 42.50629
# Shear Modulus (GPa) = 30.73054 36.23541 33.48297
#
# Velocity S-wave (km/s) = 3.82392 4.15232 3.99150
# Velocity P-wave (km/s) = 5.92494 6.91606 6.43959
#
# Compressibility (1/GPa) = 0.03048536
#
# Stress axis : x y z
#
# Youngs Moduli (GPa) = 131.42629 36.92838 99.77801
#
# Poissons Ratio (x) = 0.01162 0.25033
# Poissons Ratio (y) = 0.04136 0.42795
# Poissons Ratio (z) = 0.32974 0.15838
#
# Static dielectric constant tensor:
#      x y z
#    x 4.134010 0.000000 -0.366190 
#    y 0.000000 3.529330 0.000000 
#    z -0.366190 0.000000 4.325250 
# 
# 
# High freq. dielectric constant tensor:
#      x y z
#    x 1.834840 0.000000 -0.012140 
#    y 0.000000 1.805110 0.000000 
#    z -0.012140 0.000000 1.842830 
# 
# From -- ./inp_files/143566.got.cif
#   From: 2010.06.25/outbox.cif.g09.slc.cpg/sg12_72_cif.got.tgz:143566.got - 2010.06.28 00:19:55.
