data_PCOD8109403
_publ_section_title
;
Structure prediction by ZEFSAII (Michael W. Deem and Ramdas Pophale) SiO2 
 PCOD8109403
Probable space group: C 2/M
;
_chemical_formula_sum "Si O2"
_cell_formula_units_Z 32
_cell_length_a 15.165004
_cell_length_b 23.307342
_cell_length_c 10.240491
_cell_angle_alpha 90.000000
_cell_angle_beta 153.522951
_cell_angle_gamma 90.000000
_cell_volume 1613.743105
_symmetry_space_group_name_H-M "C 2/M"
_symmetry_group_IT_number 12
_symmetry_cell_setting 'monoclinic'
loop_
_space_group_symop_operation_xyz
x,y,z
-x,y,-z
-x,-y,-z
x,-y,z
1/2+x,1/2+y,z
1/2-x,1/2+y,-z
1/2-x,1/2-y,-z
1/2+x,1/2-y,z
loop_
_atom_site_type_symbol
_atom_site_label
_atom_site_fract_x
_atom_site_fract_y
_atom_site_fract_z
Si Si1 0.896561 0.607488 0.055429
Si Si2 0.971669 0.000000 0.807866
Si Si3 0.618985 0.000000 0.790035
Si Si4 0.385252 0.696330 0.215405
Si Si5 0.201618 0.884209 0.528588
O O1 0.944229 0.552115 0.202657
O O2 0.099881 0.638226 0.279596
O O3 0.779078 0.648193 0.994829
O O4 0.754682 0.594090 0.744391
O O5 0.862493 0.059304 0.633363
O O6 0.000000 0.000000 0.000000
O O7 0.155501 0.000000 0.953494
O O8 0.500000 0.000000 0.500000
O O9 0.500000 0.711520 0.500000
O O10 0.545309 0.669428 0.324004
O O11 0.250000 0.750000 0.000000
#
# Coordination Sequence:
#
# PCOD8109403 Si02
#       5
#     8   4   4   8   8
#     4  10  21  39  64  88 120 166 202 249 306 372
#     4  12  23  38  59  94 131 158 197 251 314 376
#     4  12  23  36  59  92 131 160 199 251 314 376
#     4  10  22  41  63  89 119 163 215 261 306 361
#     4  10  21  40  63  88 123 159 209 247 304 377
#
# _framework density 19.829674000000001
#
# number of rings (size 3 to 8) (size 9 to 14) (size 15 to 20)
#    0.000    1.500    2.500    3.000    0.000    5.000 
#    4.500    0.000    0.000    0.000    0.000    0.000 
#    0.000    0.000    0.000    0.000    0.000    0.000 
#
# Total GULP energy -198212.303365 kJ/mol
# GULP energy per Si atom -12388.268960 kJ/mol
# Density = 1.978454 g / cm^3
# Si number density = 19.829674 Si / 1000 Ang^3
#
#
#
# Elastic Constant Matrix: (Units=GPa)
#
#
# Indices 1 2 3 4 5 6 
#
# 1 114.6763 35.7956 38.6217 0.0000 22.7912 0.0000
# 2 35.7956 113.4096 63.4526 0.0000 2.5024 0.0000
# 3 38.6217 63.4526 95.0026 0.0000 9.1436 0.0000
# 4 0.0000 0.0000 0.0000 39.7960 0.0000 2.5772
# 5 22.7912 2.5024 9.1436 0.0000 37.4826 0.0000
# 6 0.0000 0.0000 0.0000 2.5772 0.0000 10.7282
#
#
#
# Elastic Compliance Matrix: (Units=1/GPa)
#
#
# Indices 1 2 3 4 5 6 
#
# 1 0.011489 -0.001931 -0.002786 0.000000 -0.006177 0.000000
# 2 -0.001931 0.014474 -0.009116 0.000000 0.002432 0.000000
# 3 -0.002786 -0.009116 0.017947 0.000000 -0.002075 0.000000
# 4 0.000000 0.000000 0.000000 0.025525 0.000000 -0.006132
# 5 -0.006177 0.002432 -0.002075 0.000000 0.030779 0.000000
# 6 0.000000 0.000000 0.000000 -0.006132 0.000000 0.094685
#
#
# Mechanical properties :
#
#
# Convention : Reuss Voigt Hill
#
# Bulk Modulus (GPa) = 61.56496 66.53647 64.05071
# Shear Modulus (GPa) = 21.93160 29.94928 25.94044
#
# Velocity S-wave (km/s) = 3.32926 3.89051 3.62078
# Velocity P-wave (km/s) = 6.77443 7.33541 7.06050
#
# Compressibility (1/GPa) = 0.01624301
#
# Stress axis : x y z
#
# Youngs Moduli (GPa) = 87.03920 69.08965 55.71867
#
# Poissons Ratio (x) = 0.13341 0.15526
# Poissons Ratio (y) = 0.16807 0.50794
# Poissons Ratio (z) = 0.24253 0.62984
#
# Static dielectric constant tensor:
#      x y z
#    x 3.796180 0.000000 0.180210 
#    y 0.000000 3.271980 0.000000 
#    z 0.180210 0.000000 3.702780 
# 
# 
# High freq. dielectric constant tensor:
#      x y z
#    x 1.789270 0.000000 0.019140 
#    y 0.000000 1.759250 0.000000 
#    z 0.019140 0.000000 1.777850 
# 
# From -- ./inp_files/66051.got.cif
#   From: 2010.06.25/outbox.cif.g09.slc.cpg/sg12_34_cif.got.tgz:66051.got - 2010.06.28 00:19:55.
