data_PCOD8109955
_publ_section_title
;
Structure prediction by ZEFSAII (Michael W. Deem and Ramdas Pophale) SiO2 
 PCOD8109955
Probable space group: C 2/M
;
_chemical_formula_sum "Si O2"
_cell_formula_units_Z 56
_cell_length_a 9.148248
_cell_length_b 19.228689
_cell_length_c 18.278822
_cell_angle_alpha 90.000000
_cell_angle_beta 119.213872
_cell_angle_gamma 90.000000
_cell_volume 2806.418948
_symmetry_space_group_name_H-M "C 2/M"
_symmetry_group_IT_number 12
_symmetry_cell_setting 'monoclinic'
loop_
_space_group_symop_operation_xyz
x,y,z
-x,y,-z
-x,-y,-z
x,-y,z
1/2+x,1/2+y,z
1/2-x,1/2+y,-z
1/2-x,1/2-y,-z
1/2+x,1/2-y,z
loop_
_atom_site_type_symbol
_atom_site_label
_atom_site_fract_x
_atom_site_fract_y
_atom_site_fract_z
Si Si1 0.653229 0.827683 0.084489
Si Si2 0.000113 0.181732 0.917661
Si Si3 0.824097 0.076617 0.772145
Si Si4 0.827491 0.324398 0.501474
Si Si5 0.282983 0.079348 0.760428
Si Si6 0.450840 0.920099 0.657477
Si Si7 0.426629 0.577278 0.640512
O O1 0.584487 0.757004 0.102900
O O2 0.704174 0.875639 0.163879
O O3 0.813627 0.815215 0.071266
O O4 0.500000 0.861090 0.000000
O O5 0.875972 0.132373 0.843857
O O6 0.000000 0.152250 0.000000
O O7 0.645804 0.092350 0.691284
O O8 0.946819 0.079715 0.733357
O O9 0.825907 0.000000 0.809529
O O10 0.750000 0.250000 0.500000
O O11 0.849660 0.367620 0.581244
O O12 0.695055 0.364811 0.419657
O O13 0.000000 0.315827 0.500000
O O14 0.428767 0.097064 0.738245
O O15 0.119723 0.093065 0.668482
O O16 0.290478 0.000000 0.788925
O O17 0.397777 0.000000 0.626761
O O18 0.368506 0.500000 0.600117
#
# Coordination Sequence:
#
# PCOD8109955 Si02
#       7
#     8   8   8   8   8   8   8
#     4  11  24  41  62  88 125 165 202 249 302 362
#     4  11  24  40  62  90 123 164 205 247 303 363
#     4  10  21  40  65  92 120 156 205 254 301 357
#     4  12  27  42  61  92 126 161 204 252 303 358
#     4  10  23  42  65  94 123 157 202 251 307 361
#     4  10  23  42  66  92 120 160 206 250 301 362
#     4  10  21  42  67  88 120 162 202 249 304 361
#
# _framework density 19.954255
#
# number of rings (size 3 to 8) (size 9 to 14) (size 15 to 20)
#    0.000    1.429    2.857    2.143    6.000    3.429 
#    0.000    2.143    0.000    0.000    0.000    0.000 
#    0.000    0.000    0.000    0.000    0.000    0.000 
#
# Total GULP energy -347089.315327 kJ/mol
# GULP energy per Si atom -12396.046976 kJ/mol
# Density = 1.990884 g / cm^3
# Si number density = 19.954255 Si / 1000 Ang^3
#
#
#
# Elastic Constant Matrix: (Units=GPa)
#
#
# Indices 1 2 3 4 5 6 
#
# 1 90.9083 47.2019 37.1695 0.0000 -8.0503 0.0000
# 2 47.2019 117.2170 75.4954 0.0000 5.9496 0.0000
# 3 37.1695 75.4954 108.3673 0.0000 1.3468 0.0000
# 4 0.0000 0.0000 0.0000 47.5610 0.0000 2.1074
# 5 -8.0503 5.9496 1.3468 0.0000 28.1375 0.0000
# 6 0.0000 0.0000 0.0000 2.1074 0.0000 31.1677
#
#
#
# Elastic Compliance Matrix: (Units=1/GPa)
#
#
# Indices 1 2 3 4 5 6 
#
# 1 0.014835 -0.005313 -0.001455 0.000000 0.005437 0.000000
# 2 -0.005313 0.017594 -0.010376 0.000000 -0.004744 0.000000
# 3 -0.001455 -0.010376 0.016943 0.000000 0.000967 0.000000
# 4 0.000000 0.000000 0.000000 0.021089 0.000000 -0.001426
# 5 0.005437 -0.004744 0.000967 0.000000 0.038052 0.000000
# 6 0.000000 0.000000 0.000000 -0.001426 0.000000 0.032181
#
#
# Mechanical properties :
#
#
# Convention : Reuss Voigt Hill
#
# Bulk Modulus (GPa) = 66.28881 70.69180 68.49030
# Shear Modulus (GPa) = 27.77625 31.81497 29.79561
#
# Velocity S-wave (km/s) = 3.73499 3.99732 3.86838
# Velocity P-wave (km/s) = 7.20366 7.53715 7.37229
#
# Compressibility (1/GPa) = 0.01508550
#
# Stress axis : x y z
#
# Youngs Moduli (GPa) = 67.40828 56.83673 59.02041
#
# Poissons Ratio (x) = 0.30198 0.08585
# Poissons Ratio (y) = 0.35814 0.61239
# Poissons Ratio (z) = 0.09805 0.58974
#
# Static dielectric constant tensor:
#      x y z
#    x 3.900000 0.000000 -0.008840 
#    y 0.000000 3.567680 0.000000 
#    z -0.008840 0.000000 3.467900 
# 
# 
# High freq. dielectric constant tensor:
#      x y z
#    x 1.802170 0.000000 -0.000140 
#    y 0.000000 1.773610 0.000000 
#    z -0.000140 0.000000 1.774350 
# 
# From -- ./inp_files/257210.got.cif
#   From: 2010.06.25/outbox.cif.g09.slc.cpg/sg12_129_cif.got.tgz:257210.got - 2010.06.28 00:19:55.
