data_PCOD8109091
_publ_section_title
;
Structure prediction by ZEFSAII (Michael W. Deem and Ramdas Pophale) SiO2 
 PCOD8109091
Probable space group: C 2/M
;
_chemical_formula_sum "Si O2"
_cell_formula_units_Z 56
_cell_length_a 17.223741
_cell_length_b 14.876884
_cell_length_c 10.985900
_cell_angle_alpha 90.000000
_cell_angle_beta 93.746843
_cell_angle_gamma 90.000000
_cell_volume 2808.961699
_symmetry_space_group_name_H-M "C 2/M"
_symmetry_group_IT_number 12
_symmetry_cell_setting 'monoclinic'
loop_
_space_group_symop_operation_xyz
x,y,z
-x,y,-z
-x,-y,-z
x,-y,z
1/2+x,1/2+y,z
1/2-x,1/2+y,-z
1/2-x,1/2-y,-z
1/2+x,1/2-y,z
loop_
_atom_site_type_symbol
_atom_site_label
_atom_site_fract_x
_atom_site_fract_y
_atom_site_fract_z
Si Si1 0.187516 0.599931 0.292961
Si Si2 0.860938 0.899774 0.739463
Si Si3 0.896371 0.250381 0.272299
Si Si4 0.983848 0.603086 0.639559
Si Si5 0.475626 0.398977 0.132902
Si Si6 0.238223 0.761320 0.140016
Si Si7 0.809154 0.828305 0.476255
O O1 0.180282 0.500000 0.237736
O O2 0.206510 0.666754 0.185852
O O3 0.257506 0.598925 0.398352
O O4 0.105888 0.628960 0.346213
O O5 0.823829 0.838642 0.840055
O O6 0.843980 0.868242 0.601790
O O7 0.952970 0.896775 0.766393
O O8 0.828300 0.000000 0.754238
O O9 0.961652 0.328006 0.280252
O O10 0.913990 0.171847 0.177188
O O11 0.816055 0.293319 0.217006
O O12 0.882026 0.207476 0.404052
O O13 0.001655 0.500000 0.681763
O O14 0.000000 0.615297 0.500000
O O15 0.439505 0.500000 0.125781
O O16 0.500000 0.369687 0.000000
O O17 0.250000 0.750000 0.000000
O O18 0.750000 0.750000 0.500000
#
# Coordination Sequence:
#
# PCOD8109091 Si02
#       7
#     8   8   8   8   8   8   8
#     4  10  21  39  62  85 122 161 196 243 298 358
#     4  11  23  40  63  87 121 159 197 250 302 357
#     4  11  23  36  65  89 120 159 194 253 299 355
#     4  10  22  37  59  91 122 157 193 234 297 365
#     4  10  23  42  62  87 120 161 204 245 296 355
#     4  11  24  41  61  88 118 157 209 248 294 353
#     4  11  21  39  58  92 121 155 195 245 305 356
#
# _framework density 19.936192999999999
#
# number of rings (size 3 to 8) (size 9 to 14) (size 15 to 20)
#    0.000    1.429    2.857    3.000    2.000    4.000 
#    0.000    1.429    0.000    2.143    0.000    0.000 
#    0.000    0.000    0.000    0.000    0.000    0.000 
#
# Total GULP energy -347245.285043 kJ/mol
# GULP energy per Si atom -12401.617323 kJ/mol
# Density = 1.989082 g / cm^3
# Si number density = 19.936193 Si / 1000 Ang^3
#
#
#
# Elastic Constant Matrix: (Units=GPa)
#
#
# Indices 1 2 3 4 5 6 
#
# 1 74.9885 26.4700 21.1538 0.0000 -4.4050 0.0000
# 2 26.4700 96.4308 35.3525 0.0000 -7.5701 0.0000
# 3 21.1538 35.3525 112.1628 0.0000 -15.3280 0.0000
# 4 0.0000 0.0000 0.0000 21.5155 0.0000 0.0657
# 5 -4.4050 -7.5701 -15.3280 0.0000 28.9745 0.0000
# 6 0.0000 0.0000 0.0000 0.0657 0.0000 27.2435
#
#
#
# Elastic Compliance Matrix: (Units=1/GPa)
#
#
# Indices 1 2 3 4 5 6 
#
# 1 0.015067 -0.003482 -0.001676 0.000000 0.000494 0.000000
# 2 -0.003482 0.012568 -0.003156 0.000000 0.001084 0.000000
# 3 -0.001676 -0.003156 0.010865 0.000000 0.004668 0.000000
# 4 0.000000 0.000000 0.000000 0.046478 0.000000 -0.000112
# 5 0.000494 0.001084 0.004668 0.000000 0.037341 0.000000
# 6 0.000000 0.000000 0.000000 -0.000112 0.000000 0.036706
#
#
# Mechanical properties :
#
#
# Convention : Reuss Voigt Hill
#
# Bulk Modulus (GPa) = 45.72684 49.94829 47.83756
# Shear Modulus (GPa) = 27.33057 28.92042 28.12549
#
# Velocity S-wave (km/s) = 3.70659 3.81287 3.76010
# Velocity P-wave (km/s) = 6.42688 6.67027 6.54970
#
# Compressibility (1/GPa) = 0.02186900
#
# Stress axis : x y z
#
# Youngs Moduli (GPa) = 66.37228 79.56501 92.04228
#
# Poissons Ratio (x) = 0.27707 0.15430
# Poissons Ratio (y) = 0.23113 0.29052
# Poissons Ratio (z) = 0.11127 0.25114
#
# Static dielectric constant tensor:
#      x y z
#    x 3.644120 0.000000 -0.197640 
#    y 0.000000 3.736160 0.000000 
#    z -0.197640 0.000000 3.293010 
# 
# 
# High freq. dielectric constant tensor:
#      x y z
#    x 1.783330 0.000000 -0.003610 
#    y 0.000000 1.785030 0.000000 
#    z -0.003610 0.000000 1.772550 
# 
# From -- ./inp_files/143762.got.cif
#   From: 2010.06.25/outbox.cif.g09.slc.cpg/sg12_72_cif.got.tgz:143762.got - 2010.06.28 00:19:55.
