data_PCOD8109045
_publ_section_title
;
Structure prediction by ZEFSAII (Michael W. Deem and Ramdas Pophale) SiO2 
 PCOD8109045
Probable space group: C 2/M
;
_chemical_formula_sum "Si O2"
_cell_formula_units_Z 56
_cell_length_a 29.495328
_cell_length_b 8.818538
_cell_length_c 10.941823
_cell_angle_alpha 90.000000
_cell_angle_beta 113.889150
_cell_angle_gamma 90.000000
_cell_volume 2602.212681
_symmetry_space_group_name_H-M "C 2/M"
_symmetry_group_IT_number 12
_symmetry_cell_setting 'monoclinic'
loop_
_space_group_symop_operation_xyz
x,y,z
-x,y,-z
-x,-y,-z
x,-y,z
1/2+x,1/2+y,z
1/2-x,1/2+y,-z
1/2-x,1/2-y,-z
1/2+x,1/2-y,z
loop_
_atom_site_type_symbol
_atom_site_label
_atom_site_fract_x
_atom_site_fract_y
_atom_site_fract_z
Si Si1 0.457572 0.669416 0.050905
Si Si2 0.227727 0.823099 0.853830
Si Si3 0.877663 0.172086 0.771810
Si Si4 0.120266 0.174388 0.658994
Si Si5 0.076879 0.326475 0.396043
Si Si6 0.033957 0.328371 0.698104
Si Si7 0.726387 0.821609 0.352812
O O1 0.462643 0.500000 0.113904
O O2 0.463651 0.802752 0.154647
O O3 0.500000 0.696232 0.000000
O O4 0.403204 0.684682 0.931484
O O5 0.169035 0.787046 0.790573
O O6 0.249927 0.760038 0.749234
O O7 0.239071 0.000000 0.875165
O O8 0.250000 0.750000 0.000000
O O9 0.919061 0.221623 0.718316
O O10 0.831500 0.284111 0.713584
O O11 0.860524 0.000000 0.726725
O O12 0.119801 0.276944 0.536950
O O13 0.070983 0.207110 0.681588
O O14 0.120679 0.000000 0.618595
O O15 0.084417 0.500000 0.365775
O O16 0.023419 0.302797 0.404733
O O17 0.050746 0.500000 0.684563
O O18 0.750000 0.750000 0.500000
O O19 0.734752 0.000000 0.371315
#
# Coordination Sequence:
#
# PCOD8109045 Si02
#       7
#     8   8   8   8   8   8   8
#     4  10  21  39  61  88 123 165 210 255 309 374
#     4  10  25  46  67  94 127 165 215 268 322 384
#     4  11  23  39  64  94 127 166 209 258 315 378
#     4  11  24  42  65  91 123 164 211 259 312 377
#     4  11  23  40  62  93 129 166 208 256 312 375
#     4  11  24  39  60  91 128 165 208 257 310 374
#     4  11  24  44  69  99 131 167 217 273 329 391
#
# _framework density 21.520147999999999
#
# number of rings (size 3 to 8) (size 9 to 14) (size 15 to 20)
#    0.000    1.286    1.429    3.429    2.000    8.286 
#    0.000    0.000    0.000    0.000    0.000    0.000 
#    0.000    0.000    0.000    0.000    0.000    0.000 
#
# Total GULP energy -347228.943683 kJ/mol
# GULP energy per Si atom -12401.033703 kJ/mol
# Density = 2.147117 g / cm^3
# Si number density = 21.520148 Si / 1000 Ang^3
#
#
#
# Elastic Constant Matrix: (Units=GPa)
#
#
# Indices 1 2 3 4 5 6 
#
# 1 82.7157 28.5111 27.5862 0.0000 8.4239 0.0000
# 2 28.5111 65.5957 40.5241 0.0000 5.4915 0.0000
# 3 27.5862 40.5241 115.2609 0.0000 10.3991 0.0000
# 4 0.0000 0.0000 0.0000 37.1297 0.0000 -2.0740
# 5 8.4239 5.4915 10.3991 0.0000 32.1419 0.0000
# 6 0.0000 0.0000 0.0000 -2.0740 0.0000 33.1303
#
#
#
# Elastic Compliance Matrix: (Units=1/GPa)
#
#
# Indices 1 2 3 4 5 6 
#
# 1 0.014634 -0.005273 -0.001425 0.000000 -0.002473 0.000000
# 2 -0.005273 0.021416 -0.006244 0.000000 -0.000257 0.000000
# 3 -0.001425 -0.006244 0.011416 0.000000 -0.002253 0.000000
# 4 0.000000 0.000000 0.000000 0.027027 0.000000 0.001692
# 5 -0.002473 -0.000257 -0.002253 0.000000 0.032533 0.000000
# 6 0.000000 0.000000 0.000000 0.001692 0.000000 0.030290
#
#
# Mechanical properties :
#
#
# Convention : Reuss Voigt Hill
#
# Bulk Modulus (GPa) = 46.33835 50.75723 48.54779
# Shear Modulus (GPa) = 29.34345 31.61043 30.47694
#
# Velocity S-wave (km/s) = 3.69661 3.83675 3.76733
# Velocity P-wave (km/s) = 6.30866 6.57759 6.44453
#
# Compressibility (1/GPa) = 0.02158040
#
# Stress axis : x y z
#
# Youngs Moduli (GPa) = 68.33172 46.69404 87.59765
#
# Poissons Ratio (x) = 0.24623 0.12487
# Poissons Ratio (y) = 0.36032 0.54699
# Poissons Ratio (z) = 0.09740 0.29157
#
# Static dielectric constant tensor:
#      x y z
#    x 3.947950 0.000000 -0.003240 
#    y 0.000000 3.778920 0.000000 
#    z -0.003240 0.000000 4.050980 
# 
# 
# High freq. dielectric constant tensor:
#      x y z
#    x 1.846380 0.000000 0.003310 
#    y 0.000000 1.842140 0.000000 
#    z 0.003310 0.000000 1.856320 
# 
# From -- ./inp_files/181008.got.cif
#   From: 2010.06.25/outbox.cif.g09.slc.cpg/sg12_91_cif.got.tgz:181008.got - 2010.06.28 00:19:55.
