data_PCOD8109789
_publ_section_title
;
Structure prediction by ZEFSAII (Michael W. Deem and Ramdas Pophale) SiO2 
 PCOD8109789
Probable space group: C 2/M
;
_chemical_formula_sum "Si O2"
_cell_formula_units_Z 56
_cell_length_a 11.518225
_cell_length_b 14.759524
_cell_length_c 29.912959
_cell_angle_alpha 90.000000
_cell_angle_beta 29.072786
_cell_angle_gamma 90.000000
_cell_volume 2471.054555
_symmetry_space_group_name_H-M "C 2/M"
_symmetry_group_IT_number 12
_symmetry_cell_setting 'monoclinic'
loop_
_space_group_symop_operation_xyz
x,y,z
-x,y,-z
-x,-y,-z
x,-y,z
1/2+x,1/2+y,z
1/2-x,1/2+y,-z
1/2-x,1/2-y,-z
1/2+x,1/2-y,z
loop_
_atom_site_type_symbol
_atom_site_label
_atom_site_fract_x
_atom_site_fract_y
_atom_site_fract_z
Si Si1 0.331766 0.662131 0.799347
Si Si2 0.907076 0.603785 0.369601
Si Si3 0.758075 0.721148 0.344172
Si Si4 0.382797 0.898794 0.991491
Si Si5 0.546208 0.102303 0.547035
Si Si6 0.938783 0.897001 0.188715
Si Si7 0.463000 0.398449 0.657839
O O1 0.456788 0.761369 0.759135
O O2 0.457005 0.604363 0.796303
O O3 0.371908 0.615274 0.738264
O O4 0.045253 0.665453 0.905012
O O5 0.902547 0.500000 0.355580
O O6 0.175440 0.647540 0.276410
O O7 0.727503 0.658058 0.397969
O O8 0.819202 0.613938 0.450328
O O9 0.649598 0.819744 0.391997
O O10 0.653968 0.675223 0.335281
O O11 0.364265 0.000000 0.976227
O O12 0.500000 0.909278 0.000000
O O13 0.119859 0.854520 0.090263
O O14 0.748002 0.113518 0.440981
O O15 0.431769 0.000000 0.583331
O O16 0.907048 0.000000 0.185426
O O17 0.394943 0.500000 0.664919
#
# Coordination Sequence:
#
# PCOD8109789 Si02
#       7
#     8   8   8   8   8   8   8
#     4  11  21  34  61  89 120 150 193 245 299 345
#     4  10  21  40  63  86 117 161 203 241 287 351
#     4  12  24  40  62  88 125 156 198 245 300 351
#     4   8  15  30  57  89 114 147 195 243 290 342
#     4  10  23  42  62  87 117 157 205 246 293 349
#     4   9  17  35  63  89 114 151 201 245 288 348
#     4  11  25  42  61  89 121 157 198 245 302 355
#
# _framework density 22.662389000000001
#
# number of rings (size 3 to 8) (size 9 to 14) (size 15 to 20)
#    0.000    1.857    1.429    3.857    0.000    3.429 
#    0.000    4.286    3.143    0.000    0.000    4.000 
#    0.000    0.000    0.000    0.000    0.000    0.000 
#
# Total GULP energy -346933.871116 kJ/mol
# GULP energy per Si atom -12390.495397 kJ/mol
# Density = 2.261081 g / cm^3
# Si number density = 22.662389 Si / 1000 Ang^3
#
#
#
# Elastic Constant Matrix: (Units=GPa)
#
#
# Indices 1 2 3 4 5 6 
#
# 1 64.6352 37.5756 30.8903 0.0393 11.6156 0.0133
# 2 37.5756 98.1560 33.5108 0.0300 10.5249 0.0156
# 3 30.8903 33.5108 129.0600 0.1399 27.8554 -0.0108
# 4 0.0393 0.0300 0.1399 12.8436 0.0000 -1.8976
# 5 11.6156 10.5249 27.8554 0.0000 17.3048 0.0209
# 6 0.0133 0.0156 -0.0108 -1.8976 0.0209 37.3418
#
#
#
# Elastic Compliance Matrix: (Units=1/GPa)
#
#
# Indices 1 2 3 4 5 6 
#
# 1 0.021672 -0.006885 -0.001783 -0.000031 -0.007490 -0.000003
# 2 -0.006885 0.013487 -0.001657 0.000007 -0.000915 -0.000003
# 3 -0.001783 -0.001657 0.012458 -0.000125 -0.017849 0.000009
# 4 -0.000031 0.000007 -0.000125 0.078450 0.000213 0.003986
# 5 -0.007490 -0.000915 -0.017849 0.000213 0.092103 -0.000043
# 6 -0.000003 -0.000003 0.000009 0.003986 -0.000043 0.026982
#
#
# Mechanical properties :
#
#
# Convention : Reuss Voigt Hill
#
# Bulk Modulus (GPa) = 37.08045 55.08940 46.08492
# Shear Modulus (GPa) = 18.19572 26.15632 22.17602
#
# Velocity S-wave (km/s) = 2.83663 3.40100 3.13155
# Velocity P-wave (km/s) = 5.20829 6.30745 5.78404
#
# Compressibility (1/GPa) = 0.02696839
#
# Stress axis : x y z
#
# Youngs Moduli (GPa) = 46.14272 74.14513 80.27135
#
# Poissons Ratio (x) = 0.51045 0.14312
# Poissons Ratio (y) = 0.31767 0.13298
# Poissons Ratio (z) = 0.08227 0.12283
#
# Static dielectric constant tensor:
#      x y z
#    x 3.763210 0.000010 -0.021810 
#    y 0.000010 3.944440 -0.000040 
#    z -0.021810 -0.000040 4.787360 
# 
# 
# High freq. dielectric constant tensor:
#      x y z
#    x 1.870680 0.000000 0.008600 
#    y 0.000000 1.878630 0.000000 
#    z 0.008600 0.000000 1.902670 
# 
# From -- ./inp_files/374219.got.cif
#   From: 2010.06.25/outbox.cif.g09.slc.cpg/sg12_188_cif.got.tgz:374219.got - 2010.06.28 00:19:55.
