data_PCOD8109141
_publ_section_title
;
Structure prediction by ZEFSAII (Michael W. Deem and Ramdas Pophale) SiO2 
 PCOD8109141
Probable space group: C 2/M
;
_chemical_formula_sum "Si O2"
_cell_formula_units_Z 56
_cell_length_a 19.179898
_cell_length_b 18.188479
_cell_length_c 8.918706
_cell_angle_alpha 90.000000
_cell_angle_beta 118.381154
_cell_angle_gamma 90.000000
_cell_volume 2737.353812
_symmetry_space_group_name_H-M "C 2/M"
_symmetry_group_IT_number 12
_symmetry_cell_setting 'monoclinic'
loop_
_space_group_symop_operation_xyz
x,y,z
-x,y,-z
-x,-y,-z
x,-y,z
1/2+x,1/2+y,z
1/2-x,1/2+y,-z
1/2-x,1/2-y,-z
1/2+x,1/2-y,z
loop_
_atom_site_type_symbol
_atom_site_label
_atom_site_fract_x
_atom_site_fract_y
_atom_site_fract_z
Si Si1 0.810318 0.200483 0.154484
Si Si2 0.986993 0.582650 0.151238
Si Si3 0.585729 0.414841 0.270563
Si Si4 0.403860 0.416082 0.068254
Si Si5 0.917863 0.672406 0.329992
Si Si6 0.151061 0.581887 0.491043
Si Si7 0.224393 0.827080 0.548300
O O1 0.838069 0.130552 0.088088
O O2 0.889573 0.245480 0.273233
O O3 0.768205 0.176752 0.265228
O O4 0.750000 0.250000 0.000000
O O5 0.953019 0.500000 0.101342
O O6 0.923751 0.631275 0.176463
O O7 0.067901 0.582495 0.323645
O O8 0.000000 0.617412 0.000000
O O9 0.601864 0.500000 0.335200
O O10 0.493813 0.394742 0.204778
O O11 0.636187 0.354774 0.414822
O O12 0.608468 0.404367 0.120688
O O13 0.388266 0.500000 0.097008
O O14 0.852132 0.630966 0.362788
O O15 0.000000 0.674573 0.500000
O O16 0.174182 0.500000 0.565104
O O17 0.216364 0.610120 0.443878
O O18 0.250000 0.750000 0.500000
#
# Coordination Sequence:
#
# PCOD8109141 Si02
#       7
#     8   8   8   8   8   8   8
#     4  12  27  42  60  93 132 165 206 257 329 380
#     4   9  19  37  62  90 118 152 202 252 299 363
#     4   9  20  42  69  94 121 167 216 262 311 380
#     4   9  21  43  68  93 126 164 213 262 316 380
#     4  10  22  41  63  88 122 164 204 254 308 379
#     4  10  21  39  62  88 117 161 205 249 305 366
#     4  12  24  39  61  88 129 162 208 260 317 374
#
# _framework density 20.457712000000001
#
# number of rings (size 3 to 8) (size 9 to 14) (size 15 to 20)
#    0.000    1.857    1.429    2.571    4.000    2.857 
#    2.571    2.143    0.000    0.000    0.000    0.000 
#    0.000    0.000    0.000    0.000    0.000    0.000 
#
# Total GULP energy -347229.216325 kJ/mol
# GULP energy per Si atom -12401.043440 kJ/mol
# Density = 2.041115 g / cm^3
# Si number density = 20.457712 Si / 1000 Ang^3
#
#
#
# Elastic Constant Matrix: (Units=GPa)
#
#
# Indices 1 2 3 4 5 6 
#
# 1 101.7208 42.0533 40.1866 0.0000 -22.3905 0.0000
# 2 42.0533 87.0317 39.3123 0.0000 0.0391 0.0000
# 3 40.1866 39.3123 90.1585 0.0000 -21.2875 0.0000
# 4 0.0000 0.0000 0.0000 33.0484 0.0000 -1.1205
# 5 -22.3905 0.0391 -21.2875 0.0000 33.1957 0.0000
# 6 0.0000 0.0000 0.0000 -1.1205 0.0000 47.3018
#
#
#
# Elastic Compliance Matrix: (Units=1/GPa)
#
#
# Indices 1 2 3 4 5 6 
#
# 1 0.015271 -0.006583 -0.001770 0.000000 0.009173 0.000000
# 2 -0.006583 0.017807 -0.006933 0.000000 -0.008907 0.000000
# 3 -0.001770 -0.006933 0.017233 0.000000 0.009865 0.000000
# 4 0.000000 0.000000 0.000000 0.030283 0.000000 0.000717
# 5 0.009173 -0.008907 0.009865 0.000000 0.042648 0.000000
# 6 0.000000 0.000000 0.000000 0.000717 0.000000 0.021158
#
#
# Mechanical properties :
#
#
# Convention : Reuss Voigt Hill
#
# Bulk Modulus (GPa) = 50.66601 58.00171 54.33386
# Shear Modulus (GPa) = 27.54020 33.19976 30.36998
#
# Velocity S-wave (km/s) = 3.67304 4.03283 3.85713
# Velocity P-wave (km/s) = 6.54280 7.07803 6.81567
#
# Compressibility (1/GPa) = 0.01973710
#
# Stress axis : x y z
#
# Youngs Moduli (GPa) = 65.48353 56.15827 58.02782
#
# Poissons Ratio (x) = 0.36971 0.10274
# Poissons Ratio (y) = 0.43110 0.40232
# Poissons Ratio (z) = 0.11594 0.38936
#
# Static dielectric constant tensor:
#      x y z
#    x 3.556400 0.000000 -0.225440 
#    y 0.000000 3.841450 0.000000 
#    z -0.225440 0.000000 3.667360 
# 
# 
# High freq. dielectric constant tensor:
#      x y z
#    x 1.803010 0.000000 -0.007230 
#    y 0.000000 1.803420 0.000000 
#    z -0.007230 0.000000 1.795800 
# 
# From -- ./inp_files/75956.got.cif
#   From: 2010.06.25/outbox.cif.g09.slc.cpg/sg12_38_cif.got.tgz:75956.got - 2010.06.28 00:19:55.
