data_PCOD8109137
_publ_section_title
;
Structure prediction by ZEFSAII (Michael W. Deem and Ramdas Pophale) SiO2 
 PCOD8109137
Probable space group: C 2/M
;
_chemical_formula_sum "Si O2"
_cell_formula_units_Z 64
_cell_length_a 14.184580
_cell_length_b 8.859702
_cell_length_c 26.968347
_cell_angle_alpha 90.000000
_cell_angle_beta 75.126252
_cell_angle_gamma 90.000000
_cell_volume 3275.585891
_symmetry_space_group_name_H-M "C 2/M"
_symmetry_group_IT_number 12
_symmetry_cell_setting 'monoclinic'
loop_
_space_group_symop_operation_xyz
x,y,z
-x,y,-z
-x,-y,-z
x,-y,z
1/2+x,1/2+y,z
1/2-x,1/2+y,-z
1/2-x,1/2-y,-z
1/2+x,1/2-y,z
loop_
_atom_site_type_symbol
_atom_site_label
_atom_site_fract_x
_atom_site_fract_y
_atom_site_fract_z
Si Si1 0.651873 0.175928 0.494422
Si Si2 0.461176 0.823044 0.870591
Si Si3 0.121266 0.823116 0.321070
Si Si4 0.354549 0.828891 0.784465
Si Si5 0.664601 0.677797 0.870658
Si Si6 0.739091 0.825809 0.383371
Si Si7 0.061430 0.821525 0.592579
Si Si8 0.723395 0.680455 0.055899
O O1 0.750000 0.250000 0.500000
O O2 0.650987 0.203619 0.435038
O O3 0.561463 0.248948 0.536964
O O4 0.653933 0.000000 0.506022
O O5 0.432199 0.798766 0.817387
O O6 0.565322 0.748057 0.864330
O O7 0.383805 0.739447 0.915865
O O8 0.462675 0.000000 0.884056
O O9 0.118059 0.777756 0.264436
O O10 0.217705 0.762316 0.335466
O O11 0.027701 0.758071 0.362956
O O12 0.121595 0.000000 0.323660
O O13 0.245990 0.791910 0.818014
O O14 0.360648 0.000000 0.764936
O O15 0.653645 0.500000 0.883038
O O16 0.695386 0.761396 0.916719
O O17 0.841363 0.768985 0.391701
O O18 0.747267 0.000000 0.368326
O O19 0.057353 0.000000 0.586297
O O20 0.723851 0.500000 0.054103
O O21 0.750000 0.750000 0.000000
#
# Coordination Sequence:
#
# PCOD8109137 Si02
#       8
#     8   8   8   8   8   8   8   8
#     4   9  17  31  53  77 101 134 171 211 260 321
#     4  10  21  39  62  89 117 151 195 239 286 341
#     4  11  23  36  54  80 107 137 180 227 273 324
#     4   9  21  40  58  78 111 147 183 231 284 335
#     4  10  21  39  62  88 116 153 197 239 286 338
#     4   9  19  36  54  73 103 138 172 212 268 329
#     4   9  20  37  53  74 105 139 172 214 266 324
#     4  11  22  38  60  89 126 163 197 239 284 330
#
# _framework density 19.538489999999999
#
# number of rings (size 3 to 8) (size 9 to 14) (size 15 to 20)
#    0.000    2.250    0.000    4.125    0.000    8.500 
#    0.000    8.750    0.000    0.000    0.000    0.000 
#    0.000    0.000    0.000    0.000    0.000    0.000 
#
# Total GULP energy -396767.719673 kJ/mol
# GULP energy per Si atom -12398.991240 kJ/mol
# Density = 1.949402 g / cm^3
# Si number density = 19.538490 Si / 1000 Ang^3
#
#
#
# Elastic Constant Matrix: (Units=GPa)
#
#
# Indices 1 2 3 4 5 6 
#
# 1 100.6514 38.8143 38.1765 0.0000 -1.3263 0.0000
# 2 38.8143 99.8085 48.7214 0.0000 0.5960 0.0000
# 3 38.1765 48.7214 107.0997 0.0000 5.4589 0.0000
# 4 0.0000 0.0000 0.0000 38.2980 0.0000 0.1302
# 5 -1.3263 0.5960 5.4589 0.0000 14.9181 0.0000
# 6 0.0000 0.0000 0.0000 0.1302 0.0000 29.7536
#
#
#
# Elastic Compliance Matrix: (Units=1/GPa)
#
#
# Indices 1 2 3 4 5 6 
#
# 1 0.012407 -0.003370 -0.003009 0.000000 0.002339 0.000000
# 2 -0.003370 0.013835 -0.005145 0.000000 0.001030 0.000000
# 3 -0.003009 -0.005145 0.012996 0.000000 -0.004817 0.000000
# 4 0.000000 0.000000 0.000000 0.026111 0.000000 -0.000114
# 5 0.002339 0.001030 -0.004817 0.000000 0.068962 0.000000
# 6 0.000000 0.000000 0.000000 -0.000114 0.000000 0.033610
#
#
# Mechanical properties :
#
#
# Convention : Reuss Voigt Hill
#
# Bulk Modulus (GPa) = 61.76620 62.10933 61.93776
# Shear Modulus (GPa) = 25.46271 28.71710 27.08990
#
# Velocity S-wave (km/s) = 3.61391 3.83792 3.72760
# Velocity P-wave (km/s) = 7.00678 7.17612 7.09196
#
# Compressibility (1/GPa) = 0.01619008
#
# Stress axis : x y z
#
# Youngs Moduli (GPa) = 80.60034 72.27931 76.94903
#
# Poissons Ratio (x) = 0.24360 0.23151
# Poissons Ratio (y) = 0.27164 0.39591
# Poissons Ratio (z) = 0.24249 0.37188
#
# Static dielectric constant tensor:
#      x y z
#    x 3.598970 0.000000 -0.073180 
#    y 0.000000 3.605550 0.000000 
#    z -0.073180 0.000000 3.664040 
# 
# 
# High freq. dielectric constant tensor:
#      x y z
#    x 1.760400 0.000000 0.000640 
#    y 0.000000 1.766680 0.000000 
#    z 0.000640 0.000000 1.762470 
# 
# From -- ./inp_files/359716.got.cif
#   From: 2010.06.25/outbox.cif.g09.slc.cpg/sg12_180_cif.got.tgz:359716.got - 2010.06.28 00:19:55.
