data_PCOD8109667
_publ_section_title
;
Structure prediction by ZEFSAII (Michael W. Deem and Ramdas Pophale) SiO2 
 PCOD8109667
Probable space group: C 2/M
;
_chemical_formula_sum "Si O2"
_cell_formula_units_Z 52
_cell_length_a 9.257576
_cell_length_b 28.040246
_cell_length_c 14.320511
_cell_angle_alpha 90.000000
_cell_angle_beta 46.154298
_cell_angle_gamma 90.000000
_cell_volume 2681.007952
_symmetry_space_group_name_H-M "C 2/M"
_symmetry_group_IT_number 12
_symmetry_cell_setting 'monoclinic'
loop_
_space_group_symop_operation_xyz
x,y,z
-x,y,-z
-x,-y,-z
x,-y,z
1/2+x,1/2+y,z
1/2-x,1/2+y,-z
1/2-x,1/2-y,-z
1/2+x,1/2-y,z
loop_
_atom_site_type_symbol
_atom_site_label
_atom_site_fract_x
_atom_site_fract_y
_atom_site_fract_z
Si Si1 0.086307 0.944995 0.651590
Si Si2 0.980982 0.799129 0.112303
Si Si3 0.500000 0.396184 0.500000
Si Si4 0.931235 0.694400 0.938057
Si Si5 0.577215 0.124873 0.724299
Si Si6 0.660725 0.866413 0.353542
Si Si7 0.632158 0.945490 0.859346
O O1 0.228932 0.911630 0.649873
O O2 0.083230 0.930165 0.544654
O O3 0.860719 0.938409 0.789370
O O4 0.157925 0.000000 0.628384
O O5 0.933380 0.742783 0.125360
O O6 0.818702 0.826037 0.249993
O O7 0.197211 0.799580 0.062823
O O8 0.000000 0.822419 0.000000
O O9 0.686837 0.361884 0.391792
O O10 0.967876 0.668093 0.824597
O O11 0.000000 0.665464 0.000000
O O12 0.464978 0.114526 0.678116
O O13 0.571515 0.077460 0.788412
O O14 0.500000 0.844792 0.500000
O O15 0.576537 0.000000 0.869255
O O16 0.500000 0.922338 0.000000
#
# Coordination Sequence:
#
# PCOD8109667 Si02
#       7
#     8   8   4   8   8   8   8
#     4  10  22  39  61  85 118 164 209 249 298 365
#     4  10  22  43  64  89 126 158 205 253 306 371
#     4  10  21  40  58  86 120 156 210 250 301 358
#     4  10  22  39  68  93 113 160 212 251 299 369
#     4  11  22  38  61  89 122 160 202 251 310 367
#     4  12  25  41  58  93 132 163 198 256 316 364
#     4   9  20  38  60  89 119 153 205 263 308 355
#
# _framework density 19.395689000000001
#
# number of rings (size 3 to 8) (size 9 to 14) (size 15 to 20)
#    0.000    1.692    3.077    0.692    6.462    1.538 
#    1.385    0.769    0.000    3.231    0.000    0.000 
#    0.000    0.000    0.000    0.000    0.000    0.000 
#
# Total GULP energy -322207.148870 kJ/mol
# GULP energy per Si atom -12392.582649 kJ/mol
# Density = 1.935154 g / cm^3
# Si number density = 19.395689 Si / 1000 Ang^3
#
#
#
# Elastic Constant Matrix: (Units=GPa)
#
#
# Indices 1 2 3 4 5 6 
#
# 1 137.0279 43.0790 52.4772 0.0000 16.1339 0.0000
# 2 43.0790 80.7670 45.6128 0.0000 -4.2770 0.0000
# 3 52.4772 45.6128 136.2442 0.0000 -2.0341 0.0000
# 4 0.0000 0.0000 0.0000 17.4867 0.0000 -2.4712
# 5 16.1339 -4.2770 -2.0341 0.0000 32.5432 0.0000
# 6 0.0000 0.0000 0.0000 -2.4712 0.0000 27.5177
#
#
#
# Elastic Compliance Matrix: (Units=1/GPa)
#
#
# Indices 1 2 3 4 5 6 
#
# 1 0.010363 -0.004359 -0.002620 0.000000 -0.005874 0.000000
# 2 -0.004359 0.017195 -0.004015 0.000000 0.004170 0.000000
# 3 -0.002620 -0.004015 0.009714 0.000000 0.001378 0.000000
# 4 0.000000 0.000000 0.000000 0.057921 0.000000 0.005201
# 5 -0.005874 0.004170 0.001378 0.000000 0.034275 0.000000
# 6 0.000000 0.000000 0.000000 0.005201 0.000000 0.036807
#
#
# Mechanical properties :
#
#
# Convention : Reuss Voigt Hill
#
# Bulk Modulus (GPa) = 65.43171 70.70856 68.07014
# Shear Modulus (GPa) = 25.85876 29.70087 27.77981
#
# Velocity S-wave (km/s) = 3.65529 3.91744 3.78864
# Velocity P-wave (km/s) = 7.18494 7.54962 7.36953
#
# Compressibility (1/GPa) = 0.01528311
#
# Stress axis : x y z
#
# Youngs Moduli (GPa) = 96.49561 58.15747 102.94651
#
# Poissons Ratio (x) = 0.25350 0.26972
# Poissons Ratio (y) = 0.42061 0.41337
# Poissons Ratio (z) = 0.25282 0.23353
#
# Static dielectric constant tensor:
#      x y z
#    x 3.589740 0.000000 -0.032310 
#    y 0.000000 3.381940 0.000000 
#    z -0.032310 0.000000 3.888610 
# 
# 
# High freq. dielectric constant tensor:
#      x y z
#    x 1.766350 0.000000 -0.000550 
#    y 0.000000 1.736710 0.000000 
#    z -0.000550 0.000000 1.763950 
# 
# From -- ./inp_files/199645.got.cif
#   From: 2010.06.25/outbox.cif.g09.slc.cpg/sg12_100_cif.got.tgz:199645.got - 2010.06.28 00:19:55.
