data_PCOD8109244
_publ_section_title
;
Structure prediction by ZEFSAII (Michael W. Deem and Ramdas Pophale) SiO2 
 PCOD8109244
Probable space group: C 2/M
;
_chemical_formula_sum "Si O2"
_cell_formula_units_Z 48
_cell_length_a 22.999875
_cell_length_b 8.731029
_cell_length_c 23.212035
_cell_angle_alpha 90.000000
_cell_angle_beta 149.555761
_cell_angle_gamma 90.000000
_cell_volume 2361.862780
_symmetry_space_group_name_H-M "C 2/M"
_symmetry_group_IT_number 12
_symmetry_cell_setting 'monoclinic'
loop_
_space_group_symop_operation_xyz
x,y,z
-x,y,-z
-x,-y,-z
x,-y,z
1/2+x,1/2+y,z
1/2-x,1/2+y,-z
1/2-x,1/2-y,-z
1/2+x,1/2-y,z
loop_
_atom_site_type_symbol
_atom_site_label
_atom_site_fract_x
_atom_site_fract_y
_atom_site_fract_z
Si Si1 0.165663 0.682273 0.165033
Si Si2 0.324554 0.680385 0.946093
Si Si3 0.038333 0.679307 0.171222
Si Si4 0.424456 0.322352 0.259208
Si Si5 0.418329 0.677198 0.383467
Si Si6 0.635941 0.821281 0.375141
O O1 0.161665 0.500000 0.152732
O O2 0.121139 0.757374 0.067743
O O3 0.096725 0.734826 0.162002
O O4 0.293048 0.749683 0.281957
O O5 0.309048 0.500000 0.931032
O O6 0.202301 0.753899 0.857695
O O7 0.417700 0.729507 0.074215
O O8 0.010157 0.500000 0.146268
O O9 0.125153 0.717400 0.297901
O O10 0.419384 0.500000 0.237874
O O11 0.467245 0.300307 0.361315
O O12 0.518133 0.237832 0.301441
O O13 0.500000 0.759448 0.500000
O O14 0.406298 0.500000 0.389441
O O15 0.750000 0.750000 0.500000
O O16 0.645296 0.000000 0.394307
#
# Coordination Sequence:
#
# PCOD8109244 Si02
#       6
#     8   8   8   8   8   8
#     4   9  18  34  57  86 119 155 197 242 288 352
#     4  11  22  37  60  90 124 154 191 247 308 357
#     4  10  22  39  61  86 117 161 207 242 287 354
#     4  10  21  39  63  86 117 157 199 247 295 349
#     4   8  15  28  54  85 110 144 194 241 283 337
#     4  11  25  43  63  88 120 158 200 247 295 348
#
# _framework density 20.322942000000001
#
# number of rings (size 3 to 8) (size 9 to 14) (size 15 to 20)
#    0.000    2.167    0.000    4.000    2.333    4.667 
#    0.000    0.000    0.000    2.500    0.000    0.000 
#    0.000    0.000    0.000    0.000    0.000    0.000 
#
# Total GULP energy -297512.740461 kJ/mol
# GULP energy per Si atom -12396.364186 kJ/mol
# Density = 2.027669 g / cm^3
# Si number density = 20.322942 Si / 1000 Ang^3
#
#
#
# Elastic Constant Matrix: (Units=GPa)
#
#
# Indices 1 2 3 4 5 6 
#
# 1 94.0012 40.7128 52.6584 0.0000 14.0322 0.0000
# 2 40.7128 88.4438 54.4250 0.0000 -2.5732 0.0000
# 3 52.6584 54.4250 135.0780 -0.0001 -4.5999 0.0000
# 4 0.0000 0.0000 -0.0001 29.4607 0.0000 4.9676
# 5 14.0322 -2.5732 -4.5999 0.0000 16.9263 0.0000
# 6 0.0000 0.0000 0.0000 4.9676 0.0000 26.3457
#
#
#
# Elastic Compliance Matrix: (Units=1/GPa)
#
#
# Indices 1 2 3 4 5 6 
#
# 1 0.019078 -0.005789 -0.005726 0.000000 -0.018252 0.000000
# 2 -0.005789 0.016798 -0.004301 0.000000 0.006184 0.000000
# 3 -0.005726 -0.004301 0.011615 0.000000 0.007250 0.000000
# 4 0.000000 0.000000 0.000000 0.035058 0.000000 -0.006610
# 5 -0.018252 0.006184 0.007250 0.000000 0.077122 0.000000
# 6 0.000000 0.000000 0.000000 -0.006610 0.000000 0.039203
#
#
# Mechanical properties :
#
#
# Convention : Reuss Voigt Hill
#
# Bulk Modulus (GPa) = 63.05740 68.12393 65.59067
# Shear Modulus (GPa) = 21.20504 25.86164 23.53334
#
# Velocity S-wave (km/s) = 3.23368 3.57113 3.40659
# Velocity P-wave (km/s) = 6.71098 7.11319 6.91501
#
# Compressibility (1/GPa) = 0.01585857
#
# Stress axis : x y z
#
# Youngs Moduli (GPa) = 52.41636 59.53085 86.09471
#
# Poissons Ratio (x) = 0.34465 0.49300
# Poissons Ratio (y) = 0.30346 0.37026
# Poissons Ratio (z) = 0.30015 0.25602
#
# Static dielectric constant tensor:
#      x y z
#    x 3.714420 0.000000 -0.108230 
#    y 0.000000 3.440060 0.000000 
#    z -0.108230 0.000000 4.206980 
# 
# 
# High freq. dielectric constant tensor:
#      x y z
#    x 1.790390 0.000000 0.000940 
#    y 0.000000 1.770730 0.000000 
#    z 0.000940 0.000000 1.811560 
# 
# From -- ./inp_files/348880.got.cif
#   From: 2010.06.25/outbox.cif.g09.slc.cpg/sg12_175_cif.got.tgz:348880.got - 2010.06.28 00:19:55.
