data_PCOD8109158
_publ_section_title
;
Structure prediction by ZEFSAII (Michael W. Deem and Ramdas Pophale) SiO2 
 PCOD8109158
Probable space group: C 2/M
;
_chemical_formula_sum "Si O2"
_cell_formula_units_Z 64
_cell_length_a 9.441183
_cell_length_b 17.381751
_cell_length_c 30.439036
_cell_angle_alpha 90.000000
_cell_angle_beta 139.453497
_cell_angle_gamma 90.000000
_cell_volume 3247.189396
_symmetry_space_group_name_H-M "C 2/M"
_symmetry_group_IT_number 12
_symmetry_cell_setting 'monoclinic'
loop_
_space_group_symop_operation_xyz
x,y,z
-x,y,-z
-x,-y,-z
x,-y,z
1/2+x,1/2+y,z
1/2-x,1/2+y,-z
1/2-x,1/2-y,-z
1/2+x,1/2-y,z
loop_
_atom_site_type_symbol
_atom_site_label
_atom_site_fract_x
_atom_site_fract_y
_atom_site_fract_z
Si Si1 0.608968 0.862241 0.670085
Si Si2 0.473551 0.413846 0.695806
Si Si3 0.635108 0.910212 0.073001
Si Si4 0.366954 0.412596 0.425496
Si Si5 0.142349 0.089144 0.188582
Si Si6 0.884354 0.187167 0.346532
Si Si7 0.839639 0.333184 0.834061
Si Si8 0.917123 0.683713 0.196405
O O1 0.742778 0.908783 0.665359
O O2 0.388876 0.908340 0.625555
O O3 0.752138 0.858006 0.748398
O O4 0.556525 0.776752 0.640525
O O5 0.509134 0.500000 0.686452
O O6 0.466706 0.354486 0.654274
O O7 0.669615 0.395239 0.775344
O O8 0.546649 0.869146 0.096183
O O9 0.888460 0.891460 0.125049
O O10 0.590679 0.000000 0.067796
O O11 0.500000 0.876970 0.000000
O O12 0.500000 0.390294 0.500000
O O13 0.420573 0.500000 0.422954
O O14 0.438655 0.350793 0.405972
O O15 0.260604 0.111058 0.170520
O O16 0.182311 0.000000 0.208995
O O17 0.631640 0.174245 0.276381
O O18 0.708276 0.258643 0.817485
O O19 0.025170 0.313694 0.841721
#
# Coordination Sequence:
#
# PCOD8109158 Si02
#       8
#     8   8   8   8   8   8   8   8
#     4  12  21  39  63  88 118 159 203 250 302 363
#     4  11  21  33  58  91 116 149 199 255 300 352
#     4  10  21  39  62  88 125 166 203 252 310 369
#     4  11  25  43  62  87 123 163 201 249 309 370
#     4  11  21  37  61  91 122 159 211 253 305 371
#     4  11  22  38  61  88 124 154 201 252 306 362
#     4  11  21  37  57  87 125 156 202 252 308 363
#     4  11  22  36  61  91 121 158 201 258 311 358
#
# _framework density 19.709351999999999
#
# number of rings (size 3 to 8) (size 9 to 14) (size 15 to 20)
#    0.000    1.000    3.750    4.875    0.000    3.000 
#    0.000    3.750    0.000    4.500    0.000    0.000 
#    0.000    0.000    0.000    0.000    0.000    0.000 
#
# Total GULP energy -396917.084209 kJ/mol
# GULP energy per Si atom -12403.658882 kJ/mol
# Density = 1.966449 g / cm^3
# Si number density = 19.709352 Si / 1000 Ang^3
#
#
#
# Elastic Constant Matrix: (Units=GPa)
#
#
# Indices 1 2 3 4 5 6 
#
# 1 125.1430 30.4714 37.9756 0.0000 -15.3985 0.0000
# 2 30.4714 88.2461 20.0733 0.0000 -13.5741 0.0000
# 3 37.9756 20.0733 99.3932 0.0002 -19.9647 0.0002
# 4 0.0000 0.0000 0.0002 25.0254 0.0000 -7.0439
# 5 -15.3985 -13.5741 -19.9647 0.0000 28.4704 0.0000
# 6 0.0000 0.0000 0.0002 -7.0439 0.0000 25.6697
#
#
#
# Elastic Compliance Matrix: (Units=1/GPa)
#
#
# Indices 1 2 3 4 5 6 
#
# 1 0.009680 -0.002378 -0.002787 0.000000 0.002147 0.000000
# 2 -0.002378 0.013011 -0.000851 0.000000 0.004320 0.000000
# 3 -0.002787 -0.000851 0.012703 0.000000 0.006995 0.000000
# 4 0.000000 0.000000 0.000000 0.043304 0.000000 0.011883
# 5 0.002147 0.004320 0.006995 0.000000 0.043250 0.000000
# 6 0.000000 0.000000 0.000000 0.011883 0.000000 0.042217
#
#
# Mechanical properties :
#
#
# Convention : Reuss Voigt Hill
#
# Bulk Modulus (GPa) = 42.80593 54.42477 48.61535
# Shear Modulus (GPa) = 27.17609 30.78389 28.97999
#
# Velocity S-wave (km/s) = 3.71731 3.95637 3.83870
# Velocity P-wave (km/s) = 6.33958 6.96736 6.66087
#
# Compressibility (1/GPa) = 0.02336125
#
# Stress axis : x y z
#
# Youngs Moduli (GPa) = 103.30748 76.85601 78.72335
#
# Poissons Ratio (x) = 0.18278 0.21939
# Poissons Ratio (y) = 0.24569 0.06702
# Poissons Ratio (z) = 0.28790 0.06543
#
# Static dielectric constant tensor:
#      x y z
#    x 3.913260 0.000000 -0.015880 
#    y 0.000000 3.673890 0.000000 
#    z -0.015880 0.000000 3.446490 
# 
# 
# High freq. dielectric constant tensor:
#      x y z
#    x 1.780410 0.000000 -0.003900 
#    y 0.000000 1.779760 0.000000 
#    z -0.003900 0.000000 1.733980 
# 
# From -- ./inp_files/372996.got.cif
#   From: 2010.06.25/outbox.cif.g09.slc.cpg/sg12_187_cif.got.tgz:372996.got - 2010.06.28 00:19:55.
