data_PCOD8109718
_publ_section_title
;
Structure prediction by ZEFSAII (Michael W. Deem and Ramdas Pophale) SiO2 
 PCOD8109718
Probable space group: C 2/M
;
_chemical_formula_sum "Si O2"
_cell_formula_units_Z 40
_cell_length_a 12.802843
_cell_length_b 16.877602
_cell_length_c 14.217062
_cell_angle_alpha 90.000000
_cell_angle_beta 144.263691
_cell_angle_gamma 90.000000
_cell_volume 1794.243166
_symmetry_space_group_name_H-M "C 2/M"
_symmetry_group_IT_number 12
_symmetry_cell_setting 'monoclinic'
loop_
_space_group_symop_operation_xyz
x,y,z
-x,y,-z
-x,-y,-z
x,-y,z
1/2+x,1/2+y,z
1/2-x,1/2+y,-z
1/2-x,1/2-y,-z
1/2+x,1/2-y,z
loop_
_atom_site_type_symbol
_atom_site_label
_atom_site_fract_x
_atom_site_fract_y
_atom_site_fract_z
Si Si1 0.320738 0.814512 0.123833
Si Si2 0.810558 0.295677 0.333966
Si Si3 0.681700 0.000000 0.182897
Si Si4 0.290749 0.134451 0.649342
Si Si5 0.497284 0.414245 0.887265
Si Si6 0.445787 0.500000 0.571760
O O1 0.287678 0.782850 0.205505
O O2 0.526431 0.839575 0.266815
O O3 0.250000 0.750000 0.000000
O O4 0.198192 0.889441 0.007625
O O5 0.809149 0.213031 0.389189
O O6 0.651049 0.351355 0.255555
O O7 0.000000 0.336088 0.500000
O O8 0.672575 0.080147 0.235257
O O9 0.854647 0.000000 0.237254
O O10 0.500000 0.000000 0.000000
O O11 0.165830 0.080935 0.487138
O O12 0.454455 0.500000 0.808760
O O13 0.500000 0.423166 0.000000
O O14 0.500000 0.500000 0.500000
#
# Coordination Sequence:
#
# PCOD8109718 Si02
#       6
#     8   8   4   8   8   4
#     4  11  23  39  64  93 121 161 214 259 310 372
#     4  11  23  41  64  87 124 168 206 259 316 373
#     4  10  22  36  66  94 120 167 205 249 316 382
#     4  10  21  40  61  90 126 162 202 256 314 373
#     4   9  20  39  61  86 121 163 207 259 308 364
#     4   8  18  40  60  88 126 161 190 253 321 367
#
# _framework density 22.293520999999998
#
# number of rings (size 3 to 8) (size 9 to 14) (size 15 to 20)
#    0.000    2.200    2.000    1.800    5.600    1.200 
#    0.000    0.000    0.000    0.000    0.000    0.000 
#    0.000    0.000    0.000    0.000    0.000    0.000 
#
# Total GULP energy -247788.949874 kJ/mol
# GULP energy per Si atom -12389.447494 kJ/mol
# Density = 2.224278 g / cm^3
# Si number density = 22.293521 Si / 1000 Ang^3
#
#
#
# Elastic Constant Matrix: (Units=GPa)
#
#
# Indices 1 2 3 4 5 6 
#
# 1 66.7248 30.7213 30.1413 -0.0051 29.8774 -0.0020
# 2 30.7213 142.5608 39.8081 -0.0059 15.3148 -0.0061
# 3 30.1413 39.8081 135.2176 -0.0316 34.8057 -0.0211
# 4 -0.0051 -0.0059 -0.0316 25.2789 -0.0107 9.9342
# 5 29.8774 15.3148 34.8057 -0.0107 42.0232 -0.0063
# 6 -0.0020 -0.0061 -0.0211 9.9342 -0.0063 10.9530
#
#
#
# Elastic Compliance Matrix: (Units=1/GPa)
#
#
# Indices 1 2 3 4 5 6 
#
# 1 0.023480 -0.003332 -0.000341 0.000000 -0.015197 -0.000007
# 2 -0.003332 0.008161 -0.001912 -0.000002 0.000978 0.000002
# 3 -0.000341 -0.001912 0.009904 0.000005 -0.007264 0.000009
# 4 0.000000 -0.000002 0.000005 0.061467 0.000004 -0.055749
# 5 -0.015197 0.000978 -0.007264 0.000004 0.040260 0.000004
# 6 -0.000007 0.000002 0.000009 -0.055749 0.000004 0.141862
#
#
# Mechanical properties :
#
#
# Convention : Reuss Voigt Hill
#
# Bulk Modulus (GPa) = 32.92153 60.64939 46.78546
# Shear Modulus (GPa) = 16.31694 31.90654 24.11174
#
# Velocity S-wave (km/s) = 2.70833 3.78723 3.29227
# Velocity P-wave (km/s) = 4.95776 6.81088 5.95683
#
# Compressibility (1/GPa) = 0.03037526
#
# Stress axis : x y z
#
# Youngs Moduli (GPa) = 42.58991 122.52900 100.96834
#
# Poissons Ratio (x) = 0.40827 0.03445
# Poissons Ratio (y) = 0.14191 0.19302
# Poissons Ratio (z) = 0.01453 0.23424
#
# Static dielectric constant tensor:
#      x y z
#    x 15.551690 0.000660 3.487940 
#    y 0.000660 4.352740 0.000120 
#    z 3.487940 0.000120 5.690150 
# 
# 
# High freq. dielectric constant tensor:
#      x y z
#    x 1.862810 0.000000 0.025200 
#    y 0.000000 1.881460 0.000000 
#    z 0.025200 0.000000 1.888070 
# 
# From -- ./inp_files/270814.got.cif
#   From: 2010.06.25/outbox.cif.g09.slc.cpg/sg12_136_cif.got.tgz:270814.got - 2010.06.28 00:19:55.
