data_PCOD8109314
_publ_section_title
;
Structure prediction by ZEFSAII (Michael W. Deem and Ramdas Pophale) SiO2 
 PCOD8109314
Probable space group: C 2/M
;
_chemical_formula_sum "Si O2"
_cell_formula_units_Z 64
_cell_length_a 9.059534
_cell_length_b 19.343701
_cell_length_c 29.644861
_cell_angle_alpha 90.000000
_cell_angle_beta 140.373873
_cell_angle_gamma 90.000000
_cell_volume 3313.313497
_symmetry_space_group_name_H-M "C 2/M"
_symmetry_group_IT_number 12
_symmetry_cell_setting 'monoclinic'
loop_
_space_group_symop_operation_xyz
x,y,z
-x,y,-z
-x,-y,-z
x,-y,z
1/2+x,1/2+y,z
1/2-x,1/2+y,-z
1/2-x,1/2-y,-z
1/2+x,1/2-y,z
loop_
_atom_site_type_symbol
_atom_site_label
_atom_site_fract_x
_atom_site_fract_y
_atom_site_fract_z
Si Si1 0.146786 0.183142 0.579482
Si Si2 0.333586 0.422629 0.662072
Si Si3 0.962202 0.305216 0.794935
Si Si4 0.473426 0.305708 0.633999
Si Si5 0.346436 0.665638 0.814871
Si Si6 0.216774 0.419613 0.079949
Si Si7 0.814050 0.578727 0.822613
Si Si8 0.028156 0.579982 0.672688
O O1 0.356207 0.238191 0.627665
O O2 0.969558 0.196648 0.578856
O O3 0.266523 0.108528 0.614036
O O4 0.000000 0.187761 0.500000
O O5 0.338819 0.500000 0.643509
O O6 0.330041 0.371468 0.618650
O O7 0.549726 0.408924 0.745823
O O8 0.108173 0.410396 0.639707
O O9 0.738979 0.312153 0.710726
O O10 0.959526 0.231774 0.818128
O O11 0.975996 0.368549 0.833456
O O12 0.191395 0.308042 0.819317
O O13 0.555877 0.620097 0.883497
O O14 0.197707 0.620116 0.745687
O O15 0.262628 0.500000 0.082209
O O16 0.165502 0.404189 0.120090
O O17 0.000000 0.392839 0.000000
O O18 0.892359 0.500000 0.830614
O O19 0.027682 0.500000 0.687067
#
# Coordination Sequence:
#
# PCOD8109314 Si02
#       8
#     8   8   8   8   8   8   8   8
#     4  12  25  40  59  85 120 157 195 243 300 362
#     4   9  19  35  61  88 114 149 196 249 293 343
#     4  11  22  36  62  90 118 153 197 256 299 337
#     4  11  21  39  60  88 117 155 197 246 296 355
#     4  12  22  38  60  92 120 155 201 247 291 349
#     4  10  21  39  63  90 125 165 198 235 290 355
#     4   9  18  35  58  88 121 155 196 243 294 346
#     4  11  22  38  61  86 115 152 198 247 295 348
#
# _framework density 19.316009999999999
#
# number of rings (size 3 to 8) (size 9 to 14) (size 15 to 20)
#    0.000    1.375    3.750    2.250    1.750    1.750 
#    0.000    3.125    0.000    4.125    0.000    0.000 
#    0.000    0.000    0.000    0.000    0.000    0.000 
#
# Total GULP energy -396930.360599 kJ/mol
# GULP energy per Si atom -12404.073769 kJ/mol
# Density = 1.927205 g / cm^3
# Si number density = 19.316010 Si / 1000 Ang^3
#
#
#
# Elastic Constant Matrix: (Units=GPa)
#
#
# Indices 1 2 3 4 5 6 
#
# 1 114.3902 62.6238 24.1068 -0.0003 -4.3000 0.0001
# 2 62.6238 118.5335 31.2962 -0.0005 -1.1347 -0.0004
# 3 24.1068 31.2962 61.4485 -0.0014 -3.4105 -0.0003
# 4 -0.0003 -0.0005 -0.0014 20.7312 -0.0002 -0.4359
# 5 -4.3000 -1.1347 -3.4105 -0.0002 24.1015 0.0001
# 6 0.0001 -0.0004 -0.0003 -0.4359 0.0001 36.4020
#
#
#
# Elastic Compliance Matrix: (Units=1/GPa)
#
#
# Indices 1 2 3 4 5 6 
#
# 1 0.012534 -0.006161 -0.001685 0.000000 0.001708 0.000000
# 2 -0.006161 0.012777 -0.004151 0.000000 -0.001085 0.000000
# 3 -0.001685 -0.004151 0.019172 0.000001 0.002217 0.000000
# 4 0.000000 0.000000 0.000001 0.048249 0.000001 0.000578
# 5 0.001708 -0.001085 0.002217 0.000001 0.042058 0.000000
# 6 0.000000 0.000000 0.000000 0.000578 0.000000 0.027478
#
#
# Mechanical properties :
#
#
# Convention : Reuss Voigt Hill
#
# Bulk Modulus (GPa) = 48.80353 58.93619 53.86986
# Shear Modulus (GPa) = 25.89467 28.00331 26.94899
#
# Velocity S-wave (km/s) = 3.66537 3.81168 3.73924
# Velocity P-wave (km/s) = 6.57525 7.06751 6.82582
#
# Compressibility (1/GPa) = 0.02049032
#
# Stress axis : x y z
#
# Youngs Moduli (GPa) = 79.78265 78.26661 52.16030
#
# Poissons Ratio (x) = 0.48219 0.08787
# Poissons Ratio (y) = 0.49153 0.21650
# Poissons Ratio (z) = 0.13441 0.32485
#
# Static dielectric constant tensor:
#      x y z
#    x 3.607780 0.000000 -0.001590 
#    y 0.000000 3.733950 0.000000 
#    z -0.001590 0.000000 3.301270 
# 
# 
# High freq. dielectric constant tensor:
#      x y z
#    x 1.756070 0.000000 -0.003580 
#    y 0.000000 1.765930 0.000000 
#    z -0.003580 0.000000 1.722010 
# 
# From -- ./inp_files/258081.got.cif
#   From: 2010.06.25/outbox.cif.g09.slc.cpg/sg12_130_cif.got.tgz:258081.got - 2010.06.28 00:19:55.
