data_PCOD8109660
_publ_section_title
;
Structure prediction by ZEFSAII (Michael W. Deem and Ramdas Pophale) SiO2 
 PCOD8109660
Probable space group: C 2/M
;
_chemical_formula_sum "Si O2"
_cell_formula_units_Z 64
_cell_length_a 15.029646
_cell_length_b 26.391948
_cell_length_c 11.554343
_cell_angle_alpha 90.000000
_cell_angle_beta 140.243756
_cell_angle_gamma 90.000000
_cell_volume 2931.038186
_symmetry_space_group_name_H-M "C 2/M"
_symmetry_group_IT_number 12
_symmetry_cell_setting 'monoclinic'
loop_
_space_group_symop_operation_xyz
x,y,z
-x,y,-z
-x,-y,-z
x,-y,z
1/2+x,1/2+y,z
1/2-x,1/2+y,-z
1/2-x,1/2-y,-z
1/2+x,1/2-y,z
loop_
_atom_site_type_symbol
_atom_site_label
_atom_site_fract_x
_atom_site_fract_y
_atom_site_fract_z
Si Si1 0.964410 0.851017 0.187353
Si Si2 0.779246 0.325914 0.208226
Si Si3 0.128343 0.778824 0.709680
Si Si4 0.979761 0.943388 0.612517
Si Si5 0.839363 0.556754 0.701059
Si Si6 0.143527 0.647923 0.108356
Si Si7 0.262379 0.193853 0.458744
Si Si8 0.482364 0.871236 0.247869
O O1 0.916031 0.806802 0.220765
O O2 0.937613 0.905450 0.220946
O O3 0.127250 0.841453 0.332698
O O4 0.872679 0.848544 0.977344
O O5 0.801645 0.271838 0.168552
O O6 0.796969 0.309162 0.358078
O O7 0.903680 0.364713 0.292551
O O8 0.230962 0.814330 0.734992
O O9 0.000000 0.764914 0.500000
O O10 0.821032 0.943305 0.496788
O O11 0.000000 0.924608 0.500000
O O12 0.043334 0.000000 0.687894
O O13 0.884447 0.500000 0.782335
O O14 0.851549 0.593920 0.822591
O O15 0.940808 0.574603 0.696453
O O16 0.141553 0.637380 0.968696
O O17 0.000000 0.675683 0.000000
O O18 0.250000 0.250000 0.500000
O O19 0.393612 0.168887 0.654152
#
# Coordination Sequence:
#
# PCOD8109660 Si02
#       8
#     8   8   8   8   8   8   8   8
#     4  12  23  42  67  97 135 177 221 279 347 410
#     4  12  27  43  62  94 136 177 234 283 336 417
#     4  12  24  41  64  95 137 185 221 271 336 413
#     4  10  21  39  70 107 139 175 223 284 352 420
#     4  10  21  41  69 104 141 181 228 283 347 418
#     4  10  23  36  63  99 136 178 220 279 333 412
#     4  12  27  43  68  93 128 181 231 286 351 420
#     4  11  23  44  62  94 136 182 222 285 338 415
#
# _framework density 21.835265
#
# number of rings (size 3 to 8) (size 9 to 14) (size 15 to 20)
#    0.000    0.875    2.500    5.250    7.000    2.250 
#    0.000    0.625    0.000    4.500    0.000    0.000 
#    0.000    0.000    0.000    0.000    0.000    0.000 
#
# Total GULP energy -396576.499827 kJ/mol
# GULP energy per Si atom -12393.015620 kJ/mol
# Density = 2.178557 g / cm^3
# Si number density = 21.835265 Si / 1000 Ang^3
#
#
#
# Elastic Constant Matrix: (Units=GPa)
#
#
# Indices 1 2 3 4 5 6 
#
# 1 102.0924 42.4593 22.3440 0.0000 2.4847 0.0000
# 2 42.4593 113.4766 55.1438 0.0000 -0.2662 0.0000
# 3 22.3440 55.1438 97.9429 0.0000 2.4743 0.0000
# 4 0.0000 0.0000 0.0000 25.0448 0.0000 -0.5547
# 5 2.4847 -0.2662 2.4743 0.0000 30.8727 0.0000
# 6 0.0000 0.0000 0.0000 -0.5547 0.0000 36.4882
#
#
#
# Elastic Compliance Matrix: (Units=1/GPa)
#
#
# Indices 1 2 3 4 5 6 
#
# 1 0.011634 -0.004236 -0.000245 0.000000 -0.000953 0.000000
# 2 -0.004236 0.013687 -0.006765 0.000000 0.001001 0.000000
# 3 -0.000245 -0.006765 0.014104 0.000000 -0.001169 0.000000
# 4 0.000000 0.000000 0.000000 0.039942 0.000000 0.000607
# 5 -0.000953 0.001001 -0.001169 0.000000 0.032570 0.000000
# 6 0.000000 0.000000 0.000000 0.000607 0.000000 0.027415
#
#
# Mechanical properties :
#
#
# Convention : Reuss Voigt Hill
#
# Bulk Modulus (GPa) = 59.05654 61.48956 60.27305
# Shear Modulus (GPa) = 29.85266 31.38545 30.61906
#
# Velocity S-wave (km/s) = 3.70155 3.79538 3.74876
# Velocity P-wave (km/s) = 6.73600 6.88683 6.81183
#
# Compressibility (1/GPa) = 0.01693293
#
# Stress axis : x y z
#
# Youngs Moduli (GPa) = 85.95773 73.06058 70.90027
#
# Poissons Ratio (x) = 0.30950 0.01736
# Poissons Ratio (y) = 0.36413 0.47965
# Poissons Ratio (z) = 0.02105 0.49426
#
# Static dielectric constant tensor:
#      x y z
#    x 4.217100 0.000000 0.360500 
#    y 0.000000 4.039870 0.000000 
#    z 0.360500 0.000000 4.271060 
# 
# 
# High freq. dielectric constant tensor:
#      x y z
#    x 1.861600 0.000000 0.019790 
#    y 0.000000 1.843020 0.000000 
#    z 0.019790 0.000000 1.858460 
# 
# From -- ./inp_files/149806.got.cif
#   From: 2010.06.25/outbox.cif.g09.slc.cpg/sg12_75_cif.got.tgz:149806.got - 2010.06.28 00:19:55.
