data_PCOD8109889
_publ_section_title
;
Structure prediction by ZEFSAII (Michael W. Deem and Ramdas Pophale) SiO2 
 PCOD8109889
Probable space group: C 2/M
;
_chemical_formula_sum "Si O2"
_cell_formula_units_Z 36
_cell_length_a 11.104164
_cell_length_b 14.209200
_cell_length_c 13.780129
_cell_angle_alpha 90.000000
_cell_angle_beta 127.693207
_cell_angle_gamma 90.000000
_cell_volume 1720.472616
_symmetry_space_group_name_H-M "C 2/M"
_symmetry_group_IT_number 12
_symmetry_cell_setting 'monoclinic'
loop_
_space_group_symop_operation_xyz
x,y,z
-x,y,-z
-x,-y,-z
x,-y,z
1/2+x,1/2+y,z
1/2-x,1/2+y,-z
1/2-x,1/2-y,-z
1/2+x,1/2-y,z
loop_
_atom_site_type_symbol
_atom_site_label
_atom_site_fract_x
_atom_site_fract_y
_atom_site_fract_z
Si Si1 0.672125 0.107571 0.062483
Si Si2 0.269209 0.394260 0.690287
Si Si3 0.536418 0.296335 0.724403
Si Si4 0.500000 0.762378 0.500000
Si Si5 0.133847 0.604170 0.824932
O O1 0.786865 0.174246 0.177818
O O2 0.693509 0.000000 0.107760
O O3 0.500000 0.140926 0.000000
O O4 0.710575 0.118382 0.967380
O O5 0.238468 0.500000 0.639048
O O6 0.437642 0.364509 0.742183
O O7 0.260946 0.388250 0.803227
O O8 0.148221 0.327604 0.578451
O O9 0.488152 0.304695 0.588100
O O10 0.511976 0.187299 0.745654
O O11 0.054729 0.500000 0.782101
#
# Coordination Sequence:
#
# PCOD8109889 Si02
#       5
#     8   8   8   4   8
#     4  10  22  40  62  92 129 161 197 249 310 365
#     4  10  21  40  64  91 122 157 204 256 304 357
#     4  11  22  39  66  91 122 160 210 249 296 362
#     4  10  23  40  59  88 126 164 203 246 309 358
#     4   9  21  39  61  91 123 160 196 246 310 360
#
# _framework density 20.924482000000001
#
# number of rings (size 3 to 8) (size 9 to 14) (size 15 to 20)
#    0.000    2.000    0.000    2.333    6.222    1.778 
#    0.000    5.556    0.000    0.000    0.000    0.000 
#    0.000    0.000    0.000    0.000    0.000    0.000 
#
# Total GULP energy -223179.395424 kJ/mol
# GULP energy per Si atom -12398.855301 kJ/mol
# Density = 2.087686 g / cm^3
# Si number density = 20.924482 Si / 1000 Ang^3
#
#
#
# Elastic Constant Matrix: (Units=GPa)
#
#
# Indices 1 2 3 4 5 6 
#
# 1 116.9237 44.6857 61.9050 0.0000 -6.4712 0.0000
# 2 44.6857 77.1827 41.5999 0.0000 -11.8520 0.0000
# 3 61.9050 41.5999 113.5048 0.0000 -14.1701 0.0000
# 4 0.0000 0.0000 0.0000 28.6089 0.0000 1.5632
# 5 -6.4712 -11.8520 -14.1701 0.0000 39.0466 0.0000
# 6 0.0000 0.0000 0.0000 1.5632 0.0000 31.4674
#
#
#
# Elastic Compliance Matrix: (Units=1/GPa)
#
#
# Indices 1 2 3 4 5 6 
#
# 1 0.013335 -0.004878 -0.005650 0.000000 -0.001321 0.000000
# 2 -0.004878 0.018246 -0.003599 0.000000 0.003424 0.000000
# 3 -0.005650 -0.003599 0.013572 0.000000 0.002897 0.000000
# 4 0.000000 0.000000 0.000000 0.035049 0.000000 -0.001741
# 5 -0.001321 0.003424 0.002897 0.000000 0.027482 0.000000
# 6 0.000000 0.000000 0.000000 -0.001741 0.000000 0.031865
#
#
# Mechanical properties :
#
#
# Convention : Reuss Voigt Hill
#
# Bulk Modulus (GPa) = 59.17566 67.11028 63.14297
# Shear Modulus (GPa) = 28.82866 30.45263 29.64065
#
# Velocity S-wave (km/s) = 3.71583 3.81906 3.76780
# Velocity P-wave (km/s) = 6.83753 7.18256 7.01217
#
# Compressibility (1/GPa) = 0.01689884
#
# Stress axis : x y z
#
# Youngs Moduli (GPa) = 74.98954 54.80578 73.67850
#
# Poissons Ratio (x) = 0.26735 0.41628
# Poissons Ratio (y) = 0.36581 0.26520
# Poissons Ratio (z) = 0.42369 0.19727
#
# Static dielectric constant tensor:
#      x y z
#    x 3.748630 0.000000 -0.243280 
#    y 0.000000 3.998900 0.000000 
#    z -0.243280 0.000000 3.566830 
# 
# 
# High freq. dielectric constant tensor:
#      x y z
#    x 1.815180 0.000000 -0.020410 
#    y 0.000000 1.830400 0.000000 
#    z -0.020410 0.000000 1.800060 
# 
# From -- ./inp_files/205179.got.cif
#   From: 2010.06.25/outbox.cif.g09.slc.cpg/sg12_103_cif.got.tgz:205179.got - 2010.06.28 00:19:55.
