data_PCOD8109456
_publ_section_title
;
Structure prediction by ZEFSAII (Michael W. Deem and Ramdas Pophale) SiO2 
 PCOD8109456
Probable space group: C 2/M
;
_chemical_formula_sum "Si O2"
_cell_formula_units_Z 52
_cell_length_a 8.951336
_cell_length_b 20.762009
_cell_length_c 17.233071
_cell_angle_alpha 90.000000
_cell_angle_beta 49.467403
_cell_angle_gamma 90.000000
_cell_volume 2434.188903
_symmetry_space_group_name_H-M "C 2/M"
_symmetry_group_IT_number 12
_symmetry_cell_setting 'monoclinic'
loop_
_space_group_symop_operation_xyz
x,y,z
-x,y,-z
-x,-y,-z
x,-y,z
1/2+x,1/2+y,z
1/2-x,1/2+y,-z
1/2-x,1/2-y,-z
1/2+x,1/2-y,z
loop_
_atom_site_type_symbol
_atom_site_label
_atom_site_fract_x
_atom_site_fract_y
_atom_site_fract_z
Si Si1 0.225705 0.928513 0.948477
Si Si2 0.943075 0.815162 0.318262
Si Si3 0.689448 0.069813 0.385772
Si Si4 0.858696 0.829157 0.905306
Si Si5 0.000000 0.759083 0.000000
Si Si6 0.495797 0.923986 0.714768
Si Si7 0.308152 0.313507 0.618748
O O1 0.364681 0.902037 0.832814
O O2 0.292651 0.000000 0.946236
O O3 0.256291 0.889328 0.017997
O O4 0.000000 0.926023 0.000000
O O5 0.804686 0.873771 0.392395
O O6 0.829640 0.747464 0.353305
O O7 0.012382 0.844372 0.212723
O O8 0.125203 0.807608 0.314710
O O9 0.500000 0.058484 0.500000
O O10 0.634034 0.090582 0.317083
O O11 0.802225 0.000000 0.345526
O O12 0.004177 0.802026 0.921724
O O13 0.699676 0.779341 0.928939
O O14 0.691092 0.880194 0.646559
O O15 0.553733 0.000000 0.698807
O O16 0.500000 0.312387 0.500000
#
# Coordination Sequence:
#
# PCOD8109456 Si02
#       7
#     8   8   8   8   4   8   8
#     4  10  21  39  64  92 126 167 210 256 308 373
#     4  12  25  39  65  97 127 168 212 267 318 383
#     4  10  21  40  65  92 126 166 213 265 316 378
#     4  11  23  39  61  89 123 163 204 255 303 377
#     4  10  24  38  58  86 124 158 200 248 306 360
#     4  10  23  42  66  94 129 173 217 261 322 388
#     4  12  26  44  67  94 131 169 214 272 327 383
#
# _framework density 21.362351
#
# number of rings (size 3 to 8) (size 9 to 14) (size 15 to 20)
#    0.000    1.231    0.769    4.615    6.462    2.769 
#    0.000    0.385    0.000    0.000    0.000    0.000 
#    0.000    0.000    0.000    0.000    0.000    0.000 
#
# Total GULP energy -322323.497557 kJ/mol
# GULP energy per Si atom -12397.057598 kJ/mol
# Density = 2.131373 g / cm^3
# Si number density = 21.362351 Si / 1000 Ang^3
#
#
#
# Elastic Constant Matrix: (Units=GPa)
#
#
# Indices 1 2 3 4 5 6 
#
# 1 82.7435 38.5826 -5.3994 0.0000 6.4399 0.0000
# 2 38.5826 122.8755 16.1158 0.0000 -3.9720 0.0000
# 3 -5.3994 16.1158 96.9358 0.0000 13.4884 0.0000
# 4 0.0000 0.0000 0.0000 34.6106 0.0000 -10.8366
# 5 6.4399 -3.9720 13.4884 0.0000 24.8329 0.0000
# 6 0.0000 0.0000 0.0000 -10.8366 0.0000 40.3468
#
#
#
# Elastic Compliance Matrix: (Units=1/GPa)
#
#
# Indices 1 2 3 4 5 6 
#
# 1 0.015219 -0.005320 0.002596 0.000000 -0.006208 0.000000
# 2 -0.005320 0.010297 -0.002628 0.000000 0.004454 0.000000
# 3 0.002596 -0.002628 0.011953 0.000000 -0.007586 0.000000
# 4 0.000000 0.000000 0.000000 0.031546 0.000000 0.008473
# 5 -0.006208 0.004454 -0.007586 0.000000 0.046712 0.000000
# 6 0.000000 0.000000 0.000000 0.008473 0.000000 0.027061
#
#
# Mechanical properties :
#
#
# Convention : Reuss Voigt Hill
#
# Bulk Modulus (GPa) = 37.36171 44.57253 40.96712
# Shear Modulus (GPa) = 30.78571 36.84179 33.81375
#
# Velocity S-wave (km/s) = 3.80033 4.15735 3.98284
# Velocity P-wave (km/s) = 6.06499 6.62986 6.35371
#
# Compressibility (1/GPa) = 0.02676537
#
# Stress axis : x y z
#
# Youngs Moduli (GPa) = 65.70904 97.11225 83.65948
#
# Poissons Ratio (x) = 0.51661 -0.21717
# Poissons Ratio (y) = 0.34955 0.21986
# Poissons Ratio (z) = -0.17057 0.25522
#
# Static dielectric constant tensor:
#      x y z
#    x 3.878160 0.000000 0.093570 
#    y 0.000000 4.221280 0.000000 
#    z 0.093570 0.000000 4.015750 
# 
# 
# High freq. dielectric constant tensor:
#      x y z
#    x 1.825460 0.000000 0.008740 
#    y 0.000000 1.853920 0.000000 
#    z 0.008740 0.000000 1.848910 
# 
# From -- ./inp_files/258444.got.cif
#   From: 2010.06.25/outbox.cif.g09.slc.cpg/sg12_130_cif.got.tgz:258444.got - 2010.06.28 00:19:55.
