data_PCOD8109841
_publ_section_title
;
Structure prediction by ZEFSAII (Michael W. Deem and Ramdas Pophale) SiO2 
 PCOD8109841
Probable space group: C 2/M
;
_chemical_formula_sum "Si O2"
_cell_formula_units_Z 48
_cell_length_a 23.982753
_cell_length_b 8.717664
_cell_length_c 11.882314
_cell_angle_alpha 90.000000
_cell_angle_beta 91.137666
_cell_angle_gamma 90.000000
_cell_volume 2483.788244
_symmetry_space_group_name_H-M "C 2/M"
_symmetry_group_IT_number 12
_symmetry_cell_setting 'monoclinic'
loop_
_space_group_symop_operation_xyz
x,y,z
-x,y,-z
-x,-y,-z
x,-y,z
1/2+x,1/2+y,z
1/2-x,1/2+y,-z
1/2-x,1/2-y,-z
1/2+x,1/2-y,z
loop_
_atom_site_type_symbol
_atom_site_label
_atom_site_fract_x
_atom_site_fract_y
_atom_site_fract_z
Si Si1 0.794597 0.181388 0.585225
Si Si2 0.763570 0.818569 0.829520
Si Si3 0.957732 0.178810 0.097973
Si Si4 0.667639 0.680448 0.954973
Si Si5 0.081777 0.818238 0.471738
Si Si6 0.983087 0.319466 0.334156
O O1 0.750000 0.250000 0.500000
O O2 0.783150 0.245594 0.709938
O O3 0.855504 0.235401 0.549027
O O4 0.789656 0.000000 0.582372
O O5 0.701988 0.755734 0.854246
O O6 0.760820 0.000000 0.827518
O O7 0.807856 0.760666 0.924836
O O8 0.896479 0.230336 0.055558
O O9 0.975687 0.279615 0.204117
O O10 0.959512 0.000000 0.131060
O O11 0.000000 0.216622 0.000000
O O12 0.674431 0.500000 0.944453
O O13 0.065198 0.763450 0.595793
O O14 0.043230 0.738972 0.376781
O O15 0.074406 0.000000 0.461680
O O16 0.978615 0.500000 0.353138
#
# Coordination Sequence:
#
# PCOD8109841 Si02
#       6
#     8   8   8   8   8   8
#     4  10  23  38  59  87 117 151 192 238 285 339
#     4   9  19  37  58  83 113 148 186 232 287 335
#     4  10  22  38  61  87 114 152 196 240 284 343
#     4   9  19  36  59  84 111 146 191 233 279 339
#     4  10  21  40  64  86 113 154 201 240 283 348
#     4  11  23  39  60  87 120 153 189 242 300 348
#
# _framework density 19.325320000000001
#
# number of rings (size 3 to 8) (size 9 to 14) (size 15 to 20)
#    0.000    2.167    0.000    3.000    4.667    3.000 
#    0.000    0.000    0.000    0.000    0.000    0.000 
#    0.000    0.000    0.000    0.000    0.000    0.000 
#
# Total GULP energy -297677.510355 kJ/mol
# GULP energy per Si atom -12403.229598 kJ/mol
# Density = 1.928133 g / cm^3
# Si number density = 19.325320 Si / 1000 Ang^3
#
#
#
# Elastic Constant Matrix: (Units=GPa)
#
#
# Indices 1 2 3 4 5 6 
#
# 1 172.6227 30.3090 80.0212 0.0000 -13.8376 0.0000
# 2 30.3090 37.2958 28.6370 0.0000 -0.0133 0.0000
# 3 80.0212 28.6370 137.4193 0.0000 -6.2840 0.0000
# 4 0.0000 0.0000 0.0000 29.4443 0.0000 2.2429
# 5 -13.8376 -0.0133 -6.2840 0.0000 25.3905 0.0000
# 6 0.0000 0.0000 0.0000 2.2429 0.0000 26.9737
#
#
#
# Elastic Compliance Matrix: (Units=1/GPa)
#
#
# Indices 1 2 3 4 5 6 
#
# 1 0.008659 -0.003922 -0.004055 0.000000 0.003713 0.000000
# 2 -0.003922 0.033765 -0.004905 0.000000 -0.003334 0.000000
# 3 -0.004055 -0.004905 0.010680 0.000000 0.000431 0.000000
# 4 0.000000 0.000000 0.000000 0.034179 0.000000 -0.002842
# 5 0.003713 -0.003334 0.000431 0.000000 0.041513 0.000000
# 6 0.000000 0.000000 0.000000 -0.002842 0.000000 0.037309
#
#
# Mechanical properties :
#
#
# Convention : Reuss Voigt Hill
#
# Bulk Modulus (GPa) = 36.57639 69.47471 53.02555
# Shear Modulus (GPa) = 24.87766 30.25308 27.56537
#
# Velocity S-wave (km/s) = 3.59180 3.96089 3.78085
# Velocity P-wave (km/s) = 6.01408 7.54628 6.82332
#
# Compressibility (1/GPa) = 0.02734004
#
# Stress axis : x y z
#
# Youngs Moduli (GPa) = 115.48549 29.61659 93.63069
#
# Poissons Ratio (x) = 0.11615 0.37969
# Poissons Ratio (y) = 0.45292 0.45926
# Poissons Ratio (z) = 0.46832 0.14527
#
# Static dielectric constant tensor:
#      x y z
#    x 3.692750 0.000000 -0.021830 
#    y 0.000000 3.411940 0.000000 
#    z -0.021830 0.000000 3.858530 
# 
# 
# High freq. dielectric constant tensor:
#      x y z
#    x 1.761050 0.000000 -0.002100 
#    y 0.000000 1.743480 0.000000 
#    z -0.002100 0.000000 1.759780 
# 
# From -- ./inp_files/172261.got.cif
#   From: 2010.06.25/outbox.cif.g09.slc.cpg/sg12_87_cif.got.tgz:172261.got - 2010.06.28 00:19:55.
