data_PCOD8109902
_publ_section_title
;
Structure prediction by ZEFSAII (Michael W. Deem and Ramdas Pophale) SiO2 
 PCOD8109902
Probable space group: C 2/M
;
_chemical_formula_sum "Si O2"
_cell_formula_units_Z 64
_cell_length_a 15.767235
_cell_length_b 16.750303
_cell_length_c 20.159645
_cell_angle_alpha 90.000000
_cell_angle_beta 145.178996
_cell_angle_gamma 90.000000
_cell_volume 3040.242778
_symmetry_space_group_name_H-M "C 2/M"
_symmetry_group_IT_number 12
_symmetry_cell_setting 'monoclinic'
loop_
_space_group_symop_operation_xyz
x,y,z
-x,y,-z
-x,-y,-z
x,-y,z
1/2+x,1/2+y,z
1/2-x,1/2+y,-z
1/2-x,1/2-y,-z
1/2+x,1/2-y,z
loop_
_atom_site_type_symbol
_atom_site_label
_atom_site_fract_x
_atom_site_fract_y
_atom_site_fract_z
Si Si1 0.386670 0.830814 0.477747
Si Si2 0.919331 0.764933 0.013166
Si Si3 0.943801 0.155970 0.536348
Si Si4 0.888558 0.343980 0.163355
Si Si5 0.439006 0.588387 0.258179
Si Si6 0.426700 0.701435 0.761273
Si Si7 0.367720 0.088933 0.011901
Si Si8 0.146425 0.591427 0.405685
O O1 0.500000 0.875437 0.500000
O O2 0.464131 0.751056 0.555748
O O3 0.249447 0.802512 0.343637
O O4 0.337994 0.886114 0.507195
O O5 0.744066 0.786355 0.896065
O O6 0.954649 0.669600 0.045498
O O7 0.000000 0.795731 0.000000
O O8 0.989957 0.818977 0.116659
O O9 0.054051 0.118942 0.661844
O O10 0.770718 0.136056 0.440924
O O11 0.000000 0.125392 0.500000
O O12 0.022954 0.289699 0.224783
O O13 0.972908 0.394826 0.273773
O O14 0.828826 0.399924 0.065018
O O15 0.506980 0.500000 0.299934
O O16 0.538640 0.640906 0.274854
O O17 0.272447 0.588271 0.125571
O O18 0.446436 0.000000 0.054381
O O19 0.185362 0.500000 0.421923
#
# Coordination Sequence:
#
# PCOD8109902 Si02
#       8
#     8   8   8   8   8   8   8   8
#     4  11  25  41  67  96 130 169 220 268 315 385
#     4  11  24  38  67  97 127 165 214 269 320 378
#     4  11  24  42  66  98 130 168 217 267 324 394
#     4  11  21  42  64  90 124 170 216 259 313 386
#     4  11  21  37  65  91 123 167 211 262 318 379
#     4  11  20  42  66  91 120 172 219 260 311 382
#     4  10  21  40  64  92 124 163 207 260 322 383
#     4  12  25  41  66  95 133 175 210 266 336 384
#
# _framework density 21.05095
#
# number of rings (size 3 to 8) (size 9 to 14) (size 15 to 20)
#    0.000    1.000    5.000    2.625    1.750    2.500 
#    0.000    0.000    0.000    1.875    0.000    0.000 
#    0.000    0.000    0.000    0.000    0.000    0.000 
#
# Total GULP energy -396499.069865 kJ/mol
# GULP energy per Si atom -12390.595933 kJ/mol
# Density = 2.100304 g / cm^3
# Si number density = 21.050950 Si / 1000 Ang^3
#
#
#
# Elastic Constant Matrix: (Units=GPa)
#
#
# Indices 1 2 3 4 5 6 
#
# 1 123.1939 13.0096 36.8471 -0.0014 -10.4545 0.0003
# 2 13.0096 51.7213 7.3669 -0.0021 -15.5036 -0.0003
# 3 36.8471 7.3669 116.7721 -0.0068 -9.8455 -0.0009
# 4 -0.0014 -0.0021 -0.0068 10.9353 -0.0007 1.2620
# 5 -10.4545 -15.5036 -9.8455 -0.0007 28.0617 0.0002
# 6 0.0003 -0.0003 -0.0009 1.2620 0.0002 5.9891
#
#
#
# Elastic Compliance Matrix: (Units=1/GPa)
#
#
# Indices 1 2 3 4 5 6 
#
# 1 0.009212 -0.001425 -0.002673 -0.000001 0.001707 -0.000001
# 2 -0.001425 0.023410 0.000019 0.000005 0.012409 0.000000
# 3 -0.002673 0.000019 0.009607 0.000006 0.002385 0.000000
# 4 -0.000001 0.000005 0.000006 0.093726 0.000007 -0.019749
# 5 0.001707 0.012409 0.002385 0.000007 0.043965 -0.000002
# 6 -0.000001 0.000000 0.000000 -0.019749 -0.000002 0.171132
#
#
# Mechanical properties :
#
#
# Convention : Reuss Voigt Hill
#
# Bulk Modulus (GPa) = 29.35010 45.12605 37.23808
# Shear Modulus (GPa) = 13.49287 24.62812 19.06049
#
# Velocity S-wave (km/s) = 2.53447 3.42413 3.01233
# Velocity P-wave (km/s) = 4.74736 6.09229 5.46138
#
# Compressibility (1/GPa) = 0.03407143
#
# Stress axis : x y z
#
# Youngs Moduli (GPa) = 108.55278 42.71711 104.08989
#
# Poissons Ratio (x) = 0.06086 0.27824
# Poissons Ratio (y) = 0.15466 -0.00198
# Poissons Ratio (z) = 0.29017 -0.00081
#
# Static dielectric constant tensor:
#      x y z
#    x 3.603260 0.000000 -0.194200 
#    y 0.000000 3.896800 0.000000 
#    z -0.194200 0.000000 4.213350 
# 
# 
# High freq. dielectric constant tensor:
#      x y z
#    x 1.802910 0.000000 -0.008720 
#    y 0.000000 1.814720 0.000000 
#    z -0.008720 0.000000 1.842320 
# 
# From -- ./inp_files/271749.got.cif
#   From: 2010.06.25/outbox.cif.g09.slc.cpg/sg12_136_cif.got.tgz:271749.got - 2010.06.28 00:19:55.
