data_PCOD8109164
_publ_section_title
;
Structure prediction by ZEFSAII (Michael W. Deem and Ramdas Pophale) SiO2 
 PCOD8109164
Probable space group: C 2/M
;
_chemical_formula_sum "Si O2"
_cell_formula_units_Z 64
_cell_length_a 30.658050
_cell_length_b 8.563803
_cell_length_c 19.531087
_cell_angle_alpha 90.000000
_cell_angle_beta 37.572672
_cell_angle_gamma 90.000000
_cell_volume 3126.811290
_symmetry_space_group_name_H-M "C 2/M"
_symmetry_group_IT_number 12
_symmetry_cell_setting 'monoclinic'
loop_
_space_group_symop_operation_xyz
x,y,z
-x,y,-z
-x,-y,-z
x,-y,z
1/2+x,1/2+y,z
1/2-x,1/2+y,-z
1/2-x,1/2-y,-z
1/2+x,1/2-y,z
loop_
_atom_site_type_symbol
_atom_site_label
_atom_site_fract_x
_atom_site_fract_y
_atom_site_fract_z
Si Si1 0.917668 0.680849 0.499034
Si Si2 0.332141 0.183670 0.741061
Si Si3 0.402690 0.818840 0.279886
Si Si4 0.820896 0.817280 0.264717
Si Si5 0.563912 0.680669 0.286298
Si Si6 0.176732 0.815141 0.893079
Si Si7 0.049874 0.182721 0.146099
Si Si8 0.675958 0.680887 0.500332
O O1 0.903747 0.500000 0.498986
O O2 0.882018 0.726335 0.614889
O O3 0.884328 0.785379 0.480907
O O4 0.001763 0.716131 0.398293
O O5 0.361623 0.272293 0.770977
O O6 0.252799 0.249434 0.824950
O O7 0.331636 0.000000 0.756097
O O8 0.389288 0.723482 0.226343
O O9 0.478487 0.774651 0.217081
O O10 0.339977 0.778988 0.411553
O O11 0.400327 0.000000 0.265293
O O12 0.837378 0.761108 0.167160
O O13 0.753241 0.723186 0.376174
O O14 0.803054 0.000000 0.288714
O O15 0.546621 0.500000 0.320262
O O16 0.571571 0.718550 0.196771
O O17 0.178887 0.000000 0.894710
O O18 0.113222 0.750506 0.019589
O O19 0.036344 0.000000 0.150388
O O20 0.672528 0.500000 0.524252
#
# Coordination Sequence:
#
# PCOD8109164 Si02
#       8
#     8   8   8   8   8   8   8   8
#     4  11  21  37  62  90 121 159 202 246 301 367
#     4  10  21  39  62  89 120 160 205 247 298 363
#     4  12  25  41  62  91 125 161 201 248 303 362
#     4  11  22  41  66  92 122 160 204 247 299 362
#     4  11  23  37  58  91 126 160 202 250 303 357
#     4   9  20  41  66  88 116 161 210 252 298 360
#     4  10  22  42  64  87 119 161 209 255 301 354
#     4  12  23  38  62  93 126 159 195 246 306 364
#
# _framework density 20.468136999999999
#
# number of rings (size 3 to 8) (size 9 to 14) (size 15 to 20)
#    0.000    1.250    2.500    4.125    0.000    4.000 
#    0.000    4.375    0.000    0.000    0.000    0.000 
#    0.000    0.000    0.000    0.000    0.000    0.000 
#
# Total GULP energy -397005.568369 kJ/mol
# GULP energy per Si atom -12406.424012 kJ/mol
# Density = 2.042155 g / cm^3
# Si number density = 20.468137 Si / 1000 Ang^3
#
#
#
# Elastic Constant Matrix: (Units=GPa)
#
#
# Indices 1 2 3 4 5 6 
#
# 1 111.9156 30.4572 32.0933 -0.0458 15.9904 0.0235
# 2 30.4572 55.1791 27.6516 0.0103 1.9234 0.0018
# 3 32.0933 27.6516 124.9712 0.0514 9.9608 -0.0142
# 4 -0.0458 0.0103 0.0514 21.5390 -0.0933 0.0691
# 5 15.9904 1.9234 9.9608 -0.0933 16.0433 0.0323
# 6 0.0235 0.0018 -0.0142 0.0691 0.0323 34.7548
#
#
#
# Elastic Compliance Matrix: (Units=1/GPa)
#
#
# Indices 1 2 3 4 5 6 
#
# 1 0.012425 -0.005978 -0.000987 -0.000016 -0.011054 0.000002
# 2 -0.005978 0.023261 -0.004066 0.000010 0.005694 -0.000004
# 3 -0.000987 -0.004066 0.009508 -0.000042 -0.004433 0.000009
# 4 -0.000016 0.000010 -0.000042 0.046429 0.000311 -0.000093
# 5 -0.011054 0.005694 -0.004433 0.000311 0.075421 -0.000065
# 6 0.000002 -0.000004 0.000009 -0.000093 -0.000065 0.028773
#
#
# Mechanical properties :
#
#
# Convention : Reuss Voigt Hill
#
# Bulk Modulus (GPa) = 43.22805 52.49668 47.86236
# Shear Modulus (GPa) = 22.16416 27.92501 25.04458
#
# Velocity S-wave (km/s) = 3.29426 3.69767 3.50178
# Velocity P-wave (km/s) = 5.96951 6.62828 6.30750
#
# Compressibility (1/GPa) = 0.02313313
#
# Stress axis : x y z
#
# Youngs Moduli (GPa) = 80.48510 42.98965 105.17294
#
# Poissons Ratio (x) = 0.25700 0.10379
# Poissons Ratio (y) = 0.48115 0.42758
# Poissons Ratio (z) = 0.07943 0.17478
#
# Static dielectric constant tensor:
#      x y z
#    x 3.893120 -0.000040 0.043920 
#    y -0.000040 3.525470 0.000060 
#    z 0.043920 0.000060 3.805350 
# 
# 
# High freq. dielectric constant tensor:
#      x y z
#    x 1.815820 0.000000 0.002800 
#    y 0.000000 1.787750 0.000010 
#    z 0.002800 0.000010 1.795990 
# 
# From -- ./inp_files/295641.got.cif
#   From: 2010.06.25/outbox.cif.g09.slc.cpg/sg12_148_cif.got.tgz:295641.got - 2010.06.28 00:19:55.
