data_PCOD8109312
_publ_section_title
;
Structure prediction by ZEFSAII (Michael W. Deem and Ramdas Pophale) SiO2 
 PCOD8109312
Probable space group: C 2/M
;
_chemical_formula_sum "Si O2"
_cell_formula_units_Z 64
_cell_length_a 9.224567
_cell_length_b 18.011683
_cell_length_c 28.838630
_cell_angle_alpha 90.000000
_cell_angle_beta 42.895748
_cell_angle_gamma 90.000000
_cell_volume 3261.439215
_symmetry_space_group_name_H-M "C 2/M"
_symmetry_group_IT_number 12
_symmetry_cell_setting 'monoclinic'
loop_
_space_group_symop_operation_xyz
x,y,z
-x,y,-z
-x,-y,-z
x,-y,z
1/2+x,1/2+y,z
1/2-x,1/2+y,-z
1/2-x,1/2-y,-z
1/2+x,1/2-y,z
loop_
_atom_site_type_symbol
_atom_site_label
_atom_site_fract_x
_atom_site_fract_y
_atom_site_fract_z
Si Si1 0.386655 0.585109 0.676467
Si Si2 0.970743 0.207496 0.955186
Si Si3 0.025117 0.701904 0.365143
Si Si4 0.706660 0.183408 0.423760
Si Si5 0.071967 0.089052 0.853205
Si Si6 0.000507 0.415556 0.297444
Si Si7 0.874557 0.795506 0.840593
Si Si8 0.264183 0.704580 0.765777
O O1 0.421901 0.500000 0.679214
O O2 0.616711 0.619754 0.612031
O O3 0.266508 0.618604 0.749847
O O4 0.232313 0.598531 0.668872
O O5 0.007961 0.135472 0.913964
O O6 0.136608 0.273901 0.908485
O O7 0.750000 0.250000 0.000000
O O8 0.000000 0.175918 0.000000
O O9 0.156025 0.696728 0.381648
O O10 0.008089 0.621497 0.346130
O O11 0.137980 0.753518 0.300891
O O12 0.793187 0.739955 0.426711
O O13 0.500000 0.156661 0.500000
O O14 0.921225 0.120377 0.847125
O O15 0.314650 0.111104 0.781821
O O16 0.039932 0.000000 0.867722
O O17 0.047255 0.500000 0.297422
O O18 0.911361 0.789409 0.776759
O O19 0.030317 0.737430 0.830617
#
# Coordination Sequence:
#
# PCOD8109312 Si02
#       8
#     8   8   8   8   8   8   8   8
#     4  10  22  38  58  88 125 157 198 254 313 375
#     4  12  23  41  65  90 124 173 219 253 300 370
#     4  11  20  37  60  90 116 149 204 255 300 366
#     4  11  24  39  60  84 119 166 207 251 298 361
#     4  11  24  41  66  98 130 162 207 268 323 372
#     4  10  21  39  63  90 123 154 189 253 327 378
#     4  12  21  39  63  92 125 161 205 258 311 380
#     4  11  20  34  62  91 117 154 199 251 318 368
#
# _framework density 19.623239000000002
#
# number of rings (size 3 to 8) (size 9 to 14) (size 15 to 20)
#    0.000    1.000    3.750    4.875    0.000    1.500 
#    0.000    1.250    0.000    4.875    0.000    0.000 
#    0.000    0.000    0.000    0.000    0.000    0.000 
#
# Total GULP energy -396654.322091 kJ/mol
# GULP energy per Si atom -12395.447565 kJ/mol
# Density = 1.957858 g / cm^3
# Si number density = 19.623239 Si / 1000 Ang^3
#
#
#
# Elastic Constant Matrix: (Units=GPa)
#
#
# Indices 1 2 3 4 5 6 
#
# 1 123.3988 51.5792 43.8992 -0.0015 2.5716 0.0023
# 2 51.5792 113.9670 49.7066 -0.0122 -7.5408 0.0018
# 3 43.8992 49.7066 83.4412 -0.0236 -12.9149 0.0001
# 4 -0.0015 -0.0122 -0.0236 28.2388 -0.0061 -1.3529
# 5 2.5716 -7.5408 -12.9149 -0.0061 35.9250 0.0007
# 6 0.0023 0.0018 0.0001 -1.3529 0.0007 33.7543
#
#
#
# Elastic Compliance Matrix: (Units=1/GPa)
#
#
# Indices 1 2 3 4 5 6 
#
# 1 0.011102 -0.003341 -0.004322 -0.000005 -0.003050 -0.000001
# 2 -0.003341 0.012860 -0.005769 0.000001 0.000864 0.000000
# 3 -0.004322 -0.005769 0.018590 0.000014 0.005782 0.000001
# 4 -0.000005 0.000001 0.000014 0.035480 0.000012 0.001422
# 5 -0.003050 0.000864 0.005782 0.000012 0.030314 0.000000
# 6 -0.000001 0.000000 0.000001 0.001422 0.000000 0.029683
#
#
# Mechanical properties :
#
#
# Convention : Reuss Voigt Hill
#
# Bulk Modulus (GPa) = 63.74943 67.90854 65.82899
# Shear Modulus (GPa) = 29.39046 31.29174 30.34110
#
# Velocity S-wave (km/s) = 3.87426 3.99761 3.93642
# Velocity P-wave (km/s) = 7.25055 7.48259 7.36748
#
# Compressibility (1/GPa) = 0.01568641
#
# Stress axis : x y z
#
# Youngs Moduli (GPa) = 90.07763 77.76069 53.79157
#
# Poissons Ratio (x) = 0.25979 0.23251
# Poissons Ratio (y) = 0.30094 0.31034
# Poissons Ratio (z) = 0.38936 0.44863
#
# Static dielectric constant tensor:
#      x y z
#    x 3.873740 -0.000010 -0.072320 
#    y -0.000010 3.769510 0.000020 
#    z -0.072320 0.000020 3.669440 
# 
# 
# High freq. dielectric constant tensor:
#      x y z
#    x 1.780940 0.000000 -0.006220 
#    y 0.000000 1.757370 0.000000 
#    z -0.006220 0.000000 1.756790 
# 
# From -- ./inp_files/372924.got.cif
#   From: 2010.06.25/outbox.cif.g09.slc.cpg/sg12_187_cif.got.tgz:372924.got - 2010.06.28 00:19:55.
