data_PCOD8109458
_publ_section_title
;
Structure prediction by ZEFSAII (Michael W. Deem and Ramdas Pophale) SiO2 
 PCOD8109458
Probable space group: C 2/M
;
_chemical_formula_sum "Si O2"
_cell_formula_units_Z 48
_cell_length_a 16.446070
_cell_length_b 11.960933
_cell_length_c 25.409843
_cell_angle_alpha 90.000000
_cell_angle_beta 29.032282
_cell_angle_gamma 90.000000
_cell_volume 2425.724911
_symmetry_space_group_name_H-M "C 2/M"
_symmetry_group_IT_number 12
_symmetry_cell_setting 'monoclinic'
loop_
_space_group_symop_operation_xyz
x,y,z
-x,y,-z
-x,-y,-z
x,-y,z
1/2+x,1/2+y,z
1/2-x,1/2+y,-z
1/2-x,1/2-y,-z
1/2+x,1/2-y,z
loop_
_atom_site_type_symbol
_atom_site_label
_atom_site_fract_x
_atom_site_fract_y
_atom_site_fract_z
Si Si1 0.445730 0.229656 0.887715
Si Si2 0.590993 0.873769 0.497834
Si Si3 0.039681 0.192257 0.719928
Si Si4 0.480978 0.127891 0.671613
Si Si5 0.007476 0.500000 0.907926
Si Si6 0.088177 0.873160 0.898802
Si Si7 0.720943 0.500000 0.156555
O O1 0.508600 0.255884 0.794233
O O2 0.533825 0.314646 0.876771
O O3 0.498552 0.105502 0.874406
O O4 0.250000 0.250000 0.000000
O O5 0.500000 0.812044 0.500000
O O6 0.789184 0.876514 0.377140
O O7 0.531465 0.819244 0.586501
O O8 0.522371 0.000000 0.539014
O O9 0.070250 0.296599 0.664299
O O10 0.890668 0.111699 0.784503
O O11 0.285057 0.135794 0.793710
O O12 0.544949 0.000000 0.640849
O O13 0.180218 0.500000 0.843794
O O14 0.849477 0.500000 0.035819
O O15 0.025327 0.000000 0.929828
O O16 0.000000 0.816813 0.000000
#
# Coordination Sequence:
#
# PCOD8109458 Si02
#       7
#     8   8   8   8   4   8   4
#     4  12  25  37  62  89 125 164 208 255 309 372
#     4  10  21  39  64  93 120 153 204 262 310 358
#     4  12  23  40  65  92 123 163 212 253 312 372
#     4  10  22  40  62  90 122 163 200 253 308 366
#     4  11  26  44  58  89 133 169 208 254 315 376
#     4  10  22  39  61  90 125 159 202 255 310 371
#     4  11  24  42  65  89 123 171 209 258 310 373
#
# _framework density 19.787897999999998
#
# number of rings (size 3 to 8) (size 9 to 14) (size 15 to 20)
#    0.000    1.167    2.500    3.500    5.833    1.333 
#    0.000    0.000    0.000    0.500    0.000    0.000 
#    0.000    0.000    0.000    0.000    0.000    0.000 
#
# Total GULP energy -297642.940931 kJ/mol
# GULP energy per Si atom -12401.789205 kJ/mol
# Density = 1.974286 g / cm^3
# Si number density = 19.787898 Si / 1000 Ang^3
#
#
#
# Elastic Constant Matrix: (Units=GPa)
#
#
# Indices 1 2 3 4 5 6 
#
# 1 148.7104 62.1210 44.4071 0.0002 21.9018 0.0001
# 2 62.1210 91.4136 22.3939 -0.0012 4.0072 0.0000
# 3 44.4071 22.3939 101.5803 -0.0040 15.2025 -0.0009
# 4 0.0002 -0.0012 -0.0040 19.0307 -0.0006 6.1359
# 5 21.9018 4.0072 15.2025 -0.0006 44.8167 -0.0002
# 6 0.0001 0.0000 -0.0009 6.1359 -0.0002 31.2180
#
#
#
# Elastic Compliance Matrix: (Units=1/GPa)
#
#
# Indices 1 2 3 4 5 6 
#
# 1 0.010818 -0.006518 -0.002727 -0.000001 -0.003779 0.000000
# 2 -0.006518 0.015492 -0.000880 0.000001 0.002099 0.000000
# 3 -0.002727 -0.000880 0.011609 0.000002 -0.002527 0.000000
# 4 -0.000001 0.000001 0.000002 0.056102 0.000000 -0.011027
# 5 -0.003779 0.002099 -0.002527 0.000000 0.024829 0.000000
# 6 0.000000 0.000000 0.000000 -0.011027 0.000000 0.034200
#
#
# Mechanical properties :
#
#
# Convention : Reuss Voigt Hill
#
# Bulk Modulus (GPa) = 56.59483 66.61647 61.60565
# Shear Modulus (GPa) = 27.90346 33.19857 30.55101
#
# Velocity S-wave (km/s) = 3.75924 4.10044 3.93354
# Velocity P-wave (km/s) = 6.89241 7.49376 7.19937
#
# Compressibility (1/GPa) = 0.01766946
#
# Stress axis : x y z
#
# Youngs Moduli (GPa) = 92.43858 64.54887 86.14305
#
# Poissons Ratio (x) = 0.42072 0.23489
# Poissons Ratio (y) = 0.60250 0.07581
# Poissons Ratio (z) = 0.25206 0.05681
#
# Static dielectric constant tensor:
#      x y z
#    x 3.821270 0.000000 0.126840 
#    y 0.000000 3.620420 0.000000 
#    z 0.126840 0.000000 3.623970 
# 
# 
# High freq. dielectric constant tensor:
#      x y z
#    x 1.785120 0.000000 0.005550 
#    y 0.000000 1.764350 0.000000 
#    z 0.005550 0.000000 1.777210 
# 
# From -- ./inp_files/360997.got.cif
#   From: 2010.06.25/outbox.cif.g09.slc.cpg/sg12_181_cif.got.tgz:360997.got - 2010.06.28 00:19:55.
