data_PCOD8109569
_publ_section_title
;
Structure prediction by ZEFSAII (Michael W. Deem and Ramdas Pophale) SiO2 
 PCOD8109569
Probable space group: C 2/M
;
_chemical_formula_sum "Si O2"
_cell_formula_units_Z 56
_cell_length_a 19.350212
_cell_length_b 13.371107
_cell_length_c 21.539057
_cell_angle_alpha 90.000000
_cell_angle_beta 27.886707
_cell_angle_gamma 90.000000
_cell_volume 2606.574487
_symmetry_space_group_name_H-M "C 2/M"
_symmetry_group_IT_number 12
_symmetry_cell_setting 'monoclinic'
loop_
_space_group_symop_operation_xyz
x,y,z
-x,y,-z
-x,-y,-z
x,-y,z
1/2+x,1/2+y,z
1/2-x,1/2+y,-z
1/2-x,1/2-y,-z
1/2+x,1/2-y,z
loop_
_atom_site_type_symbol
_atom_site_label
_atom_site_fract_x
_atom_site_fract_y
_atom_site_fract_z
Si Si1 0.098227 0.382117 0.598333
Si Si2 0.134699 0.692931 0.016355
Si Si3 0.693130 0.115040 0.101071
Si Si4 0.651534 0.383106 0.254419
Si Si5 0.194104 0.705588 0.750266
Si Si6 0.682320 0.617757 0.472373
Si Si7 0.149745 0.614862 0.419074
O O1 0.121160 0.500000 0.577352
O O2 0.209761 0.335062 0.560875
O O3 0.130849 0.339228 0.503612
O O4 0.928929 0.358846 0.750190
O O5 0.169029 0.810709 0.999009
O O6 0.264432 0.638273 0.876199
O O7 0.118383 0.634658 0.093931
O O8 0.979212 0.683845 0.104963
O O9 0.746867 0.000000 0.063447
O O10 0.656202 0.500000 0.266519
O O11 0.730899 0.323341 0.245481
O O12 0.483509 0.344143 0.381588
O O13 0.268866 0.644399 0.635565
O O14 0.220636 0.823508 0.717316
O O15 0.688470 0.500000 0.473230
O O16 0.199487 0.500000 0.380778
O O17 0.000000 0.629526 0.500000
#
# Coordination Sequence:
#
# PCOD8109569 Si02
#       7
#     8   8   8   8   8   8   8
#     4   9  19  38  66  94 122 163 210 265 325 374
#     4  11  25  41  63  98 128 173 219 257 321 388
#     4  10  22  42  66  93 131 171 213 267 322 382
#     4  11  25  43  65  94 133 172 213 267 323 384
#     4  12  24  40  63  93 129 172 216 267 321 384
#     4  10  21  39  65  96 125 161 214 268 324 385
#     4  10  23  41  63  94 129 169 216 269 326 381
#
# _framework density 21.484135999999999
#
# number of rings (size 3 to 8) (size 9 to 14) (size 15 to 20)
#    0.000    1.571    1.429    2.571    4.000    6.857 
#    0.000    1.429    0.000    1.714    0.000    0.000 
#    0.000    0.000    0.000    0.000    0.000    0.000 
#
# Total GULP energy -347303.644091 kJ/mol
# GULP energy per Si atom -12403.701575 kJ/mol
# Density = 2.143524 g / cm^3
# Si number density = 21.484136 Si / 1000 Ang^3
#
#
#
# Elastic Constant Matrix: (Units=GPa)
#
#
# Indices 1 2 3 4 5 6 
#
# 1 77.0310 0.0774 10.9455 -0.0057 5.7251 0.0009
# 2 0.0774 55.3510 21.6310 -0.0142 1.7948 0.0038
# 3 10.9455 21.6310 93.0439 -0.0135 -9.0143 0.0051
# 4 -0.0057 -0.0142 -0.0135 29.8459 0.0057 6.8941
# 5 5.7251 1.7948 -9.0143 0.0057 32.1915 -0.0012
# 6 0.0009 0.0038 0.0051 6.8941 -0.0012 25.1737
#
#
#
# Elastic Compliance Matrix: (Units=1/GPa)
#
#
# Indices 1 2 3 4 5 6 
#
# 1 0.013504 0.000897 -0.002091 0.000003 -0.003037 -0.000001
# 2 0.000897 0.020124 -0.005045 0.000009 -0.002694 -0.000005
# 3 -0.002091 -0.005045 0.012571 0.000003 0.004173 -0.000002
# 4 0.000003 0.000009 0.000003 0.035768 -0.000007 -0.009796
# 5 -0.003037 -0.002694 0.004173 -0.000007 0.032923 0.000003
# 6 -0.000001 -0.000005 -0.000002 -0.009796 0.000003 0.042407
#
#
# Mechanical properties :
#
#
# Convention : Reuss Voigt Hill
#
# Bulk Modulus (GPa) = 29.65610 32.30375 30.97993
# Shear Modulus (GPa) = 27.62191 30.29367 28.95779
#
# Velocity S-wave (km/s) = 3.58954 3.75914 3.67532
# Velocity P-wave (km/s) = 5.56897 5.82325 5.69753
#
# Compressibility (1/GPa) = 0.03371988
#
# Stress axis : x y z
#
# Youngs Moduli (GPa) = 74.05333 49.69137 79.54923
#
# Poissons Ratio (x) = -0.04457 0.16636
# Poissons Ratio (y) = -0.06642 0.40133
# Poissons Ratio (z) = 0.15487 0.25069
#
# Static dielectric constant tensor:
#      x y z
#    x 3.983680 -0.000010 0.037210 
#    y -0.000010 3.917220 0.000010 
#    z 0.037210 0.000010 3.845870 
# 
# 
# High freq. dielectric constant tensor:
#      x y z
#    x 1.846880 0.000000 0.005620 
#    y 0.000000 1.856960 0.000000 
#    z 0.005620 0.000000 1.838220 
# 
# From -- ./inp_files/316688.got.cif
#   From: 2010.06.25/outbox.cif.g09.slc.cpg/sg12_159_cif.got.tgz:316688.got - 2010.06.28 00:19:55.
