data_PCOD8109588
_publ_section_title
;
Structure prediction by ZEFSAII (Michael W. Deem and Ramdas Pophale) SiO2 
 PCOD8109588
Probable space group: C 2/M
;
_chemical_formula_sum "Si O2"
_cell_formula_units_Z 56
_cell_length_a 19.839858
_cell_length_b 8.860712
_cell_length_c 16.200709
_cell_angle_alpha 90.000000
_cell_angle_beta 91.912711
_cell_angle_gamma 90.000000
_cell_volume 2846.421170
_symmetry_space_group_name_H-M "C 2/M"
_symmetry_group_IT_number 12
_symmetry_cell_setting 'monoclinic'
loop_
_space_group_symop_operation_xyz
x,y,z
-x,y,-z
-x,-y,-z
x,-y,z
1/2+x,1/2+y,z
1/2-x,1/2+y,-z
1/2-x,1/2-y,-z
1/2+x,1/2-y,z
loop_
_atom_site_type_symbol
_atom_site_label
_atom_site_fract_x
_atom_site_fract_y
_atom_site_fract_z
Si Si1 0.320594 0.326650 0.522724
Si Si2 0.744401 0.176703 0.761623
Si Si3 0.004938 0.824060 0.751240
Si Si4 0.869269 0.677810 0.689549
Si Si5 0.944981 0.175960 0.065182
Si Si6 0.634427 0.671494 0.653194
Si Si7 0.304163 0.177563 0.061491
O O1 0.307052 0.500000 0.545881
O O2 0.250000 0.250000 0.500000
O O3 0.358280 0.247090 0.599075
O O4 0.369842 0.313584 0.445739
O O5 0.814715 0.261967 0.752430
O O6 0.693345 0.219325 0.686707
O O7 0.712103 0.229186 0.846233
O O8 0.759027 0.000000 0.759996
O O9 0.941981 0.721800 0.726226
O O10 0.028614 0.779221 0.843562
O O11 0.063294 0.781088 0.688963
O O12 0.985226 0.000000 0.744969
O O13 0.862739 0.500000 0.682141
O O14 0.878055 0.266850 0.040093
O O15 0.927597 0.000000 0.059641
O O16 0.000000 0.222894 0.000000
O O17 0.652548 0.500000 0.680217
O O18 0.300616 0.000000 0.051206
O O19 0.250000 0.250000 0.000000
#
# Coordination Sequence:
#
# PCOD8109588 Si02
#       7
#     8   8   8   8   8   8   8
#     4  11  22  38  62  94 126 160 208 259 312 368
#     4  11  23  40  64  91 123 162 208 259 308 365
#     4  10  22  42  64  89 126 166 206 254 309 370
#     4  12  26  41  61  91 127 167 210 256 310 367
#     4  10  22  41  66  94 126 165 205 251 309 372
#     4  10  21  39  66  92 120 162 206 253 310 372
#     4  11  25  42  64  95 127 163 207 257 310 365
#
# _framework density 19.673828
#
# number of rings (size 3 to 8) (size 9 to 14) (size 15 to 20)
#    0.000    1.286    2.857    2.571    2.000    4.286 
#    0.000    2.857    0.000    0.000    0.000    0.000 
#    0.000    0.000    0.000    0.000    0.000    0.000 
#
# Total GULP energy -347381.196634 kJ/mol
# GULP energy per Si atom -12406.471308 kJ/mol
# Density = 1.962905 g / cm^3
# Si number density = 19.673828 Si / 1000 Ang^3
#
#
#
# Elastic Constant Matrix: (Units=GPa)
#
#
# Indices 1 2 3 4 5 6 
#
# 1 143.9904 59.7568 62.9922 0.0000 -6.9978 0.0000
# 2 59.7568 104.6238 46.4117 0.0000 -0.6342 0.0000
# 3 62.9922 46.4117 108.5784 0.0000 -10.6640 0.0000
# 4 0.0000 0.0000 0.0000 28.5835 0.0000 5.5527
# 5 -6.9978 -0.6342 -10.6640 0.0000 37.9778 0.0000
# 6 0.0000 0.0000 0.0000 5.5527 0.0000 39.2330
#
#
#
# Elastic Compliance Matrix: (Units=1/GPa)
#
#
# Indices 1 2 3 4 5 6 
#
# 1 0.010573 -0.004125 -0.004305 0.000000 0.000670 0.000000
# 2 -0.004125 0.013462 -0.003511 0.000000 -0.001521 0.000000
# 3 -0.004305 -0.003511 0.013496 0.000000 0.002938 0.000000
# 4 0.000000 0.000000 0.000000 0.035974 0.000000 -0.005091
# 5 0.000670 -0.001521 0.002938 0.000000 0.027254 0.000000
# 6 0.000000 0.000000 0.000000 -0.005091 0.000000 0.026209
#
#
# Mechanical properties :
#
#
# Convention : Reuss Voigt Hill
#
# Bulk Modulus (GPa) = 73.25658 77.27935 75.26796
# Shear Modulus (GPa) = 32.17503 33.69431 32.93467
#
# Velocity S-wave (km/s) = 4.04842 4.14290 4.09594
# Velocity P-wave (km/s) = 7.69216 7.88989 7.79166
#
# Compressibility (1/GPa) = 0.01365065
#
# Stress axis : x y z
#
# Youngs Moduli (GPa) = 94.58454 74.28200 74.09344
#
# Poissons Ratio (x) = 0.30641 0.31895
# Poissons Ratio (y) = 0.39016 0.26012
# Poissons Ratio (z) = 0.40715 0.26078
#
# Static dielectric constant tensor:
#      x y z
#    x 3.629260 0.000000 -0.083600 
#    y 0.000000 3.594300 0.000000 
#    z -0.083600 0.000000 4.034830 
# 
# 
# High freq. dielectric constant tensor:
#      x y z
#    x 1.771050 0.000000 -0.009380 
#    y 0.000000 1.769220 0.000000 
#    z -0.009380 0.000000 1.780100 
# 
# From -- ./inp_files/231055.got.cif
#   From: 2010.06.25/outbox.cif.g09.slc.cpg/sg12_116_cif.got.tgz:231055.got - 2010.06.28 00:19:55.
