data_PCOD8109700
_publ_section_title
;
Structure prediction by ZEFSAII (Michael W. Deem and Ramdas Pophale) SiO2 
 PCOD8109700
Probable space group: C 2/M
;
_chemical_formula_sum "Si O2"
_cell_formula_units_Z 48
_cell_length_a 29.424301
_cell_length_b 8.635537
_cell_length_c 15.069621
_cell_angle_alpha 90.000000
_cell_angle_beta 140.322372
_cell_angle_gamma 90.000000
_cell_volume 2444.761647
_symmetry_space_group_name_H-M "C 2/M"
_symmetry_group_IT_number 12
_symmetry_cell_setting 'monoclinic'
loop_
_space_group_symop_operation_xyz
x,y,z
-x,y,-z
-x,-y,-z
x,-y,z
1/2+x,1/2+y,z
1/2-x,1/2+y,-z
1/2-x,1/2-y,-z
1/2+x,1/2-y,z
loop_
_atom_site_type_symbol
_atom_site_label
_atom_site_fract_x
_atom_site_fract_y
_atom_site_fract_z
Si Si1 0.339970 0.319202 0.779977
Si Si2 0.608982 0.180280 0.319817
Si Si3 0.691611 0.319428 0.602294
Si Si4 0.347524 0.817560 0.085343
Si Si5 0.055215 0.317442 0.926643
Si Si6 0.307871 0.680985 0.197970
O O1 0.323780 0.500000 0.766393
O O2 0.350626 0.281259 0.692685
O O3 0.274606 0.220572 0.719209
O O4 0.410707 0.271298 0.939123
O O5 0.644301 0.214813 0.467257
O O6 0.526906 0.228998 0.200801
O O7 0.617792 0.000000 0.310125
O O8 0.680985 0.500000 0.564605
O O9 0.666128 0.279476 0.663876
O O10 0.408902 0.759113 0.110988
O O11 0.361229 0.755590 0.205788
O O12 0.348099 0.000000 0.089091
O O13 0.272014 0.752573 0.936184
O O14 0.066303 0.500000 0.957820
O O15 0.307047 0.500000 0.180296
#
# Coordination Sequence:
#
# PCOD8109700 Si02
#       6
#     8   8   8   8   8   8
#     4  12  24  38  60  87 114 148 195 240 283 337
#     4  11  24  40  59  83 116 154 193 234 285 341
#     4  11  22  40  61  83 117 153 191 236 285 337
#     4   9  17  33  57  84 112 143 185 231 279 334
#     4  10  21  40  61  84 116 154 190 233 285 337
#     4   9  18  33  56  84 112 144 184 232 282 332
#
# _framework density 19.633814999999998
#
# number of rings (size 3 to 8) (size 9 to 14) (size 15 to 20)
#    0.000    1.667    1.667    3.500    0.000    5.333 
#    0.000    0.833    0.000    5.000    0.000    0.000 
#    0.000    0.000    0.000    0.000    0.000    0.000 
#
# Total GULP energy -297687.827079 kJ/mol
# GULP energy per Si atom -12403.659462 kJ/mol
# Density = 1.958913 g / cm^3
# Si number density = 19.633815 Si / 1000 Ang^3
#
#
#
# Elastic Constant Matrix: (Units=GPa)
#
#
# Indices 1 2 3 4 5 6 
#
# 1 80.4889 22.7210 20.4147 0.0000 -24.5804 0.0000
# 2 22.7210 33.5518 15.5463 0.0000 -4.5534 0.0000
# 3 20.4147 15.5463 84.0475 0.0000 -8.4341 0.0000
# 4 0.0000 0.0000 0.0000 29.0895 0.0000 -7.1455
# 5 -24.5804 -4.5534 -8.4341 0.0000 26.5028 0.0000
# 6 0.0000 0.0000 0.0000 -7.1455 0.0000 31.6250
#
#
#
# Elastic Compliance Matrix: (Units=1/GPa)
#
#
# Indices 1 2 3 4 5 6 
#
# 1 0.021293 -0.011456 -0.001311 0.000000 0.017363 0.000000
# 2 -0.011456 0.039137 -0.005008 0.000000 -0.005494 0.000000
# 3 -0.001311 -0.005008 0.013361 0.000000 0.002176 0.000000
# 4 0.000000 0.000000 0.000000 0.036397 0.000000 0.008224
# 5 0.017363 -0.005494 0.002176 0.000000 0.053584 0.000000
# 6 0.000000 0.000000 0.000000 0.008224 0.000000 0.033479
#
#
# Mechanical properties :
#
#
# Convention : Reuss Voigt Hill
#
# Bulk Modulus (GPa) = 26.14895 35.05024 30.59959
# Shear Modulus (GPa) = 20.36277 26.73719 23.54998
#
# Velocity S-wave (km/s) = 3.22394 3.69425 3.46708
# Velocity P-wave (km/s) = 5.21590 6.00728 5.62552
#
# Compressibility (1/GPa) = 0.03824246
#
# Stress axis : x y z
#
# Youngs Moduli (GPa) = 46.96449 25.55121 74.84432
#
# Poissons Ratio (x) = 0.29270 0.09809
# Poissons Ratio (y) = 0.53801 0.37482
# Poissons Ratio (z) = 0.06155 0.12796
#
# Static dielectric constant tensor:
#      x y z
#    x 3.814360 0.000000 -0.111370 
#    y 0.000000 3.420460 0.000000 
#    z -0.111370 0.000000 3.439150 
# 
# 
# High freq. dielectric constant tensor:
#      x y z
#    x 1.775440 0.000000 -0.015330 
#    y 0.000000 1.759680 0.000000 
#    z -0.015330 0.000000 1.750060 
# 
# From -- ./inp_files/229912.got.cif
#   From: 2010.06.25/outbox.cif.g09.slc.cpg/sg12_115_cif.got.tgz:229912.got - 2010.06.28 00:19:55.
