data_PCOD8109178
_publ_section_title
;
Structure prediction by ZEFSAII (Michael W. Deem and Ramdas Pophale) SiO2 
 PCOD8109178
Probable space group: C 2/M
;
_chemical_formula_sum "Si O2"
_cell_formula_units_Z 64
_cell_length_a 9.620247
_cell_length_b 17.379546
_cell_length_c 31.051061
_cell_angle_alpha 90.000000
_cell_angle_beta 34.663891
_cell_angle_gamma 90.000000
_cell_volume 2952.780172
_symmetry_space_group_name_H-M "C 2/M"
_symmetry_group_IT_number 12
_symmetry_cell_setting 'monoclinic'
loop_
_space_group_symop_operation_xyz
x,y,z
-x,y,-z
-x,-y,-z
x,-y,z
1/2+x,1/2+y,z
1/2-x,1/2+y,-z
1/2-x,1/2-y,-z
1/2+x,1/2-y,z
loop_
_atom_site_type_symbol
_atom_site_label
_atom_site_fract_x
_atom_site_fract_y
_atom_site_fract_z
Si Si1 0.510046 0.803877 0.663448
Si Si2 0.017520 0.206975 0.579954
Si Si3 0.897648 0.195518 0.163994
Si Si4 0.109717 0.090839 0.911197
Si Si5 0.333234 0.585357 0.844117
Si Si6 0.129403 0.644253 0.076771
Si Si7 0.256337 0.587017 0.325955
Si Si8 0.726359 0.583949 0.583974
O O1 0.430531 0.747585 0.645529
O O2 0.341671 0.783324 0.747284
O O3 0.445592 0.885373 0.657485
O O4 0.796885 0.799950 0.601973
O O5 0.250000 0.250000 0.500000
O O6 0.087788 0.123292 0.579565
O O7 0.803525 0.131579 0.154396
O O8 0.103542 0.153474 0.139476
O O9 0.021193 0.269947 0.110790
O O10 0.332937 0.101562 0.887337
O O11 0.049189 0.000000 0.921043
O O12 0.881629 0.141793 0.986119
O O13 0.383899 0.500000 0.850833
O O14 0.478561 0.596431 0.762619
O O15 0.050300 0.592629 0.905598
O O16 0.181049 0.500000 0.354988
O O17 0.272473 0.628628 0.369321
O O18 0.602929 0.500000 0.621054
O O19 0.000000 0.575800 0.500000
#
# Coordination Sequence:
#
# PCOD8109178 Si02
#       8
#     8   8   8   8   8   8   8   8
#     4  11  25  39  66  92 132 169 214 272 322 387
#     4  12  25  42  65  96 131 171 217 264 327 391
#     4  11  25  40  64  95 130 169 218 273 326 383
#     4  11  24  44  65  94 133 173 214 271 329 388
#     4  10  21  39  62  89 125 170 216 263 321 391
#     4  11  23  40  65  93 128 168 218 267 326 388
#     4   9  20  39  61  91 127 165 209 266 325 379
#     4  10  21  39  64  91 124 166 213 262 317 389
#
# _framework density 21.674489000000001
#
# number of rings (size 3 to 8) (size 9 to 14) (size 15 to 20)
#    0.000    1.375    0.000    5.625    7.000    2.500 
#    0.000    2.500    0.000    3.750    0.000    0.000 
#    0.000    0.000    0.000    0.000    0.000    0.000 
#
# Total GULP energy -396615.094694 kJ/mol
# GULP energy per Si atom -12394.221709 kJ/mol
# Density = 2.162516 g / cm^3
# Si number density = 21.674489 Si / 1000 Ang^3
#
#
#
# Elastic Constant Matrix: (Units=GPa)
#
#
# Indices 1 2 3 4 5 6 
#
# 1 98.7215 13.4575 19.1217 -0.0168 -9.0176 0.0148
# 2 13.4575 97.1108 23.8131 -0.0387 4.5197 0.0158
# 3 19.1217 23.8131 56.1739 -0.0210 6.3899 0.0106
# 4 -0.0168 -0.0387 -0.0210 20.5680 0.0072 9.0046
# 5 -9.0176 4.5197 6.3899 0.0072 39.2699 0.0003
# 6 0.0148 0.0158 0.0106 9.0046 0.0003 31.0456
#
#
#
# Elastic Compliance Matrix: (Units=1/GPa)
#
#
# Indices 1 2 3 4 5 6 
#
# 1 0.011291 -0.000763 -0.003897 0.000005 0.003315 -0.000005
# 2 -0.000763 0.011555 -0.004552 0.000021 -0.000765 -0.000010
# 3 -0.003897 -0.004552 0.021498 0.000015 -0.003869 -0.000007
# 4 0.000005 0.000021 0.000015 0.055691 -0.000014 -0.016153
# 5 0.003315 -0.000765 -0.003869 -0.000014 0.026944 0.000004
# 6 -0.000005 -0.000010 -0.000007 -0.016153 0.000004 0.036896
#
#
# Mechanical properties :
#
#
# Convention : Reuss Voigt Hill
#
# Bulk Modulus (GPa) = 38.57969 40.53232 39.55601
# Shear Modulus (GPa) = 26.18645 31.21763 28.70204
#
# Velocity S-wave (km/s) = 3.47964 3.79924 3.64295
# Velocity P-wave (km/s) = 5.82942 6.16333 5.99870
#
# Compressibility (1/GPa) = 0.02592037
#
# Stress axis : x y z
#
# Youngs Moduli (GPa) = 88.56480 86.54255 46.51596
#
# Poissons Ratio (x) = 0.06606 0.18127
# Poissons Ratio (y) = 0.06761 0.21172
# Poissons Ratio (z) = 0.34514 0.39390
#
# Static dielectric constant tensor:
#      x y z
#    x 9.619150 -0.000330 -0.331110 
#    y -0.000330 4.357760 0.000120 
#    z -0.331110 0.000120 3.886860 
# 
# 
# High freq. dielectric constant tensor:
#      x y z
#    x 1.856960 0.000000 0.012740 
#    y 0.000000 1.857970 0.000000 
#    z 0.012740 0.000000 1.845670 
# 
# From -- ./inp_files/372945.got.cif
#   From: 2010.06.25/outbox.cif.g09.slc.cpg/sg12_187_cif.got.tgz:372945.got - 2010.06.28 00:19:55.
