data_PCOD8109851
_publ_section_title
;
Structure prediction by ZEFSAII (Michael W. Deem and Ramdas Pophale) SiO2 
 PCOD8109851
Probable space group: C 2/M
;
_chemical_formula_sum "Si O2"
_cell_formula_units_Z 28
_cell_length_a 9.419811
_cell_length_b 21.072805
_cell_length_c 10.165149
_cell_angle_alpha 90.000000
_cell_angle_beta 41.487567
_cell_angle_gamma 90.000000
_cell_volume 1336.707286
_symmetry_space_group_name_H-M "C 2/M"
_symmetry_group_IT_number 12
_symmetry_cell_setting 'monoclinic'
loop_
_space_group_symop_operation_xyz
x,y,z
-x,y,-z
-x,-y,-z
x,-y,z
1/2+x,1/2+y,z
1/2-x,1/2+y,-z
1/2-x,1/2-y,-z
1/2+x,1/2-y,z
loop_
_atom_site_type_symbol
_atom_site_label
_atom_site_fract_x
_atom_site_fract_y
_atom_site_fract_z
Si Si1 0.728331 0.120420 0.289078
Si Si2 0.000000 0.650095 0.000000
Si Si3 0.231001 0.761995 0.360189
Si Si4 0.162406 0.925889 0.073823
O O1 0.500000 0.096768 0.500000
O O2 0.740867 0.196474 0.271858
O O3 0.914182 0.095281 0.257881
O O4 0.753283 0.091383 0.128336
O O5 0.919378 0.692859 0.177653
O O6 0.802393 0.608281 0.087669
O O7 0.250000 0.750000 0.500000
O O8 0.000000 0.794742 0.500000
O O9 0.182516 0.000000 0.085197
#
# Coordination Sequence:
#
# PCOD8109851 Si02
#       4
#     8   4   8   8
#     4  10  21  40  64  88 116 154 202 253 297 347
#     4  12  23  40  62  88 129 162 188 250 312 348
#     4  11  23  39  63  94 121 152 199 249 306 367
#     4  11  24  39  59  88 120 162 207 239 288 359
#
# _framework density 20.946994
#
# number of rings (size 3 to 8) (size 9 to 14) (size 15 to 20)
#    0.000    1.143    0.000    9.000    0.000    5.714 
#    0.000    0.000    0.000    6.857    0.000    0.000 
#    0.000    0.000    0.000    0.000    0.000    0.000 
#
# Total GULP energy -173647.482927 kJ/mol
# GULP energy per Si atom -12403.391638 kJ/mol
# Density = 2.089932 g / cm^3
# Si number density = 20.946994 Si / 1000 Ang^3
#
#
#
# Elastic Constant Matrix: (Units=GPa)
#
#
# Indices 1 2 3 4 5 6 
#
# 1 160.3867 40.6645 64.5732 0.0000 -18.3823 0.0000
# 2 40.6645 114.5877 49.0304 0.0000 -15.0809 0.0000
# 3 64.5732 49.0304 115.5472 0.0000 -27.8876 0.0000
# 4 0.0000 0.0000 0.0000 10.7111 0.0000 -2.1253
# 5 -18.3823 -15.0809 -27.8876 0.0000 34.6941 0.0000
# 6 0.0000 0.0000 0.0000 -2.1253 0.0000 31.7779
#
#
#
# Elastic Compliance Matrix: (Units=1/GPa)
#
#
# Indices 1 2 3 4 5 6 
#
# 1 0.008181 -0.001133 -0.003925 0.000000 0.000687 0.000000
# 2 -0.001133 0.010863 -0.003699 0.000000 0.001148 0.000000
# 3 -0.003925 -0.003699 0.014303 0.000000 0.007809 0.000000
# 4 0.000000 0.000000 0.000000 0.094617 0.000000 0.006328
# 5 0.000687 0.001148 0.007809 0.000000 0.035963 0.000000
# 6 0.000000 0.000000 0.000000 0.006328 0.000000 0.031892
#
#
# Mechanical properties :
#
#
# Convention : Reuss Voigt Hill
#
# Bulk Modulus (GPa) = 63.16645 77.67309 70.41977
# Shear Modulus (GPa) = 22.87162 31.18684 27.02923
#
# Velocity S-wave (km/s) = 3.30795 3.86274 3.59606
# Velocity P-wave (km/s) = 6.69409 7.55352 7.13675
#
# Compressibility (1/GPa) = 0.01583119
#
# Stress axis : x y z
#
# Youngs Moduli (GPa) = 122.22785 92.05542 69.91770
#
# Poissons Ratio (x) = 0.10433 0.27446
# Poissons Ratio (y) = 0.13853 0.25863
# Poissons Ratio (z) = 0.47980 0.34052
#
# Static dielectric constant tensor:
#      x y z
#    x 3.946400 0.000000 -0.366610 
#    y 0.000000 3.871940 0.000000 
#    z -0.366610 0.000000 3.890960 
# 
# 
# High freq. dielectric constant tensor:
#      x y z
#    x 1.835750 0.000000 -0.014920 
#    y 0.000000 1.816690 0.000000 
#    z -0.014920 0.000000 1.820730 
# 
# From -- ./inp_files/37923.got.cif
#   From: 2010.06.25/outbox.cif.g09.slc.cpg/sg12_19_cif.got.tgz:37923.got - 2010.06.28 00:19:55.
