data_PCOD8109065
_publ_section_title
;
Structure prediction by ZEFSAII (Michael W. Deem and Ramdas Pophale) SiO2 
 PCOD8109065
Probable space group: C 2/M
;
_chemical_formula_sum "Si O2"
_cell_formula_units_Z 48
_cell_length_a 10.574104
_cell_length_b 28.752153
_cell_length_c 7.769248
_cell_angle_alpha 90.000000
_cell_angle_beta 66.543985
_cell_angle_gamma 90.000000
_cell_volume 2166.883356
_symmetry_space_group_name_H-M "C 2/M"
_symmetry_group_IT_number 12
_symmetry_cell_setting 'monoclinic'
loop_
_space_group_symop_operation_xyz
x,y,z
-x,y,-z
-x,-y,-z
x,-y,z
1/2+x,1/2+y,z
1/2-x,1/2+y,-z
1/2-x,1/2-y,-z
1/2+x,1/2-y,z
loop_
_atom_site_type_symbol
_atom_site_label
_atom_site_fract_x
_atom_site_fract_y
_atom_site_fract_z
Si Si1 0.538880 0.948396 0.706187
Si Si2 0.593527 0.706986 0.111487
Si Si3 0.218810 0.550997 0.948973
Si Si4 0.360383 0.146262 0.415760
Si Si5 0.133117 0.694219 0.227069
Si Si6 0.389442 0.375734 0.687653
O O1 0.624776 0.948345 0.832742
O O2 0.602120 0.907592 0.550900
O O3 0.551626 0.000000 0.612894
O O4 0.378475 0.936908 0.835557
O O5 0.607880 0.750351 0.232767
O O6 0.528361 0.665237 0.257716
O O7 0.500000 0.721079 0.000000
O O8 0.740542 0.685435 0.970687
O O9 0.284569 0.500000 0.939419
O O10 0.342419 0.587181 0.856370
O O11 0.494283 0.167441 0.244154
O O12 0.327933 0.177537 0.600644
O O13 0.235552 0.147447 0.350566
O O14 0.500000 0.399696 0.500000
#
# Coordination Sequence:
#
# PCOD8109065 Si02
#       6
#     8   8   8   8   8   8
#     4   8  14  29  57  89 122 155 190 238 291 352
#     4  11  25  42  59  83 116 156 202 246 298 358
#     4   8  15  30  54  89 124 155 195 237 288 352
#     4  10  21  39  61  90 122 152 196 248 300 352
#     4  10  24  40  60  84 116 154 193 246 302 354
#     4  11  23  36  61  88 118 161 201 250 293 348
#
# _framework density 22.151631999999999
#
# number of rings (size 3 to 8) (size 9 to 14) (size 15 to 20)
#    0.000    2.333    0.000    3.000    7.000    2.333 
#    0.000    1.667    0.000    1.500    0.000    0.000 
#    0.000    0.000    0.000    0.000    0.000    0.000 
#
# Total GULP energy -297373.532170 kJ/mol
# GULP energy per Si atom -12390.563840 kJ/mol
# Density = 2.210121 g / cm^3
# Si number density = 22.151632 Si / 1000 Ang^3
#
#
#
# Elastic Constant Matrix: (Units=GPa)
#
#
# Indices 1 2 3 4 5 6 
#
# 1 57.8642 14.7253 13.7546 0.0000 -0.6574 0.0000
# 2 14.7253 156.7343 61.6493 0.0000 -2.6877 0.0000
# 3 13.7546 61.6493 63.5452 0.0000 3.1467 0.0000
# 4 0.0000 0.0000 0.0000 116.7843 0.0000 18.1876
# 5 -0.6574 -2.6877 3.1467 0.0000 33.3657 0.0000
# 6 0.0000 0.0000 0.0000 18.1876 0.0000 25.0406
#
#
#
# Elastic Compliance Matrix: (Units=1/GPa)
#
#
# Indices 1 2 3 4 5 6 
#
# 1 0.018242 -0.000219 -0.003771 0.000000 0.000697 0.000000
# 2 -0.000219 0.010427 -0.010157 0.000000 0.001794 0.000000
# 3 -0.003771 -0.010157 0.026575 0.000000 -0.003399 0.000000
# 4 0.000000 0.000000 0.000000 0.009655 0.000000 -0.007013
# 5 0.000697 0.001794 -0.003399 0.000000 0.030450 0.000000
# 6 0.000000 0.000000 0.000000 -0.007013 0.000000 0.045028
#
#
# Mechanical properties :
#
#
# Convention : Reuss Voigt Hill
#
# Bulk Modulus (GPa) = 37.10496 50.93355 44.01925
# Shear Modulus (GPa) = 28.14464 47.57243 37.85854
#
# Velocity S-wave (km/s) = 3.56834 4.63923 4.13857
# Velocity P-wave (km/s) = 5.81070 7.19303 6.53849
#
# Compressibility (1/GPa) = 0.02695058
#
# Stress axis : x y z
#
# Youngs Moduli (GPa) = 54.81922 95.90791 37.62877
#
# Poissons Ratio (x) = 0.02097 0.14190
# Poissons Ratio (y) = 0.01198 0.38220
# Poissons Ratio (z) = 0.20672 0.97414
#
# Static dielectric constant tensor:
#      x y z
#    x 3.663740 0.000000 -0.215880 
#    y 0.000000 4.417410 0.000000 
#    z -0.215880 0.000000 4.038860 
# 
# 
# High freq. dielectric constant tensor:
#      x y z
#    x 1.844060 0.000000 -0.005070 
#    y 0.000000 1.882990 0.000000 
#    z -0.005070 0.000000 1.864720 
# 
# From -- ./inp_files/52443.got.cif
#   From: 2010.06.25/outbox.cif.g09.slc.cpg/sg12_27_cif.got.tgz:52443.got - 2010.06.28 00:19:55.
