data_PCOD8109127
_publ_section_title
;
Structure prediction by ZEFSAII (Michael W. Deem and Ramdas Pophale) SiO2 
 PCOD8109127
Probable space group: C 2/M
;
_chemical_formula_sum "Si O2"
_cell_formula_units_Z 48
_cell_length_a 23.256175
_cell_length_b 8.513882
_cell_length_c 12.540149
_cell_angle_alpha 90.000000
_cell_angle_beta 89.237269
_cell_angle_gamma 90.000000
_cell_volume 2482.733633
_symmetry_space_group_name_H-M "C 2/M"
_symmetry_group_IT_number 12
_symmetry_cell_setting 'monoclinic'
loop_
_space_group_symop_operation_xyz
x,y,z
-x,y,-z
-x,-y,-z
x,-y,z
1/2+x,1/2+y,z
1/2-x,1/2+y,-z
1/2-x,1/2-y,-z
1/2+x,1/2-y,z
loop_
_atom_site_type_symbol
_atom_site_label
_atom_site_fract_x
_atom_site_fract_y
_atom_site_fract_z
Si Si1 0.069277 0.818221 0.092989
Si Si2 0.867553 0.317466 0.717698
Si Si3 0.252514 0.685947 0.381011
Si Si4 0.551459 0.817337 0.870996
Si Si5 0.435315 0.682982 0.525774
Si Si6 0.870521 0.315994 0.328811
O O1 0.119248 0.776937 0.174855
O O2 0.007288 0.778184 0.145440
O O3 0.071660 0.000000 0.063798
O O4 0.079496 0.721219 0.984457
O O5 0.869470 0.500000 0.744740
O O6 0.805304 0.263799 0.678252
O O7 0.915122 0.281498 0.627627
O O8 0.260220 0.500000 0.383790
O O9 0.250000 0.750000 0.500000
O O10 0.304434 0.766407 0.315425
O O11 0.596229 0.768088 0.778980
O O12 0.536161 0.000000 0.865496
O O13 0.500000 0.736393 0.500000
O O14 0.431420 0.500000 0.554268
O O15 0.395566 0.718612 0.426201
O O16 0.875545 0.500000 0.353927
#
# Coordination Sequence:
#
# PCOD8109127 Si02
#       6
#     8   8   8   8   8   8
#     4  11  22  37  61  90 119 153 194 242 294 348
#     4  11  23  39  59  84 115 154 196 238 291 351
#     4  11  23  39  61  85 115 155 198 243 291 349
#     4  10  21  39  62  87 119 157 195 238 290 352
#     4  11  23  36  55  85 118 151 189 239 294 347
#     4  11  23  38  59  86 116 154 196 238 291 349
#
# _framework density 19.333528999999999
#
# number of rings (size 3 to 8) (size 9 to 14) (size 15 to 20)
#    0.000    1.167    1.667    6.000    0.000    8.667 
#    0.000    0.833    0.000    0.000    0.000    0.000 
#    0.000    0.000    0.000    0.000    0.000    0.000 
#
# Total GULP energy -297764.469030 kJ/mol
# GULP energy per Si atom -12406.852876 kJ/mol
# Density = 1.928953 g / cm^3
# Si number density = 19.333529 Si / 1000 Ang^3
#
#
#
# Elastic Constant Matrix: (Units=GPa)
#
#
# Indices 1 2 3 4 5 6 
#
# 1 76.7754 13.6526 22.5156 0.0000 15.0116 0.0000
# 2 13.6526 51.7190 5.6923 0.0000 3.6235 0.0000
# 3 22.5156 5.6923 84.6329 0.0000 12.7208 0.0000
# 4 0.0000 0.0000 0.0000 17.0115 0.0000 3.6319
# 5 15.0116 3.6235 12.7208 0.0000 33.5677 0.0000
# 6 0.0000 0.0000 0.0000 3.6319 0.0000 32.3630
#
#
#
# Elastic Compliance Matrix: (Units=1/GPa)
#
#
# Indices 1 2 3 4 5 6 
#
# 1 0.015602 -0.003396 -0.003106 0.000000 -0.005434 0.000000
# 2 -0.003396 0.020311 -0.000383 0.000000 -0.000529 0.000000
# 3 -0.003106 -0.000383 0.013205 0.000000 -0.003574 0.000000
# 4 0.000000 0.000000 0.000000 0.060227 0.000000 -0.006759
# 5 -0.005434 -0.000529 -0.003574 0.000000 0.033632 0.000000
# 6 0.000000 0.000000 0.000000 -0.006759 0.000000 0.031658
#
#
# Mechanical properties :
#
#
# Convention : Reuss Voigt Hill
#
# Bulk Modulus (GPa) = 28.28993 32.98314 30.63653
# Shear Modulus (GPa) = 24.97664 28.00624 26.49144
#
# Velocity S-wave (km/s) = 3.59818 3.81016 3.70568
# Velocity P-wave (km/s) = 5.65038 6.03767 5.84724
#
# Compressibility (1/GPa) = 0.03534827
#
# Stress axis : x y z
#
# Youngs Moduli (GPa) = 64.09373 49.23458 75.72947
#
# Poissons Ratio (x) = 0.16720 0.23519
# Poissons Ratio (y) = 0.21767 0.02902
# Poissons Ratio (z) = 0.19905 0.01886
#
# Static dielectric constant tensor:
#      x y z
#    x 3.777610 0.000000 -0.011530 
#    y 0.000000 3.608010 0.000000 
#    z -0.011530 0.000000 3.578330 
# 
# 
# High freq. dielectric constant tensor:
#      x y z
#    x 1.752620 0.000000 0.004000 
#    y 0.000000 1.766080 0.000000 
#    z 0.004000 0.000000 1.752230 
# 
# From -- ./inp_files/172276.got.cif
#   From: 2010.06.25/outbox.cif.g09.slc.cpg/sg12_87_cif.got.tgz:172276.got - 2010.06.28 00:19:55.
