data_PCOD8109437
_publ_section_title
;
Structure prediction by ZEFSAII (Michael W. Deem and Ramdas Pophale) SiO2 
 PCOD8109437
Probable space group: C 2/M
;
_chemical_formula_sum "Si O2"
_cell_formula_units_Z 64
_cell_length_a 27.920168
_cell_length_b 8.859271
_cell_length_c 15.381356
_cell_angle_alpha 90.000000
_cell_angle_beta 57.520963
_cell_angle_gamma 90.000000
_cell_volume 3209.526880
_symmetry_space_group_name_H-M "C 2/M"
_symmetry_group_IT_number 12
_symmetry_cell_setting 'monoclinic'
loop_
_space_group_symop_operation_xyz
x,y,z
-x,y,-z
-x,-y,-z
x,-y,z
1/2+x,1/2+y,z
1/2-x,1/2+y,-z
1/2-x,1/2-y,-z
1/2+x,1/2-y,z
loop_
_atom_site_type_symbol
_atom_site_label
_atom_site_fract_x
_atom_site_fract_y
_atom_site_fract_z
Si Si1 0.625839 0.678104 0.970042
Si Si2 0.260927 0.826493 0.080682
Si Si3 0.252359 0.321561 0.403772
Si Si4 0.056043 0.821549 0.681931
Si Si5 0.636619 0.330025 0.258617
Si Si6 0.857887 0.825542 0.552878
Si Si7 0.563422 0.177076 0.188253
Si Si8 0.126968 0.177531 0.774837
O O1 0.627286 0.500000 0.984054
O O2 0.688996 0.740398 0.919581
O O3 0.605412 0.719988 0.892354
O O4 0.581432 0.750017 0.079527
O O5 0.204561 0.811760 0.193289
O O6 0.278760 0.000000 0.048892
O O7 0.250000 0.750000 0.000000
O O8 0.253191 0.500000 0.412438
O O9 0.250000 0.250000 0.500000
O O10 0.198556 0.272995 0.399846
O O11 0.309449 0.259930 0.301799
O O12 0.096240 0.774739 0.562875
O O13 0.083708 0.758648 0.744443
O O14 0.996964 0.739453 0.723532
O O15 0.045540 0.000000 0.694943
O O16 0.620047 0.500000 0.245551
O O17 0.615509 0.298289 0.377345
O O18 0.608764 0.214106 0.218970
O O19 0.841288 0.000000 0.555405
O O20 0.560611 0.000000 0.178163
O O21 0.129163 0.000000 0.759901
#
# Coordination Sequence:
#
# PCOD8109437 Si02
#       8
#     8   8   8   8   8   8   8   8
#     4  11  22  39  63  89 119 156 199 246 298 355
#     4  11  21  35  59  90 124 158 195 238 292 355
#     4  11  20  35  60  92 127 161 196 238 293 353
#     4  10  21  42  65  84 116 157 201 246 292 352
#     4  10  22  40  63  90 120 159 199 239 296 357
#     4  10  21  39  64  92 121 155 199 246 294 353
#     4  12  26  42  60  85 118 155 201 252 301 354
#     4   9  20  38  62  90 119 157 200 240 292 355
#
# _framework density 19.940633999999999
#
# number of rings (size 3 to 8) (size 9 to 14) (size 15 to 20)
#    0.000    1.500    2.500    3.000    0.000    2.500 
#    0.000    8.125    0.000    0.000    0.000    0.000 
#    0.000    0.000    0.000    0.000    0.000    0.000 
#
# Total GULP energy -396893.243280 kJ/mol
# GULP energy per Si atom -12402.913853 kJ/mol
# Density = 1.989525 g / cm^3
# Si number density = 19.940634 Si / 1000 Ang^3
#
#
#
# Elastic Constant Matrix: (Units=GPa)
#
#
# Indices 1 2 3 4 5 6 
#
# 1 52.1674 20.0129 38.6844 0.0000 -3.0454 0.0001
# 2 20.0129 79.5593 34.7165 0.0000 0.1072 0.0002
# 3 38.6844 34.7165 107.2495 0.0000 14.4312 0.0000
# 4 0.0000 0.0000 0.0000 20.7289 0.0000 -4.9249
# 5 -3.0454 0.1072 14.4312 0.0000 35.4147 0.0000
# 6 0.0001 0.0002 0.0000 -4.9249 0.0000 31.8176
#
#
#
# Elastic Compliance Matrix: (Units=1/GPa)
#
#
# Indices 1 2 3 4 5 6 
#
# 1 0.028104 -0.002643 -0.010165 0.000000 0.006567 0.000000
# 2 -0.002643 0.015020 -0.004097 0.000000 0.001397 0.000000
# 3 -0.010165 -0.004097 0.015270 0.000000 -0.007084 0.000000
# 4 0.000000 0.000000 0.000000 0.050084 0.000000 0.007752
# 5 0.006567 0.001397 -0.007084 0.000000 0.031684 0.000000
# 6 0.000000 0.000000 0.000000 0.007752 0.000000 0.032629
#
#
# Mechanical properties :
#
#
# Convention : Reuss Voigt Hill
#
# Bulk Modulus (GPa) = 40.67561 47.31154 43.99357
# Shear Modulus (GPa) = 23.27806 27.29640 25.28723
#
# Velocity S-wave (km/s) = 3.42038 3.70386 3.56494
# Velocity P-wave (km/s) = 6.00344 6.48607 6.24942
#
# Compressibility (1/GPa) = 0.02458476
#
# Stress axis : x y z
#
# Youngs Moduli (GPa) = 35.58186 66.57927 65.48838
#
# Poissons Ratio (x) = 0.17595 0.66571
# Poissons Ratio (y) = 0.09403 0.26828
# Poissons Ratio (z) = 0.36170 0.27275
#
# Static dielectric constant tensor:
#      x y z
#    x 3.804310 0.000000 -0.046750 
#    y 0.000000 3.611750 0.000000 
#    z -0.046750 0.000000 3.804990 
# 
# 
# High freq. dielectric constant tensor:
#      x y z
#    x 1.776660 0.000000 0.006610 
#    y 0.000000 1.765010 0.000000 
#    z 0.006610 0.000000 1.791320 
# 
# From -- ./inp_files/249659.got.cif
#   From: 2010.06.25/outbox.cif.g09.slc.cpg/sg12_125_cif.got.tgz:249659.got - 2010.06.28 00:19:55.
