data_PCOD8109277
_publ_section_title
;
Structure prediction by ZEFSAII (Michael W. Deem and Ramdas Pophale) SiO2 
 PCOD8109277
Probable space group: C 2/M
;
_chemical_formula_sum "Si O2"
_cell_formula_units_Z 64
_cell_length_a 24.351498
_cell_length_b 8.672377
_cell_length_c 29.393005
_cell_angle_alpha 90.000000
_cell_angle_beta 149.000778
_cell_angle_gamma 90.000000
_cell_volume 3196.961022
_symmetry_space_group_name_H-M "C 2/M"
_symmetry_group_IT_number 12
_symmetry_cell_setting 'monoclinic'
loop_
_space_group_symop_operation_xyz
x,y,z
-x,y,-z
-x,-y,-z
x,-y,z
1/2+x,1/2+y,z
1/2-x,1/2+y,-z
1/2-x,1/2-y,-z
1/2+x,1/2-y,z
loop_
_atom_site_type_symbol
_atom_site_label
_atom_site_fract_x
_atom_site_fract_y
_atom_site_fract_z
Si Si1 0.058097 0.682318 0.973402
Si Si2 0.136776 0.317520 0.932481
Si Si3 0.363721 0.321236 0.589760
Si Si4 0.246706 0.178741 0.645412
Si Si5 0.165707 0.321245 0.678908
Si Si6 0.553108 0.681226 0.255390
Si Si7 0.046988 0.822185 0.442317
Si Si8 0.339404 0.182740 0.861134
O O1 0.059453 0.500000 0.972561
O O2 0.099199 0.751070 0.954787
O O3 0.936687 0.734210 0.897219
O O4 0.134858 0.735790 0.069050
O O5 0.145008 0.500000 0.940532
O O6 0.053355 0.268285 0.834921
O O7 0.250000 0.250000 0.000000
O O8 0.342672 0.500000 0.581562
O O9 0.250000 0.250000 0.500000
O O10 0.417624 0.254617 0.673660
O O11 0.442777 0.288579 0.603998
O O12 0.202416 0.216562 0.663368
O O13 0.351014 0.280316 0.710771
O O14 0.158627 0.219375 0.545196
O O15 0.279256 0.000000 0.666648
O O16 0.180600 0.500000 0.677827
O O17 0.233930 0.273505 0.771449
O O18 0.042109 0.288891 0.600636
O O19 0.530495 0.500000 0.239170
O O20 0.016264 0.000000 0.430005
O O21 0.319529 0.000000 0.844317
#
# Coordination Sequence:
#
# PCOD8109277 Si02
#       8
#     8   8   8   8   8   8   8   8
#     4   8  17  35  62  87 107 142 193 244 292 347
#     4  11  23  40  60  86 122 161 202 247 298 355
#     4  10  21  39  63  89 119 154 198 249 297 352
#     4  11  22  39  63  86 114 155 203 245 291 355
#     4  12  25  37  53  85 124 156 192 241 301 354
#     4  11  23  39  63  94 124 156 197 248 306 361
#     4  10  22  40  60  83 113 156 202 242 290 351
#     4   9  17  36  63  86 108 142 191 242 294 354
#
# _framework density 20.019012
#
# number of rings (size 3 to 8) (size 9 to 14) (size 15 to 20)
#    0.000    1.750    1.250    4.125    0.000    5.500 
#    0.000    8.125    0.000    0.000    0.000    0.000 
#    0.000    0.000    0.000    0.000    0.000    0.000 
#
# Total GULP energy -396916.505964 kJ/mol
# GULP energy per Si atom -12403.640811 kJ/mol
# Density = 1.997345 g / cm^3
# Si number density = 20.019012 Si / 1000 Ang^3
#
#
#
# Elastic Constant Matrix: (Units=GPa)
#
#
# Indices 1 2 3 4 5 6 
#
# 1 96.8956 18.3799 57.8506 0.0002 -8.5609 0.0000
# 2 18.3799 49.1278 35.5135 0.0004 -0.6192 -0.0018
# 3 57.8506 35.5135 123.6658 0.0002 -1.0474 0.0003
# 4 0.0002 0.0004 0.0002 33.2067 0.0001 5.4592
# 5 -8.5609 -0.6192 -1.0474 0.0001 32.5821 0.0001
# 6 0.0000 -0.0018 0.0003 5.4592 0.0001 28.2392
#
#
#
# Elastic Compliance Matrix: (Units=1/GPa)
#
#
# Indices 1 2 3 4 5 6 
#
# 1 0.014758 -0.000640 -0.006689 0.000000 0.003650 0.000000
# 2 -0.000640 0.025717 -0.007085 -0.000001 0.000093 0.000002
# 3 -0.006689 -0.007085 0.013238 0.000000 -0.001467 -0.000001
# 4 0.000000 -0.000001 0.000000 0.031103 0.000000 -0.006013
# 5 0.003650 0.000093 -0.001467 0.000000 0.031605 0.000000
# 6 0.000000 0.000002 -0.000001 -0.006013 0.000000 0.036574
#
#
# Mechanical properties :
#
#
# Convention : Reuss Voigt Hill
#
# Bulk Modulus (GPa) = 40.18533 54.79746 47.49140
# Shear Modulus (GPa) = 26.29934 29.33528 27.81731
#
# Velocity S-wave (km/s) = 3.62846 3.83217 3.73170
# Velocity P-wave (km/s) = 6.13771 6.85659 6.50708
#
# Compressibility (1/GPa) = 0.02488470
#
# Stress axis : x y z
#
# Youngs Moduli (GPa) = 67.76019 38.88415 75.54181
#
# Poissons Ratio (x) = 0.02488 0.50530
# Poissons Ratio (y) = 0.04336 0.53523
# Poissons Ratio (z) = 0.45325 0.27550
#
# Static dielectric constant tensor:
#      x y z
#    x 3.752410 0.000000 -0.182550 
#    y 0.000000 3.423090 0.000000 
#    z -0.182550 0.000000 3.764290 
# 
# 
# High freq. dielectric constant tensor:
#      x y z
#    x 1.786610 0.000000 -0.008390 
#    y 0.000000 1.763540 0.000000 
#    z -0.008390 0.000000 1.790620 
# 
# From -- ./inp_files/382521.got.cif
#   From: 2010.06.25/outbox.cif.g09.slc.cpg/sg12_192_cif.got.tgz:382521.got - 2010.06.28 00:19:55.
