data_PCOD8109552
_publ_section_title
;
Structure prediction by ZEFSAII (Michael W. Deem and Ramdas Pophale) SiO2 
 PCOD8109552
Probable space group: C 2/M
;
_chemical_formula_sum "Si O2"
_cell_formula_units_Z 48
_cell_length_a 19.268451
_cell_length_b 13.975504
_cell_length_c 11.785309
_cell_angle_alpha 90.000000
_cell_angle_beta 132.148584
_cell_angle_gamma 90.000000
_cell_volume 2352.946149
_symmetry_space_group_name_H-M "C 2/M"
_symmetry_group_IT_number 12
_symmetry_cell_setting 'monoclinic'
loop_
_space_group_symop_operation_xyz
x,y,z
-x,y,-z
-x,-y,-z
x,-y,z
1/2+x,1/2+y,z
1/2-x,1/2+y,-z
1/2-x,1/2-y,-z
1/2+x,1/2-y,z
loop_
_atom_site_type_symbol
_atom_site_label
_atom_site_fract_x
_atom_site_fract_y
_atom_site_fract_z
Si Si1 0.606306 0.609500 0.583214
Si Si2 0.385635 0.737714 0.623794
Si Si3 0.441317 0.234888 0.046571
Si Si4 0.769661 0.611468 0.935699
Si Si5 0.799795 0.107901 0.902525
Si Si6 0.749250 0.389942 0.397681
O O1 0.500000 0.628527 0.500000
O O2 0.620351 0.500000 0.558701
O O3 0.631286 0.680261 0.509729
O O4 0.674972 0.633853 0.762558
O O5 0.492448 0.761983 0.770080
O O6 0.344057 0.671591 0.678594
O O7 0.334582 0.840335 0.557716
O O8 0.357882 0.160252 0.973379
O O9 0.500000 0.204669 0.000000
O O10 0.396983 0.339313 0.984069
O O11 0.792862 0.500000 0.963551
O O12 0.754666 0.651024 0.047955
O O13 0.733571 0.113591 0.719158
O O14 0.829457 0.000000 0.963594
O O15 0.739725 0.500000 0.428478
#
# Coordination Sequence:
#
# PCOD8109552 Si02
#       6
#     8   8   8   8   8   8
#     4  10  21  39  65  94 123 160 207 257 312 362
#     4  11  23  38  59  89 124 157 205 253 309 371
#     4  12  24  39  60  93 129 164 205 252 311 375
#     4  10  23  42  65  91 125 167 207 255 306 366
#     4  10  21  41  65  89 121 161 210 258 307 360
#     4  10  22  40  62  86 118 162 207 256 306 360
#
# _framework density 20.399957000000001
#
# number of rings (size 3 to 8) (size 9 to 14) (size 15 to 20)
#    0.000    1.500    1.667    3.000    2.333    5.333 
#    0.000    0.000    0.000    3.500    0.000    0.000 
#    0.000    0.000    0.000    0.000    0.000    0.000 
#
# Total GULP energy -297633.490032 kJ/mol
# GULP energy per Si atom -12401.395418 kJ/mol
# Density = 2.035353 g / cm^3
# Si number density = 20.399957 Si / 1000 Ang^3
#
#
#
# Elastic Constant Matrix: (Units=GPa)
#
#
# Indices 1 2 3 4 5 6 
#
# 1 123.6649 49.2988 46.6899 0.0000 -3.5630 0.0000
# 2 49.2988 93.4667 57.9545 0.0000 5.3471 0.0000
# 3 46.6899 57.9545 104.9994 0.0000 5.4407 0.0000
# 4 0.0000 0.0000 0.0000 18.4767 0.0000 -3.6912
# 5 -3.5630 5.3471 5.4407 0.0000 38.3227 0.0000
# 6 0.0000 0.0000 0.0000 -3.6912 0.0000 26.8265
#
#
#
# Elastic Compliance Matrix: (Units=1/GPa)
#
#
# Indices 1 2 3 4 5 6 
#
# 1 0.010793 -0.004205 -0.002580 0.000000 0.001956 0.000000
# 2 -0.004205 0.017943 -0.007942 0.000000 -0.001767 0.000000
# 3 -0.002580 -0.007942 0.015121 0.000000 -0.001278 0.000000
# 4 0.000000 0.000000 0.000000 0.055652 0.000000 0.007657
# 5 0.001956 -0.001767 -0.001278 0.000000 0.026704 0.000000
# 6 0.000000 0.000000 0.000000 0.007657 0.000000 0.038330
#
#
# Mechanical properties :
#
#
# Convention : Reuss Voigt Hill
#
# Bulk Modulus (GPa) = 69.43083 70.00193 69.71638
# Shear Modulus (GPa) = 25.15125 27.93770 26.54448
#
# Velocity S-wave (km/s) = 3.51509 3.70469 3.61113
# Velocity P-wave (km/s) = 7.11218 7.25871 7.18582
#
# Compressibility (1/GPa) = 0.01440282
#
# Stress axis : x y z
#
# Youngs Moduli (GPa) = 92.65204 55.73348 66.13422
#
# Poissons Ratio (x) = 0.23437 0.17060
# Poissons Ratio (y) = 0.38962 0.52523
# Poissons Ratio (z) = 0.23901 0.44263
#
# Static dielectric constant tensor:
#      x y z
#    x 3.729310 0.000000 -0.126830 
#    y 0.000000 3.747140 0.000000 
#    z -0.126830 0.000000 3.656480 
# 
# 
# High freq. dielectric constant tensor:
#      x y z
#    x 1.793600 0.000000 -0.012130 
#    y 0.000000 1.804040 0.000000 
#    z -0.012130 0.000000 1.800440 
# 
# From -- ./inp_files/167629.got.cif
#   From: 2010.06.25/outbox.cif.g09.slc.cpg/sg12_84_cif.got.tgz:167629.got - 2010.06.28 00:19:55.
