data_PCOD8109420
_publ_section_title
;
Structure prediction by ZEFSAII (Michael W. Deem and Ramdas Pophale) SiO2 
 PCOD8109420
Probable space group: C 2/M
;
_chemical_formula_sum "Si O2"
_cell_formula_units_Z 48
_cell_length_a 13.973945
_cell_length_b 17.445045
_cell_length_c 16.822488
_cell_angle_alpha 90.000000
_cell_angle_beta 30.571103
_cell_angle_gamma 90.000000
_cell_volume 2085.757851
_symmetry_space_group_name_H-M "C 2/M"
_symmetry_group_IT_number 12
_symmetry_cell_setting 'monoclinic'
loop_
_space_group_symop_operation_xyz
x,y,z
-x,y,-z
-x,-y,-z
x,-y,z
1/2+x,1/2+y,z
1/2-x,1/2+y,-z
1/2-x,1/2-y,-z
1/2+x,1/2-y,z
loop_
_atom_site_type_symbol
_atom_site_label
_atom_site_fract_x
_atom_site_fract_y
_atom_site_fract_z
Si Si1 0.713258 0.623404 0.817541
Si Si2 0.182983 0.086039 0.669741
Si Si3 0.070447 0.364251 0.649192
Si Si4 0.783050 0.914395 0.646687
Si Si5 0.798863 0.292651 0.172848
Si Si6 0.091233 0.786598 0.169829
O O1 0.757763 0.574880 0.706398
O O2 0.776554 0.709786 0.746061
O O3 0.860018 0.600830 0.783865
O O4 0.500000 0.609677 0.000000
O O5 0.323960 0.131003 0.510725
O O6 0.003078 0.142375 0.808235
O O7 0.136597 0.000000 0.670563
O O8 0.197027 0.413109 0.619938
O O9 0.055929 0.278557 0.696028
O O10 0.670725 0.854444 0.780346
O O11 0.000000 0.888910 0.500000
O O12 0.759744 0.000000 0.697530
O O13 0.677014 0.325810 0.187471
O O14 0.000000 0.268271 0.000000
O O15 0.250000 0.750000 0.000000
#
# Coordination Sequence:
#
# PCOD8109420 Si02
#       6
#     8   8   8   8   8   8
#     4  10  23  44  68  95 129 174 225 279 341 411
#     4  12  25  41  65  99 137 173 220 287 353 409
#     4  11  23  42  69  95 129 179 230 277 336 412
#     4  11  24  41  61  89 129 171 212 268 334 396
#     4  10  21  39  64  91 121 161 217 272 319 391
#     4  11  23  44  71  97 130 179 231 277 335 411
#
# _framework density 23.013217999999998
#
# number of rings (size 3 to 8) (size 9 to 14) (size 15 to 20)
#    0.000    1.167    0.000    7.500    0.000    8.667 
#    0.000    8.333    0.000    0.000    0.000    0.000 
#    0.000    0.000    0.000    0.000    0.000    0.000 
#
# Total GULP energy -297399.906143 kJ/mol
# GULP energy per Si atom -12391.662756 kJ/mol
# Density = 2.296084 g / cm^3
# Si number density = 23.013218 Si / 1000 Ang^3
#
#
#
# Elastic Constant Matrix: (Units=GPa)
#
#
# Indices 1 2 3 4 5 6 
#
# 1 148.2265 28.8206 41.5441 0.0929 -8.0777 -0.0771
# 2 28.8206 115.3588 46.9042 0.1925 1.8918 -0.1620
# 3 41.5441 46.9042 107.2560 1.4474 4.2928 -1.1700
# 4 0.0929 0.1925 1.4474 953.3873 -0.3420 -734.1952
# 5 -8.0777 1.8918 4.2928 -0.3420 43.5205 0.2757
# 6 -0.0771 -0.1620 -1.1700 -734.1952 0.2757 610.1007
#
#
#
# Elastic Compliance Matrix: (Units=1/GPa)
#
#
# Indices 1 2 3 4 5 6 
#
# 1 0.007767 -0.000873 -0.002697 0.000002 0.001746 -0.000003
# 2 -0.000873 0.010641 -0.004308 0.000003 -0.000200 -0.000002
# 3 -0.002697 -0.004308 0.012313 -0.000007 -0.001528 0.000014
# 4 0.000002 0.000003 -0.000007 0.014315 0.000004 0.017227
# 5 0.001746 -0.000200 -0.001528 0.000004 0.023461 -0.000008
# 6 -0.000003 -0.000002 0.000014 0.017227 -0.000008 0.022370
#
#
# Mechanical properties :
#
#
# Convention : Reuss Voigt Hill
#
# Bulk Modulus (GPa) = 66.81120 67.26434 67.03777
# Shear Modulus (GPa) = 44.79854 338.30652 191.55253
#
# Velocity S-wave (km/s) = 4.41687 12.13773 9.13327
# Velocity P-wave (km/s) = 7.42336 15.02413 11.84970
#
# Compressibility (1/GPa) = 0.01496755
#
# Stress axis : x y z
#
# Youngs Moduli (GPa) = 128.74874 93.97310 81.21338
#
# Poissons Ratio (x) = 0.08200 0.21902
# Poissons Ratio (y) = 0.11235 0.34984
# Poissons Ratio (z) = 0.34721 0.40480
#
# Static dielectric constant tensor:
#      x y z
#    x 4.397520 -0.000030 -0.176280 
#    y -0.000030 3.871170 0.000140 
#    z -0.176280 0.000140 3.896380 
# 
# 
# High freq. dielectric constant tensor:
#      x y z
#    x 1.926440 0.000000 -0.003010 
#    y 0.000000 1.899350 0.000010 
#    z -0.003010 0.000010 1.896770 
# 
# From -- ./inp_files/271612.got.cif
#   From: 2010.06.25/outbox.cif.g09.slc.cpg/sg12_136_cif.got.tgz:271612.got - 2010.06.28 00:19:55.
