data_PCOD8109644
_publ_section_title
;
Structure prediction by ZEFSAII (Michael W. Deem and Ramdas Pophale) SiO2 
 PCOD8109644
Probable space group: C 2/M
;
_chemical_formula_sum "Si O2"
_cell_formula_units_Z 64
_cell_length_a 23.786023
_cell_length_b 17.795738
_cell_length_c 9.032326
_cell_angle_alpha 90.000000
_cell_angle_beta 124.553385
_cell_angle_gamma 90.000000
_cell_volume 3148.855779
_symmetry_space_group_name_H-M "C 2/M"
_symmetry_group_IT_number 12
_symmetry_cell_setting 'monoclinic'
loop_
_space_group_symop_operation_xyz
x,y,z
-x,y,-z
-x,-y,-z
x,-y,z
1/2+x,1/2+y,z
1/2-x,1/2+y,-z
1/2-x,1/2-y,-z
1/2+x,1/2-y,z
loop_
_atom_site_type_symbol
_atom_site_label
_atom_site_fract_x
_atom_site_fract_y
_atom_site_fract_z
Si Si1 0.299588 0.584435 0.100603
Si Si2 0.921719 0.333799 0.216884
Si Si3 0.325979 0.085899 0.880974
Si Si4 0.431511 0.375990 0.474382
Si Si5 0.365333 0.308814 0.994150
Si Si6 0.323916 0.779319 0.656086
Si Si7 0.427001 0.793309 0.539841
Si Si8 0.511504 0.414588 0.851795
O O1 0.291628 0.500000 0.026726
O O2 0.235474 0.607698 0.102682
O O3 0.365359 0.587415 0.305101
O O4 0.302662 0.641892 0.965992
O O5 0.913083 0.350088 0.380502
O O6 0.999281 0.314776 0.282698
O O7 0.896129 0.404105 0.080023
O O8 0.871263 0.266140 0.098072
O O9 0.320869 0.140442 0.732242
O O10 0.321831 0.000000 0.818344
O O11 0.500000 0.407667 0.500000
O O12 0.428428 0.286478 0.460154
O O13 0.440046 0.402631 0.658097
O O14 0.355398 0.286286 0.807577
O O15 0.431264 0.359733 0.128287
O O16 0.250000 0.750000 0.500000
O O17 0.370108 0.793600 0.581013
O O18 0.537966 0.500000 0.884254
O O19 0.500000 0.388044 0.000000
#
# Coordination Sequence:
#
# PCOD8109644 Si02
#       8
#     8   8   8   8   8   8   8   8
#     4  11  22  37  61  89 122 170 215 254 304 371
#     4  10  21  39  68  91 118 157 208 260 303 363
#     4  10  25  46  64  88 123 164 208 257 319 377
#     4  12  19  35  59  89 128 160 206 258 295 362
#     4  11  21  36  58  87 121 162 207 255 293 371
#     4  11  26  40  65  95 127 161 202 257 320 379
#     4  11  19  39  63  99 121 153 206 259 316 361
#     4  11  22  33  49  83 128 167 201 244 301 365
#
# _framework density 20.324843999999999
#
# number of rings (size 3 to 8) (size 9 to 14) (size 15 to 20)
#    0.000    1.125    5.000    2.250    1.750    3.000 
#    0.000    5.625    0.000    0.000    0.000    0.000 
#    0.000    0.000    0.000    0.000    0.000    0.000 
#
# Total GULP energy -396722.756341 kJ/mol
# GULP energy per Si atom -12397.586136 kJ/mol
# Density = 2.027858 g / cm^3
# Si number density = 20.324844 Si / 1000 Ang^3
#
#
#
# Elastic Constant Matrix: (Units=GPa)
#
#
# Indices 1 2 3 4 5 6 
#
# 1 122.7733 29.6925 36.7062 0.0000 -3.9282 0.0000
# 2 29.6925 72.8868 21.1683 0.0000 -2.4875 0.0000
# 3 36.7062 21.1683 101.4274 0.0000 -4.4542 0.0000
# 4 0.0000 0.0000 0.0000 25.5548 0.0000 0.6733
# 5 -3.9282 -2.4875 -4.4542 0.0000 32.6885 0.0000
# 6 0.0000 0.0000 0.0000 0.6733 0.0000 17.1534
#
#
#
# Elastic Compliance Matrix: (Units=1/GPa)
#
#
# Indices 1 2 3 4 5 6 
#
# 1 0.009775 -0.003133 -0.002860 0.000000 0.000547 0.000000
# 2 -0.003133 0.015625 -0.002104 0.000000 0.000526 0.000000
# 3 -0.002860 -0.002104 0.011379 0.000000 0.001047 0.000000
# 4 0.000000 0.000000 0.000000 0.039172 0.000000 -0.001538
# 5 0.000547 0.000526 0.001047 0.000000 0.030840 0.000000
# 6 0.000000 0.000000 0.000000 -0.001538 0.000000 0.058358
#
#
# Mechanical properties :
#
#
# Convention : Reuss Voigt Hill
#
# Bulk Modulus (GPa) = 48.57665 52.46908 50.52287
# Shear Modulus (GPa) = 26.56666 29.04738 27.80702
#
# Velocity S-wave (km/s) = 3.61931 3.78452 3.70284
# Velocity P-wave (km/s) = 6.43567 6.70582 6.57214
#
# Compressibility (1/GPa) = 0.02058602
#
# Stress axis : x y z
#
# Youngs Moduli (GPa) = 102.29866 63.99885 87.87877
#
# Poissons Ratio (x) = 0.20051 0.25131
# Poissons Ratio (y) = 0.32051 0.18491
# Poissons Ratio (z) = 0.29255 0.13466
#
# Static dielectric constant tensor:
#      x y z
#    x 3.694610 0.000000 -0.020350 
#    y 0.000000 3.642180 0.000000 
#    z -0.020350 0.000000 3.918620 
# 
# 
# High freq. dielectric constant tensor:
#      x y z
#    x 1.786330 0.000000 -0.005710 
#    y 0.000000 1.781750 0.000000 
#    z -0.005710 0.000000 1.800440 
# 
# From -- ./inp_files/99112.got.cif
#   From: 2010.06.25/outbox.cif.g09.slc.cpg/sg12_50_cif.got.tgz:99112.got - 2010.06.28 00:19:55.
