data_PCOD8109788
_publ_section_title
;
Structure prediction by ZEFSAII (Michael W. Deem and Ramdas Pophale) SiO2 
 PCOD8109788
Probable space group: C 2/M
;
_chemical_formula_sum "Si O2"
_cell_formula_units_Z 48
_cell_length_a 19.512653
_cell_length_b 8.908364
_cell_length_c 22.058573
_cell_angle_alpha 90.000000
_cell_angle_beta 140.978386
_cell_angle_gamma 90.000000
_cell_volume 2414.158223
_symmetry_space_group_name_H-M "C 2/M"
_symmetry_group_IT_number 12
_symmetry_cell_setting 'monoclinic'
loop_
_space_group_symop_operation_xyz
x,y,z
-x,y,-z
-x,-y,-z
x,-y,z
1/2+x,1/2+y,z
1/2-x,1/2+y,-z
1/2-x,1/2-y,-z
1/2+x,1/2-y,z
loop_
_atom_site_type_symbol
_atom_site_label
_atom_site_fract_x
_atom_site_fract_y
_atom_site_fract_z
Si Si1 0.745589 0.325112 0.589222
Si Si2 0.973070 0.671594 0.913962
Si Si3 0.260812 0.325825 0.722963
Si Si4 0.849845 0.674927 0.228391
Si Si5 0.579853 0.325055 0.370370
Si Si6 0.709147 0.828191 0.032045
O O1 0.774768 0.500000 0.610137
O O2 0.715267 0.268409 0.635146
O O3 0.642460 0.291386 0.475898
O O4 0.850940 0.235783 0.638480
O O5 0.930298 0.500000 0.886763
O O6 0.882580 0.777274 0.823063
O O7 0.079022 0.685361 0.944732
O O8 0.000000 0.728111 0.000000
O O9 0.262397 0.500000 0.706783
O O10 0.178692 0.292740 0.721459
O O11 0.849807 0.500000 0.213272
O O12 0.758017 0.751788 0.124961
O O13 0.966755 0.740063 0.293496
O O14 0.558661 0.500000 0.346092
O O15 0.747038 0.000000 0.057194
O O16 0.750000 0.750000 0.000000
#
# Coordination Sequence:
#
# PCOD8109788 Si02
#       6
#     8   8   8   8   8   8
#     4  10  22  41  65  91 121 157 199 247 301 362
#     4  10  21  40  63  86 117 159 202 246 297 351
#     4  11  24  39  61  91 123 161 203 246 297 357
#     4  11  24  41  61  89 124 161 201 250 302 355
#     4  10  22  41  65  91 120 157 200 249 302 358
#     4  11  24  41  62  88 121 160 202 251 302 357
#
# _framework density 19.882707
#
# number of rings (size 3 to 8) (size 9 to 14) (size 15 to 20)
#    0.000    1.500    1.667    2.500    2.333    6.333 
#    0.000    3.333    0.000    0.000    0.000    0.000 
#    0.000    0.000    0.000    0.000    0.000    0.000 
#
# Total GULP energy -297763.301111 kJ/mol
# GULP energy per Si atom -12406.804213 kJ/mol
# Density = 1.983745 g / cm^3
# Si number density = 19.882707 Si / 1000 Ang^3
#
#
#
# Elastic Constant Matrix: (Units=GPa)
#
#
# Indices 1 2 3 4 5 6 
#
# 1 60.6914 27.2548 -0.6403 0.0000 -2.6445 0.0000
# 2 27.2548 92.4292 18.1190 0.0000 -3.2870 0.0000
# 3 -0.6403 18.1190 38.9492 0.0000 -3.5701 0.0000
# 4 0.0000 0.0000 0.0000 36.1445 0.0000 -2.7411
# 5 -2.6445 -3.2870 -3.5701 0.0000 36.9658 0.0000
# 6 0.0000 0.0000 0.0000 -2.7411 0.0000 36.5327
#
#
#
# Elastic Compliance Matrix: (Units=1/GPa)
#
#
# Indices 1 2 3 4 5 6 
#
# 1 0.019412 -0.006345 0.003376 0.000000 0.001151 0.000000
# 2 -0.006345 0.013989 -0.006598 0.000000 0.000153 0.000000
# 3 0.003376 -0.006598 0.029025 0.000000 0.002458 0.000000
# 4 0.000000 0.000000 0.000000 0.027825 0.000000 0.002088
# 5 0.001151 0.000153 0.002458 0.000000 0.027385 0.000000
# 6 0.000000 0.000000 0.000000 0.002088 0.000000 0.027529
#
#
# Mechanical properties :
#
#
# Convention : Reuss Voigt Hill
#
# Bulk Modulus (GPa) = 23.09889 31.28186 27.19037
# Shear Modulus (GPa) = 27.97535 31.75104 29.86319
#
# Velocity S-wave (km/s) = 3.75509 4.00048 3.87973
# Velocity P-wave (km/s) = 5.51759 6.09145 5.81161
#
# Compressibility (1/GPa) = 0.04329213
#
# Stress axis : x y z
#
# Youngs Moduli (GPa) = 51.51489 71.48558 34.45361
#
# Poissons Ratio (x) = 0.45357 -0.11632
# Poissons Ratio (y) = 0.32686 0.22732
# Poissons Ratio (z) = -0.17392 0.47165
#
# Static dielectric constant tensor:
#      x y z
#    x 3.642380 0.000000 -0.081700 
#    y 0.000000 3.754850 0.000000 
#    z -0.081700 0.000000 3.551050 
# 
# 
# High freq. dielectric constant tensor:
#      x y z
#    x 1.784240 0.000000 -0.004730 
#    y 0.000000 1.788660 0.000000 
#    z -0.004730 0.000000 1.775950 
# 
# From -- ./inp_files/314503.got.cif
#   From: 2010.06.25/outbox.cif.g09.slc.cpg/sg12_158_cif.got.tgz:314503.got - 2010.06.28 00:19:55.
