data_PCOD8109637
_publ_section_title
;
Structure prediction by ZEFSAII (Michael W. Deem and Ramdas Pophale) SiO2 
 PCOD8109637
Probable space group: C 2/M
;
_chemical_formula_sum "Si O2"
_cell_formula_units_Z 40
_cell_length_a 14.417312
_cell_length_b 14.334868
_cell_length_c 9.285955
_cell_angle_alpha 90.000000
_cell_angle_beta 97.292573
_cell_angle_gamma 90.000000
_cell_volume 1903.606744
_symmetry_space_group_name_H-M "C 2/M"
_symmetry_group_IT_number 12
_symmetry_cell_setting 'monoclinic'
loop_
_space_group_symop_operation_xyz
x,y,z
-x,y,-z
-x,-y,-z
x,-y,z
1/2+x,1/2+y,z
1/2-x,1/2+y,-z
1/2-x,1/2-y,-z
1/2+x,1/2-y,z
loop_
_atom_site_type_symbol
_atom_site_label
_atom_site_fract_x
_atom_site_fract_y
_atom_site_fract_z
Si Si1 0.565476 0.104719 0.388545
Si Si2 0.280176 0.762497 0.169506
Si Si3 0.634240 0.610589 0.297282
Si Si4 0.506502 0.754043 0.831780
Si Si5 0.271923 0.395747 0.396146
O O1 0.500000 0.148485 0.500000
O O2 0.559697 0.164748 0.241762
O O3 0.672805 0.106809 0.461010
O O4 0.531640 0.000000 0.346737
O O5 0.219322 0.847250 0.220475
O O6 0.390460 0.780474 0.200788
O O7 0.265453 0.668386 0.255953
O O8 0.250000 0.750000 0.000000
O O9 0.630485 0.500000 0.269047
O O10 0.534021 0.655215 0.234965
O O11 0.651678 0.634487 0.469520
O O12 0.500000 0.752665 0.000000
O O13 0.293395 0.500000 0.344196
#
# Coordination Sequence:
#
# PCOD8109637 Si02
#       5
#     8   8   8   8   8
#     4  10  21  39  67  99 129 166 214 272 333 394
#     4  12  24  43  67  95 133 174 219 272 333 391
#     4  11  25  45  68  98 136 177 221 272 333 399
#     4  12  25  42  66  97 134 175 222 272 334 394
#     4  10  22  42  67  96 130 169 219 272 327 391
#
# _framework density 21.012743
#
# number of rings (size 3 to 8) (size 9 to 14) (size 15 to 20)
#    0.000    1.000    4.000    1.800    2.800    4.800 
#    0.000    2.000    0.000    0.000    0.000    0.000 
#    0.000    0.000    0.000    0.000    0.000    0.000 
#
# Total GULP energy -247970.060204 kJ/mol
# GULP energy per Si atom -12398.503010 kJ/mol
# Density = 2.096492 g / cm^3
# Si number density = 21.012743 Si / 1000 Ang^3
#
#
#
# Elastic Constant Matrix: (Units=GPa)
#
#
# Indices 1 2 3 4 5 6 
#
# 1 72.7028 5.6882 5.7790 0.0000 12.1015 0.0000
# 2 5.6882 100.0567 55.6315 0.0000 11.3845 0.0000
# 3 5.7790 55.6315 133.7700 0.0000 18.7165 0.0000
# 4 0.0000 0.0000 0.0000 20.5331 0.0000 0.1856
# 5 12.1015 11.3845 18.7165 0.0000 28.0102 0.0000
# 6 0.0000 0.0000 0.0000 0.1856 0.0000 27.4254
#
#
#
# Elastic Compliance Matrix: (Units=1/GPa)
#
#
# Indices 1 2 3 4 5 6 
#
# 1 0.014838 -0.000327 0.000412 0.000000 -0.006553 0.000000
# 2 -0.000327 0.013094 -0.005192 0.000000 -0.001712 0.000000
# 3 0.000412 -0.005192 0.010311 0.000000 -0.004957 0.000000
# 4 0.000000 0.000000 0.000000 0.048705 0.000000 -0.000330
# 5 -0.006553 -0.001712 -0.004957 0.000000 0.042541 0.000000
# 6 0.000000 0.000000 0.000000 -0.000330 0.000000 0.036465
#
#
# Mechanical properties :
#
#
# Convention : Reuss Voigt Hill
#
# Bulk Modulus (GPa) = 35.67743 48.96964 42.32354
# Shear Modulus (GPa) = 26.95262 31.15579 29.05421
#
# Velocity S-wave (km/s) = 3.58534 3.85477 3.72249
# Velocity P-wave (km/s) = 5.84426 6.57021 6.21784
#
# Compressibility (1/GPa) = 0.02802893
#
# Stress axis : x y z
#
# Youngs Moduli (GPa) = 67.39350 76.36831 96.98795
#
# Poissons Ratio (x) = 0.02497 -0.03994
# Poissons Ratio (y) = 0.02203 0.50357
# Poissons Ratio (z) = -0.02775 0.39651
#
# Static dielectric constant tensor:
#      x y z
#    x 4.234390 0.000000 0.068840 
#    y 0.000000 3.815250 0.000000 
#    z 0.068840 0.000000 3.746250 
# 
# 
# High freq. dielectric constant tensor:
#      x y z
#    x 1.836030 0.000000 0.008240 
#    y 0.000000 1.823830 0.000000 
#    z 0.008240 0.000000 1.822020 
# 
# From -- ./inp_files/58936.got.cif
#   From: 2010.06.25/outbox.cif.g09.slc.cpg/sg12_30_cif.got.tgz:58936.got - 2010.06.28 00:19:55.
