data_PCOD8109875
_publ_section_title
;
Structure prediction by ZEFSAII (Michael W. Deem and Ramdas Pophale) SiO2 
 PCOD8109875
Probable space group: C 2/M
;
_chemical_formula_sum "Si O2"
_cell_formula_units_Z 56
_cell_length_a 9.703276
_cell_length_b 18.301316
_cell_length_c 26.336878
_cell_angle_alpha 90.000000
_cell_angle_beta 141.937372
_cell_angle_gamma 90.000000
_cell_volume 2883.459760
_symmetry_space_group_name_H-M "C 2/M"
_symmetry_group_IT_number 12
_symmetry_cell_setting 'monoclinic'
loop_
_space_group_symop_operation_xyz
x,y,z
-x,y,-z
-x,-y,-z
x,-y,z
1/2+x,1/2+y,z
1/2-x,1/2+y,-z
1/2-x,1/2-y,-z
1/2+x,1/2-y,z
loop_
_atom_site_type_symbol
_atom_site_label
_atom_site_fract_x
_atom_site_fract_y
_atom_site_fract_z
Si Si1 0.151375 0.343040 0.706866
Si Si2 0.031783 0.415910 0.771133
Si Si3 0.804425 0.182244 0.481478
Si Si4 0.238245 0.806329 0.094410
Si Si5 0.685162 0.214209 0.176783
Si Si6 0.996252 0.914664 0.729450
Si Si7 0.032842 0.917002 0.626867
O O1 0.146864 0.402351 0.750304
O O2 0.208519 0.263053 0.746589
O O3 0.325848 0.371280 0.715773
O O4 0.909864 0.341998 0.611828
O O5 0.017789 0.500000 0.780063
O O6 0.187724 0.382492 0.859704
O O7 0.781713 0.380557 0.700321
O O8 0.750000 0.250000 0.500000
O O9 0.000000 0.204337 0.500000
O O10 0.877339 0.117118 0.539173
O O11 0.417477 0.784013 0.103734
O O12 0.244740 0.744730 0.139181
O O13 0.000000 0.815775 0.000000
O O14 0.771379 0.130403 0.202671
O O15 0.911356 0.911391 0.646475
O O16 0.031994 0.000000 0.756222
O O17 0.065283 0.000000 0.619334
#
# Coordination Sequence:
#
# PCOD8109875 Si02
#       7
#     8   8   8   8   8   8   8
#     4  11  24  40  66  89 125 171 211 264 311 380
#     4  10  21  40  64  90 122 161 209 256 316 385
#     4  12  27  40  61  92 127 162 217 270 316 362
#     4  11  23  39  66  95 124 162 208 264 317 382
#     4  11  22  41  65  92 129 164 210 257 321 382
#     4  11  23  41  66  93 126 171 216 258 315 378
#     4  10  22  41  62  87 124 168 206 253 315 375
#
# _framework density 19.421112999999998
#
# number of rings (size 3 to 8) (size 9 to 14) (size 15 to 20)
#    0.000    1.143    4.286    1.714    4.000    1.714 
#    0.000    1.429    0.000    0.429    0.000    0.000 
#    0.000    0.000    0.000    0.000    0.000    0.000 
#
# Total GULP energy -347183.271957 kJ/mol
# GULP energy per Si atom -12399.402570 kJ/mol
# Density = 1.937691 g / cm^3
# Si number density = 19.421113 Si / 1000 Ang^3
#
#
#
# Elastic Constant Matrix: (Units=GPa)
#
#
# Indices 1 2 3 4 5 6 
#
# 1 124.9067 34.6373 26.1041 0.0001 12.3353 0.0001
# 2 34.6373 104.4589 46.2152 0.0001 2.9592 0.0001
# 3 26.1041 46.2152 124.3116 0.0027 13.3618 0.0004
# 4 0.0001 0.0001 0.0027 14.2605 0.0005 6.3688
# 5 12.3353 2.9592 13.3618 0.0005 29.3590 0.0001
# 6 0.0001 0.0001 0.0004 6.3688 0.0001 23.7419
#
#
#
# Elastic Compliance Matrix: (Units=1/GPa)
#
#
# Indices 1 2 3 4 5 6 
#
# 1 0.009205 -0.002706 -0.000568 0.000000 -0.003336 0.000000
# 2 -0.002706 0.012272 -0.004188 0.000001 0.001806 0.000000
# 3 -0.000568 -0.004188 0.010146 -0.000002 -0.003957 0.000000
# 4 0.000000 0.000001 -0.000002 0.079668 0.000000 -0.021371
# 5 -0.003336 0.001806 -0.003957 0.000000 0.037081 0.000000
# 6 0.000000 0.000000 0.000000 -0.021371 0.000000 0.047853
#
#
# Mechanical properties :
#
#
# Convention : Reuss Voigt Hill
#
# Bulk Modulus (GPa) = 59.88959 63.06561 61.47760
# Shear Modulus (GPa) = 23.07161 29.92031 26.49596
#
# Velocity S-wave (km/s) = 3.45043 3.92932 3.69763
# Velocity P-wave (km/s) = 6.83946 7.28898 7.06780
#
# Compressibility (1/GPa) = 0.01669739
#
# Stress axis : x y z
#
# Youngs Moduli (GPa) = 108.64106 81.48390 98.56091
#
# Poissons Ratio (x) = 0.22052 0.05600
# Poissons Ratio (y) = 0.29401 0.41281
# Poissons Ratio (z) = 0.06173 0.34128
#
# Static dielectric constant tensor:
#      x y z
#    x 3.868130 0.000000 0.159030 
#    y 0.000000 3.598480 0.000000 
#    z 0.159030 0.000000 3.549800 
# 
# 
# High freq. dielectric constant tensor:
#      x y z
#    x 1.779860 0.000000 0.000090 
#    y 0.000000 1.757380 0.000000 
#    z 0.000090 0.000000 1.739480 
# 
# From -- ./inp_files/197527.got.cif
#   From: 2010.06.25/outbox.cif.g09.slc.cpg/sg12_99_cif.got.tgz:197527.got - 2010.06.28 00:19:55.
