data_PCOD8109339
_publ_section_title
;
Structure prediction by ZEFSAII (Michael W. Deem and Ramdas Pophale) SiO2 
 PCOD8109339
Probable space group: C 2/M
;
_chemical_formula_sum "Si O2"
_cell_formula_units_Z 40
_cell_length_a 17.282409
_cell_length_b 11.515214
_cell_length_c 17.966218
_cell_angle_alpha 90.000000
_cell_angle_beta 148.813514
_cell_angle_gamma 90.000000
_cell_volume 1851.467858
_symmetry_space_group_name_H-M "C 2/M"
_symmetry_group_IT_number 12
_symmetry_cell_setting 'monoclinic'
loop_
_space_group_symop_operation_xyz
x,y,z
-x,y,-z
-x,-y,-z
x,-y,z
1/2+x,1/2+y,z
1/2-x,1/2+y,-z
1/2-x,1/2-y,-z
1/2+x,1/2-y,z
loop_
_atom_site_type_symbol
_atom_site_label
_atom_site_fract_x
_atom_site_fract_y
_atom_site_fract_z
Si Si1 0.064253 0.209579 0.631471
Si Si2 0.653310 0.369902 0.428303
Si Si3 0.978132 0.771563 0.158162
Si Si4 0.688109 0.134449 0.857165
Si Si5 0.375019 0.130000 0.838759
O O1 0.108136 0.318857 0.717576
O O2 0.211408 0.132521 0.740108
O O3 0.000000 0.253887 0.500000
O O4 0.939838 0.133214 0.571676
O O5 0.733331 0.500000 0.492874
O O6 0.750000 0.250000 0.500000
O O7 0.542051 0.369705 0.265995
O O8 0.898469 0.671012 0.139861
O O9 0.114011 0.714192 0.223777
O O10 0.860266 0.826437 0.003852
O O11 0.680052 0.000000 0.842126
O O12 0.409346 0.000000 0.840098
O O13 0.500000 0.170324 0.000000
#
# Coordination Sequence:
#
# PCOD8109339 Si02
#       5
#     8   8   8   8   8
#     4  11  24  42  64  96 134 168 217 272 332 390
#     4  11  25  44  70  98 132 175 223 275 334 397
#     4  10  21  40  64  93 126 166 221 271 327 388
#     4  10  21  39  63  91 127 172 218 268 326 390
#     4  11  22  39  65  96 131 170 219 274 328 388
#
# _framework density 21.604481
#
# number of rings (size 3 to 8) (size 9 to 14) (size 15 to 20)
#    0.000    1.400    2.000    3.000    0.000    7.600 
#    0.000    5.000    0.000    0.000    0.000    0.000 
#    0.000    0.000    0.000    0.000    0.000    0.000 
#
# Total GULP energy -247910.313977 kJ/mol
# GULP energy per Si atom -12395.515699 kJ/mol
# Density = 2.155531 g / cm^3
# Si number density = 21.604481 Si / 1000 Ang^3
#
#
#
# Elastic Constant Matrix: (Units=GPa)
#
#
# Indices 1 2 3 4 5 6 
#
# 1 166.6291 47.8433 33.2425 0.0006 1.4906 0.0002
# 2 47.8433 156.6515 40.1123 0.0001 -7.7808 0.0000
# 3 33.2425 40.1123 105.3930 0.0004 -9.9921 0.0003
# 4 0.0006 0.0001 0.0004 16.5055 0.0001 4.5637
# 5 1.4906 -7.7808 -9.9921 0.0001 41.4962 0.0001
# 6 0.0002 0.0000 0.0003 4.5637 0.0001 17.4604
#
#
#
# Elastic Compliance Matrix: (Units=1/GPa)
#
#
# Indices 1 2 3 4 5 6 
#
# 1 0.006821 -0.001725 -0.001585 0.000000 -0.000950 0.000000
# 2 -0.001725 0.007528 -0.002233 0.000000 0.000936 0.000000
# 3 -0.001585 -0.002233 0.011056 0.000000 0.002301 0.000000
# 4 0.000000 0.000000 0.000000 0.065306 0.000000 -0.017069
# 5 -0.000950 0.000936 0.002301 0.000000 0.024862 0.000000
# 6 0.000000 0.000000 0.000000 -0.017069 0.000000 0.061734
#
#
# Mechanical properties :
#
#
# Convention : Reuss Voigt Hill
#
# Bulk Modulus (GPa) = 69.82741 74.56330 72.19536
# Shear Modulus (GPa) = 25.88444 35.59078 30.73761
#
# Velocity S-wave (km/s) = 3.46512 4.06320 3.77602
# Velocity P-wave (km/s) = 6.95704 7.52333 7.24572
#
# Compressibility (1/GPa) = 0.01432102
#
# Stress axis : x y z
#
# Youngs Moduli (GPa) = 146.60021 132.82888 90.44737
#
# Poissons Ratio (x) = 0.22907 0.14338
# Poissons Ratio (y) = 0.25282 0.20194
# Poissons Ratio (z) = 0.23240 0.29656
#
# Static dielectric constant tensor:
#      x y z
#    x 3.961510 0.000000 -0.069480 
#    y 0.000000 3.678450 0.000000 
#    z -0.069480 0.000000 4.206610 
# 
# 
# High freq. dielectric constant tensor:
#      x y z
#    x 1.848420 0.000000 -0.005950 
#    y 0.000000 1.834420 0.000000 
#    z -0.005950 0.000000 1.860220 
# 
# From -- ./inp_files/71205.got.cif
#   From: 2010.06.25/outbox.cif.g09.slc.cpg/sg12_36_cif.got.tgz:71205.got - 2010.06.28 00:19:55.
