data_PCOD8109903
_publ_section_title
;
Structure prediction by ZEFSAII (Michael W. Deem and Ramdas Pophale) SiO2 
 PCOD8109903
Probable space group: C 2/M
;
_chemical_formula_sum "Si O2"
_cell_formula_units_Z 44
_cell_length_a 11.981348
_cell_length_b 23.075696
_cell_length_c 8.562146
_cell_angle_alpha 90.000000
_cell_angle_beta 62.787346
_cell_angle_gamma 90.000000
_cell_volume 2105.227009
_symmetry_space_group_name_H-M "C 2/M"
_symmetry_group_IT_number 12
_symmetry_cell_setting 'monoclinic'
loop_
_space_group_symop_operation_xyz
x,y,z
-x,y,-z
-x,-y,-z
x,-y,z
1/2+x,1/2+y,z
1/2-x,1/2+y,-z
1/2-x,1/2-y,-z
1/2+x,1/2-y,z
loop_
_atom_site_type_symbol
_atom_site_label
_atom_site_fract_x
_atom_site_fract_y
_atom_site_fract_z
Si Si1 0.803460 0.163944 0.557991
Si Si2 0.500000 0.633767 0.000000
Si Si3 0.544993 0.703650 0.246404
Si Si4 0.680739 0.434179 0.677023
Si Si5 0.981627 0.677206 0.193968
Si Si6 0.925960 0.434937 0.704487
O O1 0.869919 0.170411 0.682823
O O2 0.788454 0.097732 0.506619
O O3 0.662420 0.187788 0.661237
O O4 0.894323 0.195556 0.374505
O O5 0.415596 0.676834 0.946965
O O6 0.559533 0.592292 0.833739
O O7 0.564052 0.773505 0.231112
O O8 0.658682 0.500000 0.641983
O O9 0.782239 0.427617 0.749397
O O10 0.033341 0.613132 0.196980
O O11 0.000000 0.687222 0.000000
O O12 0.952725 0.500000 0.753656
O O13 0.000000 0.423732 0.500000
#
# Coordination Sequence:
#
# PCOD8109903 Si02
#       6
#     8   4   8   8   8   8
#     4  10  23  40  63  87 125 163 202 254 301 361
#     4  10  21  40  64  92 125 158 202 260 302 360
#     4  10  23  42  60  92 124 162 204 253 303 362
#     4  10  21  41  66  91 120 162 207 253 305 361
#     4  12  25  39  62  94 124 165 202 248 310 364
#     4  10  22  41  64  89 121 161 208 251 297 362
#
# _framework density 20.900359000000002
#
# number of rings (size 3 to 8) (size 9 to 14) (size 15 to 20)
#    0.000    1.636    2.727    0.818    5.091    4.000 
#    0.000    8.182    0.000    0.000    0.000    0.000 
#    0.000    0.000    0.000    0.000    0.000    0.000 
#
# Total GULP energy -272560.340643 kJ/mol
# GULP energy per Si atom -12389.106393 kJ/mol
# Density = 2.085279 g / cm^3
# Si number density = 20.900359 Si / 1000 Ang^3
#
#
#
# Elastic Constant Matrix: (Units=GPa)
#
#
# Indices 1 2 3 4 5 6 
#
# 1 51.6184 43.4768 24.3016 0.0000 14.4127 0.0000
# 2 43.4768 147.8000 39.3401 0.0000 14.9143 0.0000
# 3 24.3016 39.3401 61.0394 0.0000 16.4450 0.0000
# 4 0.0000 0.0000 0.0000 18.0754 0.0000 6.8474
# 5 14.4127 14.9143 16.4450 0.0000 30.0297 0.0000
# 6 0.0000 0.0000 0.0000 6.8474 0.0000 34.2512
#
#
#
# Elastic Compliance Matrix: (Units=1/GPa)
#
#
# Indices 1 2 3 4 5 6 
#
# 1 0.029619 -0.006446 -0.005479 0.000000 -0.008014 0.000000
# 2 -0.006446 0.009618 -0.003730 0.000000 0.000359 0.000000
# 3 -0.005479 -0.003730 0.023180 0.000000 -0.008212 0.000000
# 4 0.000000 0.000000 0.000000 0.059857 0.000000 -0.011966
# 5 -0.008014 0.000359 -0.008212 0.000000 0.041466 0.000000
# 6 0.000000 0.000000 0.000000 -0.011966 0.000000 0.031588
#
#
# Mechanical properties :
#
#
# Convention : Reuss Voigt Hill
#
# Bulk Modulus (GPa) = 32.14447 52.74387 42.44417
# Shear Modulus (GPa) = 21.09643 26.69389 23.89516
#
# Velocity S-wave (km/s) = 3.18052 3.57767 3.38492
# Velocity P-wave (km/s) = 5.37595 6.50822 5.96900
#
# Compressibility (1/GPa) = 0.03110955
#
# Stress axis : x y z
#
# Youngs Moduli (GPa) = 33.76202 103.96657 43.13986
#
# Poissons Ratio (x) = 0.67014 0.23636
# Poissons Ratio (y) = 0.21762 0.16090
# Poissons Ratio (z) = 0.18498 0.38776
#
# Static dielectric constant tensor:
#      x y z
#    x 2.403440 0.000000 -0.362420 
#    y 0.000000 3.959690 0.000000 
#    z -0.362420 0.000000 3.734560 
# 
# 
# High freq. dielectric constant tensor:
#      x y z
#    x 1.801950 0.000000 -0.002130 
#    y 0.000000 1.831140 0.000000 
#    z -0.002130 0.000000 1.814910 
# 
# From -- ./inp_files/51222.got.cif
#   From: 2010.06.25/outbox.cif.g09.slc.cpg/sg12_26_cif.got.tgz:51222.got - 2010.06.28 00:19:55.
