data_PCOD8109813
_publ_section_title
;
Structure prediction by ZEFSAII (Michael W. Deem and Ramdas Pophale) SiO2 
 PCOD8109813
Probable space group: C 2/M
;
_chemical_formula_sum "Si O2"
_cell_formula_units_Z 48
_cell_length_a 14.767968
_cell_length_b 14.674800
_cell_length_c 11.433117
_cell_angle_alpha 90.000000
_cell_angle_beta 60.022215
_cell_angle_gamma 90.000000
_cell_volume 2146.275104
_symmetry_space_group_name_H-M "C 2/M"
_symmetry_group_IT_number 12
_symmetry_cell_setting 'monoclinic'
loop_
_space_group_symop_operation_xyz
x,y,z
-x,y,-z
-x,-y,-z
x,-y,z
1/2+x,1/2+y,z
1/2-x,1/2+y,-z
1/2-x,1/2-y,-z
1/2+x,1/2-y,z
loop_
_atom_site_type_symbol
_atom_site_label
_atom_site_fract_x
_atom_site_fract_y
_atom_site_fract_z
Si Si1 0.153591 0.602960 0.328606
Si Si2 0.986957 0.179045 0.814312
Si Si3 0.315487 0.102372 0.229665
Si Si4 0.439048 0.146325 0.370359
Si Si5 0.083615 0.101855 0.363714
Si Si6 0.653245 0.290639 0.887180
O O1 0.198631 0.500000 0.315406
O O2 0.132044 0.651726 0.466957
O O3 0.231378 0.668294 0.204803
O O4 0.045464 0.591985 0.327645
O O5 0.952705 0.099343 0.748264
O O6 0.026436 0.256556 0.700770
O O7 0.079644 0.152922 0.843847
O O8 0.881900 0.199063 0.956161
O O9 0.368779 0.093575 0.321402
O O10 0.198007 0.143118 0.311257
O O11 0.369187 0.182509 0.120114
O O12 0.320486 0.000000 0.168532
O O13 0.000000 0.155163 0.500000
O O14 0.092818 0.000000 0.405222
#
# Coordination Sequence:
#
# PCOD8109813 Si02
#       6
#     8   8   8   8   8   8
#     4  11  23  39  62  95 130 166 210 261 317 379
#     4  10  23  43  64  89 130 165 211 265 311 379
#     4  10  21  40  63  88 125 163 207 263 313 369
#     4  10  22  39  63  91 126 166 213 261 313 378
#     4  10  23  38  60  93 124 163 212 257 310 372
#     4  10  24  42  64  96 123 169 216 255 321 380
#
# _framework density 22.364328
#
# number of rings (size 3 to 8) (size 9 to 14) (size 15 to 20)
#    0.000    1.833    0.000    3.000    7.000    5.333 
#    0.000   11.667    0.000    0.000    0.000    0.000 
#    0.000    0.000    0.000    0.000    0.000    0.000 
#
# Total GULP energy -297350.091660 kJ/mol
# GULP energy per Si atom -12389.587153 kJ/mol
# Density = 2.231343 g / cm^3
# Si number density = 22.364328 Si / 1000 Ang^3
#
#
#
# Elastic Constant Matrix: (Units=GPa)
#
#
# Indices 1 2 3 4 5 6 
#
# 1 104.0950 10.8117 35.6843 0.0000 4.1617 0.0000
# 2 10.8117 70.4448 32.9388 0.0000 -2.1647 0.0000
# 3 35.6843 32.9388 133.7436 0.0000 0.6215 0.0000
# 4 0.0000 0.0000 0.0000 8.1760 0.0000 8.4121
# 5 4.1617 -2.1647 0.6215 0.0000 31.1891 0.0000
# 6 0.0000 0.0000 0.0000 8.4121 0.0000 14.6589
#
#
#
# Elastic Compliance Matrix: (Units=1/GPa)
#
#
# Indices 1 2 3 4 5 6 
#
# 1 0.010641 -0.000397 -0.002735 0.000000 -0.001393 0.000000
# 2 -0.000397 0.016102 -0.003866 0.000000 0.001248 0.000000
# 3 -0.002735 -0.003866 0.009159 0.000000 -0.000086 0.000000
# 4 0.000000 0.000000 0.000000 0.298634 0.000000 -0.171374
# 5 -0.001393 0.001248 -0.000086 0.000000 0.032337 0.000000
# 6 0.000000 0.000000 0.000000 -0.171374 0.000000 0.166563
#
#
# Mechanical properties :
#
#
# Convention : Reuss Voigt Hill
#
# Bulk Modulus (GPa) = 45.64699 51.90589 48.77644
# Shear Modulus (GPa) = 9.01334 26.06136 17.53735
#
# Velocity S-wave (km/s) = 2.00972 3.41737 2.80333
# Velocity P-wave (km/s) = 5.08333 6.23144 5.68643
#
# Compressibility (1/GPa) = 0.02190725
#
# Stress axis : x y z
#
# Youngs Moduli (GPa) = 93.97547 62.10303 109.18103
#
# Poissons Ratio (x) = 0.02467 0.29859
# Poissons Ratio (y) = 0.03733 0.42204
# Poissons Ratio (z) = 0.25701 0.24006
#
# Static dielectric constant tensor:
#      x y z
#    x 4.241240 0.000000 -0.091100 
#    y 0.000000 3.796890 0.000000 
#    z -0.091100 0.000000 4.118550 
# 
# 
# High freq. dielectric constant tensor:
#      x y z
#    x 1.890010 0.000000 -0.003270 
#    y 0.000000 1.870880 0.000000 
#    z -0.003270 0.000000 1.873360 
# 
# From -- ./inp_files/143553.got.cif
#   From: 2010.06.25/outbox.cif.g09.slc.cpg/sg12_72_cif.got.tgz:143553.got - 2010.06.28 00:19:55.
