data_PCOD8109247
_publ_section_title
;
Structure prediction by ZEFSAII (Michael W. Deem and Ramdas Pophale) SiO2 
 PCOD8109247
Probable space group: C 2/M
;
_chemical_formula_sum "Si O2"
_cell_formula_units_Z 56
_cell_length_a 12.303022
_cell_length_b 29.531278
_cell_length_c 14.827538
_cell_angle_alpha 90.000000
_cell_angle_beta 29.307496
_cell_angle_gamma 90.000000
_cell_volume 2637.015696
_symmetry_space_group_name_H-M "C 2/M"
_symmetry_group_IT_number 12
_symmetry_cell_setting 'monoclinic'
loop_
_space_group_symop_operation_xyz
x,y,z
-x,y,-z
-x,-y,-z
x,-y,z
1/2+x,1/2+y,z
1/2-x,1/2+y,-z
1/2-x,1/2-y,-z
1/2+x,1/2-y,z
loop_
_atom_site_type_symbol
_atom_site_label
_atom_site_fract_x
_atom_site_fract_y
_atom_site_fract_z
Si Si1 0.716232 0.903783 0.963669
Si Si2 0.201320 0.802666 0.799613
Si Si3 0.223237 0.891593 0.281351
Si Si4 0.879269 0.791232 0.677271
Si Si5 0.943594 0.168089 0.283047
Si Si6 0.476218 0.116826 0.417093
Si Si7 0.790412 0.947590 0.090074
O O1 0.786068 0.916426 0.809820
O O2 0.813175 0.853396 0.913640
O O3 0.448428 0.906181 0.169604
O O4 0.827206 0.937792 0.956776
O O5 0.227383 0.751128 0.815226
O O6 0.143470 0.802075 0.735993
O O7 0.413226 0.833438 0.666724
O O8 0.000000 0.825106 0.000000
O O9 0.253234 0.837680 0.245028
O O10 0.000000 0.903131 0.500000
O O11 0.000000 0.774734 0.500000
O O12 0.052734 0.799739 0.632533
O O13 0.781027 0.125281 0.421086
O O14 0.500000 0.095862 0.500000
O O15 0.578389 0.081688 0.273037
O O16 0.737232 0.000000 0.143520
O O17 0.000000 0.932868 0.000000
#
# Coordination Sequence:
#
# PCOD8109247 Si02
#       7
#     8   8   8   8   8   8   8
#     4  10  21  40  69  94 130 168 216 263 333 387
#     4  11  23  37  55  85 127 170 219 264 313 379
#     4   9  21  41  67  96 128 173 219 270 319 382
#     4  10  22  37  56  87 125 160 219 264 309 362
#     4  10  22  39  61  89 122 173 212 262 320 379
#     4  10  21  39  63  87 126 173 216 261 324 386
#     4  11  24  42  67 100 135 166 210 270 328 394
#
# _framework density 21.236127
#
# number of rings (size 3 to 8) (size 9 to 14) (size 15 to 20)
#    0.000    1.857    0.000    4.286   10.000    3.143 
#    0.000    2.143    0.000    0.857    0.000    0.000 
#    0.000    0.000    0.000    0.000    0.000    0.000 
#
# Total GULP energy -347085.017086 kJ/mol
# GULP energy per Si atom -12395.893467 kJ/mol
# Density = 2.118779 g / cm^3
# Si number density = 21.236127 Si / 1000 Ang^3
#
#
#
# Elastic Constant Matrix: (Units=GPa)
#
#
# Indices 1 2 3 4 5 6 
#
# 1 129.2572 54.6936 47.6084 0.0000 -5.0775 0.0000
# 2 54.6936 63.8975 27.7337 0.0000 7.6428 0.0000
# 3 47.6084 27.7337 116.9033 -0.0001 0.9600 0.0001
# 4 0.0000 0.0000 -0.0001 11.6135 0.0000 0.5078
# 5 -5.0775 7.6428 0.9600 0.0000 29.6006 0.0000
# 6 0.0000 0.0000 0.0001 0.5078 0.0000 19.0106
#
#
#
# Elastic Compliance Matrix: (Units=1/GPa)
#
#
# Indices 1 2 3 4 5 6 
#
# 1 0.013752 -0.011101 -0.003010 0.000000 0.005323 0.000000
# 2 -0.011101 0.026992 -0.001810 0.000000 -0.008815 0.000000
# 3 -0.003010 -0.001810 0.010213 0.000000 -0.000380 0.000000
# 4 0.000000 0.000000 0.000000 0.086207 0.000000 -0.002303
# 5 0.005323 -0.008815 -0.000380 0.000000 0.036984 0.000000
# 6 0.000000 0.000000 0.000000 -0.002303 0.000000 0.052664
#
#
# Mechanical properties :
#
#
# Convention : Reuss Voigt Hill
#
# Bulk Modulus (GPa) = 52.32035 63.34771 57.83403
# Shear Modulus (GPa) = 18.86609 24.04643 21.45626
#
# Velocity S-wave (km/s) = 2.98383 3.36867 3.18207
# Velocity P-wave (km/s) = 6.04664 6.71010 6.38700
#
# Compressibility (1/GPa) = 0.01911302
#
# Stress axis : x y z
#
# Youngs Moduli (GPa) = 72.71894 37.04813 97.91749
#
# Poissons Ratio (x) = 0.41126 0.29478
# Poissons Ratio (y) = 0.80724 0.17726
# Poissons Ratio (z) = 0.21892 0.06707
#
# Static dielectric constant tensor:
#      x y z
#    x 4.009870 0.000000 0.047990 
#    y 0.000000 3.376070 0.000000 
#    z 0.047990 0.000000 3.877770 
# 
# 
# High freq. dielectric constant tensor:
#      x y z
#    x 1.848240 0.000000 0.002730 
#    y 0.000000 1.792120 0.000000 
#    z 0.002730 0.000000 1.833210 
# 
# From -- ./inp_files/209993.got.cif
#   From: 2010.06.25/outbox.cif.g09.slc.cpg/sg12_105_cif.got.tgz:209993.got - 2010.06.28 00:19:55.
