data_PCOD8109296
_publ_section_title
;
Structure prediction by ZEFSAII (Michael W. Deem and Ramdas Pophale) SiO2 
 PCOD8109296
Probable space group: C 2/M
;
_chemical_formula_sum "Si O2"
_cell_formula_units_Z 48
_cell_length_a 14.917379
_cell_length_b 8.373604
_cell_length_c 28.515079
_cell_angle_alpha 90.000000
_cell_angle_beta 139.805529
_cell_angle_gamma 90.000000
_cell_volume 2298.781545
_symmetry_space_group_name_H-M "C 2/M"
_symmetry_group_IT_number 12
_symmetry_cell_setting 'monoclinic'
loop_
_space_group_symop_operation_xyz
x,y,z
-x,y,-z
-x,-y,-z
x,-y,z
1/2+x,1/2+y,z
1/2-x,1/2+y,-z
1/2-x,1/2-y,-z
1/2+x,1/2-y,z
loop_
_atom_site_type_symbol
_atom_site_label
_atom_site_fract_x
_atom_site_fract_y
_atom_site_fract_z
Si Si1 0.202795 0.184971 0.575066
Si Si2 0.255927 0.314920 0.826754
Si Si3 0.259985 0.815487 0.928836
Si Si4 0.497694 0.684235 0.672833
Si Si5 0.039268 0.687117 0.906947
Si Si6 0.519010 0.813328 0.580999
O O1 0.365412 0.210357 0.633623
O O2 0.123544 0.243107 0.496854
O O3 0.147801 0.282992 0.597795
O O4 0.170831 0.000000 0.570882
O O5 0.237419 0.500000 0.807524
O O6 0.283928 0.291554 0.892871
O O7 0.382052 0.245670 0.846697
O O8 0.117828 0.219811 0.758014
O O9 0.111400 0.778734 0.892763
O O10 0.267897 0.000000 0.917276
O O11 0.382597 0.769520 0.013606
O O12 0.455619 0.500000 0.658540
O O13 0.552360 0.728312 0.643191
O O14 0.046252 0.500000 0.899396
O O15 0.499531 0.000000 0.581717
#
# Coordination Sequence:
#
# PCOD8109296 Si02
#       6
#     8   8   8   8   8   8
#     4  11  22  40  64  92 121 155 198 244 293 347
#     4  12  25  40  59  87 121 158 198 242 295 354
#     4  10  21  39  63  90 119 154 197 244 293 347
#     4  12  25  42  61  86 120 159 199 244 297 352
#     4  10  21  39  63  90 119 154 197 244 293 347
#     4  11  22  40  64  92 121 155 198 244 293 347
#
# _framework density 20.880628000000002
#
# number of rings (size 3 to 8) (size 9 to 14) (size 15 to 20)
#    0.000    1.000    0.000    9.000    0.000    5.333 
#    0.000    6.667    0.000    0.000    0.000    0.000 
#    0.000    0.000    0.000    0.000    0.000    0.000 
#
# Total GULP energy -297816.666493 kJ/mol
# GULP energy per Si atom -12409.027771 kJ/mol
# Density = 2.083310 g / cm^3
# Si number density = 20.880628 Si / 1000 Ang^3
#
#
#
# Elastic Constant Matrix: (Units=GPa)
#
#
# Indices 1 2 3 4 5 6 
#
# 1 70.0709 3.2541 28.2683 0.0000 12.3607 0.0000
# 2 3.2541 88.7858 21.6629 0.0000 4.2512 0.0000
# 3 28.2683 21.6629 54.0168 0.0000 11.5112 0.0000
# 4 0.0000 0.0000 0.0000 32.3971 0.0000 -0.2643
# 5 12.3607 4.2512 11.5112 0.0000 17.5520 0.0000
# 6 0.0000 0.0000 0.0000 -0.2643 0.0000 39.0854
#
#
#
# Elastic Compliance Matrix: (Units=1/GPa)
#
#
# Indices 1 2 3 4 5 6 
#
# 1 0.019293 0.001910 -0.009147 0.000000 -0.008050 0.000000
# 2 0.001910 0.012675 -0.005977 0.000000 -0.000495 0.000000
# 3 -0.009147 -0.005977 0.027917 0.000000 -0.010420 0.000000
# 4 0.000000 0.000000 0.000000 0.030869 0.000000 0.000209
# 5 -0.008050 -0.000495 -0.010420 0.000000 0.069597 0.000000
# 6 0.000000 0.000000 0.000000 0.000209 0.000000 0.025586
#
#
# Mechanical properties :
#
#
# Convention : Reuss Voigt Hill
#
# Bulk Modulus (GPa) = 29.88914 35.47155 32.68035
# Shear Modulus (GPa) = 22.36962 28.45278 25.41120
#
# Velocity S-wave (km/s) = 3.27664 3.69540 3.49230
# Velocity P-wave (km/s) = 5.35355 5.93571 5.65213
#
# Compressibility (1/GPa) = 0.03345696
#
# Stress axis : x y z
#
# Youngs Moduli (GPa) = 51.83301 78.89434 35.82015
#
# Poissons Ratio (x) = -0.15070 0.32764
# Poissons Ratio (y) = -0.09901 0.21411
# Poissons Ratio (z) = 0.47411 0.47158
#
# Static dielectric constant tensor:
#      x y z
#    x 3.774770 0.000000 0.002700 
#    y 0.000000 3.837170 0.000000 
#    z 0.002700 0.000000 3.686800 
# 
# 
# High freq. dielectric constant tensor:
#      x y z
#    x 1.826380 0.000000 0.004110 
#    y 0.000000 1.833380 0.000000 
#    z 0.004110 0.000000 1.809470 
# 
# From -- ./inp_files/375158.got.cif
#   From: 2010.06.25/outbox.cif.g09.slc.cpg/sg12_188_cif.got.tgz:375158.got - 2010.06.28 00:19:55.
