data_PCOD8109870
_publ_section_title
;
Structure prediction by ZEFSAII (Michael W. Deem and Ramdas Pophale) SiO2 
 PCOD8109870
Probable space group: C 2/M
;
_chemical_formula_sum "Si O2"
_cell_formula_units_Z 48
_cell_length_a 14.949414
_cell_length_b 8.580252
_cell_length_c 18.665884
_cell_angle_alpha 90.000000
_cell_angle_beta 87.978994
_cell_angle_gamma 90.000000
_cell_volume 2392.778757
_symmetry_space_group_name_H-M "C 2/M"
_symmetry_group_IT_number 12
_symmetry_cell_setting 'monoclinic'
loop_
_space_group_symop_operation_xyz
x,y,z
-x,y,-z
-x,-y,-z
x,-y,z
1/2+x,1/2+y,z
1/2-x,1/2+y,-z
1/2-x,1/2-y,-z
1/2+x,1/2-y,z
loop_
_atom_site_type_symbol
_atom_site_label
_atom_site_fract_x
_atom_site_fract_y
_atom_site_fract_z
Si Si1 0.927627 0.682422 0.161397
Si Si2 0.772525 0.182811 0.076236
Si Si3 0.109258 0.816819 0.688157
Si Si4 0.760750 0.318980 0.577496
Si Si5 0.590700 0.321308 0.337046
Si Si6 0.882058 0.818828 0.827290
O O1 0.948067 0.500000 0.157519
O O2 0.861512 0.730151 0.099800
O O3 0.881038 0.724531 0.237999
O O4 0.019365 0.776282 0.147671
O O5 0.690560 0.213174 0.131891
O O6 0.791343 0.000000 0.071297
O O7 0.750000 0.250000 0.000000
O O8 0.185112 0.751269 0.632961
O O9 0.014091 0.782187 0.653823
O O10 0.119166 0.000000 0.705121
O O11 0.745803 0.500000 0.570706
O O12 0.750000 0.250000 0.500000
O O13 0.858323 0.283239 0.606515
O O14 0.609418 0.500000 0.355707
O O15 0.625371 0.281977 0.256659
O O16 0.863817 0.000000 0.844102
#
# Coordination Sequence:
#
# PCOD8109870 Si02
#       6
#     8   8   8   8   8   8
#     4  11  22  38  62  91 119 152 193 239 289 345
#     4  12  25  41  60  86 120 157 196 240 290 346
#     4   9  20  39  60  82 111 151 191 233 285 342
#     4  11  23  37  55  80 113 150 189 232 285 342
#     4   9  19  37  60  83 110 144 186 232 281 336
#     4  10  21  40  64  90 118 152 193 240 290 343
#
# _framework density 20.060358000000001
#
# number of rings (size 3 to 8) (size 9 to 14) (size 15 to 20)
#    0.000    1.667    0.000    6.000    0.000    8.667 
#    0.000    6.667    0.000    0.000    0.000    0.000 
#    0.000    0.000    0.000    0.000    0.000    0.000 
#
# Total GULP energy -297733.539869 kJ/mol
# GULP energy per Si atom -12405.564161 kJ/mol
# Density = 2.001470 g / cm^3
# Si number density = 20.060358 Si / 1000 Ang^3
#
#
#
# Elastic Constant Matrix: (Units=GPa)
#
#
# Indices 1 2 3 4 5 6 
#
# 1 70.8321 8.6473 32.2899 0.0000 21.1183 0.0000
# 2 8.6473 66.2215 26.4070 0.0000 5.2701 0.0000
# 3 32.2899 26.4070 72.6923 0.0000 29.0583 0.0000
# 4 0.0000 0.0000 0.0000 36.0035 0.0000 2.3035
# 5 21.1183 5.2701 29.0583 0.0000 29.4872 0.0000
# 6 0.0000 0.0000 0.0000 2.3035 0.0000 35.8712
#
#
#
# Elastic Compliance Matrix: (Units=1/GPa)
#
#
# Indices 1 2 3 4 5 6 
#
# 1 0.018972 0.000225 -0.005052 0.000000 -0.008650 0.000000
# 2 0.000225 0.018163 -0.008804 0.000000 0.005269 0.000000
# 3 -0.005052 -0.008804 0.028254 0.000000 -0.022651 0.000000
# 4 0.000000 0.000000 0.000000 0.027890 0.000000 -0.001791
# 5 -0.008650 0.005269 -0.022651 0.000000 0.061488 0.000000
# 6 0.000000 0.000000 0.000000 -0.001791 0.000000 0.027993
#
#
# Mechanical properties :
#
#
# Convention : Reuss Voigt Hill
#
# Bulk Modulus (GPa) = 26.22773 38.27048 32.24911
# Shear Modulus (GPa) = 22.44881 29.76582 26.10732
#
# Velocity S-wave (km/s) = 3.34887 3.85621 3.61146
# Velocity P-wave (km/s) = 5.29679 6.24069 5.78801
#
# Compressibility (1/GPa) = 0.03812758
#
# Stress axis : x y z
#
# Youngs Moduli (GPa) = 52.70892 55.05705 35.39383
#
# Poissons Ratio (x) = -0.01241 0.17880
# Poissons Ratio (y) = -0.01188 0.31162
# Poissons Ratio (z) = 0.26626 0.48474
#
# Static dielectric constant tensor:
#      x y z
#    x 3.823160 0.000000 -0.110840 
#    y 0.000000 3.623710 0.000000 
#    z -0.110840 0.000000 3.679660 
# 
# 
# High freq. dielectric constant tensor:
#      x y z
#    x 1.794840 0.000000 0.005630 
#    y 0.000000 1.785690 0.000000 
#    z 0.005630 0.000000 1.778710 
# 
# From -- ./inp_files/267643.got.cif
#   From: 2010.06.25/outbox.cif.g09.slc.cpg/sg12_134_cif.got.tgz:267643.got - 2010.06.28 00:19:55.
