data_PCOD8109651
_publ_section_title
;
Structure prediction by ZEFSAII (Michael W. Deem and Ramdas Pophale) SiO2 
 PCOD8109651
Probable space group: C 2/M
;
_chemical_formula_sum "Si O2"
_cell_formula_units_Z 48
_cell_length_a 22.678980
_cell_length_b 13.854479
_cell_length_c 12.081291
_cell_angle_alpha 90.000000
_cell_angle_beta 36.419350
_cell_angle_gamma 90.000000
_cell_volume 2253.654284
_symmetry_space_group_name_H-M "C 2/M"
_symmetry_group_IT_number 12
_symmetry_cell_setting 'monoclinic'
loop_
_space_group_symop_operation_xyz
x,y,z
-x,y,-z
-x,-y,-z
x,-y,z
1/2+x,1/2+y,z
1/2-x,1/2+y,-z
1/2-x,1/2-y,-z
1/2+x,1/2-y,z
loop_
_atom_site_type_symbol
_atom_site_label
_atom_site_fract_x
_atom_site_fract_y
_atom_site_fract_z
Si Si1 0.525285 0.302813 0.344949
Si Si2 0.190553 0.110274 0.959719
Si Si3 0.407796 0.110015 0.992171
Si Si4 0.094350 0.254603 0.667134
Si Si5 0.189478 0.777862 0.741439
Si Si6 0.107409 0.394008 0.230151
O O1 0.500000 0.355335 0.500000
O O2 0.633398 0.336326 0.144718
O O3 0.448205 0.320712 0.360665
O O4 0.524170 0.187452 0.370715
O O5 0.157408 0.000000 0.009082
O O6 0.160586 0.154041 0.886921
O O7 0.305805 0.124098 0.812426
O O8 0.516029 0.160752 0.815217
O O9 0.352210 0.110848 0.957351
O O10 0.422832 0.000000 0.012160
O O11 0.336364 0.167129 0.185296
O O12 0.120688 0.196148 0.739501
O O13 0.196268 0.296889 0.462764
O O14 0.059362 0.500000 0.322559
#
# Coordination Sequence:
#
# PCOD8109651 Si02
#       6
#     8   8   8   8   8   8
#     4  11  22  37  61  88 124 159 206 258 318 372
#     4  11  23  39  61  88 123 169 211 255 314 379
#     4  10  21  39  68  97 127 164 210 265 322 379
#     4  10  23  39  62  95 126 164 207 259 314 382
#     4  11  22  41  64  88 132 165 210 258 320 378
#     4   9  19  36  60  91 119 153 203 255 314 377
#
# _framework density 21.298741
#
# number of rings (size 3 to 8) (size 9 to 14) (size 15 to 20)
#    0.000    1.667    3.333    2.000    2.333    2.667 
#    0.000    8.333    0.000    0.000    0.000    0.000 
#    0.000    0.000    0.000    0.000    0.000    0.000 
#
# Total GULP energy -297426.833375 kJ/mol
# GULP energy per Si atom -12392.784724 kJ/mol
# Density = 2.125026 g / cm^3
# Si number density = 21.298741 Si / 1000 Ang^3
#
#
#
# Elastic Constant Matrix: (Units=GPa)
#
#
# Indices 1 2 3 4 5 6 
#
# 1 133.8789 27.3140 30.8531 0.0000 14.2636 0.0000
# 2 27.3140 66.5736 26.8863 0.0000 -6.3876 0.0000
# 3 30.8531 26.8863 96.4679 0.0000 8.4766 0.0000
# 4 0.0000 0.0000 0.0000 4.2887 0.0000 -3.9297
# 5 14.2636 -6.3876 8.4766 0.0000 33.4513 0.0000
# 6 0.0000 0.0000 0.0000 -3.9297 0.0000 15.4787
#
#
#
# Elastic Compliance Matrix: (Units=1/GPa)
#
#
# Indices 1 2 3 4 5 6 
#
# 1 0.008965 -0.003445 -0.001548 0.000000 -0.004088 0.000000
# 2 -0.003445 0.018949 -0.004732 0.000000 0.006286 0.000000
# 3 -0.001548 -0.004732 0.012479 0.000000 -0.003406 0.000000
# 4 0.000000 0.000000 0.000000 0.303851 0.000000 0.077141
# 5 -0.004088 0.006286 -0.003406 0.000000 0.033701 0.000000
# 6 0.000000 0.000000 0.000000 0.077141 0.000000 0.084189
#
#
# Mechanical properties :
#
#
# Convention : Reuss Voigt Hill
#
# Bulk Modulus (GPa) = 47.74808 51.89190 49.81999
# Shear Modulus (GPa) = 10.23408 24.76823 17.50115
#
# Velocity S-wave (km/s) = 2.19441 3.41383 2.86964
# Velocity P-wave (km/s) = 5.37471 6.32105 5.86699
#
# Compressibility (1/GPa) = 0.02094325
#
# Stress axis : x y z
#
# Youngs Moduli (GPa) = 111.55038 52.77455 80.13381
#
# Poissons Ratio (x) = 0.18182 0.12402
# Poissons Ratio (y) = 0.38431 0.37916
# Poissons Ratio (z) = 0.17265 0.24971
#
# Static dielectric constant tensor:
#      x y z
#    x 4.209400 0.000000 0.227710 
#    y 0.000000 3.717720 0.000000 
#    z 0.227710 0.000000 3.736480 
# 
# 
# High freq. dielectric constant tensor:
#      x y z
#    x 1.854370 0.000000 0.016700 
#    y 0.000000 1.803210 0.000000 
#    z 0.016700 0.000000 1.831450 
# 
# From -- ./inp_files/142697.got.cif
#   From: 2010.06.25/outbox.cif.g09.slc.cpg/sg12_72_cif.got.tgz:142697.got - 2010.06.28 00:19:55.
