data_PCOD8109422
_publ_section_title
;
Structure prediction by ZEFSAII (Michael W. Deem and Ramdas Pophale) SiO2 
 PCOD8109422
Probable space group: C 2/M
;
_chemical_formula_sum "Si O2"
_cell_formula_units_Z 64
_cell_length_a 31.716595
_cell_length_b 8.855084
_cell_length_c 17.904984
_cell_angle_alpha 90.000000
_cell_angle_beta 139.942669
_cell_angle_gamma 90.000000
_cell_volume 3236.220020
_symmetry_space_group_name_H-M "C 2/M"
_symmetry_group_IT_number 12
_symmetry_cell_setting 'monoclinic'
loop_
_space_group_symop_operation_xyz
x,y,z
-x,y,-z
-x,-y,-z
x,-y,z
1/2+x,1/2+y,z
1/2-x,1/2+y,-z
1/2-x,1/2-y,-z
1/2+x,1/2-y,z
loop_
_atom_site_type_symbol
_atom_site_label
_atom_site_fract_x
_atom_site_fract_y
_atom_site_fract_z
Si Si1 0.035305 0.825861 0.321585
Si Si2 0.342985 0.175608 0.587331
Si Si3 0.818182 0.176063 0.112450
Si Si4 0.296286 0.324178 0.668378
Si Si5 0.536128 0.173228 0.474534
Si Si6 0.602946 0.327842 0.927029
Si Si7 0.196026 0.677340 0.165545
Si Si8 0.824869 0.326998 0.273363
O O1 0.094165 0.720803 0.374875
O O2 0.013497 0.775926 0.374878
O O3 0.975007 0.802966 0.182865
O O4 0.057429 0.000000 0.353551
O O5 0.341663 0.271393 0.661530
O O6 0.279400 0.212380 0.451437
O O7 0.345650 0.000000 0.611719
O O8 0.868774 0.211870 0.115662
O O9 0.846508 0.248716 0.225969
O O10 0.807520 0.000000 0.111256
O O11 0.750000 0.250000 0.000000
O O12 0.308023 0.500000 0.698702
O O13 0.318419 0.233200 0.770869
O O14 0.500000 0.232777 0.500000
O O15 0.614630 0.187211 0.588141
O O16 0.515513 0.000000 0.431564
O O17 0.620131 0.500000 0.971825
O O18 0.633430 0.219018 0.030384
O O19 0.205937 0.500000 0.178754
O O20 0.261460 0.751375 0.222636
O O21 0.806976 0.500000 0.232553
#
# Coordination Sequence:
#
# PCOD8109422 Si02
#       8
#     8   8   8   8   8   8   8   8
#     4  11  23  39  61  87 117 157 198 239 290 349
#     4  10  21  39  64  93 121 153 191 233 285 347
#     4  11  21  35  56  81 111 151 198 245 294 345
#     4  10  21  39  64  91 122 153 185 235 293 345
#     4  10  22  39  58  83 116 156 197 242 293 343
#     4  10  23  41  58  80 116 157 197 242 294 349
#     4  12  24  37  58  87 116 150 194 242 292 346
#     4  11  22  36  56  82 116 153 193 243 296 349
#
# _framework density 19.776159
#
# number of rings (size 3 to 8) (size 9 to 14) (size 15 to 20)
#    0.000    1.375    1.250    4.500    0.000    7.250 
#    0.000    0.625    0.000    3.750    0.000    0.000 
#    0.000    0.000    0.000    0.000    0.000    0.000 
#
# Total GULP energy -397000.476078 kJ/mol
# GULP energy per Si atom -12406.264877 kJ/mol
# Density = 1.973115 g / cm^3
# Si number density = 19.776159 Si / 1000 Ang^3
#
#
#
# Elastic Constant Matrix: (Units=GPa)
#
#
# Indices 1 2 3 4 5 6 
#
# 1 85.7290 30.4998 31.0257 0.0000 -5.4700 0.0000
# 2 30.4998 99.2512 41.9106 0.0000 -9.9016 0.0000
# 3 31.0257 41.9106 79.2783 0.0000 -9.7522 0.0000
# 4 0.0000 0.0000 0.0000 28.7675 0.0000 -6.6468
# 5 -5.4700 -9.9016 -9.7522 0.0000 31.1367 0.0000
# 6 0.0000 0.0000 0.0000 -6.6468 0.0000 34.6093
#
#
#
# Elastic Compliance Matrix: (Units=1/GPa)
#
#
# Indices 1 2 3 4 5 6 
#
# 1 0.014087 -0.002553 -0.004117 0.000000 0.000373 0.000000
# 2 -0.002553 0.013562 -0.005923 0.000000 0.002009 0.000000
# 3 -0.004117 -0.005923 0.017718 0.000000 0.002943 0.000000
# 4 0.000000 0.000000 0.000000 0.036376 0.000000 0.006986
# 5 0.000373 0.002009 0.002943 0.000000 0.033743 0.000000
# 6 0.000000 0.000000 0.000000 0.006986 0.000000 0.030236
#
#
# Mechanical properties :
#
#
# Convention : Reuss Voigt Hill
#
# Bulk Modulus (GPa) = 49.55431 52.34783 50.95107
# Shear Modulus (GPa) = 28.14777 29.62418 28.88597
#
# Velocity S-wave (km/s) = 3.77678 3.87457 3.82599
# Velocity P-wave (km/s) = 6.64310 6.82232 6.73330
#
# Compressibility (1/GPa) = 0.02017988
#
# Stress axis : x y z
#
# Youngs Moduli (GPa) = 70.98818 73.73804 56.43866
#
# Poissons Ratio (x) = 0.18825 0.23238
# Poissons Ratio (y) = 0.18123 0.33429
# Poissons Ratio (z) = 0.29228 0.43676
#
# Static dielectric constant tensor:
#      x y z
#    x 3.438730 0.000000 -0.105860 
#    y 0.000000 3.866260 0.000000 
#    z -0.105860 0.000000 3.578700 
# 
# 
# High freq. dielectric constant tensor:
#      x y z
#    x 1.768290 0.000000 -0.003730 
#    y 0.000000 1.779990 0.000000 
#    z -0.003730 0.000000 1.771280 
# 
# From -- ./inp_files/295682.got.cif
#   From: 2010.06.25/outbox.cif.g09.slc.cpg/sg12_148_cif.got.tgz:295682.got - 2010.06.28 00:19:55.
