data_PCOD8109303
_publ_section_title
;
Structure prediction by ZEFSAII (Michael W. Deem and Ramdas Pophale) SiO2 
 PCOD8109303
Probable space group: C 2/M
;
_chemical_formula_sum "Si O2"
_cell_formula_units_Z 48
_cell_length_a 20.509283
_cell_length_b 8.718267
_cell_length_c 26.666218
_cell_angle_alpha 90.000000
_cell_angle_beta 149.919339
_cell_angle_gamma 90.000000
_cell_volume 2389.842771
_symmetry_space_group_name_H-M "C 2/M"
_symmetry_group_IT_number 12
_symmetry_cell_setting 'monoclinic'
loop_
_space_group_symop_operation_xyz
x,y,z
-x,y,-z
-x,-y,-z
x,-y,z
1/2+x,1/2+y,z
1/2-x,1/2+y,-z
1/2-x,1/2-y,-z
1/2+x,1/2-y,z
loop_
_atom_site_type_symbol
_atom_site_label
_atom_site_fract_x
_atom_site_fract_y
_atom_site_fract_z
Si Si1 0.255062 0.320028 0.613384
Si Si2 0.490000 0.176752 0.050581
Si Si3 0.249464 0.823941 0.715658
Si Si4 0.508748 0.320004 0.395570
Si Si5 0.999248 0.318036 0.719452
Si Si6 0.248431 0.179602 0.053540
O O1 0.257623 0.500000 0.604945
O O2 0.259718 0.287833 0.675456
O O3 0.125015 0.249437 0.504639
O O4 0.377703 0.243637 0.669043
O O5 0.628356 0.205660 0.167671
O O6 0.446457 0.000000 0.025668
O O7 0.500000 0.229875 0.000000
O O8 0.384401 0.280516 0.007275
O O9 0.122918 0.780761 0.663027
O O10 0.244021 0.000000 0.693331
O O11 0.530249 0.500000 0.403396
O O12 0.503139 0.244223 0.337920
O O13 0.992567 0.500000 0.713575
O O14 0.129828 0.257790 0.833381
O O15 0.260408 0.000000 0.055032
O O16 0.250000 0.250000 0.000000
#
# Coordination Sequence:
#
# PCOD8109303 Si02
#       6
#     8   8   8   8   8   8
#     4  12  25  40  61  89 121 157 199 246 297 353
#     4  10  21  39  63  90 121 157 198 244 294 351
#     4  10  22  40  62  89 121 158 199 243 293 351
#     4  11  23  41  65  90 119 156 198 244 296 354
#     4  11  24  42  62  87 121 158 199 246 296 351
#     4  11  24  40  61  89 121 158 199 246 296 349
#
# _framework density 20.085003
#
# number of rings (size 3 to 8) (size 9 to 14) (size 15 to 20)
#    0.000    1.167    0.000    6.000    0.000   12.333 
#    0.000    0.000    0.000    0.000    0.000    0.000 
#    0.000    0.000    0.000    0.000    0.000    0.000 
#
# Total GULP energy -297764.012792 kJ/mol
# GULP energy per Si atom -12406.833866 kJ/mol
# Density = 2.003929 g / cm^3
# Si number density = 20.085003 Si / 1000 Ang^3
#
#
#
# Elastic Constant Matrix: (Units=GPa)
#
#
# Indices 1 2 3 4 5 6 
#
# 1 149.8507 44.7726 69.6271 0.0001 -1.6506 0.0000
# 2 44.7726 75.0379 35.5204 -0.0001 1.5957 -0.0004
# 3 69.6271 35.5204 142.6382 -0.0011 3.8182 -0.0002
# 4 0.0001 -0.0001 -0.0011 30.9871 -0.0001 -4.4006
# 5 -1.6506 1.5957 3.8182 -0.0001 48.5918 0.0000
# 6 0.0000 -0.0004 -0.0002 -4.4006 0.0000 39.6478
#
#
#
# Elastic Compliance Matrix: (Units=1/GPa)
#
#
# Indices 1 2 3 4 5 6 
#
# 1 0.009597 -0.003985 -0.003712 0.000000 0.000749 0.000000
# 2 -0.003985 0.016764 -0.002216 0.000000 -0.000512 0.000000
# 3 -0.003712 -0.002216 0.009396 0.000000 -0.000792 0.000000
# 4 0.000000 0.000000 0.000000 0.032788 0.000000 0.003639
# 5 0.000749 -0.000512 -0.000792 0.000000 0.020684 0.000000
# 6 0.000000 0.000000 0.000000 0.003639 0.000000 0.025626
#
#
# Mechanical properties :
#
#
# Convention : Reuss Voigt Hill
#
# Bulk Modulus (GPa) = 62.77122 74.15188 68.46155
# Shear Modulus (GPa) = 35.71639 38.35246 37.03443
#
# Velocity S-wave (km/s) = 4.22152 4.37453 4.29871
# Velocity P-wave (km/s) = 7.42174 7.90661 7.66801
#
# Compressibility (1/GPa) = 0.01593087
#
# Stress axis : x y z
#
# Youngs Moduli (GPa) = 104.19813 59.65165 106.42953
#
# Poissons Ratio (x) = 0.23770 0.39511
# Poissons Ratio (y) = 0.41521 0.23583
# Poissons Ratio (z) = 0.38683 0.13218
#
# Static dielectric constant tensor:
#      x y z
#    x 3.660890 0.000000 -0.099850 
#    y 0.000000 3.713550 0.000000 
#    z -0.099850 0.000000 3.814180 
# 
# 
# High freq. dielectric constant tensor:
#      x y z
#    x 1.803060 0.000000 -0.000240 
#    y 0.000000 1.787590 0.000000 
#    z -0.000240 0.000000 1.807800 
# 
# From -- ./inp_files/365561.got.cif
#   From: 2010.06.25/outbox.cif.g09.slc.cpg/sg12_183_cif.got.tgz:365561.got - 2010.06.28 00:19:55.
