data_PCOD8109331
_publ_section_title
;
Structure prediction by ZEFSAII (Michael W. Deem and Ramdas Pophale) SiO2 
 PCOD8109331
Probable space group: C 2/M
;
_chemical_formula_sum "Si O2"
_cell_formula_units_Z 64
_cell_length_a 9.122440
_cell_length_b 29.873146
_cell_length_c 19.488861
_cell_angle_alpha 90.000000
_cell_angle_beta 143.507884
_cell_angle_gamma 90.000000
_cell_volume 3158.531848
_symmetry_space_group_name_H-M "C 2/M"
_symmetry_group_IT_number 12
_symmetry_cell_setting 'monoclinic'
loop_
_space_group_symop_operation_xyz
x,y,z
-x,y,-z
-x,-y,-z
x,-y,z
1/2+x,1/2+y,z
1/2-x,1/2+y,-z
1/2-x,1/2-y,-z
1/2+x,1/2-y,z
loop_
_atom_site_type_symbol
_atom_site_label
_atom_site_fract_x
_atom_site_fract_y
_atom_site_fract_z
Si Si1 0.118987 0.384458 0.972346
Si Si2 0.303561 0.892523 0.481535
Si Si3 0.573309 0.050114 0.340580
Si Si4 0.251992 0.208225 0.051938
Si Si5 0.233514 0.801027 0.510618
Si Si6 0.253574 0.091459 0.723708
Si Si7 0.020854 0.948688 0.087010
Si Si8 0.841521 0.684041 0.696692
O O1 0.207914 0.337676 0.973898
O O2 0.923771 0.413799 0.854526
O O3 0.351360 0.416934 0.069744
O O4 0.000000 0.372434 0.000000
O O5 0.500000 0.911279 0.500000
O O6 0.342264 0.914330 0.570728
O O7 0.331162 0.838361 0.493918
O O8 0.025518 0.904133 0.354140
O O9 0.729120 0.052920 0.327819
O O10 0.292274 0.059251 0.216552
O O11 0.611402 0.000000 0.384067
O O12 0.482874 0.215378 0.190755
O O13 0.250000 0.250000 0.000000
O O14 0.000000 0.205790 0.000000
O O15 0.250000 0.750000 0.500000
O O16 0.406495 0.809023 0.641829
O O17 0.944457 0.806305 0.407132
O O18 0.376394 0.133068 0.730555
O O19 0.935843 0.000000 0.063098
O O20 0.000000 0.933509 0.000000
#
# Coordination Sequence:
#
# PCOD8109331 Si02
#       8
#     8   8   8   8   8   8   8   8
#     4  11  24  41  67  96 130 171 215 268 331 384
#     4  11  25  41  62  96 131 167 210 269 329 381
#     4  11  23  42  70  94 124 170 217 263 318 394
#     4  11  25  43  63  93 132 177 218 265 319 387
#     4  10  21  39  63  91 123 162 211 265 317 370
#     4  10  21  43  64  89 127 165 216 259 316 385
#     4  10  21  40  66  98 127 161 214 265 318 391
#     4   9  21  40  61  87 119 163 210 264 302 372
#
# _framework density 20.262578000000001
#
# number of rings (size 3 to 8) (size 9 to 14) (size 15 to 20)
#    0.000    1.625    2.500    1.125    7.000    1.500 
#    2.250    0.000    0.000    0.000    0.000    0.000 
#    0.000    0.000    0.000    0.000    0.000    0.000 
#
# Total GULP energy -396573.461668 kJ/mol
# GULP energy per Si atom -12392.920677 kJ/mol
# Density = 2.021646 g / cm^3
# Si number density = 20.262578 Si / 1000 Ang^3
#
#
#
# Elastic Constant Matrix: (Units=GPa)
#
#
# Indices 1 2 3 4 5 6 
#
# 1 122.3515 33.0432 30.5928 0.0001 1.7452 0.0000
# 2 33.0432 86.4484 25.8666 0.0000 12.9662 0.0000
# 3 30.5928 25.8666 97.8959 0.0004 2.4559 -0.0002
# 4 0.0001 0.0000 0.0004 24.9117 0.0001 -0.0578
# 5 1.7452 12.9662 2.4559 0.0001 17.8347 0.0000
# 6 0.0000 0.0000 -0.0002 -0.0578 0.0000 15.9241
#
#
#
# Elastic Compliance Matrix: (Units=1/GPa)
#
#
# Indices 1 2 3 4 5 6 
#
# 1 0.009575 -0.003271 -0.002171 0.000000 0.001740 0.000000
# 2 -0.003271 0.015187 -0.002731 0.000000 -0.010345 0.000000
# 3 -0.002171 -0.002731 0.011600 0.000000 0.000601 0.000000
# 4 0.000000 0.000000 0.000000 0.040142 0.000000 0.000146
# 5 0.001740 -0.010345 0.000601 0.000000 0.063338 0.000000
# 6 0.000000 0.000000 0.000000 0.000146 0.000000 0.062798
#
#
# Mechanical properties :
#
#
# Convention : Reuss Voigt Hill
#
# Bulk Modulus (GPa) = 49.96395 53.96678 51.96537
# Shear Modulus (GPa) = 22.15736 26.21366 24.18551
#
# Velocity S-wave (km/s) = 3.31042 3.60070 3.45861
# Velocity P-wave (km/s) = 6.27085 6.63161 6.45375
#
# Compressibility (1/GPa) = 0.02001443
#
# Stress axis : x y z
#
# Youngs Moduli (GPa) = 104.44185 65.84747 86.20652
#
# Poissons Ratio (x) = 0.21539 0.18720
# Poissons Ratio (y) = 0.34163 0.23543
# Poissons Ratio (z) = 0.22680 0.17983
#
# Static dielectric constant tensor:
#      x y z
#    x 3.511260 0.000000 -0.026100 
#    y 0.000000 3.603250 0.000000 
#    z -0.026100 0.000000 3.885370 
# 
# 
# High freq. dielectric constant tensor:
#      x y z
#    x 1.778650 0.000000 0.006980 
#    y 0.000000 1.791190 0.000000 
#    z 0.006980 0.000000 1.804730 
# 
# From -- ./inp_files/260356.got.cif
#   From: 2010.06.25/outbox.cif.g09.slc.cpg/sg12_131_cif.got.tgz:260356.got - 2010.06.28 00:19:55.
