data_PCOD8109976
_publ_section_title
;
Structure prediction by ZEFSAII (Michael W. Deem and Ramdas Pophale) SiO2 
 PCOD8109976
Probable space group: C 2/M
;
_chemical_formula_sum "Si O2"
_cell_formula_units_Z 64
_cell_length_a 18.478132
_cell_length_b 8.747928
_cell_length_c 31.797486
_cell_angle_alpha 90.000000
_cell_angle_beta 140.509035
_cell_angle_gamma 90.000000
_cell_volume 3268.763381
_symmetry_space_group_name_H-M "C 2/M"
_symmetry_group_IT_number 12
_symmetry_cell_setting 'monoclinic'
loop_
_space_group_symop_operation_xyz
x,y,z
-x,y,-z
-x,-y,-z
x,-y,z
1/2+x,1/2+y,z
1/2-x,1/2+y,-z
1/2-x,1/2-y,-z
1/2+x,1/2-y,z
loop_
_atom_site_type_symbol
_atom_site_label
_atom_site_fract_x
_atom_site_fract_y
_atom_site_fract_z
Si Si1 0.161968 0.820121 0.428426
Si Si2 0.001748 0.320042 0.128038
Si Si3 0.556702 0.319545 0.981320
Si Si4 0.421020 0.177019 0.317704
Si Si5 0.801903 0.180909 0.091620
Si Si6 0.598851 0.671739 0.776571
Si Si7 0.724908 0.176666 0.280081
Si Si8 0.333537 0.671954 0.663773
O O1 0.250000 0.750000 0.500000
O O2 0.198220 0.772334 0.397425
O O3 0.035016 0.765627 0.381410
O O4 0.162606 0.000000 0.433423
O O5 0.995080 0.500000 0.117042
O O6 0.106298 0.276561 0.205201
O O7 0.023178 0.234318 0.093135
O O8 0.884429 0.264660 0.096068
O O9 0.577302 0.500000 0.989360
O O10 0.500000 0.269609 0.000000
O O11 0.674064 0.231780 0.025933
O O12 0.375131 0.219169 0.250865
O O13 0.324407 0.218350 0.307277
O O14 0.449318 0.000000 0.332370
O O15 0.830726 0.231991 0.152063
O O16 0.816246 0.000000 0.092029
O O17 0.636001 0.500000 0.780578
O O18 0.467945 0.675143 0.730377
O O19 0.720708 0.210079 0.327889
O O20 0.753706 0.000000 0.285394
O O21 0.287989 0.500000 0.651460
#
# Coordination Sequence:
#
# PCOD8109976 Si02
#       8
#     8   8   8   8   8   8   8   8
#     4  10  21  40  65  93 126 162 202 243 288 346
#     4  11  24  41  62  87 116 155 200 246 300 362
#     4  11  26  44  60  83 116 153 198 251 304 362
#     4  11  23  37  59  88 123 162 199 243 295 347
#     4  11  22  39  64  87 115 153 195 245 301 361
#     4   9  19  36  58  86 117 152 193 241 296 352
#     4  11  23  38  59  89 123 156 197 249 299 351
#     4   9  18  36  60  88 121 155 193 237 288 347
#
# _framework density 19.579270000000001
#
# number of rings (size 3 to 8) (size 9 to 14) (size 15 to 20)
#    0.000    1.625    1.250    4.125    1.750    6.000 
#    0.000    0.625    0.000    3.750    0.000    0.000 
#    0.000    0.000    0.000    0.000    0.000    0.000 
#
# Total GULP energy -396922.470136 kJ/mol
# GULP energy per Si atom -12403.827192 kJ/mol
# Density = 1.953471 g / cm^3
# Si number density = 19.579270 Si / 1000 Ang^3
#
#
#
# Elastic Constant Matrix: (Units=GPa)
#
#
# Indices 1 2 3 4 5 6 
#
# 1 114.2653 38.6516 44.3222 -0.0001 -11.3642 0.0001
# 2 38.6516 69.8244 32.8589 -0.0001 -9.5571 0.0002
# 3 44.3222 32.8589 100.1805 0.0000 -18.7641 0.0000
# 4 -0.0001 -0.0001 0.0000 32.8366 0.0000 -4.7022
# 5 -11.3642 -9.5571 -18.7641 0.0000 22.0839 0.0000
# 6 0.0001 0.0002 0.0000 -4.7022 0.0000 32.1767
#
#
#
# Elastic Compliance Matrix: (Units=1/GPa)
#
#
# Indices 1 2 3 4 5 6 
#
# 1 0.011813 -0.004762 -0.003463 0.000000 0.001076 0.000000
# 2 -0.004762 0.019036 -0.003631 0.000000 0.002703 0.000000
# 3 -0.003463 -0.003631 0.014363 0.000000 0.008850 0.000000
# 4 0.000000 0.000000 0.000000 0.031105 0.000000 0.004546
# 5 0.001076 0.002703 0.008850 0.000000 0.054525 0.000000
# 6 0.000000 0.000000 0.000000 0.004546 0.000000 0.031743
#
#
# Mechanical properties :
#
#
# Convention : Reuss Voigt Hill
#
# Bulk Modulus (GPa) = 46.51128 57.32618 51.91873
# Shear Modulus (GPa) = 25.84496 28.64862 27.24679
#
# Velocity S-wave (km/s) = 3.63714 3.82935 3.73448
# Velocity P-wave (km/s) = 6.43781 6.99246 6.72086
#
# Compressibility (1/GPa) = 0.02150016
#
# Stress axis : x y z
#
# Youngs Moduli (GPa) = 84.65592 52.53136 69.62567
#
# Poissons Ratio (x) = 0.25016 0.24109
# Poissons Ratio (y) = 0.40314 0.25279
# Poissons Ratio (z) = 0.29314 0.19073
#
# Static dielectric constant tensor:
#      x y z
#    x 3.532520 0.000000 -0.183340 
#    y 0.000000 3.555920 0.000000 
#    z -0.183340 0.000000 3.608140 
# 
# 
# High freq. dielectric constant tensor:
#      x y z
#    x 1.763240 0.000000 -0.012590 
#    y 0.000000 1.768320 0.000000 
#    z -0.012590 0.000000 1.759230 
# 
# From -- ./inp_files/378389.got.cif
#   From: 2010.06.25/outbox.cif.g09.slc.cpg/sg12_190_cif.got.tgz:378389.got - 2010.06.28 00:19:55.
