data_PCOD8109052
_publ_section_title
;
Structure prediction by ZEFSAII (Michael W. Deem and Ramdas Pophale) SiO2 
 PCOD8109052
Probable space group: C 2/M
;
_chemical_formula_sum "Si O2"
_cell_formula_units_Z 40
_cell_length_a 10.073532
_cell_length_b 10.004572
_cell_length_c 21.933563
_cell_angle_alpha 90.000000
_cell_angle_beta 75.647097
_cell_angle_gamma 90.000000
_cell_volume 2141.499061
_symmetry_space_group_name_H-M "C 2/M"
_symmetry_group_IT_number 12
_symmetry_cell_setting 'monoclinic'
loop_
_space_group_symop_operation_xyz
x,y,z
-x,y,-z
-x,-y,-z
x,-y,z
1/2+x,1/2+y,z
1/2-x,1/2+y,-z
1/2-x,1/2-y,-z
1/2+x,1/2-y,z
loop_
_atom_site_type_symbol
_atom_site_label
_atom_site_fract_x
_atom_site_fract_y
_atom_site_fract_z
Si Si1 0.562760 0.347022 0.926640
Si Si2 0.626832 0.344446 0.277498
Si Si3 0.887553 0.500000 0.425264
Si Si4 0.165762 0.752305 0.648367
Si Si5 0.195676 0.500000 0.426950
Si Si6 0.811110 0.154403 0.869766
O O1 0.612173 0.500000 0.911391
O O2 0.690536 0.248782 0.906604
O O3 0.449379 0.307954 0.889658
O O4 0.500000 0.327131 0.000000
O O5 0.624415 0.500000 0.294041
O O6 0.738286 0.269069 0.304786
O O7 0.482162 0.279384 0.307746
O O8 0.663610 0.318057 0.203680
O O9 0.832910 0.627068 0.395984
O O10 0.821145 0.500000 0.499032
O O11 0.051198 0.500000 0.409085
O O12 0.217567 0.872389 0.601321
O O13 0.770727 0.000000 0.886731
#
# Coordination Sequence:
#
# PCOD8109052 Si02
#       6
#     8   8   4   8   4   8
#     4  10  21  39  61  89 123 155 197 245 295 348
#     4  11  23  39  61  86 123 153 200 244 294 353
#     4  11  24  41  61  93 121 149 202 247 291 363
#     4  12  22  42  62  88 117 161 193 247 300 349
#     4  11  24  41  63  89 121 155 194 247 303 351
#     4  10  22  39  58  88 119 159 198 244 289 349
#
# _framework density 18.678504
#
# number of rings (size 3 to 8) (size 9 to 14) (size 15 to 20)
#    0.000    1.200    4.000    2.400    0.000    1.200 
#    3.600    1.000    0.000    0.000    0.000    0.000 
#    0.000    0.000    0.000    0.000    0.000    0.000 
#
# Total GULP energy -248103.362412 kJ/mol
# GULP energy per Si atom -12405.168121 kJ/mol
# Density = 1.863599 g / cm^3
# Si number density = 18.678504 Si / 1000 Ang^3
#
#
#
# Elastic Constant Matrix: (Units=GPa)
#
#
# Indices 1 2 3 4 5 6 
#
# 1 97.6090 39.2823 25.8673 0.0000 10.5073 0.0000
# 2 39.2823 112.4119 32.9839 0.0000 -1.7513 0.0000
# 3 25.8673 32.9839 72.5236 0.0000 7.8271 0.0000
# 4 0.0000 0.0000 0.0000 614.3567 0.0000 -35.9255
# 5 10.5073 -1.7513 7.8271 0.0000 86.6145 0.0000
# 6 0.0000 0.0000 0.0000 -35.9255 0.0000 56.7955
#
#
#
# Elastic Compliance Matrix: (Units=1/GPa)
#
#
# Indices 1 2 3 4 5 6 
#
# 1 0.012560 -0.003622 -0.002686 0.000000 -0.001354 0.000000
# 2 -0.003622 0.011345 -0.003979 0.000000 0.001028 0.000000
# 3 -0.002686 -0.003979 0.016693 0.000000 -0.001263 0.000000
# 4 0.000000 0.000000 0.000000 0.001690 0.000000 0.001069
# 5 -0.001354 0.001028 -0.001263 0.000000 0.011845 0.000000
# 6 0.000000 0.000000 0.000000 0.001069 0.000000 0.018283
#
#
# Mechanical properties :
#
#
# Convention : Reuss Voigt Hill
#
# Bulk Modulus (GPa) = 49.94167 53.20129 51.57148
# Shear Modulus (GPa) = 50.16778 163.84741 107.00760
#
# Velocity S-wave (km/s) = 5.18815 9.37604 7.57717
# Velocity P-wave (km/s) = 7.91737 12.07303 10.20889
#
# Compressibility (1/GPa) = 0.02002336
#
# Stress axis : x y z
#
# Youngs Moduli (GPa) = 79.61566 88.14399 59.90628
#
# Poissons Ratio (x) = 0.31926 0.16094
# Poissons Ratio (y) = 0.28837 0.23836
# Poissons Ratio (z) = 0.21389 0.35071
#
# Static dielectric constant tensor:
#      x y z
#    x 3.508040 0.000000 0.093270 
#    y 0.000000 3.544510 0.000000 
#    z 0.093270 0.000000 3.506430 
# 
# 
# High freq. dielectric constant tensor:
#      x y z
#    x 1.736360 0.000000 0.006560 
#    y 0.000000 1.735590 0.000000 
#    z 0.006560 0.000000 1.741810 
# 
# From -- ./inp_files/299073.got.cif
#   From: 2010.06.25/outbox.cif.g09.slc.cpg/sg12_150_cif.got.tgz:299073.got - 2010.06.28 00:19:55.
