data_PCOD8109159
_publ_section_title
;
Structure prediction by ZEFSAII (Michael W. Deem and Ramdas Pophale) SiO2 
 PCOD8109159
Probable space group: C 2/M
;
_chemical_formula_sum "Si O2"
_cell_formula_units_Z 64
_cell_length_a 25.559178
_cell_length_b 8.775807
_cell_length_c 16.262049
_cell_angle_alpha 90.000000
_cell_angle_beta 117.806202
_cell_angle_gamma 90.000000
_cell_volume 3226.428291
_symmetry_space_group_name_H-M "C 2/M"
_symmetry_group_IT_number 12
_symmetry_cell_setting 'monoclinic'
loop_
_space_group_symop_operation_xyz
x,y,z
-x,y,-z
-x,-y,-z
x,-y,z
1/2+x,1/2+y,z
1/2-x,1/2+y,-z
1/2-x,1/2-y,-z
1/2+x,1/2-y,z
loop_
_atom_site_type_symbol
_atom_site_label
_atom_site_fract_x
_atom_site_fract_y
_atom_site_fract_z
Si Si1 0.135742 0.178364 0.682604
Si Si2 0.638889 0.323381 0.245250
Si Si3 0.563380 0.167677 0.064480
Si Si4 0.574061 0.321445 0.803947
Si Si5 0.652084 0.166935 0.990695
Si Si6 0.942480 0.680247 0.504302
Si Si7 0.050779 0.680696 0.304349
Si Si8 0.230651 0.318999 0.196976
O O1 0.091408 0.223129 0.723577
O O2 0.115773 0.259300 0.584270
O O3 0.201724 0.233585 0.753072
O O4 0.136212 0.000000 0.667021
O O5 0.649411 0.500000 0.272288
O O6 0.592637 0.300033 0.138441
O O7 0.609917 0.242638 0.303277
O O8 0.699921 0.249179 0.256745
O O9 0.561844 0.000000 0.108531
O O10 0.500000 0.234172 0.000000
O O11 0.593567 0.144312 0.000051
O O12 0.564994 0.500000 0.808728
O O13 0.631321 0.273575 0.900512
O O14 0.511396 0.241243 0.779724
O O15 0.672704 0.000000 0.972423
O O16 0.702321 0.238621 0.088817
O O17 0.941574 0.500000 0.500997
O O18 0.943439 0.740081 0.598135
O O19 0.000000 0.745933 0.500000
O O20 0.049744 0.500000 0.298125
O O21 0.220880 0.500000 0.193598
#
# Coordination Sequence:
#
# PCOD8109159 Si02
#       8
#     8   8   8   8   8   8   8   8
#     4  10  22  39  61  86 115 151 188 234 288 340
#     4  11  22  35  55  84 113 144 187 238 286 329
#     4   9  17  31  51  74 105 148 192 229 278 339
#     4  11  22  34  53  87 122 148 186 239 289 333
#     4   9  18  32  52  77 110 154 196 231 272 332
#     4  10  21  39  62  89 115 144 187 233 280 340
#     4  11  22  38  60  84 116 153 187 228 284 346
#     4   9  20  41  61  79 111 157 200 230 274 339
#
# _framework density 19.836175999999998
#
# number of rings (size 3 to 8) (size 9 to 14) (size 15 to 20)
#    0.000    2.000    1.250    3.375    0.000    6.000 
#    0.000    0.625    0.000    0.000    0.000    0.000 
#    0.000    0.000    0.000    0.000    0.000    0.000 
#
# Total GULP energy -396583.444060 kJ/mol
# GULP energy per Si atom -12393.232627 kJ/mol
# Density = 1.979103 g / cm^3
# Si number density = 19.836176 Si / 1000 Ang^3
#
#
#
# Elastic Constant Matrix: (Units=GPa)
#
#
# Indices 1 2 3 4 5 6 
#
# 1 48.7314 17.8037 22.8443 0.0000 6.3920 0.0000
# 2 17.8037 64.5277 28.8540 0.0000 -5.0982 0.0000
# 3 22.8443 28.8540 98.0173 0.0000 2.3046 0.0000
# 4 0.0000 0.0000 0.0000 25.3548 0.0000 1.9516
# 5 6.3920 -5.0982 2.3046 0.0000 34.1369 0.0000
# 6 0.0000 0.0000 0.0000 1.9516 0.0000 24.5112
#
#
#
# Elastic Compliance Matrix: (Units=1/GPa)
#
#
# Indices 1 2 3 4 5 6 
#
# 1 0.025154 -0.005515 -0.004115 0.000000 -0.005256 0.000000
# 2 -0.005515 0.019373 -0.004517 0.000000 0.004231 0.000000
# 3 -0.004115 -0.004517 0.012509 0.000000 -0.000748 0.000000
# 4 0.000000 0.000000 0.000000 0.039683 0.000000 -0.003160
# 5 -0.005256 0.004231 -0.000748 0.000000 0.030960 0.000000
# 6 0.000000 0.000000 0.000000 -0.003160 0.000000 0.041049
#
#
# Mechanical properties :
#
#
# Convention : Reuss Voigt Hill
#
# Bulk Modulus (GPa) = 34.79400 38.92003 36.85702
# Shear Modulus (GPa) = 24.20081 26.25221 25.22651
#
# Velocity S-wave (km/s) = 3.49669 3.64187 3.57002
# Velocity P-wave (km/s) = 5.82076 6.11127 5.96778
#
# Compressibility (1/GPa) = 0.02874059
#
# Stress axis : x y z
#
# Youngs Moduli (GPa) = 39.75475 51.61812 79.94407
#
# Poissons Ratio (x) = 0.28469 0.32900
# Poissons Ratio (y) = 0.21926 0.36111
# Poissons Ratio (z) = 0.16361 0.23316
#
# Static dielectric constant tensor:
#      x y z
#    x 2.746910 0.000000 0.784810 
#    y 0.000000 3.488400 0.000000 
#    z 0.784810 0.000000 2.865680 
# 
# 
# High freq. dielectric constant tensor:
#      x y z
#    x 1.772350 0.000000 -0.001970 
#    y 0.000000 1.761780 0.000000 
#    z -0.001970 0.000000 1.765830 
# 
# From -- ./inp_files/244257.got.cif
#   From: 2010.06.25/outbox.cif.g09.slc.cpg/sg12_123_cif.got.tgz:244257.got - 2010.06.28 00:19:55.
