data_PCOD8109962
_publ_section_title
;
Structure prediction by ZEFSAII (Michael W. Deem and Ramdas Pophale) SiO2 
 PCOD8109962
Probable space group: C 2/M
;
_chemical_formula_sum "Si O2"
_cell_formula_units_Z 56
_cell_length_a 18.973333
_cell_length_b 8.734777
_cell_length_c 19.905032
_cell_angle_alpha 90.000000
_cell_angle_beta 115.430030
_cell_angle_gamma 90.000000
_cell_volume 2979.196524
_symmetry_space_group_name_H-M "C 2/M"
_symmetry_group_IT_number 12
_symmetry_cell_setting 'monoclinic'
loop_
_space_group_symop_operation_xyz
x,y,z
-x,y,-z
-x,-y,-z
x,-y,z
1/2+x,1/2+y,z
1/2-x,1/2+y,-z
1/2-x,1/2-y,-z
1/2+x,1/2-y,z
loop_
_atom_site_type_symbol
_atom_site_label
_atom_site_fract_x
_atom_site_fract_y
_atom_site_fract_z
Si Si1 0.045075 0.176474 0.816412
Si Si2 0.177839 0.317312 0.428497
Si Si3 0.624060 0.179444 0.258908
Si Si4 0.030275 0.671633 0.446387
Si Si5 0.266477 0.673637 0.800930
Si Si6 0.702055 0.180183 0.920074
Si Si7 0.902510 0.667371 0.286750
O O1 0.113155 0.257390 0.887822
O O2 0.068987 0.196083 0.748783
O O3 0.959708 0.247253 0.790125
O O4 0.041756 0.000000 0.835485
O O5 0.183314 0.500000 0.431856
O O6 0.250000 0.250000 0.500000
O O7 0.166822 0.262085 0.345820
O O8 0.101836 0.251239 0.436375
O O9 0.673659 0.216298 0.212628
O O10 0.611247 0.000000 0.260687
O O11 0.057603 0.500000 0.477184
O O12 0.000000 0.762470 0.500000
O O13 0.952821 0.666663 0.372483
O O14 0.299194 0.500000 0.813369
O O15 0.246455 0.726468 0.868978
O O16 0.186394 0.688707 0.726286
O O17 0.698889 0.000000 0.926851
O O18 0.750000 0.250000 0.000000
O O19 0.909358 0.500000 0.251916
#
# Coordination Sequence:
#
# PCOD8109962 Si02
#       7
#     8   8   8   8   8   8   8
#     4  11  21  35  59  86 113 149 192 233 280 338
#     4  10  22  37  54  77 110 148 192 241 295 349
#     4  11  22  38  57  80 116 156 194 242 290 341
#     4   9  17  31  53  76 101 140 188 235 286 345
#     4   9  20  35  57  87 115 148 188 232 278 337
#     4  10  21  40  65  92 123 152 185 228 278 337
#     4   9  17  34  55  77 108 143 188 238 286 339
#
# _framework density 18.797014000000001
#
# number of rings (size 3 to 8) (size 9 to 14) (size 15 to 20)
#    0.000    2.143    1.429    3.000    2.000    4.000 
#    0.000    0.714    0.000    5.143    0.000    0.000 
#    0.000    0.000    0.000    0.000    0.000    0.000 
#
# Total GULP energy -346875.759275 kJ/mol
# GULP energy per Si atom -12388.419974 kJ/mol
# Density = 1.875423 g / cm^3
# Si number density = 18.797014 Si / 1000 Ang^3
#
#
#
# Elastic Constant Matrix: (Units=GPa)
#
#
# Indices 1 2 3 4 5 6 
#
# 1 124.4843 44.3887 79.1123 0.0000 7.8049 0.0000
# 2 44.3887 74.0868 43.7471 0.0000 6.0429 0.0000
# 3 79.1123 43.7471 119.7657 0.0000 17.5455 0.0000
# 4 0.0000 0.0000 0.0000 27.7103 0.0000 3.0958
# 5 7.8049 6.0429 17.5455 0.0000 26.9296 0.0000
# 6 0.0000 0.0000 0.0000 3.0958 0.0000 28.3841
#
#
#
# Elastic Compliance Matrix: (Units=1/GPa)
#
#
# Indices 1 2 3 4 5 6 
#
# 1 0.014807 -0.003933 -0.008672 0.000000 0.002242 0.000000
# 2 -0.003933 0.018256 -0.004021 0.000000 -0.000337 0.000000
# 3 -0.008672 -0.004021 0.016634 0.000000 -0.007422 0.000000
# 4 0.000000 0.000000 0.000000 0.036533 0.000000 -0.003985
# 5 0.002242 -0.000337 -0.007422 0.000000 0.041395 0.000000
# 6 0.000000 0.000000 0.000000 -0.003985 0.000000 0.035666
#
#
# Mechanical properties :
#
#
# Convention : Reuss Voigt Hill
#
# Bulk Modulus (GPa) = 60.81283 72.53700 66.67491
# Shear Modulus (GPa) = 24.74944 26.67738 25.71341
#
# Velocity S-wave (km/s) = 3.63253 3.77136 3.70260
# Velocity P-wave (km/s) = 7.07222 7.59195 7.33669
#
# Compressibility (1/GPa) = 0.01644390
#
# Stress axis : x y z
#
# Youngs Moduli (GPa) = 67.53783 54.77637 60.11701
#
# Poissons Ratio (x) = 0.21545 0.52135
# Poissons Ratio (y) = 0.26564 0.24173
# Poissons Ratio (z) = 0.58571 0.22025
#
# Static dielectric constant tensor:
#      x y z
#    x 3.557270 0.000000 0.098180 
#    y 0.000000 3.356140 0.000000 
#    z 0.098180 0.000000 3.376610 
# 
# 
# High freq. dielectric constant tensor:
#      x y z
#    x 1.733850 0.000000 0.011470 
#    y 0.000000 1.710430 0.000000 
#    z 0.011470 0.000000 1.728410 
# 
# From -- ./inp_files/319020.got.cif
#   From: 2010.06.25/outbox.cif.g09.slc.cpg/sg12_160_cif.got.tgz:319020.got - 2010.06.28 00:19:55.
