data_PCOD8109388
_publ_section_title
;
Structure prediction by ZEFSAII (Michael W. Deem and Ramdas Pophale) SiO2 
 PCOD8109388
Probable space group: C 2/M
;
_chemical_formula_sum "Si O2"
_cell_formula_units_Z 48
_cell_length_a 8.884993
_cell_length_b 33.202758
_cell_length_c 16.621150
_cell_angle_alpha 90.000000
_cell_angle_beta 149.974580
_cell_angle_gamma 90.000000
_cell_volume 2453.555489
_symmetry_space_group_name_H-M "C 2/M"
_symmetry_group_IT_number 12
_symmetry_cell_setting 'monoclinic'
loop_
_space_group_symop_operation_xyz
x,y,z
-x,y,-z
-x,-y,-z
x,-y,z
1/2+x,1/2+y,z
1/2-x,1/2+y,-z
1/2-x,1/2-y,-z
1/2+x,1/2-y,z
loop_
_atom_site_type_symbol
_atom_site_label
_atom_site_fract_x
_atom_site_fract_y
_atom_site_fract_z
Si Si1 0.324285 0.500000 0.336933
Si Si2 0.637658 0.293418 0.974182
Si Si3 0.931728 0.421866 0.146941
Si Si4 0.459451 0.000000 0.572737
Si Si5 0.859733 0.351679 0.849974
Si Si6 0.292904 0.660371 0.681439
Si Si7 0.715325 0.419293 0.219486
O O1 0.500000 0.500000 0.500000
O O2 0.595796 0.500000 0.400516
O O3 0.102048 0.463221 0.228767
O O4 0.381373 0.309694 0.794917
O O5 0.500000 0.293179 0.000000
O O6 0.750000 0.250000 0.000000
O O7 0.933300 0.321011 0.104694
O O8 0.846178 0.404327 0.194818
O O9 0.166421 0.391314 0.215792
O O10 0.638639 0.427671 0.955208
O O11 0.500000 0.000000 0.500000
O O12 0.607149 0.960200 0.678772
O O13 0.529734 0.335826 0.717600
O O14 0.000000 0.363297 0.000000
O O15 0.245810 0.615076 0.694547
O O16 0.000000 0.675899 0.500000
#
# Coordination Sequence:
#
# PCOD8109388 Si02
#       7
#     4   8   8   4   8   8   8
#     4  12  25  41  55  89 126 166 224 285 334 381
#     4  11  22  45  74 101 135 177 216 259 318 401
#     4  11  22  39  65  86 125 171 224 266 328 401
#     4  12  27  41  57  85 129 170 219 282 347 375
#     4  10  21  39  63  97 130 167 216 260 323 399
#     4  11  24  41  66 102 138 169 216 277 330 376
#     4  11  22  41  62  89 126 173 219 268 329 404
#
# _framework density 19.563447
#
# number of rings (size 3 to 8) (size 9 to 14) (size 15 to 20)
#    0.000    1.000    5.000    3.500    4.667    1.333 
#    0.000    7.083    0.000    0.000    0.000    0.000 
#    0.000    0.000    0.000    0.000    0.000    0.000 
#
# Total GULP energy -297445.680730 kJ/mol
# GULP energy per Si atom -12393.570030 kJ/mol
# Density = 1.951892 g / cm^3
# Si number density = 19.563447 Si / 1000 Ang^3
#
#
#
# Elastic Constant Matrix: (Units=GPa)
#
#
# Indices 1 2 3 4 5 6 
#
# 1 161.3414 51.5171 52.4550 0.0000 14.9230 0.0000
# 2 51.5171 124.5387 38.0763 0.0000 -4.3935 0.0000
# 3 52.4550 38.0763 120.3292 0.0000 8.3468 0.0000
# 4 0.0000 0.0000 0.0000 15.6310 0.0000 2.5229
# 5 14.9230 -4.3935 8.3468 0.0000 21.9442 0.0000
# 6 0.0000 0.0000 0.0000 2.5229 0.0000 31.8456
#
#
#
# Elastic Compliance Matrix: (Units=1/GPa)
#
#
# Indices 1 2 3 4 5 6 
#
# 1 0.008406 -0.002948 -0.002356 0.000000 -0.005410 0.000000
# 2 -0.002948 0.010110 -0.002253 0.000000 0.004886 0.000000
# 3 -0.002356 -0.002253 0.010241 0.000000 -0.002744 0.000000
# 4 0.000000 0.000000 0.000000 0.064804 0.000000 -0.005134
# 5 -0.005410 0.004886 -0.002744 0.000000 0.051271 0.000000
# 6 0.000000 0.000000 0.000000 -0.005134 0.000000 0.031808
#
#
# Mechanical properties :
#
#
# Convention : Reuss Voigt Hill
#
# Bulk Modulus (GPa) = 73.29864 76.70068 74.99966
# Shear Modulus (GPa) = 25.47098 31.49490 28.48294
#
# Velocity S-wave (km/s) = 3.61219 4.01669 3.81980
# Velocity P-wave (km/s) = 7.41254 7.79763 7.60752
#
# Compressibility (1/GPa) = 0.01364282
#
# Stress axis : x y z
#
# Youngs Moduli (GPa) = 118.96722 98.91026 97.64631
#
# Poissons Ratio (x) = 0.29154 0.23008
# Poissons Ratio (y) = 0.35066 0.22001
# Poissons Ratio (z) = 0.28032 0.22286
#
# Static dielectric constant tensor:
#      x y z
#    x 4.237270 0.000000 0.397330 
#    y 0.000000 3.173250 0.000000 
#    z 0.397330 0.000000 3.702320 
# 
# 
# High freq. dielectric constant tensor:
#      x y z
#    x 1.785480 0.000000 0.008570 
#    y 0.000000 1.758000 0.000000 
#    z 0.008570 0.000000 1.756920 
# 
# From -- ./inp_files/260453.got.cif
#   From: 2010.06.25/outbox.cif.g09.slc.cpg/sg12_131_cif.got.tgz:260453.got - 2010.06.28 00:19:55.
