data_PCOD8109995
_publ_section_title
;
Structure prediction by ZEFSAII (Michael W. Deem and Ramdas Pophale) SiO2 
 PCOD8109995
Probable space group: C 2/M
;
_chemical_formula_sum "Si O2"
_cell_formula_units_Z 40
_cell_length_a 13.134769
_cell_length_b 17.928749
_cell_length_c 12.246148
_cell_angle_alpha 90.000000
_cell_angle_beta 138.819518
_cell_angle_gamma 90.000000
_cell_volume 1898.819099
_symmetry_space_group_name_H-M "C 2/M"
_symmetry_group_IT_number 12
_symmetry_cell_setting 'monoclinic'
loop_
_space_group_symop_operation_xyz
x,y,z
-x,y,-z
-x,-y,-z
x,-y,z
1/2+x,1/2+y,z
1/2-x,1/2+y,-z
1/2-x,1/2-y,-z
1/2+x,1/2-y,z
loop_
_atom_site_type_symbol
_atom_site_label
_atom_site_fract_x
_atom_site_fract_y
_atom_site_fract_z
Si Si1 0.163771 0.338959 0.190418
Si Si2 0.415690 0.587511 0.247244
Si Si3 0.824518 0.318349 0.345258
Si Si4 0.350089 0.586780 0.947885
Si Si5 0.764603 0.838277 0.498424
O O1 0.278870 0.393262 0.219156
O O2 0.222387 0.254389 0.240502
O O3 0.152958 0.365642 0.309058
O O4 0.000000 0.344049 0.000000
O O5 0.455585 0.500000 0.286820
O O6 0.564834 0.635857 0.399229
O O7 0.366715 0.611084 0.086111
O O8 0.800138 0.371878 0.221963
O O9 0.778644 0.367934 0.415910
O O10 0.000000 0.292432 0.500000
O O11 0.320374 0.500000 0.911929
O O12 0.500000 0.612344 0.000000
O O13 0.750000 0.750000 0.500000
#
# Coordination Sequence:
#
# PCOD8109995 Si02
#       5
#     8   8   8   8   8
#     4  11  25  41  64  96 128 169 218 269 321 379
#     4  11  24  44  69  94 130 174 215 263 322 387
#     4  11  23  40  66  96 132 169 211 269 322 383
#     4  10  21  40  65  96 128 168 217 263 323 386
#     4  10  22  41  63  95 129 164 216 261 314 385
#
# _framework density 21.065725
#
# number of rings (size 3 to 8) (size 9 to 14) (size 15 to 20)
#    0.000    1.400    2.000    3.600    5.600    3.200 
#    0.000    0.000    0.000    0.000    0.000    0.000 
#    0.000    0.000    0.000    0.000    0.000    0.000 
#
# Total GULP energy -247945.006062 kJ/mol
# GULP energy per Si atom -12397.250303 kJ/mol
# Density = 2.101778 g / cm^3
# Si number density = 21.065725 Si / 1000 Ang^3
#
#
#
# Elastic Constant Matrix: (Units=GPa)
#
#
# Indices 1 2 3 4 5 6 
#
# 1 90.4890 27.0334 46.1414 0.0000 -14.7372 0.0000
# 2 27.0334 64.5002 52.0885 0.0000 -4.8137 0.0000
# 3 46.1414 52.0885 164.9265 0.0000 -11.0574 0.0000
# 4 0.0000 0.0000 0.0000 28.4607 0.0000 1.1318
# 5 -14.7372 -4.8137 -11.0574 0.0000 47.2373 0.0000
# 6 0.0000 0.0000 0.0000 1.1318 0.0000 31.9271
#
#
#
# Elastic Compliance Matrix: (Units=1/GPa)
#
#
# Indices 1 2 3 4 5 6 
#
# 1 0.013967 -0.003529 -0.002565 0.000000 0.003397 0.000000
# 2 -0.003529 0.021720 -0.005890 0.000000 -0.000266 0.000000
# 3 -0.002565 -0.005890 0.008684 0.000000 0.000632 0.000000
# 4 0.000000 0.000000 0.000000 0.035186 0.000000 -0.001247
# 5 0.003397 -0.000266 0.000632 0.000000 0.022350 0.000000
# 6 0.000000 0.000000 0.000000 -0.001247 0.000000 0.031366
#
#
# Mechanical properties :
#
#
# Convention : Reuss Voigt Hill
#
# Bulk Modulus (GPa) = 49.01554 63.38247 56.19901
# Shear Modulus (GPa) = 30.48024 34.50186 32.49105
#
# Velocity S-wave (km/s) = 3.80796 4.05139 3.93156
# Velocity P-wave (km/s) = 6.53089 7.21376 6.88080
#
# Compressibility (1/GPa) = 0.02040169
#
# Stress axis : x y z
#
# Youngs Moduli (GPa) = 71.59970 46.04101 115.15806
#
# Poissons Ratio (x) = 0.16246 0.29541
# Poissons Ratio (y) = 0.25264 0.67833
# Poissons Ratio (z) = 0.18367 0.27120
#
# Static dielectric constant tensor:
#      x y z
#    x 4.267310 0.000000 -0.599710 
#    y 0.000000 3.548200 0.000000 
#    z -0.599710 0.000000 4.222350 
# 
# 
# High freq. dielectric constant tensor:
#      x y z
#    x 1.827030 0.000000 -0.023390 
#    y 0.000000 1.808440 0.000000 
#    z -0.023390 0.000000 1.841370 
# 
# From -- ./inp_files/60831.got.cif
#   From: 2010.06.25/outbox.cif.g09.slc.cpg/sg12_31_cif.got.tgz:60831.got - 2010.06.28 00:19:55.
