data_PCOD8109195
_publ_section_title
;
Structure prediction by ZEFSAII (Michael W. Deem and Ramdas Pophale) SiO2 
 PCOD8109195
Probable space group: C 2/M
;
_chemical_formula_sum "Si O2"
_cell_formula_units_Z 64
_cell_length_a 16.194895
_cell_length_b 12.567925
_cell_length_c 20.343690
_cell_angle_alpha 90.000000
_cell_angle_beta 131.192004
_cell_angle_gamma 90.000000
_cell_volume 3115.888369
_symmetry_space_group_name_H-M "C 2/M"
_symmetry_group_IT_number 12
_symmetry_cell_setting 'monoclinic'
loop_
_space_group_symop_operation_xyz
x,y,z
-x,y,-z
-x,-y,-z
x,-y,z
1/2+x,1/2+y,z
1/2-x,1/2+y,-z
1/2-x,1/2-y,-z
1/2+x,1/2-y,z
loop_
_atom_site_type_symbol
_atom_site_label
_atom_site_fract_x
_atom_site_fract_y
_atom_site_fract_z
Si Si1 0.959464 0.621985 0.177542
Si Si2 0.858031 0.744777 0.787908
Si Si3 0.293608 0.376630 0.638227
Si Si4 0.005796 0.226647 0.687371
Si Si5 0.778623 0.876695 0.178847
Si Si6 0.942044 0.620340 0.538468
Si Si7 0.751431 0.877903 0.015803
Si Si8 0.537691 0.626458 0.948816
O O1 0.950080 0.500000 0.193910
O O2 0.868027 0.650285 0.074867
O O3 0.080044 0.643663 0.211298
O O4 0.943633 0.691925 0.233617
O O5 0.776165 0.803487 0.694020
O O6 0.797078 0.702755 0.819631
O O7 0.948193 0.834853 0.849966
O O8 0.311478 0.500000 0.667369
O O9 0.395789 0.331963 0.651224
O O10 0.188047 0.364379 0.536913
O O11 0.987500 0.291533 0.611385
O O12 0.098020 0.135553 0.728376
O O13 0.766536 0.835601 0.097706
O O14 0.742532 0.000000 0.167760
O O15 0.967333 0.500000 0.576919
O O16 0.000000 0.640266 0.500000
O O17 0.843242 0.829429 0.013838
O O18 0.776129 0.000000 0.032084
O O19 0.538109 0.500000 0.951130
O O20 0.500000 0.672495 0.000000
#
# Coordination Sequence:
#
# PCOD8109195 Si02
#       8
#     8   8   8   8   8   8   8   8
#     4  10  22  38  58  86 120 155 200 253 297 349
#     4  11  23  36  59  86 115 160 200 242 295 355
#     4  10  21  40  64  89 120 156 198 244 295 357
#     4  11  22  37  63  90 114 158 201 243 295 359
#     4  11  24  40  59  85 120 159 201 245 292 354
#     4  10  21  39  62  90 124 154 189 244 303 361
#     4   9  20  39  58  80 115 158 198 244 297 349
#     4  10  22  38  56  83 116 149 197 253 297 345
#
# _framework density 20.539888999999999
#
# number of rings (size 3 to 8) (size 9 to 14) (size 15 to 20)
#    0.000    1.750    0.000    4.125    3.500    2.000 
#    0.000    3.125    0.000    9.000    0.000    0.000 
#    0.000    0.000    0.000    0.000    0.000    0.000 
#
# Total GULP energy -396699.519186 kJ/mol
# GULP energy per Si atom -12396.859975 kJ/mol
# Density = 2.049314 g / cm^3
# Si number density = 20.539889 Si / 1000 Ang^3
#
#
#
# Elastic Constant Matrix: (Units=GPa)
#
#
# Indices 1 2 3 4 5 6 
#
# 1 89.2131 23.5876 27.8020 0.0000 -6.2220 0.0000
# 2 23.5876 85.1048 35.4081 0.0000 -6.2425 0.0000
# 3 27.8020 35.4081 97.0262 0.0000 -2.2311 0.0000
# 4 0.0000 0.0000 0.0000 33.6480 0.0000 22.6177
# 5 -6.2220 -6.2425 -2.2311 0.0000 29.2570 0.0000
# 6 0.0000 0.0000 0.0000 22.6177 0.0000 -86.6270
#
#
#
# Elastic Compliance Matrix: (Units=1/GPa)
#
#
# Indices 1 2 3 4 5 6 
#
# 1 0.012818 -0.002234 -0.002811 0.000000 0.002035 0.000000
# 2 -0.002234 0.014439 -0.004577 0.000000 0.002257 0.000000
# 3 -0.002811 -0.004577 0.012769 0.000000 -0.000601 0.000000
# 4 0.000000 0.000000 0.000000 0.025282 0.000000 0.006601
# 5 0.002035 0.002257 -0.000601 0.000000 0.035048 0.000000
# 6 0.000000 0.000000 0.000000 0.006601 0.000000 -0.009820
#
#
# Mechanical properties :
#
#
# Convention : Reuss Voigt Hill
#
# Bulk Modulus (GPa) = 48.11992 49.43773 48.77883
# Shear Modulus (GPa) = 42.84231 7.55869 25.20050
#
# Velocity S-wave (km/s) = 4.57202 1.92041 3.50652
# Velocity P-wave (km/s) = 7.16586 5.38876 6.33989
#
# Compressibility (1/GPa) = 0.02078141
#
# Stress axis : x y z
#
# Youngs Moduli (GPa) = 78.01775 69.25527 78.31746
#
# Poissons Ratio (x) = 0.15470 0.22013
# Poissons Ratio (y) = 0.17428 0.35849
# Poissons Ratio (z) = 0.21929 0.31701
#
# Static dielectric constant tensor:
#      x y z
#    x 3.864630 0.000000 -0.004190 
#    y 0.000000 3.774300 0.000000 
#    z -0.004190 0.000000 3.714460 
# 
# 
# High freq. dielectric constant tensor:
#      x y z
#    x 1.806200 0.000000 0.004440 
#    y 0.000000 1.816900 0.000000 
#    z 0.004440 0.000000 1.798620 
# 
# From -- ./inp_files/315749.got.cif
#   From: 2010.06.25/outbox.cif.g09.slc.cpg/sg12_158_cif.got.tgz:315749.got - 2010.06.28 00:19:55.
