data_PCOD8109346
_publ_section_title
;
Structure prediction by ZEFSAII (Michael W. Deem and Ramdas Pophale) SiO2 
 PCOD8109346
Probable space group: C 2/M
;
_chemical_formula_sum "Si O2"
_cell_formula_units_Z 40
_cell_length_a 19.682369
_cell_length_b 9.001642
_cell_length_c 11.296862
_cell_angle_alpha 90.000000
_cell_angle_beta 89.359498
_cell_angle_gamma 90.000000
_cell_volume 2001.381095
_symmetry_space_group_name_H-M "C 2/M"
_symmetry_group_IT_number 12
_symmetry_cell_setting 'monoclinic'
loop_
_space_group_symop_operation_xyz
x,y,z
-x,y,-z
-x,-y,-z
x,-y,z
1/2+x,1/2+y,z
1/2-x,1/2+y,-z
1/2-x,1/2-y,-z
1/2+x,1/2-y,z
loop_
_atom_site_type_symbol
_atom_site_label
_atom_site_fract_x
_atom_site_fract_y
_atom_site_fract_z
Si Si1 0.678367 0.670689 0.990680
Si Si2 0.015847 0.324714 0.365672
Si Si3 0.395517 0.330431 0.240281
Si Si4 0.644138 0.671537 0.251260
Si Si5 0.259448 0.330357 0.376996
O O1 0.695445 0.500000 0.962746
O O2 0.633725 0.688822 0.110531
O O3 0.750000 0.750000 0.000000
O O4 0.633319 0.733450 0.883355
O O5 0.023387 0.500000 0.355615
O O6 0.957455 0.271859 0.278144
O O7 0.000000 0.274692 0.500000
O O8 0.085913 0.251066 0.326088
O O9 0.421369 0.500000 0.225144
O O10 0.338036 0.321111 0.341241
O O11 0.646280 0.500000 0.289514
O O12 0.715922 0.747172 0.278540
O O13 0.234735 0.500000 0.387660
O O14 0.250000 0.250000 0.500000
#
# Coordination Sequence:
#
# PCOD8109346 Si02
#       5
#     8   8   8   8   8
#     4  10  21  39  63  92 124 159 201 251 304 363
#     4  11  25  43  62  87 122 163 207 255 306 363
#     4  10  22  40  62  88 121 161 201 248 306 363
#     4  11  23  39  63  91 122 161 202 250 308 365
#     4  11  22  37  60  89 122 159 204 254 303 360
#
# _framework density 19.986198000000002
#
# number of rings (size 3 to 8) (size 9 to 14) (size 15 to 20)
#    0.000    1.400    2.000    3.000    0.000    8.800 
#    0.000    4.000    0.000    0.000    0.000    0.000 
#    0.000    0.000    0.000    0.000    0.000    0.000 
#
# Total GULP energy -248095.406675 kJ/mol
# GULP energy per Si atom -12404.770334 kJ/mol
# Density = 1.994071 g / cm^3
# Si number density = 19.986198 Si / 1000 Ang^3
#
#
#
# Elastic Constant Matrix: (Units=GPa)
#
#
# Indices 1 2 3 4 5 6 
#
# 1 69.9246 29.6528 5.9754 0.0000 3.9314 0.0000
# 2 29.6528 89.2705 28.7597 0.0000 -1.0012 0.0000
# 3 5.9754 28.7597 89.3390 0.0000 5.6525 0.0000
# 4 0.0000 0.0000 0.0000 31.1921 0.0000 4.1280
# 5 3.9314 -1.0012 5.6525 0.0000 37.4520 0.0000
# 6 0.0000 0.0000 0.0000 4.1280 0.0000 38.4201
#
#
#
# Elastic Compliance Matrix: (Units=1/GPa)
#
#
# Indices 1 2 3 4 5 6 
#
# 1 0.016846 -0.005911 0.000907 0.000000 -0.002063 0.000000
# 2 -0.005911 0.014606 -0.004413 0.000000 0.001677 0.000000
# 3 0.000907 -0.004413 0.012688 0.000000 -0.002128 0.000000
# 4 0.000000 0.000000 0.000000 0.032522 0.000000 -0.003494
# 5 -0.002063 0.001677 -0.002128 0.000000 0.027283 0.000000
# 6 0.000000 0.000000 0.000000 -0.003494 0.000000 0.026404
#
#
# Mechanical properties :
#
#
# Convention : Reuss Voigt Hill
#
# Bulk Modulus (GPa) = 39.51641 41.92331 40.71986
# Shear Modulus (GPa) = 31.72228 33.68925 32.70577
#
# Velocity S-wave (km/s) = 3.98830 4.11009 4.04965
# Velocity P-wave (km/s) = 6.40496 6.59890 6.50265
#
# Compressibility (1/GPa) = 0.02530594
#
# Stress axis : x y z
#
# Youngs Moduli (GPa) = 59.36016 68.46619 78.81585
#
# Poissons Ratio (x) = 0.40471 -0.07146
# Poissons Ratio (y) = 0.35088 0.34778
# Poissons Ratio (z) = -0.05382 0.30211
#
# Static dielectric constant tensor:
#      x y z
#    x 3.432420 0.000000 -0.031230 
#    y 0.000000 3.733090 0.000000 
#    z -0.031230 0.000000 3.790270 
# 
# 
# High freq. dielectric constant tensor:
#      x y z
#    x 1.776290 0.000000 0.000750 
#    y 0.000000 1.783800 0.000000 
#    z 0.000750 0.000000 1.797380 
# 
# From -- ./inp_files/151628.got.cif
#   From: 2010.06.25/outbox.cif.g09.slc.cpg/sg12_76_cif.got.tgz:151628.got - 2010.06.28 00:19:55.
