data_PCOD8109740
_publ_section_title
;
Structure prediction by ZEFSAII (Michael W. Deem and Ramdas Pophale) SiO2 
 PCOD8109740
Probable space group: C 2/M
;
_chemical_formula_sum "Si O2"
_cell_formula_units_Z 64
_cell_length_a 18.702856
_cell_length_b 9.088644
_cell_length_c 31.902676
_cell_angle_alpha 90.000000
_cell_angle_beta 37.562252
_cell_angle_gamma 90.000000
_cell_volume 3305.944171
_symmetry_space_group_name_H-M "C 2/M"
_symmetry_group_IT_number 12
_symmetry_cell_setting 'monoclinic'
loop_
_space_group_symop_operation_xyz
x,y,z
-x,y,-z
-x,-y,-z
x,-y,z
1/2+x,1/2+y,z
1/2-x,1/2+y,-z
1/2-x,1/2-y,-z
1/2+x,1/2-y,z
loop_
_atom_site_type_symbol
_atom_site_label
_atom_site_fract_x
_atom_site_fract_y
_atom_site_fract_z
Si Si1 0.350440 0.329662 0.297698
Si Si2 0.730114 0.173553 0.201085
Si Si3 0.711730 0.827107 0.975909
Si Si4 0.315177 0.673226 0.690408
Si Si5 0.618783 0.329377 0.177141
Si Si6 0.718054 0.672395 0.577637
Si Si7 0.582332 0.328637 0.558986
Si Si8 0.488925 0.663564 0.054333
O O1 0.315292 0.500000 0.307470
O O2 0.273127 0.227972 0.303971
O O3 0.486296 0.304534 0.223001
O O4 0.330376 0.278769 0.354820
O O5 0.709720 0.243887 0.255296
O O6 0.638833 0.238095 0.210073
O O7 0.860287 0.217077 0.126411
O O8 0.711639 0.000000 0.212360
O O9 0.794163 0.772169 0.899587
O O10 0.722298 0.000000 0.976660
O O11 0.750000 0.750000 0.000000
O O12 0.577862 0.783290 0.030629
O O13 0.298756 0.500000 0.705060
O O14 0.447004 0.711800 0.615025
O O15 0.641596 0.500000 0.176993
O O16 0.738231 0.500000 0.566612
O O17 0.624143 0.722473 0.585965
O O18 0.843620 0.746889 0.511164
O O19 0.605231 0.500000 0.542576
O O20 0.514833 0.500000 0.060865
O O21 0.500000 0.657784 0.000000
#
# Coordination Sequence:
#
# PCOD8109740 Si02
#       8
#     8   8   8   8   8   8   8   8
#     4  10  22  40  59  83 119 158 195 238 291 345
#     4  11  23  39  63  88 114 151 194 243 293 346
#     4  11  24  39  60  88 119 156 196 241 292 348
#     4  11  24  40  58  85 120 156 194 239 290 345
#     4  10  22  41  62  84 115 155 194 237 293 349
#     4   9  18  35  61  87 112 149 193 237 283 339
#     4   9  19  37  60  85 116 151 189 235 287 340
#     4  10  21  40  62  86 117 151 191 241 295 349
#
# _framework density 19.359069000000002
#
# number of rings (size 3 to 8) (size 9 to 14) (size 15 to 20)
#    0.000    1.875    1.250    1.875    1.750    6.250 
#    0.000    5.000    0.000    0.000    0.000    0.000 
#    0.000    0.000    0.000    0.000    0.000    0.000 
#
# Total GULP energy -396915.327216 kJ/mol
# GULP energy per Si atom -12403.603975 kJ/mol
# Density = 1.931501 g / cm^3
# Si number density = 19.359069 Si / 1000 Ang^3
#
#
#
# Elastic Constant Matrix: (Units=GPa)
#
#
# Indices 1 2 3 4 5 6 
#
# 1 100.9619 43.6931 37.2437 -0.0032 -8.5099 0.0288
# 2 43.6931 62.9300 37.8471 0.0203 -3.1681 0.0054
# 3 37.2437 37.8471 80.5123 -0.0036 -8.3192 0.0043
# 4 -0.0032 0.0203 -0.0036 33.8669 0.0009 -0.8411
# 5 -8.5099 -3.1681 -8.3192 0.0009 31.5848 0.0027
# 6 0.0288 0.0054 0.0043 -0.8411 0.0027 40.2343
#
#
#
# Elastic Compliance Matrix: (Units=1/GPa)
#
#
# Indices 1 2 3 4 5 6 
#
# 1 0.014771 -0.008609 -0.002533 0.000006 0.002449 -0.000009
# 2 -0.008609 0.027181 -0.008997 -0.000018 -0.001963 0.000003
# 3 -0.002533 -0.008997 0.018152 0.000007 0.003196 0.000001
# 4 0.000006 -0.000018 0.000007 0.029543 0.000001 0.000618
# 5 0.002449 -0.001963 0.003196 0.000001 0.032966 -0.000004
# 6 -0.000009 0.000003 0.000001 0.000618 -0.000004 0.024867
#
#
# Mechanical properties :
#
#
# Convention : Reuss Voigt Hill
#
# Bulk Modulus (GPa) = 50.44206 53.55244 51.99725
# Shear Modulus (GPa) = 25.72459 29.51188 27.61824
#
# Velocity S-wave (km/s) = 3.64924 3.90865 3.78117
# Velocity P-wave (km/s) = 6.62334 6.93490 6.78091
#
# Compressibility (1/GPa) = 0.01982473
#
# Stress axis : x y z
#
# Youngs Moduli (GPa) = 67.69863 36.79102 55.09098
#
# Poissons Ratio (x) = 0.31675 0.13954
# Poissons Ratio (y) = 0.58284 0.49567
# Poissons Ratio (z) = 0.17147 0.33102
#
# Static dielectric constant tensor:
#      x y z
#    x 3.542890 -0.000060 -0.030220 
#    y -0.000060 3.612520 0.000040 
#    z -0.030220 0.000040 3.713690 
# 
# 
# High freq. dielectric constant tensor:
#      x y z
#    x 1.755020 0.000000 -0.002560 
#    y 0.000000 1.751950 0.000000 
#    z -0.002560 0.000000 1.765340 
# 
# From -- ./inp_files/377981.got.cif
#   From: 2010.06.25/outbox.cif.g09.slc.cpg/sg12_189_cif.got.tgz:377981.got - 2010.06.28 00:19:55.
