data_PCOD8109070
_publ_section_title
;
Structure prediction by ZEFSAII (Michael W. Deem and Ramdas Pophale) SiO2 
 PCOD8109070
Probable space group: C 2/M
;
_chemical_formula_sum "Si O2"
_cell_formula_units_Z 56
_cell_length_a 14.366075
_cell_length_b 14.399874
_cell_length_c 17.041325
_cell_angle_alpha 90.000000
_cell_angle_beta 130.034324
_cell_angle_gamma 90.000000
_cell_volume 2699.203973
_symmetry_space_group_name_H-M "C 2/M"
_symmetry_group_IT_number 12
_symmetry_cell_setting 'monoclinic'
loop_
_space_group_symop_operation_xyz
x,y,z
-x,y,-z
-x,-y,-z
x,-y,z
1/2+x,1/2+y,z
1/2-x,1/2+y,-z
1/2-x,1/2-y,-z
1/2+x,1/2-y,z
loop_
_atom_site_type_symbol
_atom_site_label
_atom_site_fract_x
_atom_site_fract_y
_atom_site_fract_z
Si Si1 0.942403 0.390225 0.763747
Si Si2 0.005176 0.900136 0.341728
Si Si3 0.786066 0.821892 0.452610
Si Si4 0.393247 0.232586 0.880533
Si Si5 0.375549 0.599024 0.755314
Si Si6 0.873988 0.662649 0.399778
Si Si7 0.630848 0.777437 0.767497
O O1 0.976553 0.500000 0.784648
O O2 0.834044 0.373452 0.643598
O O3 0.899136 0.357746 0.826993
O O4 0.058244 0.325494 0.800118
O O5 0.123503 0.896943 0.461355
O O6 0.028101 0.896559 0.261427
O O7 0.924560 0.810096 0.309697
O O8 0.941516 0.000000 0.326352
O O9 0.750000 0.750000 0.500000
O O10 0.855654 0.768423 0.420086
O O11 0.408345 0.321968 0.834272
O O12 0.268226 0.244637 0.863053
O O13 0.500000 0.224982 0.000000
O O14 0.383492 0.500000 0.803679
O O15 0.245966 0.607066 0.639212
O O16 0.869904 0.648781 0.303531
O O17 0.000000 0.619527 0.500000
#
# Coordination Sequence:
#
# PCOD8109070 Si02
#       7
#     8   8   8   8   8   8   8
#     4  12  25  44  68  98 135 176 218 268 327 394
#     4  11  21  36  62  92 128 173 215 254 312 387
#     4  12  18  38  61  90 136 179 212 254 318 384
#     4  11  25  47  73  93 127 166 216 285 345 389
#     4  10  21  39  61  91 127 166 212 262 322 390
#     4  11  19  33  59  88 130 176 211 261 310 381
#     4  11  22  42  65  92 130 168 217 271 326 385
#
# _framework density 20.746856999999999
#
# number of rings (size 3 to 8) (size 9 to 14) (size 15 to 20)
#    0.000    0.857    8.571    0.429    0.000    4.286 
#    0.000    0.714    0.000    0.000    0.000    0.000 
#    0.000    0.000    0.000    0.000    0.000    0.000 
#
# Total GULP energy -346870.118096 kJ/mol
# GULP energy per Si atom -12388.218503 kJ/mol
# Density = 2.069964 g / cm^3
# Si number density = 20.746857 Si / 1000 Ang^3
#
#
#
# Elastic Constant Matrix: (Units=GPa)
#
#
# Indices 1 2 3 4 5 6 
#
# 1 70.4535 18.6313 27.3911 0.0000 9.9617 0.0000
# 2 18.6313 111.6285 30.1840 0.0000 -1.6277 0.0000
# 3 27.3911 30.1840 114.2910 0.0000 17.2881 0.0000
# 4 0.0000 0.0000 0.0000 0.5448 0.0000 -4.0891
# 5 9.9617 -1.6277 17.2881 0.0000 26.6042 0.0000
# 6 0.0000 0.0000 0.0000 -4.0891 0.0000 8.3267
#
#
#
# Elastic Compliance Matrix: (Units=1/GPa)
#
#
# Indices 1 2 3 4 5 6 
#
# 1 0.016435 -0.002077 -0.002706 0.000000 -0.004522 0.000000
# 2 -0.002077 0.010061 -0.002628 0.000000 0.003101 0.000000
# 3 -0.002706 -0.002628 0.011049 0.000000 -0.006328 0.000000
# 4 0.000000 0.000000 0.000000 -0.683440 0.000000 -0.335621
# 5 -0.004522 0.003101 -0.006328 0.000000 0.043583 0.000000
# 6 0.000000 0.000000 0.000000 -0.335621 0.000000 -0.044720
#
#
# Mechanical properties :
#
#
# Convention : Reuss Voigt Hill
#
# Bulk Modulus (GPa) = 44.01093 49.86510 46.93802
# Shear Modulus (GPa) = -8.00467 21.77294 6.88413
#
# Velocity S-wave (km/s) = -1.96638 3.24305 1.82356
# Velocity P-wave (km/s) = 4.01296 6.17336 5.20645
#
# Compressibility (1/GPa) = 0.02272163
#
# Stress axis : x y z
#
# Youngs Moduli (GPa) = 60.84727 99.39456 90.50239
#
# Poissons Ratio (x) = 0.20647 0.24490
# Poissons Ratio (y) = 0.12640 0.23787
# Poissons Ratio (z) = 0.16466 0.26124
#
# Static dielectric constant tensor:
#      x y z
#    x 3.939660 0.000000 0.086490 
#    y 0.000000 3.924620 0.000000 
#    z 0.086490 0.000000 3.489260 
# 
# 
# High freq. dielectric constant tensor:
#      x y z
#    x 1.818110 0.000000 0.000170 
#    y 0.000000 1.805860 0.000000 
#    z 0.000170 0.000000 1.782690 
# 
# From -- ./inp_files/270412.got.cif
#   From: 2010.06.25/outbox.cif.g09.slc.cpg/sg12_136_cif.got.tgz:270412.got - 2010.06.28 00:19:55.
