data_PCOD8109146
_publ_section_title
;
Structure prediction by ZEFSAII (Michael W. Deem and Ramdas Pophale) SiO2 
 PCOD8109146
Probable space group: C 2/M
;
_chemical_formula_sum "Si O2"
_cell_formula_units_Z 40
_cell_length_a 17.735417
_cell_length_b 8.901161
_cell_length_c 13.559480
_cell_angle_alpha 90.000000
_cell_angle_beta 109.034129
_cell_angle_gamma 90.000000
_cell_volume 2023.540959
_symmetry_space_group_name_H-M "C 2/M"
_symmetry_group_IT_number 12
_symmetry_cell_setting 'monoclinic'
loop_
_space_group_symop_operation_xyz
x,y,z
-x,y,-z
-x,-y,-z
x,-y,z
1/2+x,1/2+y,z
1/2-x,1/2+y,-z
1/2-x,1/2-y,-z
1/2+x,1/2-y,z
loop_
_atom_site_type_symbol
_atom_site_label
_atom_site_fract_x
_atom_site_fract_y
_atom_site_fract_z
Si Si1 0.168531 0.823433 0.499504
Si Si2 0.864955 0.674812 0.308970
Si Si3 0.541146 0.828161 0.311257
Si Si4 0.574171 0.826786 0.098367
Si Si5 0.732867 0.323531 0.096688
O O1 0.250000 0.750000 0.500000
O O2 0.145350 0.771309 0.598000
O O3 0.098664 0.781433 0.394777
O O4 0.180571 0.000000 0.504446
O O5 0.854292 0.500000 0.330903
O O6 0.799976 0.729192 0.202314
O O7 0.950944 0.709218 0.300733
O O8 0.550637 0.796852 0.200357
O O9 0.562662 0.000000 0.347199
O O10 0.647819 0.723274 0.102179
O O11 0.597063 0.000000 0.088927
O O12 0.500000 0.778081 0.000000
O O13 0.735761 0.500000 0.083053
O O14 0.750000 0.250000 0.000000
#
# Coordination Sequence:
#
# PCOD8109146 Si02
#       5
#     8   8   8   8   8
#     4  12  25  40  60  87 119 155 197 244 293 347
#     4  10  22  41  63  88 119 155 195 239 291 350
#     4  10  21  39  63  88 118 156 194 238 293 349
#     4  10  21  39  62  88 119 156 198 241 289 347
#     4  11  23  39  61  89 120 155 196 242 291 346
#
# _framework density 19.767330000000001
#
# number of rings (size 3 to 8) (size 9 to 14) (size 15 to 20)
#    0.000    1.400    0.000    5.400    0.000   12.400 
#    0.000    2.000    0.000    0.000    0.000    0.000 
#    0.000    0.000    0.000    0.000    0.000    0.000 
#
# Total GULP energy -248134.475982 kJ/mol
# GULP energy per Si atom -12406.723799 kJ/mol
# Density = 1.972234 g / cm^3
# Si number density = 19.767330 Si / 1000 Ang^3
#
#
#
# Elastic Constant Matrix: (Units=GPa)
#
#
# Indices 1 2 3 4 5 6 
#
# 1 143.3363 48.5585 74.1970 0.0000 0.2843 0.0000
# 2 48.5585 82.1376 60.9467 0.0000 0.5879 0.0000
# 3 74.1970 60.9467 156.8010 0.0000 5.7640 0.0000
# 4 0.0000 0.0000 0.0000 27.4430 0.0000 1.4538
# 5 0.2843 0.5879 5.7640 0.0000 44.7587 0.0000
# 6 0.0000 0.0000 0.0000 1.4538 0.0000 38.0115
#
#
#
# Elastic Compliance Matrix: (Units=1/GPa)
#
#
# Indices 1 2 3 4 5 6 
#
# 1 0.009853 -0.003312 -0.003390 0.000000 0.000418 0.000000
# 2 -0.003312 0.018241 -0.005541 0.000000 0.000495 0.000000
# 3 -0.003390 -0.005541 0.010180 0.000000 -0.001217 0.000000
# 4 0.000000 0.000000 0.000000 0.036513 0.000000 -0.001396
# 5 0.000418 0.000495 -0.001217 0.000000 0.022490 0.000000
# 6 0.000000 0.000000 0.000000 -0.001396 0.000000 0.026361
#
#
# Mechanical properties :
#
#
# Convention : Reuss Voigt Hill
#
# Bulk Modulus (GPa) = 72.53187 83.29770 77.91478
# Shear Modulus (GPa) = 32.73978 35.28082 34.01030
#
# Velocity S-wave (km/s) = 4.07413 4.22928 4.15243
# Velocity P-wave (km/s) = 7.67488 8.12894 7.90517
#
# Compressibility (1/GPa) = 0.01378704
#
# Stress axis : x y z
#
# Youngs Moduli (GPa) = 101.49432 54.82282 98.23122
#
# Poissons Ratio (x) = 0.18159 0.33302
# Poissons Ratio (y) = 0.33618 0.54428
# Poissons Ratio (z) = 0.34408 0.30376
#
# Static dielectric constant tensor:
#      x y z
#    x 3.815960 0.000000 0.056560 
#    y 0.000000 3.595800 0.000000 
#    z 0.056560 0.000000 3.813030 
# 
# 
# High freq. dielectric constant tensor:
#      x y z
#    x 1.790310 0.000000 -0.000680 
#    y 0.000000 1.766140 0.000000 
#    z -0.000680 0.000000 1.791780 
# 
# From -- ./inp_files/151970.got.cif
#   From: 2010.06.25/outbox.cif.g09.slc.cpg/sg12_76_cif.got.tgz:151970.got - 2010.06.28 00:19:55.
