data_PCOD8109579
_publ_section_title
;
Structure prediction by ZEFSAII (Michael W. Deem and Ramdas Pophale) SiO2 
 PCOD8109579
Probable space group: C 2/M
;
_chemical_formula_sum "Si O2"
_cell_formula_units_Z 64
_cell_length_a 26.367553
_cell_length_b 16.344468
_cell_length_c 11.572245
_cell_angle_alpha 90.000000
_cell_angle_beta 37.122844
_cell_angle_gamma 90.000000
_cell_volume 3009.914623
_symmetry_space_group_name_H-M "C 2/M"
_symmetry_group_IT_number 12
_symmetry_cell_setting 'monoclinic'
loop_
_space_group_symop_operation_xyz
x,y,z
-x,y,-z
-x,-y,-z
x,-y,z
1/2+x,1/2+y,z
1/2-x,1/2+y,-z
1/2-x,1/2-y,-z
1/2+x,1/2-y,z
loop_
_atom_site_type_symbol
_atom_site_label
_atom_site_fract_x
_atom_site_fract_y
_atom_site_fract_z
Si Si1 0.663824 0.590417 0.581126
Si Si2 0.526006 0.239740 0.576134
Si Si3 0.859428 0.230134 0.009983
Si Si4 0.131263 0.408893 0.385518
Si Si5 0.174415 0.408997 0.566530
Si Si6 0.404243 0.254043 0.186073
Si Si7 0.200749 0.906848 0.034861
Si Si8 0.805774 0.164744 0.707634
O O1 0.619178 0.500000 0.660174
O O2 0.731292 0.589985 0.559861
O O3 0.602572 0.666916 0.717667
O O4 0.707669 0.604684 0.376755
O O5 0.500000 0.279083 0.500000
O O6 0.449688 0.235055 0.805613
O O7 0.550052 0.145680 0.512199
O O8 0.610171 0.282813 0.471719
O O9 0.858112 0.224073 0.150323
O O10 0.854628 0.142771 0.956539
O O11 0.778282 0.282361 0.118375
O O12 0.096815 0.500000 0.437703
O O13 0.176586 0.393661 0.426080
O O14 0.200430 0.389021 0.162318
O O15 0.133776 0.500000 0.667617
O O16 0.130278 0.331343 0.703678
O O17 0.500000 0.234229 0.000000
O O18 0.178268 0.000000 0.049197
O O19 0.176686 0.886627 0.209462
#
# Coordination Sequence:
#
# PCOD8109579 Si02
#       8
#     8   8   8   8   8   8   8   8
#     4  11  24  42  68  97 130 176 222 270 327 394
#     4  12  24  42  66  97 133 172 222 269 332 400
#     4  12  24  42  70 100 129 175 222 268 327 397
#     4  10  21  39  65  97 133 170 214 273 332 392
#     4  10  21  41  67  97 131 172 220 268 328 398
#     4  12  25  42  66  99 137 174 219 275 330 392
#     4  11  23  41  67  99 129 170 222 274 331 387
#     4  12  23  45  68  93 135 174 221 271 329 395
#
# _framework density 21.263062000000001
#
# number of rings (size 3 to 8) (size 9 to 14) (size 15 to 20)
#    0.000    0.750    3.750    4.875    0.000    2.250 
#    0.000    5.000    0.000    0.000    0.000    0.000 
#    0.000    0.000    0.000    0.000    0.000    0.000 
#
# Total GULP energy -396674.622346 kJ/mol
# GULP energy per Si atom -12396.081948 kJ/mol
# Density = 2.121467 g / cm^3
# Si number density = 21.263062 Si / 1000 Ang^3
#
#
#
# Elastic Constant Matrix: (Units=GPa)
#
#
# Indices 1 2 3 4 5 6 
#
# 1 60.5748 17.3257 14.5518 0.0000 6.3589 0.0000
# 2 17.3257 112.4396 35.9335 0.0000 4.7407 0.0000
# 3 14.5518 35.9335 87.0093 0.0000 0.9305 0.0000
# 4 0.0000 0.0000 0.0000 17.6666 0.0000 1.0944
# 5 6.3589 4.7407 0.9305 0.0000 41.6751 0.0000
# 6 0.0000 0.0000 0.0000 1.0944 0.0000 28.0177
#
#
#
# Elastic Compliance Matrix: (Units=1/GPa)
#
#
# Indices 1 2 3 4 5 6 
#
# 1 0.017842 -0.001959 -0.002149 0.000000 -0.002452 0.000000
# 2 -0.001959 0.010509 -0.004004 0.000000 -0.000807 0.000000
# 3 -0.002149 -0.004004 0.013501 0.000000 0.000482 0.000000
# 4 0.000000 0.000000 0.000000 0.056741 0.000000 -0.002216
# 5 -0.002452 -0.000807 0.000482 0.000000 0.024450 0.000000
# 6 0.000000 0.000000 0.000000 -0.002216 0.000000 0.035778
#
#
# Mechanical properties :
#
#
# Convention : Reuss Voigt Hill
#
# Bulk Modulus (GPa) = 39.01860 43.96062 41.48961
# Shear Modulus (GPa) = 27.23482 30.28607 28.76045
#
# Velocity S-wave (km/s) = 3.58278 3.77815 3.68176
# Velocity P-wave (km/s) = 5.95864 6.30493 6.13423
#
# Compressibility (1/GPa) = 0.02562880
#
# Stress axis : x y z
#
# Youngs Moduli (GPa) = 56.04613 95.15539 74.07007
#
# Poissons Ratio (x) = 0.18644 0.15915
# Poissons Ratio (y) = 0.10981 0.29656
# Poissons Ratio (z) = 0.12042 0.38098
#
# Static dielectric constant tensor:
#      x y z
#    x 4.093330 0.000000 0.427220 
#    y 0.000000 4.100390 0.000000 
#    z 0.427220 0.000000 3.976380 
# 
# 
# High freq. dielectric constant tensor:
#      x y z
#    x 1.840120 0.000000 0.015410 
#    y 0.000000 1.842170 0.000000 
#    z 0.015410 0.000000 1.825640 
# 
# From -- ./inp_files/183764.got.cif
#   From: 2010.06.25/outbox.cif.g09.slc.cpg/sg12_92_cif.got.tgz:183764.got - 2010.06.28 00:19:55.
