data_PCOD8109333
_publ_section_title
;
Structure prediction by ZEFSAII (Michael W. Deem and Ramdas Pophale) SiO2 
 PCOD8109333
Probable space group: C 2/M
;
_chemical_formula_sum "Si O2"
_cell_formula_units_Z 56
_cell_length_a 13.530033
_cell_length_b 21.397278
_cell_length_c 15.473868
_cell_angle_alpha 90.000000
_cell_angle_beta 146.259285
_cell_angle_gamma 90.000000
_cell_volume 2488.226397
_symmetry_space_group_name_H-M "C 2/M"
_symmetry_group_IT_number 12
_symmetry_cell_setting 'monoclinic'
loop_
_space_group_symop_operation_xyz
x,y,z
-x,y,-z
-x,-y,-z
x,-y,z
1/2+x,1/2+y,z
1/2-x,1/2+y,-z
1/2-x,1/2-y,-z
1/2+x,1/2-y,z
loop_
_atom_site_type_symbol
_atom_site_label
_atom_site_fract_x
_atom_site_fract_y
_atom_site_fract_z
Si Si1 0.204563 0.662863 0.162016
Si Si2 0.598362 0.254493 0.819027
Si Si3 0.517410 0.122770 0.316830
Si Si4 0.184646 0.858317 0.339908
Si Si5 0.196051 0.930073 0.179484
Si Si6 0.219208 0.071356 0.626093
Si Si7 0.443462 0.431745 0.279589
O O1 0.324138 0.723040 0.219354
O O2 0.245268 0.630419 0.283941
O O3 0.269324 0.611072 0.139540
O O4 0.000000 0.679964 0.000000
O O5 0.526991 0.185075 0.766322
O O6 0.432872 0.296430 0.731284
O O7 0.750000 0.250000 0.000000
O O8 0.621479 0.147206 0.477310
O O9 0.339548 0.084767 0.210062
O O10 0.636664 0.077370 0.345083
O O11 0.213014 0.874949 0.261269
O O12 0.089033 0.917411 0.314086
O O13 0.234071 0.000000 0.243787
O O14 0.000000 0.926864 0.000000
O O15 0.023914 0.076985 0.436735
O O16 0.239516 0.000000 0.680102
O O17 0.371810 0.500000 0.211575
#
# Coordination Sequence:
#
# PCOD8109333 Si02
#       7
#     8   8   8   8   8   8   8
#     4  11  23  37  57  88 120 159 202 243 294 357
#     4  11  24  43  63  87 125 167 208 255 310 371
#     4  11  23  41  65  92 122 162 211 258 310 374
#     4  10  22  41  65  91 120 160 212 264 311 368
#     4  11  24  41  63  93 127 164 207 259 322 382
#     4  10  21  39  63  91 124 156 192 246 308 368
#     4   9  19  37  61  89 122 158 194 243 308 369
#
# _framework density 22.505991000000002
#
# number of rings (size 3 to 8) (size 9 to 14) (size 15 to 20)
#    0.000    1.571    0.000    4.286    0.000    8.571 
#    0.000    5.714    0.000    0.000    0.000    0.000 
#    0.000    0.000    0.000    0.000    0.000    0.000 
#
# Total GULP energy -346952.116361 kJ/mol
# GULP energy per Si atom -12391.147013 kJ/mol
# Density = 2.245477 g / cm^3
# Si number density = 22.505991 Si / 1000 Ang^3
#
#
#
# Elastic Constant Matrix: (Units=GPa)
#
#
# Indices 1 2 3 4 5 6 
#
# 1 58.7300 11.2276 14.9689 0.0002 2.5835 0.0000
# 2 11.2276 83.9626 30.5268 0.0000 4.3660 0.0000
# 3 14.9689 30.5268 74.3552 0.0005 17.0000 0.0001
# 4 0.0002 0.0000 0.0005 26.2642 0.0002 -7.6502
# 5 2.5835 4.3660 17.0000 0.0002 38.4528 0.0000
# 6 0.0000 0.0000 0.0001 -7.6502 0.0000 29.6864
#
#
#
# Elastic Compliance Matrix: (Units=1/GPa)
#
#
# Indices 1 2 3 4 5 6 
#
# 1 0.018069 -0.001273 -0.003193 0.000000 0.000342 0.000000
# 2 -0.001273 0.014128 -0.005781 0.000000 0.001037 0.000000
# 3 -0.003193 -0.005781 0.018095 0.000000 -0.007129 0.000000
# 4 0.000000 0.000000 0.000000 0.041165 0.000000 0.010608
# 5 0.000342 0.001037 -0.007129 0.000000 0.029017 0.000000
# 6 0.000000 0.000000 0.000000 0.010608 0.000000 0.036419
#
#
# Mechanical properties :
#
#
# Convention : Reuss Voigt Hill
#
# Bulk Modulus (GPa) = 33.55971 36.72159 35.14065
# Shear Modulus (GPa) = 26.69215 29.56898 28.13056
#
# Velocity S-wave (km/s) = 3.44757 3.62861 3.53925
# Velocity P-wave (km/s) = 5.54901 5.82302 5.68766
#
# Compressibility (1/GPa) = 0.02979764
#
# Stress axis : x y z
#
# Youngs Moduli (GPa) = 55.34261 70.77991 55.26313
#
# Poissons Ratio (x) = 0.09011 0.17647
# Poissons Ratio (y) = 0.07045 0.31949
# Poissons Ratio (z) = 0.17672 0.40920
#
# Static dielectric constant tensor:
#      x y z
#    x 4.246520 0.000000 0.211580 
#    y 0.000000 4.162500 0.000000 
#    z 0.211580 0.000000 3.815760 
# 
# 
# High freq. dielectric constant tensor:
#      x y z
#    x 1.902530 0.000000 0.020200 
#    y 0.000000 1.888990 0.000000 
#    z 0.020200 0.000000 1.877240 
# 
# From -- ./inp_files/272424.got.cif
#   From: 2010.06.25/outbox.cif.g09.slc.cpg/sg12_137_cif.got.tgz:272424.got - 2010.06.28 00:19:55.
