data_PCOD8109396
_publ_section_title
;
Structure prediction by ZEFSAII (Michael W. Deem and Ramdas Pophale) SiO2 
 PCOD8109396
Probable space group: C 2/M
;
_chemical_formula_sum "Si O2"
_cell_formula_units_Z 56
_cell_length_a 33.868902
_cell_length_b 14.899446
_cell_length_c 12.320507
_cell_angle_alpha 90.000000
_cell_angle_beta 26.163822
_cell_angle_gamma 90.000000
_cell_volume 2741.438709
_symmetry_space_group_name_H-M "C 2/M"
_symmetry_group_IT_number 12
_symmetry_cell_setting 'monoclinic'
loop_
_space_group_symop_operation_xyz
x,y,z
-x,y,-z
-x,-y,-z
x,-y,z
1/2+x,1/2+y,z
1/2-x,1/2+y,-z
1/2-x,1/2-y,-z
1/2+x,1/2-y,z
loop_
_atom_site_type_symbol
_atom_site_label
_atom_site_fract_x
_atom_site_fract_y
_atom_site_fract_z
Si Si1 0.130719 0.601371 0.934729
Si Si2 0.403798 0.900124 0.740459
Si Si3 0.828770 0.898562 0.371977
Si Si4 0.734633 0.646908 0.048639
Si Si5 0.094883 0.101896 0.210325
Si Si6 0.396957 0.397099 0.439994
Si Si7 0.572875 0.293269 0.053584
O O1 0.089733 0.500000 0.015880
O O2 0.222454 0.609860 0.643004
O O3 0.148888 0.617504 0.017326
O O4 0.067654 0.684603 0.054071
O O5 0.500000 0.844910 0.500000
O O6 0.436392 0.000000 0.652707
O O7 0.337573 0.886030 0.801768
O O8 0.873914 0.872491 0.374012
O O9 0.855821 0.000000 0.272889
O O10 0.862855 0.830152 0.198375
O O11 0.677949 0.608637 0.088353
O O12 0.688227 0.617852 0.274493
O O13 0.750000 0.750000 0.000000
O O14 0.112866 0.173061 0.070079
O O15 0.000000 0.125005 0.500000
O O16 0.092217 0.000000 0.171548
O O17 0.429405 0.500000 0.369884
O O18 0.473516 0.330550 0.290148
#
# Coordination Sequence:
#
# PCOD8109396 Si02
#       7
#     8   8   8   8   8   8   8
#     4  10  22  40  61  88 124 164 207 264 319 369
#     4  10  21  39  64  86 115 162 217 262 302 361
#     4  10  21  40  66  93 121 161 215 268 316 366
#     4  12  24  37  60  92 130 168 208 253 316 385
#     4  11  23  39  61  94 137 173 200 251 330 393
#     4  11  22  40  66  93 127 164 209 270 321 364
#     4  12  23  37  64  98 127 163 217 257 314 393
#
# _framework density 20.427230000000002
#
# number of rings (size 3 to 8) (size 9 to 14) (size 15 to 20)
#    0.000    1.143    2.857    4.286    2.000    2.286 
#    0.000    0.000    0.000    1.714    0.000    0.000 
#    0.000    0.000    0.000    0.000    0.000    0.000 
#
# Total GULP energy -346956.664852 kJ/mol
# GULP energy per Si atom -12391.309459 kJ/mol
# Density = 2.038074 g / cm^3
# Si number density = 20.427230 Si / 1000 Ang^3
#
#
#
# Elastic Constant Matrix: (Units=GPa)
#
#
# Indices 1 2 3 4 5 6 
#
# 1 103.0891 37.5119 52.5421 0.0000 2.5566 0.0000
# 2 37.5119 122.0192 27.8929 0.0000 16.0428 0.0000
# 3 52.5421 27.8929 89.9322 0.0000 -11.1364 0.0000
# 4 0.0000 0.0000 0.0000 27.3096 0.0000 -4.3717
# 5 2.5566 16.0428 -11.1364 0.0000 25.4397 0.0000
# 6 0.0000 0.0000 0.0000 -4.3717 0.0000 10.7431
#
#
#
# Elastic Compliance Matrix: (Units=1/GPa)
#
#
# Indices 1 2 3 4 5 6 
#
# 1 0.014924 -0.002122 -0.008544 0.000000 -0.003902 0.000000
# 2 -0.002122 0.010551 -0.002992 0.000000 -0.007750 0.000000
# 3 -0.008544 -0.002992 0.018376 0.000000 0.010790 0.000000
# 4 0.000000 0.000000 0.000000 0.039169 0.000000 0.015939
# 5 -0.003902 -0.007750 0.010790 0.000000 0.049312 0.000000
# 6 0.000000 0.000000 0.000000 0.015939 0.000000 0.099570
#
#
# Mechanical properties :
#
#
# Convention : Reuss Voigt Hill
#
# Bulk Modulus (GPa) = 60.48404 61.21493 60.84949
# Shear Modulus (GPa) = 18.88724 25.83804 22.36264
#
# Velocity S-wave (km/s) = 3.04404 3.56038 3.31228
# Velocity P-wave (km/s) = 6.48296 6.85085 6.66944
#
# Compressibility (1/GPa) = 0.01653329
#
# Stress axis : x y z
#
# Youngs Moduli (GPa) = 67.00591 94.77969 54.41970
#
# Poissons Ratio (x) = 0.20110 0.46498
# Poissons Ratio (y) = 0.14217 0.16285
# Poissons Ratio (z) = 0.57252 0.28362
#
# Static dielectric constant tensor:
#      x y z
#    x 3.449430 0.000000 0.179110 
#    y 0.000000 3.873240 0.000000 
#    z 0.179110 0.000000 3.518700 
# 
# 
# High freq. dielectric constant tensor:
#      x y z
#    x 1.784010 0.000000 -0.000930 
#    y 0.000000 1.805170 0.000000 
#    z -0.000930 0.000000 1.802500 
# 
# From -- ./inp_files/189595.got.cif
#   From: 2010.06.25/outbox.cif.g09.slc.cpg/sg12_95_cif.got.tgz:189595.got - 2010.06.28 00:19:55.
