data_PCOD8109998
_publ_section_title
;
Structure prediction by ZEFSAII (Michael W. Deem and Ramdas Pophale) SiO2 
 PCOD8109998
Probable space group: C 2/M
;
_chemical_formula_sum "Si O2"
_cell_formula_units_Z 56
_cell_length_a 13.131420
_cell_length_b 21.918477
_cell_length_c 9.867962
_cell_angle_alpha 90.000000
_cell_angle_beta 115.232354
_cell_angle_gamma 90.000000
_cell_volume 2569.210131
_symmetry_space_group_name_H-M "C 2/M"
_symmetry_group_IT_number 12
_symmetry_cell_setting 'monoclinic'
loop_
_space_group_symop_operation_xyz
x,y,z
-x,y,-z
-x,-y,-z
x,-y,z
1/2+x,1/2+y,z
1/2-x,1/2+y,-z
1/2-x,1/2-y,-z
1/2+x,1/2-y,z
loop_
_atom_site_type_symbol
_atom_site_label
_atom_site_fract_x
_atom_site_fract_y
_atom_site_fract_z
Si Si1 0.586036 0.380827 0.365924
Si Si2 0.337450 0.743554 0.666356
Si Si3 0.622924 0.428686 0.107072
Si Si4 0.839627 0.882733 0.295530
Si Si5 0.693769 0.247461 0.823968
Si Si6 0.315252 0.929361 0.014557
Si Si7 0.511539 0.826718 0.855286
O O1 0.573163 0.308319 0.326918
O O2 0.648788 0.415586 0.279083
O O3 0.460013 0.407746 0.309910
O O4 0.661629 0.392298 0.542920
O O5 0.250000 0.750000 0.500000
O O6 0.277863 0.715019 0.766093
O O7 0.387516 0.812342 0.723772
O O8 0.620822 0.500000 0.075815
O O9 0.723403 0.402188 0.068883
O O10 0.500000 0.400047 0.000000
O O11 0.831673 0.812238 0.256112
O O12 0.736064 0.918665 0.165250
O O13 0.581666 0.209782 0.783382
O O14 0.750000 0.250000 0.000000
O O15 0.435593 0.894579 0.101649
O O16 0.342938 0.000000 0.053174
O O17 0.500000 0.798229 0.000000
#
# Coordination Sequence:
#
# PCOD8109998 Si02
#       7
#     8   8   8   8   8   8   8
#     4  11  23  36  62  95 137 175 215 278 346 408
#     4  12  25  41  65  99 138 178 218 270 344 415
#     4  10  21  40  65  96 132 177 232 283 336 397
#     4  11  22  38  58  98 138 171 221 276 338 410
#     4  12  22  40  65  97 137 172 222 273 332 409
#     4  11  24  44  70  97 130 180 240 287 332 398
#     4  12  25  42  69  98 137 178 224 280 340 402
#
# _framework density 21.796582999999998
#
# number of rings (size 3 to 8) (size 9 to 14) (size 15 to 20)
#    0.000    0.714    7.143    0.857    0.000    2.000 
#    0.000    1.429    0.000    0.000    0.000    3.000 
#    0.000    0.000    0.000    0.000    0.000    0.000 
#
# Total GULP energy -346920.475535 kJ/mol
# GULP energy per Si atom -12390.016983 kJ/mol
# Density = 2.174697 g / cm^3
# Si number density = 21.796583 Si / 1000 Ang^3
#
#
#
# Elastic Constant Matrix: (Units=GPa)
#
#
# Indices 1 2 3 4 5 6 
#
# 1 98.0104 32.0540 52.6494 0.0000 -10.2716 0.0000
# 2 32.0540 58.9207 29.8064 0.0000 6.8974 0.0000
# 3 52.6494 29.8064 152.0602 0.0000 -8.9707 0.0000
# 4 0.0000 0.0000 0.0000 28.9486 0.0000 1.7267
# 5 -10.2716 6.8974 -8.9707 0.0000 37.9617 0.0000
# 6 0.0000 0.0000 0.0000 1.7267 0.0000 33.6738
#
#
#
# Elastic Compliance Matrix: (Units=1/GPa)
#
#
# Indices 1 2 3 4 5 6 
#
# 1 0.014772 -0.006765 -0.003529 0.000000 0.004392 0.000000
# 2 -0.006765 0.022676 -0.002488 0.000000 -0.006539 0.000000
# 3 -0.003529 -0.002488 0.008373 0.000000 0.001476 0.000000
# 4 0.000000 0.000000 0.000000 0.034650 0.000000 -0.001777
# 5 0.004392 -0.006539 0.001476 0.000000 0.029067 0.000000
# 6 0.000000 0.000000 0.000000 -0.001777 0.000000 0.029788
#
#
# Mechanical properties :
#
#
# Convention : Reuss Voigt Hill
#
# Bulk Modulus (GPa) = 49.36821 59.77898 54.57359
# Shear Modulus (GPa) = 29.13014 33.08227 31.10621
#
# Velocity S-wave (km/s) = 3.65972 3.90009 3.78181
# Velocity P-wave (km/s) = 6.36842 6.91132 6.64541
#
# Compressibility (1/GPa) = 0.02025595
#
# Stress axis : x y z
#
# Youngs Moduli (GPa) = 67.69745 44.09878 119.42831
#
# Poissons Ratio (x) = 0.29832 0.42151
# Poissons Ratio (y) = 0.45795 0.29719
# Poissons Ratio (z) = 0.23893 0.10974
#
# Static dielectric constant tensor:
#      x y z
#    x 4.278190 0.000000 -0.013900 
#    y 0.000000 3.772390 0.000000 
#    z -0.013900 0.000000 3.962740 
# 
# 
# High freq. dielectric constant tensor:
#      x y z
#    x 1.867080 0.000000 -0.015890 
#    y 0.000000 1.829190 0.000000 
#    z -0.015890 0.000000 1.856230 
# 
# From -- ./inp_files/65969.got.cif
#   From: 2010.06.25/outbox.cif.g09.slc.cpg/sg12_33_cif.got.tgz:65969.got - 2010.06.28 00:19:55.
