data_PCOD8109968
_publ_section_title
;
Structure prediction by ZEFSAII (Michael W. Deem and Ramdas Pophale) SiO2 
 PCOD8109968
Probable space group: C 2/M
;
_chemical_formula_sum "Si O2"
_cell_formula_units_Z 64
_cell_length_a 11.760304
_cell_length_b 14.922979
_cell_length_c 27.735355
_cell_angle_alpha 90.000000
_cell_angle_beta 37.363928
_cell_angle_gamma 90.000000
_cell_volume 2953.979413
_symmetry_space_group_name_H-M "C 2/M"
_symmetry_group_IT_number 12
_symmetry_cell_setting 'monoclinic'
loop_
_space_group_symop_operation_xyz
x,y,z
-x,y,-z
-x,-y,-z
x,-y,z
1/2+x,1/2+y,z
1/2-x,1/2+y,-z
1/2-x,1/2-y,-z
1/2+x,1/2-y,z
loop_
_atom_site_type_symbol
_atom_site_label
_atom_site_fract_x
_atom_site_fract_y
_atom_site_fract_z
Si Si1 0.988738 0.668191 0.354155
Si Si2 0.633906 0.393296 0.047282
Si Si3 0.508747 0.363369 0.358410
Si Si4 0.330248 0.599349 0.793909
Si Si5 0.389094 0.600276 0.221525
Si Si6 0.901468 0.401871 0.486704
Si Si7 0.500267 0.211828 0.944144
Si Si8 0.150350 0.102902 0.411417
O O1 0.944814 0.653878 0.424847
O O2 0.860458 0.609628 0.361739
O O3 0.938018 0.769873 0.360466
O O4 0.209120 0.658961 0.268996
O O5 0.627673 0.500000 0.031921
O O6 0.557442 0.386298 0.127108
O O7 0.512752 0.320740 0.057151
O O8 0.839650 0.350256 0.974457
O O9 0.635884 0.409053 0.274720
O O10 0.320270 0.417489 0.432621
O O11 0.631618 0.349792 0.365670
O O12 0.261635 0.500000 0.834612
O O13 0.525824 0.623528 0.754818
O O14 0.186812 0.677978 0.855032
O O15 0.310994 0.500000 0.246531
O O16 0.993411 0.500000 0.448820
O O17 0.000000 0.355523 0.500000
O O18 0.500000 0.188153 0.000000
O O19 0.000000 0.143888 0.500000
O O20 0.101365 0.000000 0.418546
#
# Coordination Sequence:
#
# PCOD8109968 Si02
#       8
#     8   8   8   8   8   8   8   8
#     4  12  25  39  63  91 127 169 217 268 328 396
#     4  10  22  41  66 100 138 174 216 269 327 393
#     4  12  26  40  62  92 131 165 217 275 327 387
#     4  11  23  41  68  97 131 173 221 281 334 387
#     4  10  21  40  65  92 127 169 217 269 328 392
#     4  11  23  40  64  89 122 164 214 271 329 394
#     4  11  22  41  69 101 133 174 223 267 324 399
#     4  11  24  43  65  86 121 171 217 263 323 396
#
# _framework density 21.665690000000001
#
# number of rings (size 3 to 8) (size 9 to 14) (size 15 to 20)
#    0.000    1.000    2.500    4.500    3.500    2.750 
#    0.000    0.000    0.000    3.000    0.000    0.000 
#    0.000    0.000    0.000    0.000    0.000    0.000 
#
# Total GULP energy -396654.637433 kJ/mol
# GULP energy per Si atom -12395.457420 kJ/mol
# Density = 2.161638 g / cm^3
# Si number density = 21.665690 Si / 1000 Ang^3
#
#
#
# Elastic Constant Matrix: (Units=GPa)
#
#
# Indices 1 2 3 4 5 6 
#
# 1 119.5354 14.9120 33.1937 -0.0001 -3.1512 0.0001
# 2 14.9120 111.1019 19.6997 0.0001 -12.5442 -0.0005
# 3 33.1937 19.6997 88.1032 0.0006 -1.2733 -0.0016
# 4 -0.0001 0.0001 0.0006 32.8783 -0.0004 -7.0913
# 5 -3.1512 -12.5442 -1.2733 -0.0004 32.2897 0.0005
# 6 0.0001 -0.0005 -0.0016 -7.0913 0.0005 35.0707
#
#
#
# Elastic Compliance Matrix: (Units=1/GPa)
#
#
# Indices 1 2 3 4 5 6 
#
# 1 0.009399 -0.000596 -0.003400 0.000000 0.000551 0.000000
# 2 -0.000596 0.009838 -0.001922 0.000000 0.003688 0.000000
# 3 -0.003400 -0.001922 0.013053 0.000000 -0.000564 0.000001
# 4 0.000000 0.000000 0.000000 0.031802 0.000000 0.006430
# 5 0.000551 0.003688 -0.000564 0.000000 0.032434 0.000000
# 6 0.000000 0.000000 0.000001 0.006430 0.000000 0.029814
#
#
# Mechanical properties :
#
#
# Convention : Reuss Voigt Hill
#
# Bulk Modulus (GPa) = 48.89101 50.48348 49.68725
# Shear Modulus (GPa) = 34.48436 36.77674 35.63055
#
# Velocity S-wave (km/s) = 3.99389 4.12450 4.05972
# Velocity P-wave (km/s) = 6.62444 6.78481 6.70511
#
# Compressibility (1/GPa) = 0.02045366
#
# Stress axis : x y z
#
# Youngs Moduli (GPa) = 106.39729 101.64738 76.61216
#
# Poissons Ratio (x) = 0.06062 0.26046
# Poissons Ratio (y) = 0.06346 0.14723
# Poissons Ratio (z) = 0.36172 0.19534
#
# Static dielectric constant tensor:
#      x y z
#    x 3.820450 0.000000 0.032960 
#    y 0.000000 3.977500 0.000000 
#    z 0.032960 0.000000 3.720400 
# 
# 
# High freq. dielectric constant tensor:
#      x y z
#    x 1.847000 0.000000 0.000310 
#    y 0.000000 1.859470 0.000000 
#    z 0.000310 0.000000 1.841040 
# 
# From -- ./inp_files/358413.got.cif
#   From: 2010.06.25/outbox.cif.g09.slc.cpg/sg12_180_cif.got.tgz:358413.got - 2010.06.28 00:19:55.
