data_PCOD8109192
_publ_section_title
;
Structure prediction by ZEFSAII (Michael W. Deem and Ramdas Pophale) SiO2 
 PCOD8109192
Probable space group: C 2/M
;
_chemical_formula_sum "Si O2"
_cell_formula_units_Z 48
_cell_length_a 13.673351
_cell_length_b 13.316528
_cell_length_c 11.271093
_cell_angle_alpha 90.000000
_cell_angle_beta 95.820473
_cell_angle_gamma 90.000000
_cell_volume 2041.677869
_symmetry_space_group_name_H-M "C 2/M"
_symmetry_group_IT_number 12
_symmetry_cell_setting 'monoclinic'
loop_
_space_group_symop_operation_xyz
x,y,z
-x,y,-z
-x,-y,-z
x,-y,z
1/2+x,1/2+y,z
1/2-x,1/2+y,-z
1/2-x,1/2-y,-z
1/2+x,1/2-y,z
loop_
_atom_site_type_symbol
_atom_site_label
_atom_site_fract_x
_atom_site_fract_y
_atom_site_fract_z
Si Si1 0.902391 0.770310 0.930040
Si Si2 0.400249 0.887795 0.370452
Si Si3 0.956185 0.225069 0.675835
Si Si4 0.351490 0.386130 0.260261
Si Si5 0.806762 0.314922 0.127353
Si Si6 0.210473 0.114421 0.484315
O O1 0.926109 0.731645 0.800967
O O2 0.807584 0.845020 0.909235
O O3 0.870423 0.677754 0.013400
O O4 0.000000 0.822804 0.000000
O O5 0.494309 0.816010 0.391171
O O6 0.352617 0.884470 0.233192
O O7 0.319095 0.852849 0.455985
O O8 0.436845 0.000000 0.400060
O O9 0.864966 0.186316 0.590942
O O10 0.033277 0.134055 0.700881
O O11 0.339019 0.500000 0.210282
O O12 0.309454 0.304132 0.163998
O O13 0.292571 0.371923 0.375547
O O14 0.188500 0.000000 0.443649
#
# Coordination Sequence:
#
# PCOD8109192 Si02
#       6
#     8   8   8   8   8   8
#     4  11  20  40  62  86 122 164 201 257 305 364
#     4  10  21  39  62  90 123 164 209 250 303 369
#     4  11  21  37  64  91 122 162 206 254 308 363
#     4  10  21  39  62  93 124 155 203 257 307 366
#     4  10  22  39  64  84 121 164 206 248 312 367
#     4  10  21  40  65  92 126 163 203 254 311 369
#
# _framework density 23.510076000000002
#
# number of rings (size 3 to 8) (size 9 to 14) (size 15 to 20)
#    0.000    1.667    5.000    1.000    0.000    4.000 
#    3.000    8.333    0.000    8.000    0.000    0.000 
#    0.000    0.000    0.000    0.000    0.000    0.000 
#
# Total GULP energy -297477.523254 kJ/mol
# GULP energy per Si atom -12394.896802 kJ/mol
# Density = 2.345657 g / cm^3
# Si number density = 23.510076 Si / 1000 Ang^3
#
#
#
# Elastic Constant Matrix: (Units=GPa)
#
#
# Indices 1 2 3 4 5 6 
#
# 1 128.1924 59.1525 42.8721 0.0000 -15.4656 0.0000
# 2 59.1525 96.2883 11.8331 0.0000 -2.6000 0.0000
# 3 42.8721 11.8331 109.0833 0.0000 -32.0383 0.0000
# 4 0.0000 0.0000 0.0000 15.3746 0.0000 -9.0377
# 5 -15.4656 -2.6000 -32.0383 0.0000 48.2701 0.0000
# 6 0.0000 0.0000 0.0000 -9.0377 0.0000 12.7093
#
#
#
# Elastic Compliance Matrix: (Units=1/GPa)
#
#
# Indices 1 2 3 4 5 6 
#
# 1 0.012534 -0.007200 -0.003825 0.000000 0.001089 0.000000
# 2 -0.007200 0.014664 0.000986 0.000000 -0.000863 0.000000
# 3 -0.003825 0.000986 0.012694 0.000000 0.007253 0.000000
# 4 0.000000 0.000000 0.000000 0.111758 0.000000 0.079472
# 5 0.001089 -0.000863 0.007253 0.000000 0.025833 0.000000
# 6 0.000000 0.000000 0.000000 0.079472 0.000000 0.135196
#
#
# Mechanical properties :
#
#
# Convention : Reuss Voigt Hill
#
# Bulk Modulus (GPa) = 50.47277 62.36438 56.41857
# Shear Modulus (GPa) = 14.73342 29.91788 22.32565
#
# Velocity S-wave (km/s) = 2.50608 3.57116 3.08493
# Velocity P-wave (km/s) = 5.46709 6.60216 6.06125
#
# Compressibility (1/GPa) = 0.01981266
#
# Stress axis : x y z
#
# Youngs Moduli (GPa) = 79.78290 68.19190 78.77765
#
# Poissons Ratio (x) = 0.49102 0.30134
# Poissons Ratio (y) = 0.57448 -0.07766
# Poissons Ratio (z) = 0.30518 -0.06722
#
# Static dielectric constant tensor:
#      x y z
#    x 4.460740 0.000000 -0.258880 
#    y 0.000000 3.863790 0.000000 
#    z -0.258880 0.000000 4.507310 
# 
# 
# High freq. dielectric constant tensor:
#      x y z
#    x 1.946620 0.000000 -0.006540 
#    y 0.000000 1.882220 0.000000 
#    z -0.006540 0.000000 1.954750 
# 
# From -- ./inp_files/142859.got.cif
#   From: 2010.06.25/outbox.cif.g09.slc.cpg/sg12_72_cif.got.tgz:142859.got - 2010.06.28 00:19:55.
