data_PCOD8109465
_publ_section_title
;
Structure prediction by ZEFSAII (Michael W. Deem and Ramdas Pophale) SiO2 
 PCOD8109465
Probable space group: C 2/M
;
_chemical_formula_sum "Si O2"
_cell_formula_units_Z 40
_cell_length_a 21.076684
_cell_length_b 11.485616
_cell_length_c 18.836024
_cell_angle_alpha 90.000000
_cell_angle_beta 155.640055
_cell_angle_gamma 90.000000
_cell_volume 1880.770192
_symmetry_space_group_name_H-M "C 2/M"
_symmetry_group_IT_number 12
_symmetry_cell_setting 'monoclinic'
loop_
_space_group_symop_operation_xyz
x,y,z
-x,y,-z
-x,-y,-z
x,-y,z
1/2+x,1/2+y,z
1/2-x,1/2+y,-z
1/2-x,1/2-y,-z
1/2+x,1/2-y,z
loop_
_atom_site_type_symbol
_atom_site_label
_atom_site_fract_x
_atom_site_fract_y
_atom_site_fract_z
Si Si1 0.636731 0.789327 0.823152
Si Si2 0.818099 0.628335 0.537200
Si Si3 0.858564 0.871161 0.933488
Si Si4 0.684996 0.297301 0.263670
Si Si5 0.049236 0.135823 0.471983
O O1 0.502708 0.863686 0.723613
O O2 0.733765 0.866873 0.867813
O O3 0.564270 0.683359 0.704542
O O4 0.750000 0.750000 0.000000
O O5 0.777637 0.500000 0.532212
O O6 0.750000 0.750000 0.500000
O O7 0.754407 0.615873 0.392664
O O8 0.778029 0.848122 0.776173
O O9 0.931628 0.000000 0.007615
O O10 0.001406 0.781211 0.089563
O O11 0.774430 0.174459 0.362707
O O12 0.000000 0.179339 0.500000
O O13 0.039684 0.000000 0.456082
#
# Coordination Sequence:
#
# PCOD8109465 Si02
#       5
#     8   8   8   8   8
#     4  11  24  41  64  96 129 168 217 273 327 392
#     4  11  24  42  65  93 129 170 218 266 330 397
#     4  11  21  38  64  93 127 160 208 269 332 386
#     4  10  21  39  64  93 123 165 214 263 322 383
#     4  10  21  41  63  88 127 174 217 261 318 389
#
# _framework density 21.267882
#
# number of rings (size 3 to 8) (size 9 to 14) (size 15 to 20)
#    0.000    1.400    2.000    4.200    0.000    4.800 
#    0.000    6.000    0.000    0.000    0.000    0.000 
#    0.000    0.000    0.000    0.000    0.000    0.000 
#
# Total GULP energy -247787.548771 kJ/mol
# GULP energy per Si atom -12389.377439 kJ/mol
# Density = 2.121948 g / cm^3
# Si number density = 21.267882 Si / 1000 Ang^3
#
#
#
# Elastic Constant Matrix: (Units=GPa)
#
#
# Indices 1 2 3 4 5 6 
#
# 1 97.3410 42.9507 51.0101 0.0008 2.3808 0.0004
# 2 42.9507 124.7167 51.5164 0.0007 2.4622 0.0004
# 3 51.0101 51.5164 148.6529 0.0011 -9.8132 0.0007
# 4 0.0008 0.0007 0.0011 16.1288 0.0007 2.7688
# 5 2.3808 2.4622 -9.8132 0.0007 43.9937 0.0004
# 6 0.0004 0.0004 0.0007 2.7688 0.0004 27.1933
#
#
#
# Elastic Compliance Matrix: (Units=1/GPa)
#
#
# Indices 1 2 3 4 5 6 
#
# 1 0.013621 -0.003145 -0.003675 0.000000 -0.001381 0.000000
# 2 -0.003145 0.010154 -0.002503 0.000000 -0.000956 0.000000
# 3 -0.003675 -0.002503 0.009011 0.000000 0.002349 0.000000
# 4 0.000000 0.000000 0.000000 0.063104 -0.000001 -0.006425
# 5 -0.001381 -0.000956 0.002349 -0.000001 0.023383 0.000000
# 6 0.000000 0.000000 0.000000 -0.006425 0.000000 0.037428
#
#
# Mechanical properties :
#
#
# Convention : Reuss Voigt Hill
#
# Bulk Modulus (GPa) = 70.72675 73.51834 72.12254
# Shear Modulus (GPa) = 27.76867 32.47874 30.12370
#
# Velocity S-wave (km/s) = 3.61731 3.91209 3.76758
# Velocity P-wave (km/s) = 7.12559 7.41948 7.27402
#
# Compressibility (1/GPa) = 0.01413892
#
# Stress axis : x y z
#
# Youngs Moduli (GPa) = 73.41784 98.48234 110.98124
#
# Poissons Ratio (x) = 0.30978 0.40785
# Poissons Ratio (y) = 0.23094 0.27775
# Poissons Ratio (z) = 0.26981 0.24647
#
# Static dielectric constant tensor:
#      x y z
#    x 4.064960 0.000000 -0.044440 
#    y 0.000000 3.782330 0.000000 
#    z -0.044440 0.000000 3.952780 
# 
# 
# High freq. dielectric constant tensor:
#      x y z
#    x 1.841250 0.000000 -0.004380 
#    y 0.000000 1.818530 0.000000 
#    z -0.004380 0.000000 1.843600 
# 
# From -- ./inp_files/109694.got.cif
#   From: 2010.06.25/outbox.cif.g09.slc.cpg/sg12_55_cif.got.tgz:109694.got - 2010.06.28 00:19:55.
