data_PCOD8109611
_publ_section_title
;
Structure prediction by ZEFSAII (Michael W. Deem and Ramdas Pophale) SiO2 
 PCOD8109611
Probable space group: C 2/M
;
_chemical_formula_sum "Si O2"
_cell_formula_units_Z 36
_cell_length_a 9.197581
_cell_length_b 26.653740
_cell_length_c 12.130315
_cell_angle_alpha 90.000000
_cell_angle_beta 35.409304
_cell_angle_gamma 90.000000
_cell_volume 1723.028611
_symmetry_space_group_name_H-M "C 2/M"
_symmetry_group_IT_number 12
_symmetry_cell_setting 'monoclinic'
loop_
_space_group_symop_operation_xyz
x,y,z
-x,y,-z
-x,-y,-z
x,-y,z
1/2+x,1/2+y,z
1/2-x,1/2+y,-z
1/2-x,1/2-y,-z
1/2+x,1/2-y,z
loop_
_atom_site_type_symbol
_atom_site_label
_atom_site_fract_x
_atom_site_fract_y
_atom_site_fract_z
Si Si1 0.240191 0.942122 0.544537
Si Si2 0.362359 0.802742 0.198431
Si Si3 0.000000 0.886144 0.500000
Si Si4 0.298252 0.789155 0.804294
Si Si5 0.243789 0.101844 0.774064
O O1 0.057194 0.923148 0.564018
O O2 0.532289 0.935569 0.329139
O O3 0.169120 0.909183 0.694983
O O4 0.187311 0.000000 0.602322
O O5 0.237296 0.852303 0.323858
O O6 0.562391 0.783325 0.165258
O O7 0.148118 0.759668 0.306527
O O8 0.500000 0.817971 0.000000
O O9 0.359103 0.842026 0.709458
O O10 0.000000 0.785158 0.000000
O O11 0.000000 0.094017 0.000000
#
# Coordination Sequence:
#
# PCOD8109611 Si02
#       5
#     8   8   4   8   8
#     4  11  25  44  64  92 127 162 212 271 314 364
#     4  11  24  41  63  94 133 168 206 254 308 374
#     4  12  27  40  64  94 126 172 213 250 318 376
#     4  10  21  39  66  96 127 165 204 254 310 372
#     4  10  22  42  70  95 122 163 210 256 316 379
#
# _framework density 20.893443999999999
#
# number of rings (size 3 to 8) (size 9 to 14) (size 15 to 20)
#    0.000    1.333    2.222    4.333    9.333    4.444 
#    0.000    0.000    0.000    4.000    0.000    0.000 
#    0.000    0.000    0.000    0.000    0.000    0.000 
#
# Total GULP energy -223137.943627 kJ/mol
# GULP energy per Si atom -12396.552424 kJ/mol
# Density = 2.084589 g / cm^3
# Si number density = 20.893444 Si / 1000 Ang^3
#
#
#
# Elastic Constant Matrix: (Units=GPa)
#
#
# Indices 1 2 3 4 5 6 
#
# 1 165.6437 27.7952 22.9963 0.0000 15.4409 0.0000
# 2 27.7952 93.3092 16.3689 0.0000 20.9241 0.0000
# 3 22.9963 16.3689 83.0288 0.0000 8.6869 0.0000
# 4 0.0000 0.0000 0.0000 18.4182 0.0000 6.2724
# 5 15.4409 20.9241 8.6869 0.0000 25.0757 0.0000
# 6 0.0000 0.0000 0.0000 6.2724 0.0000 24.4226
#
#
#
# Elastic Compliance Matrix: (Units=1/GPa)
#
#
# Indices 1 2 3 4 5 6 
#
# 1 0.006666 -0.001149 -0.001339 0.000000 -0.002682 0.000000
# 2 -0.001149 0.013565 -0.001293 0.000000 -0.010164 0.000000
# 3 -0.001339 -0.001293 0.012940 0.000000 -0.002579 0.000000
# 4 0.000000 0.000000 0.000000 0.059498 0.000000 -0.015281
# 5 -0.002682 -0.010164 -0.002579 0.000000 0.050905 0.000000
# 6 0.000000 0.000000 0.000000 -0.015281 0.000000 0.044870
#
#
# Mechanical properties :
#
#
# Convention : Reuss Voigt Hill
#
# Bulk Modulus (GPa) = 39.04931 52.92250 45.98591
# Shear Modulus (GPa) = 24.44478 31.90474 28.17476
#
# Velocity S-wave (km/s) = 3.42420 3.91195 3.67617
# Velocity P-wave (km/s) = 5.86207 6.76677 6.33060
#
# Compressibility (1/GPa) = 0.02560865
#
# Stress axis : x y z
#
# Youngs Moduli (GPa) = 150.01964 73.71697 77.28219
#
# Poissons Ratio (x) = 0.08473 0.10348
# Poissons Ratio (y) = 0.17243 0.09990
# Poissons Ratio (z) = 0.20088 0.09529
#
# Static dielectric constant tensor:
#      x y z
#    x 3.871240 0.000000 0.047730 
#    y 0.000000 4.316870 0.000000 
#    z 0.047730 0.000000 3.605370 
# 
# 
# High freq. dielectric constant tensor:
#      x y z
#    x 1.832510 0.000000 0.004900 
#    y 0.000000 1.827080 0.000000 
#    z 0.004900 0.000000 1.801000 
# 
# From -- ./inp_files/123318.got.cif
#   From: 2010.06.25/outbox.cif.g09.slc.cpg/sg12_62_cif.got.tgz:123318.got - 2010.06.28 00:19:55.
