data_PCOD8109326
_publ_section_title
;
Structure prediction by ZEFSAII (Michael W. Deem and Ramdas Pophale) SiO2 
 PCOD8109326
Probable space group: C 2/M
;
_chemical_formula_sum "Si O2"
_cell_formula_units_Z 64
_cell_length_a 22.034095
_cell_length_b 14.449387
_cell_length_c 9.577609
_cell_angle_alpha 90.000000
_cell_angle_beta 97.197896
_cell_angle_gamma 90.000000
_cell_volume 3025.280467
_symmetry_space_group_name_H-M "C 2/M"
_symmetry_group_IT_number 12
_symmetry_cell_setting 'monoclinic'
loop_
_space_group_symop_operation_xyz
x,y,z
-x,y,-z
-x,-y,-z
x,-y,z
1/2+x,1/2+y,z
1/2-x,1/2+y,-z
1/2-x,1/2-y,-z
1/2+x,1/2-y,z
loop_
_atom_site_type_symbol
_atom_site_label
_atom_site_fract_x
_atom_site_fract_y
_atom_site_fract_z
Si Si1 0.842603 0.396582 0.972873
Si Si2 0.763922 0.647980 0.454903
Si Si3 0.862967 0.099777 0.508434
Si Si4 0.439442 0.608494 0.269431
Si Si5 0.876004 0.397461 0.670115
Si Si6 0.730070 0.394363 0.136840
Si Si7 0.058524 0.781766 0.283148
Si Si8 0.109387 0.205893 0.010060
O O1 0.869335 0.500000 0.015810
O O2 0.838848 0.382561 0.804243
O O3 0.884701 0.312408 0.044223
O O4 0.775495 0.387244 0.018656
O O5 0.750000 0.750000 0.500000
O O6 0.710087 0.587850 0.510029
O O7 0.829521 0.615012 0.528455
O O8 0.764478 0.637958 0.287452
O O9 0.886786 0.133419 0.364873
O O10 0.881778 0.169631 0.635227
O O11 0.893075 0.000000 0.548108
O O12 0.457352 0.500000 0.273491
O O13 0.497597 0.671878 0.327894
O O14 0.412967 0.635913 0.113037
O O15 0.904499 0.500000 0.670889
O O16 0.933577 0.326872 0.677294
O O17 0.706743 0.500000 0.148399
O O18 0.674070 0.326833 0.089688
O O19 0.058566 0.796736 0.117021
#
# Coordination Sequence:
#
# PCOD8109326 Si02
#       8
#     8   8   8   8   8   8   8   8
#     4   9  21  38  58  86 122 161 196 242 299 356
#     4  12  22  37  60  94 124 161 197 244 305 362
#     4  11  23  40  61  87 121 158 200 246 300 359
#     4  11  26  41  62  89 119 160 205 252 298 353
#     4  10  21  39  63  91 123 157 199 248 297 358
#     4  11  22  36  57  88 127 162 196 242 299 363
#     4  11  22  42  61  86 117 161 202 248 300 349
#     4  11  22  38  61  87 120 158 200 249 298 355
#
# _framework density 21.155063999999999
#
# number of rings (size 3 to 8) (size 9 to 14) (size 15 to 20)
#    0.000    1.250    2.500    3.750    3.500    3.000 
#    0.000    0.625    0.000    4.500    0.000    0.000 
#    0.000    0.000    0.000    0.000    0.000    0.000 
#
# Total GULP energy -396733.797974 kJ/mol
# GULP energy per Si atom -12397.931187 kJ/mol
# Density = 2.110691 g / cm^3
# Si number density = 21.155064 Si / 1000 Ang^3
#
#
#
# Elastic Constant Matrix: (Units=GPa)
#
#
# Indices 1 2 3 4 5 6 
#
# 1 61.2201 27.1015 30.2561 0.0000 3.1362 0.0000
# 2 27.1015 146.8101 39.7754 0.0000 1.5111 0.0000
# 3 30.2561 39.7754 80.2651 0.0000 8.5961 0.0000
# 4 0.0000 0.0000 0.0000 26.6998 0.0000 -1.1030
# 5 3.1362 1.5111 8.5961 0.0000 23.5485 0.0000
# 6 0.0000 0.0000 0.0000 -1.1030 0.0000 32.1121
#
#
#
# Elastic Compliance Matrix: (Units=1/GPa)
#
#
# Indices 1 2 3 4 5 6 
#
# 1 0.020551 -0.001961 -0.006760 0.000000 -0.000144 0.000000
# 2 -0.001961 0.008076 -0.003367 0.000000 0.000972 0.000000
# 3 -0.006760 -0.003367 0.017229 0.000000 -0.005173 0.000000
# 4 0.000000 0.000000 0.000000 0.037507 0.000000 0.001288
# 5 -0.000144 0.000972 -0.005173 0.000000 0.044311 0.000000
# 6 0.000000 0.000000 0.000000 0.001288 0.000000 0.031185
#
#
# Mechanical properties :
#
#
# Convention : Reuss Voigt Hill
#
# Bulk Modulus (GPa) = 46.12328 53.61792 49.87060
# Shear Modulus (GPa) = 26.27992 29.21625 27.74809
#
# Velocity S-wave (km/s) = 3.52838 3.72028 3.62560
# Velocity P-wave (km/s) = 6.20074 6.62225 6.41496
#
# Compressibility (1/GPa) = 0.02168103
#
# Stress axis : x y z
#
# Youngs Moduli (GPa) = 48.66042 123.82873 58.04110
#
# Poissons Ratio (x) = 0.24281 0.39233
# Poissons Ratio (y) = 0.09542 0.19542
# Poissons Ratio (z) = 0.32892 0.41691
#
# Static dielectric constant tensor:
#      x y z
#    x 3.684140 0.000000 -0.058020 
#    y 0.000000 4.354680 0.000000 
#    z -0.058020 0.000000 3.846580 
# 
# 
# High freq. dielectric constant tensor:
#      x y z
#    x 1.798930 0.000000 -0.010640 
#    y 0.000000 1.850830 0.000000 
#    z -0.010640 0.000000 1.830400 
# 
# From -- ./inp_files/96863.got.cif
#   From: 2010.06.25/outbox.cif.g09.slc.cpg/sg12_49_cif.got.tgz:96863.got - 2010.06.28 00:19:55.
