data_PCOD8109350
_publ_section_title
;
Structure prediction by ZEFSAII (Michael W. Deem and Ramdas Pophale) SiO2 
 PCOD8109350
Probable space group: C 2/M
;
_chemical_formula_sum "Si O2"
_cell_formula_units_Z 56
_cell_length_a 25.175334
_cell_length_b 8.459555
_cell_length_c 13.650281
_cell_angle_alpha 90.000000
_cell_angle_beta 112.090239
_cell_angle_gamma 90.000000
_cell_volume 2693.724839
_symmetry_space_group_name_H-M "C 2/M"
_symmetry_group_IT_number 12
_symmetry_cell_setting 'monoclinic'
loop_
_space_group_symop_operation_xyz
x,y,z
-x,y,-z
-x,-y,-z
x,-y,z
1/2+x,1/2+y,z
1/2-x,1/2+y,-z
1/2-x,1/2-y,-z
1/2+x,1/2-y,z
loop_
_atom_site_type_symbol
_atom_site_label
_atom_site_fract_x
_atom_site_fract_y
_atom_site_fract_z
Si Si1 0.042463 0.185820 0.110305
Si Si2 0.235818 0.186875 0.883823
Si Si3 0.995127 0.816345 0.704612
Si Si4 0.807403 0.183707 0.584232
Si Si5 0.383139 0.683425 0.289848
Si Si6 0.164535 0.684203 0.189465
Si Si7 0.598927 0.817688 0.486862
O O1 0.027311 0.254119 0.207431
O O2 0.106626 0.224999 0.121827
O O3 0.033434 0.000000 0.108495
O O4 0.000000 0.260545 0.000000
O O5 0.173850 0.248085 0.803685
O O6 0.284518 0.249528 0.843587
O O7 0.235170 0.000000 0.886684
O O8 0.250000 0.250000 0.000000
O O9 0.965086 0.721924 0.595013
O O10 0.063499 0.791681 0.746431
O O11 0.978922 0.000000 0.682402
O O12 0.750000 0.250000 0.500000
O O13 0.819555 0.285336 0.688079
O O14 0.858038 0.205460 0.542173
O O15 0.801775 0.000000 0.607722
O O16 0.376087 0.500000 0.314360
O O17 0.394936 0.784186 0.394533
O O18 0.154358 0.500000 0.165371
O O19 0.613457 0.000000 0.476938
#
# Coordination Sequence:
#
# PCOD8109350 Si02
#       7
#     8   8   8   8   8   8   8
#     4  10  22  39  64  95 124 164 215 259 310 380
#     4  10  24  43  65  92 123 161 207 255 307 368
#     4  10  21  39  63  92 125 166 212 258 314 373
#     4  12  24  40  64  93 126 165 207 256 311 374
#     4  10  22  41  64  89 124 169 213 260 312 372
#     4  11  23  41  63  94 129 164 207 257 313 373
#     4  12  24  39  61  93 129 165 207 256 314 378
#
# _framework density 20.789055999999999
#
# number of rings (size 3 to 8) (size 9 to 14) (size 15 to 20)
#    0.000    1.286    1.429    4.286    2.000    5.429 
#    0.000    0.000    0.000    0.000    0.000    0.000 
#    0.000    0.000    0.000    0.000    0.000    0.000 
#
# Total GULP energy -347340.133562 kJ/mol
# GULP energy per Si atom -12405.004770 kJ/mol
# Density = 2.074174 g / cm^3
# Si number density = 20.789056 Si / 1000 Ang^3
#
#
#
# Elastic Constant Matrix: (Units=GPa)
#
#
# Indices 1 2 3 4 5 6 
#
# 1 153.5461 16.9610 64.6291 0.0000 14.0032 0.0000
# 2 16.9610 34.8184 28.2428 0.0000 -4.0841 0.0000
# 3 64.6291 28.2428 131.9503 0.0000 27.8532 0.0000
# 4 0.0000 0.0000 0.0000 28.4369 0.0000 0.6374
# 5 14.0032 -4.0841 27.8532 0.0000 38.2943 0.0000
# 6 0.0000 0.0000 0.0000 0.6374 0.0000 30.8162
#
#
#
# Elastic Compliance Matrix: (Units=1/GPa)
#
#
# Indices 1 2 3 4 5 6 
#
# 1 0.008232 -0.001039 -0.003722 0.000000 -0.000414 0.000000
# 2 -0.001039 0.039102 -0.010421 0.000000 0.012130 0.000000
# 3 -0.003722 -0.010421 0.013680 0.000000 -0.009700 0.000000
# 4 0.000000 0.000000 0.000000 0.035182 0.000000 -0.000728
# 5 -0.000414 0.012130 -0.009700 0.000000 0.034614 0.000000
# 6 0.000000 0.000000 0.000000 -0.000728 0.000000 0.032466
#
#
# Mechanical properties :
#
#
# Convention : Reuss Voigt Hill
#
# Bulk Modulus (GPa) = 32.62717 59.99784 46.31251
# Shear Modulus (GPa) = 24.52698 33.54160 29.03429
#
# Velocity S-wave (km/s) = 3.43855 4.02110 3.74118
# Velocity P-wave (km/s) = 5.61189 7.10507 6.40216
#
# Compressibility (1/GPa) = 0.03064930
#
# Stress axis : x y z
#
# Youngs Moduli (GPa) = 121.47784 25.57386 73.09989
#
# Poissons Ratio (x) = 0.02658 0.27210
# Poissons Ratio (y) = 0.12625 0.76177
# Poissons Ratio (z) = 0.45217 0.26651
#
# Static dielectric constant tensor:
#      x y z
#    x 3.802790 0.000000 -0.305710 
#    y 0.000000 3.571360 0.000000 
#    z -0.305710 0.000000 3.282680 
# 
# 
# High freq. dielectric constant tensor:
#      x y z
#    x 1.829570 0.000000 0.005210 
#    y 0.000000 1.800000 0.000000 
#    z 0.005210 0.000000 1.820500 
# 
# From -- ./inp_files/181112.got.cif
#   From: 2010.06.25/outbox.cif.g09.slc.cpg/sg12_91_cif.got.tgz:181112.got - 2010.06.28 00:19:55.
