data_PCOD8109297
_publ_section_title
;
Structure prediction by ZEFSAII (Michael W. Deem and Ramdas Pophale) SiO2 
 PCOD8109297
Probable space group: C 2/M
;
_chemical_formula_sum "Si O2"
_cell_formula_units_Z 56
_cell_length_a 16.902249
_cell_length_b 17.552255
_cell_length_c 9.458299
_cell_angle_alpha 90.000000
_cell_angle_beta 75.542990
_cell_angle_gamma 90.000000
_cell_volume 2717.166101
_symmetry_space_group_name_H-M "C 2/M"
_symmetry_group_IT_number 12
_symmetry_cell_setting 'monoclinic'
loop_
_space_group_symop_operation_xyz
x,y,z
-x,y,-z
-x,-y,-z
x,-y,z
1/2+x,1/2+y,z
1/2-x,1/2+y,-z
1/2-x,1/2-y,-z
1/2+x,1/2-y,z
loop_
_atom_site_type_symbol
_atom_site_label
_atom_site_fract_x
_atom_site_fract_y
_atom_site_fract_z
Si Si1 0.295745 0.308623 0.083733
Si Si2 0.420388 0.857179 0.441723
Si Si3 0.065337 0.084762 0.090588
Si Si4 0.658689 0.089392 0.258737
Si Si5 0.330730 0.280108 0.383677
Si Si6 0.552845 0.588814 0.611610
Si Si7 0.007847 0.412326 0.151878
O O1 0.239775 0.378308 0.155574
O O2 0.322278 0.267630 0.218124
O O3 0.250000 0.250000 0.000000
O O4 0.369657 0.348836 0.968718
O O5 0.500000 0.868763 0.500000
O O6 0.346227 0.888432 0.572360
O O7 0.405937 0.770422 0.405625
O O8 0.428648 0.903014 0.289114
O O9 0.011824 0.114432 0.243191
O O10 0.105123 0.000000 0.100922
O O11 0.000000 0.074806 0.000000
O O12 0.583910 0.125239 0.201378
O O13 0.660295 0.000000 0.243683
O O14 0.250000 0.250000 0.500000
O O15 0.360827 0.365423 0.411409
O O16 0.500000 0.608862 0.500000
O O17 0.577663 0.500000 0.609703
O O18 0.026408 0.500000 0.117534
O O19 0.000000 0.372875 0.000000
#
# Coordination Sequence:
#
# PCOD8109297 Si02
#       7
#     8   8   8   8   8   8   8
#     4  12  27  41  61  94 134 171 210 265 330 388
#     4  10  21  39  63  90 119 166 205 257 309 382
#     4  10  21  43  70  96 123 169 230 277 322 384
#     4  10  21  41  64  88 121 167 211 255 313 379
#     4  12  25  43  61  93 134 168 206 262 327 389
#     4  10  23  44  72  99 127 170 224 277 326 388
#     4   9  19  36  60  89 119 155 208 259 302 364
#
# _framework density 20.609707
#
# number of rings (size 3 to 8) (size 9 to 14) (size 15 to 20)
#    0.000    1.571    2.857    1.286    4.000    4.571 
#    0.000    0.000    0.000    0.000    0.000    0.000 
#    0.000    0.000    0.000    0.000    0.000    0.000 
#
# Total GULP energy -346939.150620 kJ/mol
# GULP energy per Si atom -12390.683951 kJ/mol
# Density = 2.056280 g / cm^3
# Si number density = 20.609707 Si / 1000 Ang^3
#
#
#
# Elastic Constant Matrix: (Units=GPa)
#
#
# Indices 1 2 3 4 5 6 
#
# 1 72.3364 47.4536 53.8116 0.0000 -6.0330 0.0000
# 2 47.4536 89.9751 49.0379 0.0000 -4.1357 0.0000
# 3 53.8116 49.0379 167.6014 0.0000 2.9016 0.0000
# 4 0.0000 0.0000 0.0000 31.5562 0.0000 -4.0095
# 5 -6.0330 -4.1357 2.9016 0.0000 31.2957 0.0000
# 6 0.0000 0.0000 0.0000 -4.0095 0.0000 43.9981
#
#
#
# Elastic Compliance Matrix: (Units=1/GPa)
#
#
# Indices 1 2 3 4 5 6 
#
# 1 0.024393 -0.009974 -0.004980 0.000000 0.003846 0.000000
# 2 -0.009974 0.017442 -0.001911 0.000000 0.000559 0.000000
# 3 -0.004980 -0.001911 0.008159 0.000000 -0.001969 0.000000
# 4 0.000000 0.000000 0.000000 0.032061 0.000000 0.002922
# 5 0.003846 0.000559 -0.001969 0.000000 0.032951 0.000000
# 6 0.000000 0.000000 0.000000 0.002922 0.000000 0.022995
#
#
# Mechanical properties :
#
#
# Convention : Reuss Voigt Hill
#
# Bulk Modulus (GPa) = 61.48638 70.05766 65.77202
# Shear Modulus (GPa) = 28.22470 33.34397 30.78434
#
# Velocity S-wave (km/s) = 3.70467 4.02665 3.86901
# Velocity P-wave (km/s) = 6.94247 7.46223 7.20704
#
# Compressibility (1/GPa) = 0.01626377
#
# Stress axis : x y z
#
# Youngs Moduli (GPa) = 40.99560 57.33450 122.57048
#
# Poissons Ratio (x) = 0.57185 0.61042
# Poissons Ratio (y) = 0.40889 0.23417
# Poissons Ratio (z) = 0.20416 0.10954
#
# Static dielectric constant tensor:
#      x y z
#    x 3.743400 0.000000 0.139250 
#    y 0.000000 3.652770 0.000000 
#    z 0.139250 0.000000 4.131300 
# 
# 
# High freq. dielectric constant tensor:
#      x y z
#    x 1.793980 0.000000 0.003480 
#    y 0.000000 1.799060 0.000000 
#    z 0.003480 0.000000 1.826470 
# 
# From -- ./inp_files/75827.got.cif
#   From: 2010.06.25/outbox.cif.g09.slc.cpg/sg12_38_cif.got.tgz:75827.got - 2010.06.28 00:19:55.
