data_PCOD8109207
_publ_section_title
;
Structure prediction by ZEFSAII (Michael W. Deem and Ramdas Pophale) SiO2 
 PCOD8109207
Probable space group: C 2/M
;
_chemical_formula_sum "Si O2"
_cell_formula_units_Z 56
_cell_length_a 26.571074
_cell_length_b 8.791352
_cell_length_c 12.327490
_cell_angle_alpha 90.000000
_cell_angle_beta 68.569787
_cell_angle_gamma 90.000000
_cell_volume 2680.558789
_symmetry_space_group_name_H-M "C 2/M"
_symmetry_group_IT_number 12
_symmetry_cell_setting 'monoclinic'
loop_
_space_group_symop_operation_xyz
x,y,z
-x,y,-z
-x,-y,-z
x,-y,z
1/2+x,1/2+y,z
1/2-x,1/2+y,-z
1/2-x,1/2-y,-z
1/2+x,1/2-y,z
loop_
_atom_site_type_symbol
_atom_site_label
_atom_site_fract_x
_atom_site_fract_y
_atom_site_fract_z
Si Si1 0.139488 0.674087 0.977560
Si Si2 0.209225 0.826542 0.613586
Si Si3 0.134062 0.324659 0.228148
Si Si4 0.597026 0.820663 0.658510
Si Si5 0.255011 0.672740 0.170704
Si Si6 0.946928 0.178828 0.104626
Si Si7 0.561614 0.678802 0.463661
O O1 0.134401 0.500000 0.943027
O O2 0.116672 0.694008 0.116799
O O3 0.202225 0.722790 0.926336
O O4 0.105919 0.779446 0.922790
O O5 0.250000 0.750000 0.500000
O O6 0.154434 0.732055 0.658479
O O7 0.236288 0.818371 0.708585
O O8 0.197274 0.000000 0.588123
O O9 0.130200 0.500000 0.268919
O O10 0.195130 0.264308 0.194532
O O11 0.093635 0.224099 0.330530
O O12 0.552409 0.758960 0.778376
O O13 0.587943 0.758729 0.545910
O O14 0.594135 0.000000 0.656675
O O15 0.260835 0.500000 0.123502
O O16 0.947093 0.000000 0.124154
O O17 0.000000 0.235269 0.000000
O O18 0.500000 0.733566 0.500000
O O19 0.565324 0.500000 0.478169
#
# Coordination Sequence:
#
# PCOD8109207 Si02
#       7
#     8   8   8   8   8   8   8
#     4  11  23  39  64  98 133 168 213 264 319 385
#     4  11  22  37  62  94 130 172 216 264 318 381
#     4  10  23  42  64  96 132 169 216 265 318 382
#     4  12  25  43  68  96 130 167 211 269 326 383
#     4  10  21  39  62  90 129 171 212 259 316 381
#     4  11  25  44  67  94 128 170 217 268 323 387
#     4  11  26  46  68  95 127 168 218 266 319 388
#
# _framework density 20.891166999999999
#
# number of rings (size 3 to 8) (size 9 to 14) (size 15 to 20)
#    0.000    1.143    1.429    4.286    2.000    5.714 
#    0.000    0.000    0.000    0.000    0.000    0.000 
#    0.000    0.000    0.000    0.000    0.000    0.000 
#
# Total GULP energy -347399.351903 kJ/mol
# GULP energy per Si atom -12407.119711 kJ/mol
# Density = 2.084362 g / cm^3
# Si number density = 20.891167 Si / 1000 Ang^3
#
#
#
# Elastic Constant Matrix: (Units=GPa)
#
#
# Indices 1 2 3 4 5 6 
#
# 1 62.4688 13.2443 14.9545 0.0000 -9.8354 0.0000
# 2 13.2443 86.8973 40.0141 0.0000 -7.2388 0.0000
# 3 14.9545 40.0141 114.0771 0.0000 -13.5351 0.0000
# 4 0.0000 0.0000 0.0000 37.5251 0.0000 -7.7556
# 5 -9.8354 -7.2388 -13.5351 0.0000 36.3813 0.0000
# 6 0.0000 0.0000 0.0000 -7.7556 0.0000 21.6787
#
#
#
# Elastic Compliance Matrix: (Units=1/GPa)
#
#
# Indices 1 2 3 4 5 6 
#
# 1 0.017277 -0.001764 -0.001186 0.000000 0.003878 0.000000
# 2 -0.001764 0.013938 -0.004588 0.000000 0.000590 0.000000
# 3 -0.001186 -0.004588 0.010864 0.000000 0.002808 0.000000
# 4 0.000000 0.000000 0.000000 0.028777 0.000000 0.010295
# 5 0.003878 0.000590 0.002808 0.000000 0.029697 0.000000
# 6 0.000000 0.000000 0.000000 0.010295 0.000000 0.049811
#
#
# Mechanical properties :
#
#
# Convention : Reuss Voigt Hill
#
# Bulk Modulus (GPa) = 37.03252 44.42990 40.73121
# Shear Modulus (GPa) = 28.66305 32.13237 30.39771
#
# Velocity S-wave (km/s) = 3.70809 3.92610 3.81865
# Velocity P-wave (km/s) = 6.00818 6.47038 6.24355
#
# Compressibility (1/GPa) = 0.02700329
#
# Stress axis : x y z
#
# Youngs Moduli (GPa) = 57.88204 71.74409 92.04775
#
# Poissons Ratio (x) = 0.12656 0.10916
# Poissons Ratio (y) = 0.10211 0.42231
# Poissons Ratio (z) = 0.06864 0.32915
#
# Static dielectric constant tensor:
#      x y z
#    x 3.740200 0.000000 -0.017580 
#    y 0.000000 3.839160 0.000000 
#    z -0.017580 0.000000 3.808390 
# 
# 
# High freq. dielectric constant tensor:
#      x y z
#    x 1.820410 0.000000 -0.000200 
#    y 0.000000 1.821810 0.000000 
#    z -0.000200 0.000000 1.835290 
# 
# From -- ./inp_files/180682.got.cif
#   From: 2010.06.25/outbox.cif.g09.slc.cpg/sg12_91_cif.got.tgz:180682.got - 2010.06.28 00:19:55.
