data_PCOD8109940
_publ_section_title
;
Structure prediction by ZEFSAII (Michael W. Deem and Ramdas Pophale) SiO2 
 PCOD8109940
Probable space group: C 2/M
;
_chemical_formula_sum "Si O2"
_cell_formula_units_Z 56
_cell_length_a 19.114294
_cell_length_b 8.938516
_cell_length_c 16.780762
_cell_angle_alpha 90.000000
_cell_angle_beta 105.835195
_cell_angle_gamma 90.000000
_cell_volume 2758.247655
_symmetry_space_group_name_H-M "C 2/M"
_symmetry_group_IT_number 12
_symmetry_cell_setting 'monoclinic'
loop_
_space_group_symop_operation_xyz
x,y,z
-x,y,-z
-x,-y,-z
x,-y,z
1/2+x,1/2+y,z
1/2-x,1/2+y,-z
1/2-x,1/2-y,-z
1/2+x,1/2-y,z
loop_
_atom_site_type_symbol
_atom_site_label
_atom_site_fract_x
_atom_site_fract_y
_atom_site_fract_z
Si Si1 0.417983 0.676300 0.074159
Si Si2 0.053209 0.676108 0.176442
Si Si3 0.326965 0.323863 0.505843
Si Si4 0.830374 0.327055 0.183276
Si Si5 0.663325 0.327372 0.109223
Si Si6 0.542784 0.326747 0.340763
Si Si7 0.115188 0.826684 0.647850
O O1 0.428921 0.500000 0.078227
O O2 0.496851 0.753027 0.095464
O O3 0.380499 0.725308 0.144096
O O4 0.370562 0.729593 0.984422
O O5 0.048005 0.500000 0.171631
O O6 0.132558 0.730876 0.173229
O O7 0.035552 0.728726 0.259713
O O8 0.316234 0.500000 0.505537
O O9 0.250000 0.250000 0.500000
O O10 0.386260 0.272361 0.589309
O O11 0.357632 0.273604 0.429933
O O12 0.852958 0.500000 0.181174
O O13 0.748473 0.299797 0.130559
O O14 0.840703 0.275514 0.276930
O O15 0.644521 0.500000 0.119315
O O16 0.549613 0.500000 0.318320
O O17 0.471486 0.300542 0.372748
O O18 0.134130 0.000000 0.669304
#
# Coordination Sequence:
#
# PCOD8109940 Si02
#       7
#     8   8   8   8   8   8   8
#     4  11  22  41  65  88 120 165 210 253 308 371
#     4  12  25  39  61  93 126 160 207 262 308 361
#     4  10  23  41  64  95 126 159 202 250 305 364
#     4  11  23  39  62  93 126 160 205 257 307 361
#     4  10  24  42  61  87 124 167 208 253 310 371
#     4  10  21  41  66  88 120 166 208 249 300 364
#     4  10  21  40  65  90 120 163 209 247 296 364
#
# _framework density 20.302747
#
# number of rings (size 3 to 8) (size 9 to 14) (size 15 to 20)
#    0.000    1.429    1.429    3.429    2.000    6.857 
#    0.000    0.000    0.000    2.571    0.000    0.000 
#    0.000    0.000    0.000    0.000    0.000    0.000 
#
# Total GULP energy -347360.468379 kJ/mol
# GULP energy per Si atom -12405.731014 kJ/mol
# Density = 2.025654 g / cm^3
# Si number density = 20.302747 Si / 1000 Ang^3
#
#
#
# Elastic Constant Matrix: (Units=GPa)
#
#
# Indices 1 2 3 4 5 6 
#
# 1 81.5238 33.8524 31.9541 0.0000 2.0431 0.0000
# 2 33.8524 74.7107 28.4301 0.0000 3.5633 0.0000
# 3 31.9541 28.4301 94.2089 0.0000 11.8601 0.0000
# 4 0.0000 0.0000 0.0000 25.8883 0.0000 3.3944
# 5 2.0431 3.5633 11.8601 0.0000 35.3762 0.0000
# 6 0.0000 0.0000 0.0000 3.3944 0.0000 32.6113
#
#
#
# Elastic Compliance Matrix: (Units=1/GPa)
#
#
# Indices 1 2 3 4 5 6 
#
# 1 0.016205 -0.005932 -0.003825 0.000000 0.000944 0.000000
# 2 -0.005932 0.017293 -0.003164 0.000000 -0.000339 0.000000
# 3 -0.003825 -0.003164 0.013363 0.000000 -0.003940 0.000000
# 4 0.000000 0.000000 0.000000 0.039162 0.000000 -0.004076
# 5 0.000944 -0.000339 -0.003940 0.000000 0.029568 0.000000
# 6 0.000000 0.000000 0.000000 -0.004076 0.000000 0.031088
#
#
# Mechanical properties :
#
#
# Convention : Reuss Voigt Hill
#
# Bulk Modulus (GPa) = 47.57670 48.76850 48.17260
# Shear Modulus (GPa) = 27.85062 29.18893 28.51978
#
# Velocity S-wave (km/s) = 3.70775 3.79579 3.75203
# Velocity P-wave (km/s) = 6.46641 6.57902 6.52296
#
# Compressibility (1/GPa) = 0.02101869
#
# Stress axis : x y z
#
# Youngs Moduli (GPa) = 61.70795 57.82656 74.83334
#
# Poissons Ratio (x) = 0.34304 0.28625
# Poissons Ratio (y) = 0.36607 0.23677
# Poissons Ratio (z) = 0.23605 0.18296
#
# Static dielectric constant tensor:
#      x y z
#    x 3.818460 0.000000 0.099290 
#    y 0.000000 3.574550 0.000000 
#    z 0.099290 0.000000 3.811720 
# 
# 
# High freq. dielectric constant tensor:
#      x y z
#    x 1.806320 0.000000 0.001710 
#    y 0.000000 1.785280 0.000000 
#    z 0.001710 0.000000 1.801130 
# 
# From -- ./inp_files/275058.got.cif
#   From: 2010.06.25/outbox.cif.g09.slc.cpg/sg12_138_cif.got.tgz:275058.got - 2010.06.28 00:19:55.
