data_PCOD8109859
_publ_section_title
;
Structure prediction by ZEFSAII (Michael W. Deem and Ramdas Pophale) SiO2 
 PCOD8109859
Probable space group: C 2/M
;
_chemical_formula_sum "Si O2"
_cell_formula_units_Z 56
_cell_length_a 18.537332
_cell_length_b 8.720089
_cell_length_c 29.074223
_cell_angle_alpha 90.000000
_cell_angle_beta 37.362978
_cell_angle_gamma 90.000000
_cell_volume 2852.111444
_symmetry_space_group_name_H-M "C 2/M"
_symmetry_group_IT_number 12
_symmetry_cell_setting 'monoclinic'
loop_
_space_group_symop_operation_xyz
x,y,z
-x,y,-z
-x,-y,-z
x,-y,z
1/2+x,1/2+y,z
1/2-x,1/2+y,-z
1/2-x,1/2-y,-z
1/2+x,1/2-y,z
loop_
_atom_site_type_symbol
_atom_site_label
_atom_site_fract_x
_atom_site_fract_y
_atom_site_fract_z
Si Si1 0.544304 0.821162 0.297965
Si Si2 0.702741 0.823873 0.303936
Si Si3 0.594416 0.675584 0.867835
Si Si4 0.179923 0.820810 0.993687
Si Si5 0.637086 0.321645 0.430354
Si Si6 0.750893 0.679222 0.137017
Si Si7 0.208847 0.179734 0.568461
O O1 0.598360 0.784299 0.320728
O O2 0.635235 0.769679 0.212618
O O3 0.423297 0.730713 0.351876
O O4 0.518665 0.000000 0.305276
O O5 0.830224 0.789834 0.216237
O O6 0.692636 0.714112 0.352616
O O7 0.693392 0.000000 0.324707
O O8 0.616554 0.500000 0.872260
O O9 0.635986 0.783198 0.888403
O O10 0.458250 0.708559 0.926004
O O11 0.220147 0.730223 0.928705
O O12 0.207899 0.000000 0.973684
O O13 0.250000 0.750000 0.000000
O O14 0.500000 0.272079 0.500000
O O15 0.653215 0.500000 0.433063
O O16 0.702135 0.226151 0.436441
O O17 0.723647 0.500000 0.152269
O O18 0.250000 0.250000 0.500000
O O19 0.212097 0.000000 0.561084
#
# Coordination Sequence:
#
# PCOD8109859 Si02
#       7
#     8   8   8   8   8   8   8
#     4  10  21  40  64  89 119 154 194 239 290 347
#     4   9  19  37  61  87 114 147 190 241 295 347
#     4   9  20  39  61  84 114 154 196 240 292 349
#     4  11  23  39  58  82 117 157 198 245 297 350
#     4  11  24  40  59  85 118 156 198 241 287 343
#     4  11  22  37  60  89 119 152 194 241 291 350
#     4  12  25  41  62  88 120 156 196 241 291 346
#
# _framework density 19.634575000000002
#
# number of rings (size 3 to 8) (size 9 to 14) (size 15 to 20)
#    0.000    1.571    0.000    6.000    0.000   10.286 
#    0.000    4.286    0.000    0.000    0.000    0.000 
#    0.000    0.000    0.000    0.000    0.000    0.000 
#
# Total GULP energy -347363.432388 kJ/mol
# GULP energy per Si atom -12405.836871 kJ/mol
# Density = 1.958989 g / cm^3
# Si number density = 19.634575 Si / 1000 Ang^3
#
#
#
# Elastic Constant Matrix: (Units=GPa)
#
#
# Indices 1 2 3 4 5 6 
#
# 1 118.4963 59.7504 74.0376 0.0103 -6.0105 0.0721
# 2 59.7504 111.9909 44.1869 -0.0040 -0.2394 0.0131
# 3 74.0376 44.1869 111.2194 -0.0001 4.2512 0.0066
# 4 0.0103 -0.0040 -0.0001 33.6316 -0.0063 5.0169
# 5 -6.0105 -0.2394 4.2512 -0.0063 32.9433 0.0026
# 6 0.0721 0.0131 0.0066 5.0169 0.0026 34.2837
#
#
#
# Elastic Compliance Matrix: (Units=1/GPa)
#
#
# Indices 1 2 3 4 5 6 
#
# 1 0.017421 -0.005507 -0.009576 0.000000 0.004374 -0.000033
# 2 -0.005507 0.012343 -0.001209 0.000002 -0.000759 0.000007
# 3 -0.009576 -0.001209 0.015992 -0.000001 -0.003820 0.000018
# 4 0.000000 0.000002 -0.000001 0.030398 0.000006 -0.004448
# 5 0.004374 -0.000759 -0.003820 0.000006 0.031641 -0.000011
# 6 -0.000033 0.000007 0.000018 -0.004448 -0.000011 0.029819
#
#
# Mechanical properties :
#
#
# Convention : Reuss Voigt Hill
#
# Bulk Modulus (GPa) = 75.91831 77.51738 76.71784
# Shear Modulus (GPa) = 28.63867 31.08715 29.86291
#
# Velocity S-wave (km/s) = 3.82328 3.98337 3.90415
# Velocity P-wave (km/s) = 7.63148 7.79244 7.71238
#
# Compressibility (1/GPa) = 0.01317205
#
# Stress axis : x y z
#
# Youngs Moduli (GPa) = 57.40114 81.01951 62.52947
#
# Poissons Ratio (x) = 0.44617 0.59881
# Poissons Ratio (y) = 0.31610 0.07558
# Poissons Ratio (z) = 0.54970 0.09794
#
# Static dielectric constant tensor:
#      x y z
#    x 3.599780 0.000020 -0.109210 
#    y 0.000020 4.074210 0.000020 
#    z -0.109210 0.000020 3.761200 
# 
# 
# High freq. dielectric constant tensor:
#      x y z
#    x 1.765090 0.000000 -0.002480 
#    y 0.000000 1.773660 0.000000 
#    z -0.002480 0.000000 1.779390 
# 
# From -- ./inp_files/363006.got.cif
#   From: 2010.06.25/outbox.cif.g09.slc.cpg/sg12_182_cif.got.tgz:363006.got - 2010.06.28 00:19:55.
