data_PCOD8109988
_publ_section_title
;
Structure prediction by ZEFSAII (Michael W. Deem and Ramdas Pophale) SiO2 
 PCOD8109988
Probable space group: C 2/M
;
_chemical_formula_sum "Si O2"
_cell_formula_units_Z 56
_cell_length_a 9.178703
_cell_length_b 18.083509
_cell_length_c 30.666361
_cell_angle_alpha 90.000000
_cell_angle_beta 146.922467
_cell_angle_gamma 90.000000
_cell_volume 2778.041038
_symmetry_space_group_name_H-M "C 2/M"
_symmetry_group_IT_number 12
_symmetry_cell_setting 'monoclinic'
loop_
_space_group_symop_operation_xyz
x,y,z
-x,y,-z
-x,-y,-z
x,-y,z
1/2+x,1/2+y,z
1/2-x,1/2+y,-z
1/2-x,1/2-y,-z
1/2+x,1/2-y,z
loop_
_atom_site_type_symbol
_atom_site_label
_atom_site_fract_x
_atom_site_fract_y
_atom_site_fract_z
Si Si1 0.897799 0.414290 0.334823
Si Si2 0.782038 0.085805 0.352363
Si Si3 0.588603 0.173375 0.222502
Si Si4 0.428266 0.416616 0.931722
Si Si5 0.807125 0.826726 0.491426
Si Si6 0.118307 0.825711 0.793562
Si Si7 0.605413 0.823982 0.978495
O O1 0.928146 0.500000 0.355234
O O2 0.586882 0.393662 0.254181
O O3 0.032960 0.398903 0.321902
O O4 0.035668 0.364876 0.406777
O O5 0.731396 0.122056 0.293190
O O6 0.054329 0.117605 0.440281
O O7 0.827746 0.000000 0.356018
O O8 0.315658 0.137221 0.138168
O O9 0.787275 0.184656 0.232166
O O10 0.531378 0.252191 0.229153
O O11 0.354236 0.500000 0.899090
O O12 0.500000 0.411624 0.000000
O O13 0.683278 0.390896 0.967691
O O14 0.750000 0.750000 0.500000
O O15 0.000000 0.809407 0.500000
O O16 0.365941 0.845242 0.886435
O O17 0.500000 0.809937 0.000000
O O18 0.750000 0.750000 0.000000
#
# Coordination Sequence:
#
# PCOD8109988 Si02
#       7
#     8   8   8   8   8   8   8
#     4  10  23  42  64  95 131 167 208 265 320 374
#     4  10  22  41  66  92 127 170 210 254 315 380
#     4  12  24  41  63  93 124 164 213 261 314 374
#     4  11  24  43  64  90 126 165 206 259 319 377
#     4  10  21  40  65  94 127 167 214 256 310 375
#     4  12  25  40  65  93 126 165 211 265 316 376
#     4  12  24  42  67  93 124 166 215 261 316 379
#
# _framework density 20.158089
#
# number of rings (size 3 to 8) (size 9 to 14) (size 15 to 20)
#    0.000    1.000    2.857    3.857    2.000    7.143 
#    0.000    0.000    0.000    2.571    0.000    0.000 
#    0.000    0.000    0.000    0.000    0.000    0.000 
#
# Total GULP energy -347384.546537 kJ/mol
# GULP energy per Si atom -12406.590948 kJ/mol
# Density = 2.011221 g / cm^3
# Si number density = 20.158089 Si / 1000 Ang^3
#
#
#
# Elastic Constant Matrix: (Units=GPa)
#
#
# Indices 1 2 3 4 5 6 
#
# 1 123.8470 40.2135 32.3726 0.0042 -6.9205 -0.0092
# 2 40.2135 90.5038 16.2561 0.0064 -3.1588 -0.0091
# 3 32.3726 16.2561 89.6306 0.0144 -0.8382 -0.0202
# 4 0.0042 0.0064 0.0144 43.7305 0.0010 -11.9872
# 5 -6.9205 -3.1588 -0.8382 0.0010 33.4463 -0.0048
# 6 -0.0092 -0.0091 -0.0202 -11.9872 -0.0048 46.5698
#
#
#
# Elastic Compliance Matrix: (Units=1/GPa)
#
#
# Indices 1 2 3 4 5 6 
#
# 1 0.010225 -0.003953 -0.002961 0.000001 0.001668 0.000000
# 2 -0.003953 0.012985 -0.000924 -0.000001 0.000385 0.000001
# 3 -0.002961 -0.000924 0.012390 -0.000003 -0.000389 0.000004
# 4 0.000001 -0.000001 -0.000003 0.024603 0.000000 0.006333
# 5 0.001668 0.000385 -0.000389 0.000000 0.030270 0.000003
# 6 0.000000 0.000001 0.000004 0.006333 0.000003 0.023103
#
#
# Mechanical properties :
#
#
# Convention : Reuss Voigt Hill
#
# Bulk Modulus (GPa) = 50.18704 53.51842 51.85273
# Shear Modulus (GPa) = 36.79328 39.09194 37.94261
#
# Velocity S-wave (km/s) = 4.27691 4.40849 4.34320
# Velocity P-wave (km/s) = 7.02425 7.24707 7.13653
#
# Compressibility (1/GPa) = 0.01992546
#
# Stress axis : x y z
#
# Youngs Moduli (GPa) = 97.79737 77.01071 80.70989
#
# Poissons Ratio (x) = 0.30445 0.23894
# Poissons Ratio (y) = 0.38663 0.07454
# Poissons Ratio (z) = 0.28953 0.07113
#
# Static dielectric constant tensor:
#      x y z
#    x 3.774280 0.000060 -0.019320 
#    y 0.000060 5.784880 0.000100 
#    z -0.019320 0.000100 3.820110 
# 
# 
# High freq. dielectric constant tensor:
#      x y z
#    x 1.789630 0.000000 -0.002110 
#    y 0.000000 1.797360 0.000000 
#    z -0.002110 0.000000 1.799530 
# 
# From -- ./inp_files/373177.got.cif
#   From: 2010.06.25/outbox.cif.g09.slc.cpg/sg12_187_cif.got.tgz:373177.got - 2010.06.28 00:19:55.
