data_PCOD8109926
_publ_section_title
;
Structure prediction by ZEFSAII (Michael W. Deem and Ramdas Pophale) SiO2 
 PCOD8109926
Probable space group: C 2/M
;
_chemical_formula_sum "Si O2"
_cell_formula_units_Z 48
_cell_length_a 19.118959
_cell_length_b 8.798942
_cell_length_c 22.001595
_cell_angle_alpha 90.000000
_cell_angle_beta 135.667445
_cell_angle_gamma 90.000000
_cell_volume 2586.516909
_symmetry_space_group_name_H-M "C 2/M"
_symmetry_group_IT_number 12
_symmetry_cell_setting 'monoclinic'
loop_
_space_group_symop_operation_xyz
x,y,z
-x,y,-z
-x,-y,-z
x,-y,z
1/2+x,1/2+y,z
1/2-x,1/2+y,-z
1/2-x,1/2-y,-z
1/2+x,1/2-y,z
loop_
_atom_site_type_symbol
_atom_site_label
_atom_site_fract_x
_atom_site_fract_y
_atom_site_fract_z
Si Si1 0.980047 0.676827 0.143096
Si Si2 0.687635 0.177179 0.407703
Si Si3 0.899957 0.678401 0.967921
Si Si4 0.455306 0.825478 0.262858
Si Si5 0.782216 0.179104 0.224594
Si Si6 0.809094 0.179325 0.718105
O O1 0.012524 0.500000 0.161996
O O2 0.931046 0.716641 0.177460
O O3 0.079911 0.772022 0.192995
O O4 0.900536 0.715551 0.040484
O O5 0.750000 0.250000 0.500000
O O6 0.571076 0.208159 0.347997
O O7 0.721335 0.252078 0.365623
O O8 0.710851 0.000000 0.418059
O O9 0.900083 0.500000 0.956425
O O10 0.800860 0.745035 0.874419
O O11 0.000000 0.749389 0.000000
O O12 0.391128 0.718045 0.266276
O O13 0.428086 0.000000 0.259322
O O14 0.769598 0.259887 0.281422
O O15 0.772896 0.000000 0.227932
O O16 0.801967 0.000000 0.709619
#
# Coordination Sequence:
#
# PCOD8109926 Si02
#       6
#     8   8   8   8   8   8
#     4   9  17  34  55  75 105 149 192 229 275 327
#     4  10  21  40  65  88 111 140 176 218 270 330
#     4   9  16  29  52  77 105 144 193 235 272 319
#     4   9  20  36  54  79 114 146 174 221 280 327
#     4  11  21  34  54  79 110 150 190 229 274 324
#     4  11  21  34  55  82 112 144 183 227 273 324
#
# _framework density 18.557776
#
# number of rings (size 3 to 8) (size 9 to 14) (size 15 to 20)
#    0.000    2.167    1.667    3.500    0.000    4.000 
#    0.000    3.333    0.000    5.000    0.000    0.000 
#    0.000    0.000    0.000    0.000    0.000    0.000 
#
# Total GULP energy -297613.415767 kJ/mol
# GULP energy per Si atom -12400.558990 kJ/mol
# Density = 1.851554 g / cm^3
# Si number density = 18.557776 Si / 1000 Ang^3
#
#
#
# Elastic Constant Matrix: (Units=GPa)
#
#
# Indices 1 2 3 4 5 6 
#
# 1 126.2352 55.5486 58.2532 0.0000 -17.2887 0.0000
# 2 55.5486 99.0160 51.2163 0.0000 -11.1765 0.0000
# 3 58.2532 51.2163 122.5793 0.0000 -21.6299 0.0000
# 4 0.0000 0.0000 0.0000 24.3767 0.0000 -0.5412
# 5 -17.2887 -11.1765 -21.6299 0.0000 22.4105 0.0000
# 6 0.0000 0.0000 0.0000 -0.5412 0.0000 31.9983
#
#
#
# Elastic Compliance Matrix: (Units=1/GPa)
#
#
# Indices 1 2 3 4 5 6 
#
# 1 0.011910 -0.004680 -0.003007 0.000000 0.003952 0.000000
# 2 -0.004680 0.014764 -0.003956 0.000000 -0.000066 0.000000
# 3 -0.003007 -0.003956 0.012634 0.000000 0.007901 0.000000
# 4 0.000000 0.000000 0.000000 0.041038 0.000000 0.000694
# 5 0.003952 -0.000066 0.007901 0.000000 0.055264 0.000000
# 6 0.000000 0.000000 0.000000 0.000694 0.000000 0.031263
#
#
# Mechanical properties :
#
#
# Convention : Reuss Voigt Hill
#
# Bulk Modulus (GPa) = 62.41736 75.31852 68.86794
# Shear Modulus (GPa) = 25.57530 27.94459 26.75995
#
# Velocity S-wave (km/s) = 3.71636 3.88469 3.80146
# Velocity P-wave (km/s) = 7.21957 7.79713 7.51390
#
# Compressibility (1/GPa) = 0.01602118
#
# Stress axis : x y z
#
# Youngs Moduli (GPa) = 83.96240 67.73305 79.14925
#
# Poissons Ratio (x) = 0.31700 0.23803
# Poissons Ratio (y) = 0.39295 0.31313
# Poissons Ratio (z) = 0.25250 0.26796
#
# Static dielectric constant tensor:
#      x y z
#    x 3.326490 0.000000 -0.169550 
#    y 0.000000 3.241990 0.000000 
#    z -0.169550 0.000000 3.447840 
# 
# 
# High freq. dielectric constant tensor:
#      x y z
#    x 1.715460 0.000000 -0.016930 
#    y 0.000000 1.708050 0.000000 
#    z -0.016930 0.000000 1.714070 
# 
# From -- ./inp_files/314475.got.cif
#   From: 2010.06.25/outbox.cif.g09.slc.cpg/sg12_158_cif.got.tgz:314475.got - 2010.06.28 00:19:55.
