data_PCOD8109206
_publ_section_title
;
Structure prediction by ZEFSAII (Michael W. Deem and Ramdas Pophale) SiO2 
 PCOD8109206
Probable space group: C 2/M
;
_chemical_formula_sum "Si O2"
_cell_formula_units_Z 52
_cell_length_a 8.282786
_cell_length_b 17.758485
_cell_length_c 17.154242
_cell_angle_alpha 90.000000
_cell_angle_beta 106.244070
_cell_angle_gamma 90.000000
_cell_volume 2422.483184
_symmetry_space_group_name_H-M "C 2/M"
_symmetry_group_IT_number 12
_symmetry_cell_setting 'monoclinic'
loop_
_space_group_symop_operation_xyz
x,y,z
-x,y,-z
-x,-y,-z
x,-y,z
1/2+x,1/2+y,z
1/2-x,1/2+y,-z
1/2-x,1/2-y,-z
1/2+x,1/2-y,z
loop_
_atom_site_type_symbol
_atom_site_label
_atom_site_fract_x
_atom_site_fract_y
_atom_site_fract_z
Si Si1 0.464270 0.418126 0.650140
Si Si2 0.640297 0.207836 0.751600
Si Si3 0.339175 0.680719 0.107898
Si Si4 0.773025 0.320573 0.659992
Si Si5 0.684127 0.088894 0.489899
Si Si6 0.879299 0.081607 0.813603
Si Si7 0.000000 0.285003 0.000000
O O1 0.523668 0.500000 0.629321
O O2 0.630776 0.369444 0.682323
O O3 0.326318 0.387581 0.570902
O O4 0.373671 0.423725 0.720079
O O5 0.639755 0.281898 0.804592
O O6 0.716019 0.234185 0.676150
O O7 0.459054 0.169074 0.719288
O O8 0.748483 0.147531 0.815491
O O9 0.438418 0.601757 0.125940
O O10 0.145767 0.663673 0.058593
O O11 0.423261 0.733610 0.055995
O O12 0.780750 0.348685 0.572043
O O13 0.500000 0.102898 0.500000
O O14 0.699134 0.000000 0.466089
O O15 0.826465 0.000000 0.841090
#
# Coordination Sequence:
#
# PCOD8109206 Si02
#       7
#     8   8   8   8   8   8   4
#     4  10  21  39  62  90 127 173 218 268 333 383
#     4  12  23  40  65  93 132 165 220 273 314 389
#     4  11  20  42  66 101 125 170 208 263 310 401
#     4  12  22  38  63  89 122 172 221 273 323 368
#     4  10  22  41  63  90 130 173 219 274 332 388
#     4  11  23  42  66  95 133 175 214 268 327 380
#     4  10  22  36  76  96 126 166 216 242 336 382
#
# _framework density 21.465578000000001
#
# number of rings (size 3 to 8) (size 9 to 14) (size 15 to 20)
#    0.000    1.077    4.615    1.846    0.000    3.692 
#    0.000   11.538    0.000    0.000    0.000    0.000 
#    0.000    0.000    0.000    0.000    0.000    0.000 
#
# Total GULP energy -322093.428174 kJ/mol
# GULP energy per Si atom -12388.208776 kJ/mol
# Density = 2.141672 g / cm^3
# Si number density = 21.465578 Si / 1000 Ang^3
#
#
#
# Elastic Constant Matrix: (Units=GPa)
#
#
# Indices 1 2 3 4 5 6 
#
# 1 105.5697 26.0301 30.8143 0.0000 28.7149 0.0000
# 2 26.0301 86.4445 19.3591 0.0000 16.6183 0.0000
# 3 30.8143 19.3591 89.2179 0.0000 24.4062 0.0000
# 4 0.0000 0.0000 0.0000 17.9499 0.0000 5.3686
# 5 28.7149 16.6183 24.4062 0.0000 47.5114 0.0000
# 6 0.0000 0.0000 0.0000 5.3686 0.0000 25.1259
#
#
#
# Elastic Compliance Matrix: (Units=1/GPa)
#
#
# Indices 1 2 3 4 5 6 
#
# 1 0.012126 -0.002103 -0.002243 0.000000 -0.005440 0.000000
# 2 -0.002103 0.013006 -0.001395 0.000000 -0.002562 0.000000
# 3 -0.002243 -0.001395 0.013708 0.000000 -0.005198 0.000000
# 4 0.000000 0.000000 0.000000 0.059514 0.000000 -0.012716
# 5 -0.005440 -0.002562 -0.005198 0.000000 0.027902 0.000000
# 6 0.000000 0.000000 0.000000 -0.012716 0.000000 0.042517
#
#
# Mechanical properties :
#
#
# Convention : Reuss Voigt Hill
#
# Bulk Modulus (GPa) = 36.55384 48.18213 42.36798
# Shear Modulus (GPa) = 26.40284 31.78603 29.09443
#
# Velocity S-wave (km/s) = 3.51095 3.85228 3.68557
# Velocity P-wave (km/s) = 5.78807 6.50244 6.15562
#
# Compressibility (1/GPa) = 0.02735691
#
# Stress axis : x y z
#
# Youngs Moduli (GPa) = 82.47051 76.88619 72.95033
#
# Poissons Ratio (x) = 0.16169 0.16365
# Poissons Ratio (y) = 0.17343 0.10177
# Poissons Ratio (z) = 0.18501 0.10726
#
# Static dielectric constant tensor:
#      x y z
#    x 4.215190 0.000000 0.078990 
#    y 0.000000 4.147610 0.000000 
#    z 0.078990 0.000000 3.963540 
# 
# 
# High freq. dielectric constant tensor:
#      x y z
#    x 1.853120 0.000000 0.011240 
#    y 0.000000 1.823670 0.000000 
#    z 0.011240 0.000000 1.840440 
# 
# From -- ./inp_files/257156.got.cif
#   From: 2010.06.25/outbox.cif.g09.slc.cpg/sg12_129_cif.got.tgz:257156.got - 2010.06.28 00:19:55.
