data_PCOD8109668
_publ_section_title
;
Structure prediction by ZEFSAII (Michael W. Deem and Ramdas Pophale) SiO2 
 PCOD8109668
Probable space group: C 2/M
;
_chemical_formula_sum "Si O2"
_cell_formula_units_Z 64
_cell_length_a 17.107314
_cell_length_b 30.190859
_cell_length_c 9.022777
_cell_angle_alpha 90.000000
_cell_angle_beta 41.524483
_cell_angle_gamma 90.000000
_cell_volume 3089.383052
_symmetry_space_group_name_H-M "C 2/M"
_symmetry_group_IT_number 12
_symmetry_cell_setting 'monoclinic'
loop_
_space_group_symop_operation_xyz
x,y,z
-x,y,-z
-x,-y,-z
x,-y,z
1/2+x,1/2+y,z
1/2-x,1/2+y,-z
1/2-x,1/2-y,-z
1/2+x,1/2-y,z
loop_
_atom_site_type_symbol
_atom_site_label
_atom_site_fract_x
_atom_site_fract_y
_atom_site_fract_z
Si Si1 0.884659 0.449934 0.418830
Si Si2 0.472519 0.702946 0.210262
Si Si3 0.758368 0.327571 0.559239
Si Si4 0.226433 0.402996 0.670348
Si Si5 0.600412 0.116185 0.146797
Si Si6 0.988363 0.290894 0.343100
Si Si7 0.494195 0.612691 0.332798
Si Si8 0.778434 0.898416 0.152810
O O1 0.927982 0.500000 0.381864
O O2 0.839721 0.444655 0.312062
O O3 0.771312 0.439798 0.682917
O O4 0.990566 0.417060 0.312214
O O5 0.330165 0.702371 0.412180
O O6 0.530741 0.747569 0.192837
O O7 0.516180 0.663411 0.254191
O O8 0.500000 0.696511 0.000000
O O9 0.821848 0.360983 0.354194
O O10 0.850679 0.295764 0.505854
O O11 0.693242 0.357055 0.778621
O O12 0.368800 0.406213 0.454468
O O13 0.188015 0.398956 0.893484
O O14 0.558477 0.166598 0.184060
O O15 0.673747 0.116037 0.192594
O O16 0.000000 0.282548 0.500000
O O17 0.500000 0.607829 0.500000
O O18 0.602538 0.586177 0.101742
#
# Coordination Sequence:
#
# PCOD8109668 Si02
#       8
#     8   8   8   8   8   8   8   8
#     4  11  25  43  68 100 131 164 205 259 323 392
#     4  11  24  37  60  89 125 172 225 266 310 369
#     4  10  21  40  58  86 125 170 210 264 319 373
#     4  10  23  38  67  95 124 166 210 259 317 376
#     4  12  22  40  67  96 131 168 209 262 327 388
#     4  12  23  39  57  88 133 172 213 267 320 378
#     4  11  22  44  66  91 126 171 219 265 314 374
#     4  11  21  42  69  93 127 169 214 261 320 387
#
# _framework density 20.71611
#
# number of rings (size 3 to 8) (size 9 to 14) (size 15 to 20)
#    0.000    1.000    6.250    1.500    1.750    2.000 
#    0.000    2.500    0.000    0.750    0.000    0.000 
#    0.000    0.000    0.000    0.000    0.000    0.000 
#
# Total GULP energy -396684.760006 kJ/mol
# GULP energy per Si atom -12396.398750 kJ/mol
# Density = 2.066896 g / cm^3
# Si number density = 20.716110 Si / 1000 Ang^3
#
#
#
# Elastic Constant Matrix: (Units=GPa)
#
#
# Indices 1 2 3 4 5 6 
#
# 1 91.8248 28.2071 13.5001 0.0000 1.1757 0.0000
# 2 28.2071 82.1904 20.7624 0.0000 -5.0540 0.0000
# 3 13.5001 20.7624 95.4891 0.0000 2.7966 0.0000
# 4 0.0000 0.0000 0.0000 12.5961 0.0000 3.4992
# 5 1.1757 -5.0540 2.7966 0.0000 35.8534 0.0000
# 6 0.0000 0.0000 0.0000 3.4992 0.0000 15.5581
#
#
#
# Elastic Compliance Matrix: (Units=1/GPa)
#
#
# Indices 1 2 3 4 5 6 
#
# 1 0.012270 -0.004058 -0.000826 0.000000 -0.000910 0.000000
# 2 -0.004058 0.014367 -0.002619 0.000000 0.002363 0.000000
# 3 -0.000826 -0.002619 0.011194 0.000000 -0.001215 0.000000
# 4 0.000000 0.000000 0.000000 0.084680 0.000000 -0.019045
# 5 -0.000910 0.002363 -0.001215 0.000000 0.028349 0.000000
# 6 0.000000 0.000000 0.000000 -0.019045 0.000000 0.068559
#
#
# Mechanical properties :
#
#
# Convention : Reuss Voigt Hill
#
# Bulk Modulus (GPa) = 43.81271 43.82706 43.81988
# Shear Modulus (GPa) = 20.65833 26.60384 23.63109
#
# Velocity S-wave (km/s) = 3.16129 3.58748 3.38110
# Velocity P-wave (km/s) = 5.87537 6.19370 6.03664
#
# Compressibility (1/GPa) = 0.02282443
#
# Stress axis : x y z
#
# Youngs Moduli (GPa) = 81.49950 69.60595 89.33184
#
# Poissons Ratio (x) = 0.28249 0.07376
# Poissons Ratio (y) = 0.33075 0.23398
# Poissons Ratio (z) = 0.06729 0.18231
#
# Static dielectric constant tensor:
#      x y z
#    x 4.120700 0.000000 0.018540 
#    y 0.000000 3.454270 0.000000 
#    z 0.018540 0.000000 3.743970 
# 
# 
# High freq. dielectric constant tensor:
#      x y z
#    x 1.830990 0.000000 0.004450 
#    y 0.000000 1.776090 0.000000 
#    z 0.004450 0.000000 1.811190 
# 
# From -- ./inp_files/80692.got.cif
#   From: 2010.06.25/outbox.cif.g09.slc.cpg/sg12_41_cif.got.tgz:80692.got - 2010.06.28 00:19:55.
