data_PCOD8109695
_publ_section_title
;
Structure prediction by ZEFSAII (Michael W. Deem and Ramdas Pophale) SiO2 
 PCOD8109695
Probable space group: C 2/M
;
_chemical_formula_sum "Si O2"
_cell_formula_units_Z 64
_cell_length_a 19.302639
_cell_length_b 8.798001
_cell_length_c 21.888810
_cell_angle_alpha 90.000000
_cell_angle_beta 120.134396
_cell_angle_gamma 90.000000
_cell_volume 3214.872363
_symmetry_space_group_name_H-M "C 2/M"
_symmetry_group_IT_number 12
_symmetry_cell_setting 'monoclinic'
loop_
_space_group_symop_operation_xyz
x,y,z
-x,y,-z
-x,-y,-z
x,-y,z
1/2+x,1/2+y,z
1/2-x,1/2+y,-z
1/2-x,1/2-y,-z
1/2+x,1/2-y,z
loop_
_atom_site_type_symbol
_atom_site_label
_atom_site_fract_x
_atom_site_fract_y
_atom_site_fract_z
Si Si1 0.040183 0.178801 0.581624
Si Si2 0.768387 0.675548 0.072002
Si Si3 0.299275 0.180156 0.304303
Si Si4 0.519553 0.829506 0.111787
Si Si5 0.882831 0.326901 0.968589
Si Si6 0.537460 0.328409 0.329813
Si Si7 0.858731 0.827894 0.210256
Si Si8 0.131193 0.319476 0.267556
O O1 0.124683 0.264769 0.622376
O O2 0.000000 0.220191 0.500000
O O3 0.978154 0.229822 0.607668
O O4 0.058146 0.000000 0.597421
O O5 0.786089 0.500000 0.073492
O O6 0.843919 0.753804 0.137752
O O7 0.750000 0.750000 0.000000
O O8 0.689887 0.712889 0.077167
O O9 0.310999 0.233301 0.240055
O O10 0.218302 0.248264 0.296430
O O11 0.294016 0.000000 0.304289
O O12 0.433449 0.763733 0.050615
O O13 0.567868 0.749775 0.189093
O O14 0.504342 0.000000 0.127398
O O15 0.570298 0.826617 0.073082
O O16 0.854726 0.500000 0.970653
O O17 0.571424 0.500000 0.345116
O O18 0.453180 0.320620 0.258556
O O19 0.600557 0.222779 0.322004
O O20 0.826663 0.000000 0.199153
O O21 0.139090 0.500000 0.264670
#
# Coordination Sequence:
#
# PCOD8109695 Si02
#       8
#     8   8   8   8   8   8   8   8
#     4   9  19  40  68  92 118 156 197 237 285 343
#     4  12  25  37  51  75 106 144 190 243 298 349
#     4  11  22  37  60  91 122 154 193 237 284 340
#     4   8  17  32  54  77 100 138 182 230 283 338
#     4   9  17  35  55  73  99 135 184 237 290 347
#     4   9  20  37  58  87 119 148 186 239 295 347
#     4  10  21  40  61  81 111 152 196 246 298 352
#     4  11  21  34  55  84 118 156 196 236 286 345
#
# _framework density 19.907477
#
# number of rings (size 3 to 8) (size 9 to 14) (size 15 to 20)
#    0.000    2.125    0.000    5.250    1.750    3.750 
#    0.000    3.125    0.000    0.000    0.000    0.000 
#    0.000    0.000    0.000    0.000    0.000    0.000 
#
# Total GULP energy -396584.940828 kJ/mol
# GULP energy per Si atom -12393.279401 kJ/mol
# Density = 1.986217 g / cm^3
# Si number density = 19.907477 Si / 1000 Ang^3
#
#
#
# Elastic Constant Matrix: (Units=GPa)
#
#
# Indices 1 2 3 4 5 6 
#
# 1 71.6656 33.3200 28.2980 0.0000 -10.5762 0.0000
# 2 33.3200 99.2725 40.9677 0.0000 -0.5106 0.0000
# 3 28.2980 40.9677 125.4139 0.0000 -10.7062 0.0000
# 4 0.0000 0.0000 0.0000 25.4960 0.0000 -2.2945
# 5 -10.5762 -0.5106 -10.7062 0.0000 18.7585 0.0000
# 6 0.0000 0.0000 0.0000 -2.2945 0.0000 28.2592
#
#
#
# Elastic Compliance Matrix: (Units=1/GPa)
#
#
# Indices 1 2 3 4 5 6 
#
# 1 0.018529 -0.005521 -0.001575 0.000000 0.009398 0.000000
# 2 -0.005521 0.013356 -0.003523 0.000000 -0.004760 0.000000
# 3 -0.001575 -0.003523 0.009877 0.000000 0.004653 0.000000
# 4 0.000000 0.000000 0.000000 0.039511 0.000000 0.003208
# 5 0.009398 -0.004760 0.004653 0.000000 0.061134 0.000000
# 6 0.000000 0.000000 0.000000 0.003208 0.000000 0.035647
#
#
# Mechanical properties :
#
#
# Convention : Reuss Voigt Hill
#
# Bulk Modulus (GPa) = 48.72477 55.72482 52.22480
# Shear Modulus (GPa) = 24.25601 27.42049 25.83825
#
# Velocity S-wave (km/s) = 3.49440 3.71536 3.60657
# Velocity P-wave (km/s) = 6.38826 6.81600 6.60559
#
# Compressibility (1/GPa) = 0.02052344
#
# Stress axis : x y z
#
# Youngs Moduli (GPa) = 53.96818 74.87330 101.24280
#
# Poissons Ratio (x) = 0.41336 0.15948
# Poissons Ratio (y) = 0.29795 0.35673
# Poissons Ratio (z) = 0.08501 0.26381
#
# Static dielectric constant tensor:
#      x y z
#    x -0.152050 0.000000 -4.402100 
#    y 0.000000 3.894720 0.000000 
#    z -4.402100 0.000000 -1.371930 
# 
# 
# High freq. dielectric constant tensor:
#      x y z
#    x 1.779880 0.000000 -0.002280 
#    y 0.000000 1.757930 0.000000 
#    z -0.002280 0.000000 1.772940 
# 
# From -- ./inp_files/320036.got.cif
#   From: 2010.06.25/outbox.cif.g09.slc.cpg/sg12_161_cif.got.tgz:320036.got - 2010.06.28 00:19:55.
