data_PCOD8109047
_publ_section_title
;
Structure prediction by ZEFSAII (Michael W. Deem and Ramdas Pophale) SiO2 
 PCOD8109047
Probable space group: C 2/M
;
_chemical_formula_sum "Si O2"
_cell_formula_units_Z 48
_cell_length_a 26.841434
_cell_length_b 8.951600
_cell_length_c 21.763068
_cell_angle_alpha 90.000000
_cell_angle_beta 26.431910
_cell_angle_gamma 90.000000
_cell_volume 2327.647614
_symmetry_space_group_name_H-M "C 2/M"
_symmetry_group_IT_number 12
_symmetry_cell_setting 'monoclinic'
loop_
_space_group_symop_operation_xyz
x,y,z
-x,y,-z
-x,-y,-z
x,-y,z
1/2+x,1/2+y,z
1/2-x,1/2+y,-z
1/2-x,1/2-y,-z
1/2+x,1/2-y,z
loop_
_atom_site_type_symbol
_atom_site_label
_atom_site_fract_x
_atom_site_fract_y
_atom_site_fract_z
Si Si1 0.632068 0.671448 0.623279
Si Si2 0.328678 0.172658 0.099477
Si Si3 0.555902 0.669467 0.843562
Si Si4 0.771393 0.676111 0.679793
Si Si5 0.477494 0.177468 0.369512
Si Si6 0.708401 0.674855 0.108245
O O1 0.649619 0.500000 0.583246
O O2 0.750000 0.750000 0.500000
O O3 0.566051 0.680279 0.759564
O O4 0.557429 0.760952 0.657909
O O5 0.236097 0.250204 0.244981
O O6 0.300046 0.202959 0.059925
O O7 0.327144 0.000000 0.116884
O O8 0.450561 0.234996 0.981925
O O9 0.533886 0.500000 0.888815
O O10 0.668693 0.731426 0.750515
O O11 0.769004 0.500000 0.690136
O O12 0.886873 0.726312 0.520455
O O13 0.594887 0.250287 0.258006
O O14 0.489225 0.000000 0.351931
O O15 0.688672 0.500000 0.117919
O O16 0.750000 0.750000 0.000000
#
# Coordination Sequence:
#
# PCOD8109047 Si02
#       6
#     8   8   8   8   8   8
#     4  11  21  36  60  91 126 162 202 250 306 362
#     4  11  25  41  60  90 123 158 205 258 307 361
#     4  10  21  39  61  88 124 164 205 249 301 365
#     4  10  22  41  62  88 124 164 204 249 305 371
#     4  11  23  41  64  93 126 161 208 256 305 367
#     4  11  25  45  66  91 123 160 204 256 311 367
#
# _framework density 20.621677999999999
#
# number of rings (size 3 to 8) (size 9 to 14) (size 15 to 20)
#    0.000    1.333    1.667    3.500    0.000   11.333 
#    0.000    3.333    0.000    0.000    0.000    0.000 
#    0.000    0.000    0.000    0.000    0.000    0.000 
#
# Total GULP energy -297726.671459 kJ/mol
# GULP energy per Si atom -12405.277977 kJ/mol
# Density = 2.057474 g / cm^3
# Si number density = 20.621678 Si / 1000 Ang^3
#
#
#
# Elastic Constant Matrix: (Units=GPa)
#
#
# Indices 1 2 3 4 5 6 
#
# 1 62.4292 41.8541 38.8231 0.0043 4.3794 -0.0018
# 2 41.8541 88.5336 58.4928 0.0063 0.5742 -0.0049
# 3 38.8231 58.4928 140.8191 0.0044 0.1772 -0.0037
# 4 0.0043 0.0063 0.0044 36.6692 -0.0033 -0.6460
# 5 4.3794 0.5742 0.1772 -0.0033 39.1981 0.0021
# 6 -0.0018 -0.0049 -0.0037 -0.6460 0.0021 36.6511
#
#
#
# Elastic Compliance Matrix: (Units=1/GPa)
#
#
# Indices 1 2 3 4 5 6 
#
# 1 0.024398 -0.009752 -0.002673 -0.000001 -0.002571 0.000000
# 2 -0.009752 0.019467 -0.005398 -0.000001 0.000829 0.000001
# 3 -0.002673 -0.005398 0.010080 0.000000 0.000332 0.000000
# 4 -0.000001 -0.000001 0.000000 0.027279 0.000002 0.000481
# 5 -0.002571 0.000829 0.000332 0.000002 0.025785 -0.000001
# 6 0.000000 0.000001 0.000000 0.000481 -0.000001 0.027293
#
#
# Mechanical properties :
#
#
# Convention : Reuss Voigt Hill
#
# Bulk Modulus (GPa) = 54.64699 63.34689 58.99694
# Shear Modulus (GPa) = 28.40133 32.67780 30.53956
#
# Velocity S-wave (km/s) = 3.71517 3.98506 3.85248
# Velocity P-wave (km/s) = 6.70527 7.20830 6.96133
#
# Compressibility (1/GPa) = 0.01829927
#
# Stress axis : x y z
#
# Youngs Moduli (GPa) = 40.98624 51.36982 99.20539
#
# Poissons Ratio (x) = 0.50095 0.26513
# Poissons Ratio (y) = 0.39969 0.53556
# Poissons Ratio (z) = 0.10954 0.27732
#
# Static dielectric constant tensor:
#      x y z
#    x 3.751110 0.000000 0.054450 
#    y 0.000000 3.794050 0.000000 
#    z 0.054450 0.000000 3.813410 
# 
# 
# High freq. dielectric constant tensor:
#      x y z
#    x 1.808410 0.000000 0.003810 
#    y 0.000000 1.810040 0.000000 
#    z 0.003810 0.000000 1.818280 
# 
# From -- ./inp_files/327148.got.cif
#   From: 2010.06.25/outbox.cif.g09.slc.cpg/sg12_164_cif.got.tgz:327148.got - 2010.06.28 00:19:55.
