data_PCOD8109262
_publ_section_title
;
Structure prediction by ZEFSAII (Michael W. Deem and Ramdas Pophale) SiO2 
 PCOD8109262
Probable space group: C 2/M
;
_chemical_formula_sum "Si O2"
_cell_formula_units_Z 64
_cell_length_a 14.703781
_cell_length_b 17.192350
_cell_length_c 14.164780
_cell_angle_alpha 90.000000
_cell_angle_beta 121.039197
_cell_angle_gamma 90.000000
_cell_volume 3068.040155
_symmetry_space_group_name_H-M "C 2/M"
_symmetry_group_IT_number 12
_symmetry_cell_setting 'monoclinic'
loop_
_space_group_symop_operation_xyz
x,y,z
-x,y,-z
-x,-y,-z
x,-y,z
1/2+x,1/2+y,z
1/2-x,1/2+y,-z
1/2-x,1/2-y,-z
1/2+x,1/2-y,z
loop_
_atom_site_type_symbol
_atom_site_label
_atom_site_fract_x
_atom_site_fract_y
_atom_site_fract_z
Si Si1 0.970352 0.857146 0.269028
Si Si2 0.936349 0.136448 0.874463
Si Si3 0.660961 0.797425 0.511242
Si Si4 0.206436 0.409915 0.704129
Si Si5 0.026824 0.323573 0.722209
Si Si6 0.438124 0.820138 0.873916
Si Si7 0.766534 0.085940 0.265349
Si Si8 0.397265 0.362571 0.491802
O O1 0.939891 0.766506 0.257272
O O2 0.873074 0.903575 0.261548
O O3 0.991555 0.888675 0.175888
O O4 0.083389 0.871137 0.385356
O O5 0.822465 0.095347 0.812680
O O6 0.920433 0.228441 0.862885
O O7 0.000000 0.108164 0.000000
O O8 0.750000 0.750000 0.500000
O O9 0.706130 0.862584 0.605412
O O10 0.577947 0.838419 0.396680
O O11 0.604953 0.728804 0.541086
O O12 0.178614 0.500000 0.669358
O O13 0.122160 0.375254 0.732989
O O14 0.001187 0.350435 0.815614
O O15 0.320658 0.854257 0.815745
O O16 0.500000 0.847664 0.000000
O O17 0.793113 0.096516 0.392279
O O18 0.721419 0.000000 0.225863
O O19 0.500000 0.401514 0.500000
#
# Coordination Sequence:
#
# PCOD8109262 Si02
#       8
#     8   8   8   8   8   8   8   8
#     4   9  19  37  62  88 113 150 200 252 304 358
#     4  10  22  42  65  85 111 156 216 269 303 354
#     4  11  20  37  64  89 118 160 206 251 296 354
#     4  12  25  39  60  93 132 167 200 249 319 389
#     4  10  21  39  63  88 121 161 201 253 307 365
#     4  10  22  41  64  87 112 155 217 266 301 357
#     4  11  22  35  56  87 123 154 185 242 313 374
#     4   9  17  32  55  82 111 144 185 233 287 348
#
# _framework density 20.860222
#
# number of rings (size 3 to 8) (size 9 to 14) (size 15 to 20)
#    0.000    1.750    0.000    7.125    0.000    5.750 
#    0.000    9.375    0.000    0.000    0.000    0.000 
#    0.000    0.000    0.000    0.000    0.000    0.000 
#
# Total GULP energy -396637.259861 kJ/mol
# GULP energy per Si atom -12394.914371 kJ/mol
# Density = 2.081274 g / cm^3
# Si number density = 20.860222 Si / 1000 Ang^3
#
#
#
# Elastic Constant Matrix: (Units=GPa)
#
#
# Indices 1 2 3 4 5 6 
#
# 1 110.3260 33.0752 51.6774 0.0000 -5.9358 0.0000
# 2 33.0752 63.2161 31.6679 0.0000 -3.6384 0.0000
# 3 51.6774 31.6679 138.2243 0.0000 -12.6586 0.0000
# 4 0.0000 0.0000 0.0000 2.0552 0.0000 3.6224
# 5 -5.9358 -3.6384 -12.6586 0.0000 31.6837 0.0000
# 6 0.0000 0.0000 0.0000 3.6224 0.0000 11.2327
#
#
#
# Elastic Compliance Matrix: (Units=1/GPa)
#
#
# Indices 1 2 3 4 5 6 
#
# 1 0.012060 -0.004572 -0.003428 0.000000 0.000365 0.000000
# 2 -0.004572 0.019608 -0.002756 0.000000 0.000294 0.000000
# 3 -0.003428 -0.002756 0.009404 0.000000 0.002798 0.000000
# 4 0.000000 0.000000 0.000000 1.127321 0.000000 -0.363541
# 5 0.000365 0.000294 0.002798 0.000000 0.032782 0.000000
# 6 0.000000 0.000000 0.000000 -0.363541 0.000000 0.206261
#
#
# Mechanical properties :
#
#
# Convention : Reuss Voigt Hill
#
# Bulk Modulus (GPa) = 51.12353 60.51191 55.81772
# Shear Modulus (GPa) = 3.48318 22.01739 12.75029
#
# Velocity S-wave (km/s) = 1.29360 3.25233 2.47498
# Velocity P-wave (km/s) = 5.17610 6.57075 5.91468
#
# Compressibility (1/GPa) = 0.01956047
#
# Stress axis : x y z
#
# Youngs Moduli (GPa) = 82.91928 50.99878 106.33782
#
# Poissons Ratio (x) = 0.23315 0.36453
# Poissons Ratio (y) = 0.37907 0.29310
# Poissons Ratio (z) = 0.28425 0.14057
#
# Static dielectric constant tensor:
#      x y z
#    x 3.804310 0.000000 -0.081230 
#    y 0.000000 3.611040 0.000000 
#    z -0.081230 0.000000 4.006870 
# 
# 
# High freq. dielectric constant tensor:
#      x y z
#    x 1.819580 0.000000 -0.000470 
#    y 0.000000 1.795750 0.000000 
#    z -0.000470 0.000000 1.817580 
# 
# From -- ./inp_files/216840.got.cif
#   From: 2010.06.25/outbox.cif.g09.slc.cpg/sg12_109_cif.got.tgz:216840.got - 2010.06.28 00:19:55.
