data_PCOD8109664
_publ_section_title
;
Structure prediction by ZEFSAII (Michael W. Deem and Ramdas Pophale) SiO2 
 PCOD8109664
Probable space group: C 2/M
;
_chemical_formula_sum "Si O2"
_cell_formula_units_Z 56
_cell_length_a 11.485248
_cell_length_b 24.811419
_cell_length_c 11.723494
_cell_angle_alpha 90.000000
_cell_angle_beta 132.200684
_cell_angle_gamma 90.000000
_cell_volume 2474.845049
_symmetry_space_group_name_H-M "C 2/M"
_symmetry_group_IT_number 12
_symmetry_cell_setting 'monoclinic'
loop_
_space_group_symop_operation_xyz
x,y,z
-x,y,-z
-x,-y,-z
x,-y,z
1/2+x,1/2+y,z
1/2-x,1/2+y,-z
1/2-x,1/2-y,-z
1/2+x,1/2-y,z
loop_
_atom_site_type_symbol
_atom_site_label
_atom_site_fract_x
_atom_site_fract_y
_atom_site_fract_z
Si Si1 0.413522 0.687129 0.115408
Si Si2 0.662925 0.593027 0.106570
Si Si3 0.941440 0.302970 0.081880
Si Si4 0.156901 0.560026 0.157378
Si Si5 0.000592 0.595102 0.264981
Si Si6 0.484007 0.385387 0.358070
Si Si7 0.252139 0.063284 0.408098
O O1 0.506204 0.742201 0.145027
O O2 0.510403 0.662682 0.286022
O O3 0.394329 0.648063 0.993235
O O4 0.243896 0.701513 0.051652
O O5 0.709716 0.599459 0.269498
O O6 0.820325 0.571328 0.145987
O O7 0.500000 0.556662 0.000000
O O8 0.999322 0.342878 0.221331
O O9 0.000000 0.325663 0.000000
O O10 0.184044 0.500000 0.129583
O O11 0.118487 0.559298 0.266268
O O12 0.308950 0.592845 0.220368
O O13 0.000000 0.586558 0.000000
O O14 0.080546 0.588141 0.441050
O O15 0.500000 0.366816 0.500000
O O16 0.615906 0.430045 0.414822
O O17 0.268485 0.000000 0.387375
#
# Coordination Sequence:
#
# PCOD8109664 Si02
#       7
#     8   8   8   8   8   8   8
#     4  10  22  43  67 101 132 177 225 286 343 401
#     4  11  23  44  69  94 134 177 231 285 333 403
#     4  10  21  39  71  99 133 176 228 282 343 405
#     4  11  23  39  65  96 132 173 225 283 336 401
#     4  11  23  42  65  97 135 179 225 280 338 408
#     4  12  24  43  69  97 141 176 224 280 347 410
#     4  12  27  44  67  98 139 187 226 276 347 413
#
# _framework density 22.627680000000002
#
# number of rings (size 3 to 8) (size 9 to 14) (size 15 to 20)
#    0.000    1.000    2.857    4.714    0.000    2.571 
#    0.000    5.000    0.000    0.000    0.000    0.000 
#    0.000    0.000    0.000    0.000    0.000    0.000 
#
# Total GULP energy -346867.174642 kJ/mol
# GULP energy per Si atom -12388.113380 kJ/mol
# Density = 2.257618 g / cm^3
# Si number density = 22.627680 Si / 1000 Ang^3
#
#
#
# Elastic Constant Matrix: (Units=GPa)
#
#
# Indices 1 2 3 4 5 6 
#
# 1 100.3667 21.5950 24.0170 0.0000 9.6217 0.0000
# 2 21.5950 111.3032 56.6053 0.0000 -12.5952 0.0000
# 3 24.0170 56.6053 147.7133 0.0000 -4.5467 0.0000
# 4 0.0000 0.0000 0.0000 10.9926 0.0000 -15.3325
# 5 9.6217 -12.5952 -4.5467 0.0000 49.1864 0.0000
# 6 0.0000 0.0000 0.0000 -15.3325 0.0000 -8.2714
#
#
#
# Elastic Compliance Matrix: (Units=1/GPa)
#
#
# Indices 1 2 3 4 5 6 
#
# 1 0.010893 -0.001834 -0.001152 0.000000 -0.002707 0.000000
# 2 -0.001834 0.011775 -0.004122 0.000000 0.002993 0.000000
# 3 -0.001152 -0.004122 0.008535 0.000000 -0.000041 0.000000
# 4 0.000000 0.000000 0.000000 0.025372 0.000000 -0.047031
# 5 -0.002707 0.002993 -0.000041 0.000000 0.021623 0.000000
# 6 0.000000 0.000000 0.000000 -0.047031 0.000000 -0.033718
#
#
# Mechanical properties :
#
#
# Convention : Reuss Voigt Hill
#
# Bulk Modulus (GPa) = 58.86393 62.64644 60.75518
# Shear Modulus (GPa) = 77.68953 27.52591 52.60772
#
# Velocity S-wave (km/s) = 5.86587 3.49158 4.82698
# Velocity P-wave (km/s) = 8.48224 6.63330 7.61410
#
# Compressibility (1/GPa) = 0.01698833
#
# Stress axis : x y z
#
# Youngs Moduli (GPa) = 91.80052 84.92278 117.15805
#
# Poissons Ratio (x) = 0.15576 0.13492
# Poissons Ratio (y) = 0.16838 0.48294
# Poissons Ratio (z) = 0.10572 0.35006
#
# Static dielectric constant tensor:
#      x y z
#    x 4.434280 0.000000 0.115230 
#    y 0.000000 3.909970 0.000000 
#    z 0.115230 0.000000 4.208510 
# 
# 
# High freq. dielectric constant tensor:
#      x y z
#    x 1.915850 0.000000 -0.001150 
#    y 0.000000 1.866200 0.000000 
#    z -0.001150 0.000000 1.889490 
# 
# From -- ./inp_files/137017.got.cif
#   From: 2010.06.25/outbox.cif.g09.slc.cpg/sg12_69_cif.got.tgz:137017.got - 2010.06.28 00:19:55.
