data_PCOD8109111
_publ_section_title
;
Structure prediction by ZEFSAII (Michael W. Deem and Ramdas Pophale) SiO2 
 PCOD8109111
Probable space group: C 2/M
;
_chemical_formula_sum "Si O2"
_cell_formula_units_Z 48
_cell_length_a 24.470868
_cell_length_b 9.014200
_cell_length_c 18.118965
_cell_angle_alpha 90.000000
_cell_angle_beta 36.603584
_cell_angle_gamma 90.000000
_cell_volume 2383.178753
_symmetry_space_group_name_H-M "C 2/M"
_symmetry_group_IT_number 12
_symmetry_cell_setting 'monoclinic'
loop_
_space_group_symop_operation_xyz
x,y,z
-x,y,-z
-x,-y,-z
x,-y,z
1/2+x,1/2+y,z
1/2-x,1/2+y,-z
1/2-x,1/2-y,-z
1/2+x,1/2-y,z
loop_
_atom_site_type_symbol
_atom_site_label
_atom_site_fract_x
_atom_site_fract_y
_atom_site_fract_z
Si Si1 0.657439 0.828007 0.126655
Si Si2 0.584606 0.834460 0.855420
Si Si3 0.761205 0.329852 0.685379
Si Si4 0.479346 0.170686 0.235588
Si Si5 0.587204 0.829329 0.359977
Si Si6 0.820951 0.173569 0.477584
O O1 0.586508 0.805665 0.136147
O O2 0.610894 0.761686 0.252901
O O3 0.680798 0.000000 0.114878
O O4 0.750000 0.750000 0.000000
O O5 0.656615 0.719389 0.812260
O O6 0.547072 0.777694 0.817687
O O7 0.627738 0.000000 0.801034
O O8 0.500000 0.840436 0.000000
O O9 0.764629 0.500000 0.654508
O O10 0.819429 0.308437 0.695977
O O11 0.800279 0.218712 0.582844
O O12 0.423699 0.273646 0.351668
O O13 0.451880 0.000000 0.278885
O O14 0.500000 0.757033 0.500000
O O15 0.560455 0.000000 0.376543
O O16 0.750000 0.250000 0.500000
O O17 0.811686 0.000000 0.477045
#
# Coordination Sequence:
#
# PCOD8109111 Si02
#       6
#     8   8   8   8   8   8
#     4  10  22  40  63  91 122 161 207 254 305 361
#     4  10  22  38  57  84 119 159 199 246 302 355
#     4  11  22  37  61  90 118 156 200 247 300 357
#     4  10  21  39  62  86 118 161 202 244 297 358
#     4   9  19  38  62  87 118 159 205 250 297 355
#     4  12  23  37  59  89 122 154 191 242 301 361
#
# _framework density 20.141165000000001
#
# number of rings (size 3 to 8) (size 9 to 14) (size 15 to 20)
#    0.000    1.667    1.667    3.000    2.333    3.667 
#    0.000    0.833    0.000    3.500    0.000    0.000 
#    0.000    0.000    0.000    0.000    0.000    0.000 
#
# Total GULP energy -297531.789110 kJ/mol
# GULP energy per Si atom -12397.157880 kJ/mol
# Density = 2.009532 g / cm^3
# Si number density = 20.141165 Si / 1000 Ang^3
#
#
#
# Elastic Constant Matrix: (Units=GPa)
#
#
# Indices 1 2 3 4 5 6 
#
# 1 97.3116 31.0598 40.8529 -0.0001 -14.2463 0.0002
# 2 31.0598 82.0597 33.2607 -0.0016 -14.5850 0.0013
# 3 40.8529 33.2607 123.0590 0.0000 -7.7773 0.0003
# 4 -0.0001 -0.0016 0.0000 36.8533 0.0003 -5.0075
# 5 -14.2463 -14.5850 -7.7773 0.0003 32.5056 -0.0002
# 6 0.0002 0.0013 0.0003 -5.0075 -0.0002 24.9799
#
#
#
# Elastic Compliance Matrix: (Units=1/GPa)
#
#
# Indices 1 2 3 4 5 6 
#
# 1 0.013160 -0.002985 -0.003332 0.000000 0.003631 0.000000
# 2 -0.002985 0.015339 -0.002846 0.000001 0.004894 -0.000001
# 3 -0.003332 -0.002846 0.009980 0.000000 -0.000350 0.000000
# 4 0.000000 0.000001 0.000000 0.027894 0.000000 0.005592
# 5 0.003631 0.004894 -0.000350 0.000000 0.034467 0.000000
# 6 0.000000 -0.000001 0.000000 0.005592 0.000000 0.041153
#
#
# Mechanical properties :
#
#
# Convention : Reuss Voigt Hill
#
# Bulk Modulus (GPa) = 49.62242 56.97524 53.29883
# Shear Modulus (GPa) = 29.93354 32.01820 30.97587
#
# Velocity S-wave (km/s) = 3.85929 3.99142 3.92591
# Velocity P-wave (km/s) = 6.67455 7.04211 6.86079
#
# Compressibility (1/GPa) = 0.02015218
#
# Stress axis : x y z
#
# Youngs Moduli (GPa) = 75.99044 65.19226 100.20492
#
# Poissons Ratio (x) = 0.19459 0.33393
# Poissons Ratio (y) = 0.22682 0.28516
# Poissons Ratio (z) = 0.25324 0.18552
#
# Static dielectric constant tensor:
#      x y z
#    x 3.513920 -0.000070 0.189530 
#    y -0.000070 5.334690 0.000000 
#    z 0.189530 0.000000 3.862950 
# 
# 
# High freq. dielectric constant tensor:
#      x y z
#    x 1.795780 0.000000 -0.002660 
#    y 0.000000 1.760080 0.000000 
#    z -0.002660 0.000000 1.794000 
# 
# From -- ./inp_files/327192.got.cif
#   From: 2010.06.25/outbox.cif.g09.slc.cpg/sg12_164_cif.got.tgz:327192.got - 2010.06.28 00:19:55.
