data_PCOD8109630
_publ_section_title
;
Structure prediction by ZEFSAII (Michael W. Deem and Ramdas Pophale) SiO2 
 PCOD8109630
Probable space group: C 2/M
;
_chemical_formula_sum "Si O2"
_cell_formula_units_Z 56
_cell_length_a 30.730627
_cell_length_b 19.190097
_cell_length_c 5.184560
_cell_angle_alpha 90.000000
_cell_angle_beta 60.509343
_cell_angle_gamma 90.000000
_cell_volume 2661.321433
_symmetry_space_group_name_H-M "C 2/M"
_symmetry_group_IT_number 12
_symmetry_cell_setting 'monoclinic'
loop_
_space_group_symop_operation_xyz
x,y,z
-x,y,-z
-x,-y,-z
x,-y,z
1/2+x,1/2+y,z
1/2-x,1/2+y,-z
1/2-x,1/2-y,-z
1/2+x,1/2-y,z
loop_
_atom_site_type_symbol
_atom_site_label
_atom_site_fract_x
_atom_site_fract_y
_atom_site_fract_z
Si Si1 0.531064 0.381917 0.157751
Si Si2 0.054446 0.268779 0.247596
Si Si3 0.684142 0.625483 0.240325
Si Si4 0.675074 0.000000 0.719151
Si Si5 0.345781 0.773336 0.777701
Si Si6 0.137680 0.649906 0.782696
Si Si7 0.239730 0.500000 0.030942
Si Si8 0.637588 0.575835 0.874924
O O1 0.500000 0.401022 0.500000
O O2 0.547230 0.301247 0.105903
O O3 0.500000 0.400737 0.000000
O O4 0.579039 0.430532 0.000941
O O5 0.094863 0.252385 0.360280
O O6 0.000000 0.295730 0.500000
O O7 0.079415 0.327322 0.989058
O O8 0.691731 0.707280 0.149786
O O9 0.730924 0.573358 0.086107
O O10 0.662697 0.626778 0.593212
O O11 0.643982 0.599971 0.149117
O O12 0.639910 0.066783 0.784187
O O13 0.696697 0.000000 0.943985
O O14 0.719133 0.000000 0.380990
O O15 0.339838 0.823787 0.551382
O O16 0.329000 0.815989 0.082811
O O17 0.662366 0.500000 0.761262
#
# Coordination Sequence:
#
# PCOD8109630 Si02
#       8
#     8   8   8   4   8   8   4   8
#     4  11  23  34  55  88 128 174 220 262 310 368
#     4   9  21  35  65  96 127 165 218 254 301 385
#     4  12  22  42  63  99 125 166 226 272 324 376
#     4  12  26  50  69  95 131 167 202 278 342 416
#     4  10  21  39  67  95 131 172 209 269 313 376
#     4  10  23  42  67  96 131 172 209 255 342 385
#     4  12  26  44  72  96 124 172 226 264 332 402
#     4  12  22  37  58  84 131 177 219 271 318 368
#
# _framework density 21.042179999999998
#
# number of rings (size 3 to 8) (size 9 to 14) (size 15 to 20)
#    0.857    0.286    2.857    4.286    6.000    0.571 
#    0.000    4.643    0.000    0.857    0.000    0.000 
#    0.000    0.000    0.000    0.000    0.000    0.000 
#
# Total GULP energy -347002.213650 kJ/mol
# GULP energy per Si atom -12392.936202 kJ/mol
# Density = 2.099429 g / cm^3
# Si number density = 21.042180 Si / 1000 Ang^3
#
#
#
# Elastic Constant Matrix: (Units=GPa)
#
#
# Indices 1 2 3 4 5 6 
#
# 1 51.0910 11.9450 15.0232 0.0000 19.1207 0.0000
# 2 11.9450 106.9448 14.0428 0.0000 2.5066 0.0000
# 3 15.0232 14.0428 82.0333 0.0000 15.7330 0.0000
# 4 0.0000 0.0000 0.0000 27.3538 0.0000 -3.8156
# 5 19.1207 2.5066 15.7330 0.0000 37.3626 0.0000
# 6 0.0000 0.0000 0.0000 -3.8156 0.0000 31.5644
#
#
#
# Elastic Compliance Matrix: (Units=1/GPa)
#
#
# Indices 1 2 3 4 5 6 
#
# 1 0.025123 -0.002274 -0.001931 0.000000 -0.011891 0.000000
# 2 -0.002274 0.009772 -0.001473 0.000000 0.001128 0.000000
# 3 -0.001931 -0.001473 0.013693 0.000000 -0.004679 0.000000
# 4 0.000000 0.000000 0.000000 0.037185 0.000000 0.004495
# 5 -0.011891 0.001128 -0.004679 0.000000 0.034745 0.000000
# 6 0.000000 0.000000 0.000000 0.004495 0.000000 0.032225
#
#
# Mechanical properties :
#
#
# Convention : Reuss Voigt Hill
#
# Bulk Modulus (GPa) = 26.85835 35.78790 31.32313
# Shear Modulus (GPa) = 28.32741 32.52669 30.42705
#
# Velocity S-wave (km/s) = 3.67307 3.93591 3.80676
# Velocity P-wave (km/s) = 5.54800 6.14002 5.85150
#
# Compressibility (1/GPa) = 0.03723237
#
# Stress axis : x y z
#
# Youngs Moduli (GPa) = 39.80494 102.33828 73.02834
#
# Poissons Ratio (x) = 0.23269 0.14102
# Poissons Ratio (y) = 0.09051 0.10755
# Poissons Ratio (z) = 0.07687 0.15071
#
# Static dielectric constant tensor:
#      x y z
#    x 3.708200 0.000000 0.174680 
#    y 0.000000 3.750020 0.000000 
#    z 0.174680 0.000000 3.729700 
# 
# 
# High freq. dielectric constant tensor:
#      x y z
#    x 1.812080 0.000000 0.020230 
#    y 0.000000 1.819830 0.000000 
#    z 0.020230 0.000000 1.823390 
# 
# From -- ./inp_files/31999.got.cif
#   From: 2010.06.25/outbox.cif.g09.slc.cpg/sg12_16_cif.got.tgz:31999.got - 2010.06.28 00:19:55.
