data_PCOD8109427
_publ_section_title
;
Structure prediction by ZEFSAII (Michael W. Deem and Ramdas Pophale) SiO2 
 PCOD8109427
Probable space group: C 2/M
;
_chemical_formula_sum "Si O2"
_cell_formula_units_Z 48
_cell_length_a 29.541520
_cell_length_b 8.955527
_cell_length_c 18.499858
_cell_angle_alpha 90.000000
_cell_angle_beta 29.656872
_cell_angle_gamma 90.000000
_cell_volume 2421.732580
_symmetry_space_group_name_H-M "C 2/M"
_symmetry_group_IT_number 12
_symmetry_cell_setting 'monoclinic'
loop_
_space_group_symop_operation_xyz
x,y,z
-x,y,-z
-x,-y,-z
x,-y,z
1/2+x,1/2+y,z
1/2-x,1/2+y,-z
1/2-x,1/2-y,-z
1/2+x,1/2-y,z
loop_
_atom_site_type_symbol
_atom_site_label
_atom_site_fract_x
_atom_site_fract_y
_atom_site_fract_z
Si Si1 0.045400 0.664836 0.860747
Si Si2 0.546337 0.325612 0.143032
Si Si3 0.227883 0.174444 0.605188
Si Si4 0.898791 0.827261 0.621358
Si Si5 0.256797 0.676565 0.068682
Si Si6 0.118853 0.829373 0.523069
O O1 0.077624 0.500000 0.788494
O O2 0.126863 0.776729 0.765720
O O3 0.977299 0.733217 0.895823
O O4 0.000000 0.643067 0.000000
O O5 0.543104 0.500000 0.128135
O O6 0.474898 0.286788 0.306013
O O7 0.646741 0.276668 0.029687
O O8 0.250000 0.250000 0.500000
O O9 0.299498 0.223272 0.566055
O O10 0.231538 0.000000 0.590734
O O11 0.824571 0.731076 0.766972
O O12 0.890404 0.801420 0.548292
O O13 0.000000 0.771024 0.500000
O O14 0.885512 0.000000 0.661767
O O15 0.250143 0.500000 0.068458
O O16 0.250000 0.750000 0.000000
O O17 0.145172 0.000000 0.503999
#
# Coordination Sequence:
#
# PCOD8109427 Si02
#       6
#     8   8   8   8   8   8
#     4  11  25  42  62  91 126 165 211 259 312 371
#     4  10  22  41  64  90 123 166 210 255 311 372
#     4  12  24  40  63  91 125 166 213 258 310 367
#     4  10  22  42  67  94 126 165 206 253 312 372
#     4  11  24  42  65  95 128 165 209 255 311 371
#     4  10  21  39  64  91 123 164 208 257 312 370
#
# _framework density 19.820519000000001
#
# number of rings (size 3 to 8) (size 9 to 14) (size 15 to 20)
#    0.000    1.333    1.667    3.500    2.333    6.333 
#    0.000    1.667    0.000    0.000    0.000    0.000 
#    0.000    0.000    0.000    0.000    0.000    0.000 
#
# Total GULP energy -297652.336714 kJ/mol
# GULP energy per Si atom -12402.180696 kJ/mol
# Density = 1.977541 g / cm^3
# Si number density = 19.820519 Si / 1000 Ang^3
#
#
#
# Elastic Constant Matrix: (Units=GPa)
#
#
# Indices 1 2 3 4 5 6 
#
# 1 135.3092 79.1945 81.8150 -0.0010 -17.3349 0.0004
# 2 79.1945 123.7493 57.9428 -0.0047 -9.8326 0.0024
# 3 81.8150 57.9428 121.2022 -0.0052 -10.5573 0.0014
# 4 -0.0010 -0.0047 -0.0052 33.4275 0.0031 2.2721
# 5 -17.3349 -9.8326 -10.5573 0.0031 41.9637 -0.0005
# 6 0.0004 0.0024 0.0014 2.2721 -0.0005 26.3649
#
#
#
# Elastic Compliance Matrix: (Units=1/GPa)
#
#
# Indices 1 2 3 4 5 6 
#
# 1 0.016207 -0.006601 -0.007500 -0.000002 0.003261 0.000001
# 2 -0.006601 0.013160 -0.001845 0.000001 -0.000107 -0.000001
# 3 -0.007500 -0.001845 0.014199 0.000002 0.000042 -0.000001
# 4 -0.000002 0.000001 0.000002 0.030092 -0.000002 -0.002593
# 5 0.003261 -0.000107 0.000042 -0.000002 0.025163 0.000001
# 6 0.000001 -0.000001 -0.000001 -0.002593 0.000001 0.038153
#
#
# Mechanical properties :
#
#
# Convention : Reuss Voigt Hill
#
# Bulk Modulus (GPa) = 85.66044 90.90724 88.28384
# Shear Modulus (GPa) = 28.94231 31.10513 30.02372
#
# Velocity S-wave (km/s) = 3.82543 3.96579 3.89624
# Velocity P-wave (km/s) = 7.92614 8.18137 8.05477
#
# Compressibility (1/GPa) = 0.01167400
#
# Stress axis : x y z
#
# Youngs Moduli (GPa) = 61.70318 75.98511 70.42529
#
# Poissons Ratio (x) = 0.50155 0.52821
# Poissons Ratio (y) = 0.40728 0.12996
# Poissons Ratio (z) = 0.46280 0.14022
#
# Static dielectric constant tensor:
#      x y z
#    x 3.759300 -0.000010 -0.088140 
#    y -0.000010 3.727370 0.000000 
#    z -0.088140 0.000000 3.709890 
# 
# 
# High freq. dielectric constant tensor:
#      x y z
#    x 1.788010 0.000000 -0.001690 
#    y 0.000000 1.776840 0.000000 
#    z -0.001690 0.000000 1.783200 
# 
# From -- ./inp_files/295357.got.cif
#   From: 2010.06.25/outbox.cif.g09.slc.cpg/sg12_148_cif.got.tgz:295357.got - 2010.06.28 00:19:55.
