data_PCOD8109380
_publ_section_title
;
Structure prediction by ZEFSAII (Michael W. Deem and Ramdas Pophale) SiO2 
 PCOD8109380
Probable space group: C 2/M
;
_chemical_formula_sum "Si O2"
_cell_formula_units_Z 60
_cell_length_a 12.808333
_cell_length_b 20.507191
_cell_length_c 24.471867
_cell_angle_alpha 90.000000
_cell_angle_beta 152.206906
_cell_angle_gamma 90.000000
_cell_volume 2997.179084
_symmetry_space_group_name_H-M "C 2/M"
_symmetry_group_IT_number 12
_symmetry_cell_setting 'monoclinic'
loop_
_space_group_symop_operation_xyz
x,y,z
-x,y,-z
-x,-y,-z
x,-y,z
1/2+x,1/2+y,z
1/2-x,1/2+y,-z
1/2-x,1/2-y,-z
1/2+x,1/2-y,z
loop_
_atom_site_type_symbol
_atom_site_label
_atom_site_fract_x
_atom_site_fract_y
_atom_site_fract_z
Si Si1 0.509900 0.743544 0.608822
Si Si2 0.019847 0.806006 0.946283
Si Si3 0.000000 0.162837 0.500000
Si Si4 0.090611 0.342635 0.949654
Si Si5 0.909842 0.924265 0.172526
Si Si6 0.730416 0.573107 0.530813
Si Si7 0.110888 0.874114 0.717831
Si Si8 0.799816 0.375990 0.281377
O O1 0.250000 0.750000 0.500000
O O2 0.586222 0.706064 0.589743
O O3 0.595749 0.704244 0.701825
O O4 0.619268 0.812846 0.648270
O O5 0.009985 0.728461 0.932310
O O6 0.816452 0.846792 0.826155
O O7 0.251797 0.834742 0.029982
O O8 0.000000 0.822550 0.000000
O O9 0.797854 0.118131 0.428838
O O10 0.877582 0.387994 0.834766
O O11 0.215407 0.379679 0.056895
O O12 0.968799 0.896793 0.259620
O O13 0.133731 0.919071 0.240499
O O14 0.835706 0.000000 0.140880
O O15 0.682864 0.500000 0.526596
O O16 0.548107 0.591205 0.400033
O O17 0.986280 0.579137 0.630756
#
# Coordination Sequence:
#
# PCOD8109380 Si02
#       8
#     8   8   4   8   8   8   8   8
#     4  11  22  40  60  97 126 155 207 258 319 368
#     4  10  21  39  63  95 124 157 204 258 319 367
#     4  10  23  38  60  84 125 164 198 252 302 364
#     4  10  22  39  60  93 126 162 204 259 310 364
#     4  11  25  41  62  90 128 175 209 246 306 372
#     4  11  24  42  61  89 126 167 209 246 303 373
#     4  11  22  39  62  93 124 163 208 258 308 364
#     4  11  23  40  65  93 125 162 200 265 308 371
#
# _framework density 20.018823999999999
#
# number of rings (size 3 to 8) (size 9 to 14) (size 15 to 20)
#    0.000    1.333    4.000    2.200    1.867    4.267 
#    0.000    1.333    0.000   11.600    0.000    0.000 
#    0.000    0.000    0.000    0.000    0.000    0.000 
#
# Total GULP energy -371815.731994 kJ/mol
# GULP energy per Si atom -12393.857733 kJ/mol
# Density = 1.997326 g / cm^3
# Si number density = 20.018824 Si / 1000 Ang^3
#
#
#
# Elastic Constant Matrix: (Units=GPa)
#
#
# Indices 1 2 3 4 5 6 
#
# 1 113.8652 31.1117 53.9636 0.0029 -16.0094 0.0011
# 2 31.1117 82.0962 20.2985 0.0071 -10.5604 0.0005
# 3 53.9636 20.2985 119.7480 0.0285 7.0893 0.0004
# 4 0.0029 0.0071 0.0285 18.7097 0.0024 -0.4270
# 5 -16.0094 -10.5604 7.0893 0.0024 27.5021 0.0019
# 6 0.0011 0.0005 0.0004 -0.4270 0.0019 13.7509
#
#
#
# Elastic Compliance Matrix: (Units=1/GPa)
#
#
# Indices 1 2 3 4 5 6 
#
# 1 0.013623 -0.002524 -0.006218 0.000007 0.008564 -0.000002
# 2 -0.002524 0.014064 -0.001503 -0.000003 0.004319 -0.000001
# 3 -0.006218 -0.001503 0.011837 -0.000016 -0.007248 0.000001
# 4 0.000007 -0.000003 -0.000016 0.053486 0.000002 0.001661
# 5 0.008564 0.004319 -0.007248 0.000002 0.044873 -0.000007
# 6 -0.000002 -0.000001 0.000001 0.001661 -0.000007 0.072774
#
#
# Mechanical properties :
#
#
# Convention : Reuss Voigt Hill
#
# Bulk Modulus (GPa) = 52.53380 58.49520 55.51450
# Shear Modulus (GPa) = 21.05344 26.01492 23.53418
#
# Velocity S-wave (km/s) = 3.24648 3.60880 3.43243
# Velocity P-wave (km/s) = 6.35233 6.82994 6.59546
#
# Compressibility (1/GPa) = 0.01903536
#
# Stress axis : x y z
#
# Youngs Moduli (GPa) = 73.40556 71.10254 84.48150
#
# Poissons Ratio (x) = 0.17943 0.52533
# Poissons Ratio (y) = 0.18524 0.12693
# Poissons Ratio (z) = 0.45646 0.10683
#
# Static dielectric constant tensor:
#      x y z
#    x 3.671430 0.000010 0.051710 
#    y 0.000010 3.641680 -0.000030 
#    z 0.051710 -0.000030 3.668370 
# 
# 
# High freq. dielectric constant tensor:
#      x y z
#    x 1.779620 0.000000 0.008530 
#    y 0.000000 1.781440 0.000000 
#    z 0.008530 0.000000 1.787160 
# 
# From -- ./inp_files/336872.got.cif
#   From: 2010.06.25/outbox.cif.g09.slc.cpg/sg12_169_cif.got.tgz:336872.got - 2010.06.28 00:19:55.
