data_PCOD8109229
_publ_section_title
;
Structure prediction by ZEFSAII (Michael W. Deem and Ramdas Pophale) SiO2 
 PCOD8109229
Probable space group: C 2/M
;
_chemical_formula_sum "Si O2"
_cell_formula_units_Z 48
_cell_length_a 29.193264
_cell_length_b 17.894194
_cell_length_c 9.538968
_cell_angle_alpha 90.000000
_cell_angle_beta 150.140567
_cell_angle_gamma 90.000000
_cell_volume 2480.935566
_symmetry_space_group_name_H-M "C 2/M"
_symmetry_group_IT_number 12
_symmetry_cell_setting 'monoclinic'
loop_
_space_group_symop_operation_xyz
x,y,z
-x,y,-z
-x,-y,-z
x,-y,z
1/2+x,1/2+y,z
1/2-x,1/2+y,-z
1/2-x,1/2-y,-z
1/2+x,1/2-y,z
loop_
_atom_site_type_symbol
_atom_site_label
_atom_site_fract_x
_atom_site_fract_y
_atom_site_fract_z
Si Si1 0.792235 0.333506 0.771398
Si Si2 0.315151 0.307508 0.253580
Si Si3 0.895503 0.913533 0.236300
Si Si4 0.580928 0.817273 0.327684
Si Si5 0.725102 0.663159 0.296859
Si Si6 0.481840 0.911806 0.291646
O O1 0.741260 0.354500 0.779936
O O2 0.725131 0.350993 0.463078
O O3 0.816124 0.245413 0.841632
O O4 0.882031 0.382433 0.986111
O O5 0.351102 0.368563 0.243921
O O6 0.399386 0.263277 0.550143
O O7 0.250000 0.250000 0.000000
O O8 0.000000 0.887435 0.500000
O O9 0.887806 0.000000 0.252850
O O10 0.842362 0.897118 0.950797
O O11 0.672402 0.846042 0.493216
O O12 0.556400 0.875313 0.385918
O O13 0.500000 0.808950 0.000000
O O14 0.500000 0.888297 0.500000
O O15 0.486876 0.000000 0.283314
#
# Coordination Sequence:
#
# PCOD8109229 Si02
#       6
#     8   8   8   8   8   8
#     4  10  21  39  62  93 125 164 209 251 314 366
#     4  11  22  40  66  96 123 164 212 260 314 365
#     4  11  26  44  65  92 124 169 215 259 313 368
#     4  11  22  40  64  98 125 166 210 254 316 377
#     4  10  22  41  64  91 126 164 212 259 305 376
#     4  11  25  38  57  95 134 167 204 251 318 381
#
# _framework density 19.347539999999999
#
# number of rings (size 3 to 8) (size 9 to 14) (size 15 to 20)
#    0.000    1.333    5.000    1.000    2.333    2.333 
#    0.000    0.000    0.000    2.500    0.000    0.000 
#    0.000    0.000    0.000    0.000    0.000    0.000 
#
# Total GULP energy -297667.224752 kJ/mol
# GULP energy per Si atom -12402.801031 kJ/mol
# Density = 1.930350 g / cm^3
# Si number density = 19.347540 Si / 1000 Ang^3
#
#
#
# Elastic Constant Matrix: (Units=GPa)
#
#
# Indices 1 2 3 4 5 6 
#
# 1 118.7012 38.5433 33.2155 0.0000 -14.9185 0.0000
# 2 38.5433 50.6887 24.5937 0.0000 1.8365 0.0000
# 3 33.2155 24.5937 106.0382 0.0000 -3.6590 0.0000
# 4 0.0000 0.0000 0.0000 19.1817 0.0000 5.8730
# 5 -14.9185 1.8365 -3.6590 0.0000 30.4435 0.0000
# 6 0.0000 0.0000 0.0000 5.8730 0.0000 30.4072
#
#
#
# Elastic Compliance Matrix: (Units=1/GPa)
#
#
# Indices 1 2 3 4 5 6 
#
# 1 0.012647 -0.009061 -0.001634 0.000000 0.006548 0.000000
# 2 -0.009061 0.028840 -0.004081 0.000000 -0.006670 0.000000
# 3 -0.001634 -0.004081 0.010915 0.000000 0.000757 0.000000
# 4 0.000000 0.000000 0.000000 0.055410 0.000000 -0.010702
# 5 0.006548 -0.006670 0.000757 0.000000 0.036550 0.000000
# 6 0.000000 0.000000 0.000000 -0.010702 0.000000 0.034954
#
#
# Mechanical properties :
#
#
# Convention : Reuss Voigt Hill
#
# Bulk Modulus (GPa) = 43.76358 52.01478 47.88918
# Shear Modulus (GPa) = 23.09646 27.94486 25.52066
#
# Velocity S-wave (km/s) = 3.45884 3.80460 3.63583
# Velocity P-wave (km/s) = 6.21452 6.80020 6.51395
#
# Compressibility (1/GPa) = 0.02285005
#
# Stress axis : x y z
#
# Youngs Moduli (GPa) = 79.07097 34.67425 91.61694
#
# Poissons Ratio (x) = 0.31418 0.14971
# Poissons Ratio (y) = 0.71646 0.37387
# Poissons Ratio (z) = 0.12920 0.14150
#
# Static dielectric constant tensor:
#      x y z
#    x 3.685940 0.000000 -0.314270 
#    y 0.000000 4.371540 0.000000 
#    z -0.314270 0.000000 3.502680 
# 
# 
# High freq. dielectric constant tensor:
#      x y z
#    x 1.768350 0.000000 -0.012080 
#    y 0.000000 1.734020 0.000000 
#    z -0.012080 0.000000 1.763880 
# 
# From -- ./inp_files/112942.got.cif
#   From: 2010.06.25/outbox.cif.g09.slc.cpg/sg12_57_cif.got.tgz:112942.got - 2010.06.28 00:19:55.
