data_PCOD8109834
_publ_section_title
;
Structure prediction by ZEFSAII (Michael W. Deem and Ramdas Pophale) SiO2 
 PCOD8109834
Probable space group: C 2/M
;
_chemical_formula_sum "Si O2"
_cell_formula_units_Z 56
_cell_length_a 17.806956
_cell_length_b 11.761637
_cell_length_c 14.507371
_cell_angle_alpha 90.000000
_cell_angle_beta 118.628991
_cell_angle_gamma 90.000000
_cell_volume 2666.934729
_symmetry_space_group_name_H-M "C 2/M"
_symmetry_group_IT_number 12
_symmetry_cell_setting 'monoclinic'
loop_
_space_group_symop_operation_xyz
x,y,z
-x,y,-z
-x,-y,-z
x,-y,z
1/2+x,1/2+y,z
1/2-x,1/2+y,-z
1/2-x,1/2-y,-z
1/2+x,1/2-y,z
loop_
_atom_site_type_symbol
_atom_site_label
_atom_site_fract_x
_atom_site_fract_y
_atom_site_fract_z
Si Si1 0.466324 0.765320 0.574856
Si Si2 0.999908 0.365862 0.894591
Si Si3 0.396766 0.500000 0.044668
Si Si4 0.788073 0.628569 0.419519
Si Si5 0.888425 0.208821 0.706478
Si Si6 0.404590 0.500000 0.845572
Si Si7 0.633407 0.123722 0.726255
Si Si8 0.843729 0.763842 0.092174
O O1 0.500000 0.701484 0.500000
O O2 0.374244 0.824313 0.515461
O O3 0.455102 0.685822 0.659948
O O4 0.536043 0.862682 0.633887
O O5 0.989836 0.500000 0.883030
O O6 0.922608 0.315160 0.786993
O O7 0.091969 0.327508 0.913050
O O8 0.000000 0.321953 0.000000
O O9 0.495377 0.500000 0.081141
O O10 0.372977 0.391808 0.091825
O O11 0.355615 0.500000 0.916873
O O12 0.769605 0.500000 0.446359
O O13 0.708662 0.716360 0.391564
O O14 0.800162 0.623004 0.317325
O O15 0.878736 0.106995 0.771263
O O16 0.659307 0.232744 0.802133
O O17 0.637963 0.000000 0.779538
O O18 0.750000 0.750000 0.000000
#
# Coordination Sequence:
#
# PCOD8109834 Si02
#       8
#     8   8   4   8   8   4   8   8
#     4  10  21  40  63  92 129 167 212 267 329 382
#     4  11  25  44  65  92 130 173 212 260 322 387
#     4  11  24  42  60  96 122 172 215 266 308 380
#     4  10  22  37  65  97 126 162 218 275 314 373
#     4  12  22  40  65  96 127 167 213 265 322 379
#     4  11  22  40  69  86 124 165 223 263 316 372
#     4  10  21  40  64  93 128 169 212 265 325 377
#     4  12  26  38  63  93 130 165 211 264 317 376
#
# _framework density 20.997889000000001
#
# number of rings (size 3 to 8) (size 9 to 14) (size 15 to 20)
#    0.000    1.143    3.571    2.143    6.000    2.286 
#    0.000    0.357    0.000    1.714    0.000    0.000 
#    0.000    0.000    0.000    0.000    0.000    0.000 
#
# Total GULP energy -346892.362314 kJ/mol
# GULP energy per Si atom -12389.012940 kJ/mol
# Density = 2.095010 g / cm^3
# Si number density = 20.997889 Si / 1000 Ang^3
#
#
#
# Elastic Constant Matrix: (Units=GPa)
#
#
# Indices 1 2 3 4 5 6 
#
# 1 89.7604 27.2213 25.1049 0.0000 11.7867 0.0000
# 2 27.2213 82.5443 31.6989 0.0000 -5.3189 0.0000
# 3 25.1049 31.6989 87.5100 0.0000 2.1221 0.0000
# 4 0.0000 0.0000 0.0000 22.5485 0.0000 -1.1301
# 5 11.7867 -5.3189 2.1221 0.0000 49.1382 0.0000
# 6 0.0000 0.0000 0.0000 -1.1301 0.0000 24.8690
#
#
#
# Elastic Compliance Matrix: (Units=1/GPa)
#
#
# Indices 1 2 3 4 5 6 
#
# 1 0.013405 -0.003721 -0.002413 0.000000 -0.003514 0.000000
# 2 -0.003721 0.015256 -0.004525 0.000000 0.002739 0.000000
# 3 -0.002413 -0.004525 0.013771 0.000000 -0.000506 0.000000
# 4 0.000000 0.000000 0.000000 0.044450 0.000000 0.002020
# 5 -0.003514 0.002739 -0.000506 0.000000 0.021512 0.000000
# 6 0.000000 0.000000 0.000000 0.002020 0.000000 0.040303
#
#
# Mechanical properties :
#
#
# Convention : Reuss Voigt Hill
#
# Bulk Modulus (GPa) = 47.35995 47.54055 47.45025
# Shear Modulus (GPa) = 28.24017 31.03043 29.63530
#
# Velocity S-wave (km/s) = 3.67127 3.84837 3.76086
# Velocity P-wave (km/s) = 6.36982 6.51432 6.44248
#
# Compressibility (1/GPa) = 0.02111489
#
# Stress axis : x y z
#
# Youngs Moduli (GPa) = 74.59684 65.54785 72.61691
#
# Poissons Ratio (x) = 0.24388 0.17521
# Poissons Ratio (y) = 0.27755 0.32861
# Poissons Ratio (z) = 0.17999 0.29662
#
# Static dielectric constant tensor:
#      x y z
#    x 3.743170 0.000000 0.020020 
#    y 0.000000 3.845010 0.000000 
#    z 0.020020 0.000000 4.306610 
# 
# 
# High freq. dielectric constant tensor:
#      x y z
#    x 1.835580 0.000000 0.002990 
#    y 0.000000 1.794820 0.000000 
#    z 0.002990 0.000000 1.841900 
# 
# From -- ./inp_files/223947.got.cif
#   From: 2010.06.25/outbox.cif.g09.slc.cpg/sg12_112_cif.got.tgz:223947.got - 2010.06.28 00:19:55.
