data_PCOD8109305
_publ_section_title
;
Structure prediction by ZEFSAII (Michael W. Deem and Ramdas Pophale) SiO2 
 PCOD8109305
Probable space group: C 2/M
;
_chemical_formula_sum "Si O2"
_cell_formula_units_Z 40
_cell_length_a 31.168248
_cell_length_b 8.404028
_cell_length_c 22.186379
_cell_angle_alpha 90.000000
_cell_angle_beta 160.713192
_cell_angle_gamma 90.000000
_cell_volume 1919.512934
_symmetry_space_group_name_H-M "C 2/M"
_symmetry_group_IT_number 12
_symmetry_cell_setting 'monoclinic'
loop_
_space_group_symop_operation_xyz
x,y,z
-x,y,-z
-x,-y,-z
x,-y,z
1/2+x,1/2+y,z
1/2-x,1/2+y,-z
1/2-x,1/2-y,-z
1/2+x,1/2-y,z
loop_
_atom_site_type_symbol
_atom_site_label
_atom_site_fract_x
_atom_site_fract_y
_atom_site_fract_z
Si Si1 0.523864 0.687162 0.438012
Si Si2 0.087374 0.683943 0.171865
Si Si3 0.635181 0.816671 0.468903
Si Si4 0.991079 0.816137 0.166583
Si Si5 0.692905 0.812404 0.767552
O O1 0.538415 0.500000 0.451475
O O2 0.532769 0.766460 0.384306
O O3 0.639436 0.753405 0.632720
O O4 0.383835 0.729287 0.279795
O O5 0.062967 0.500000 0.155353
O O6 0.236986 0.710342 0.353497
O O7 0.049844 0.792080 0.178580
O O8 0.000000 0.738622 0.000000
O O9 0.570851 0.790222 0.318824
O O10 0.673674 0.000000 0.526569
O O11 0.004939 0.000000 0.203193
O O12 0.841906 0.761144 0.970012
O O13 0.672842 0.000000 0.745499
#
# Coordination Sequence:
#
# PCOD8109305 Si02
#       5
#     8   8   8   8   8
#     4  11  22  38  62  90 122 158 200 248 296 351
#     4  11  24  42  65  91 120 155 197 244 295 354
#     4  12  25  41  62  87 121 160 199 246 298 354
#     4  11  24  41  62  89 122 158 198 245 297 354
#     4  10  21  39  63  90 121 158 201 246 294 351
#
# _framework density 20.838619999999999
#
# number of rings (size 3 to 8) (size 9 to 14) (size 15 to 20)
#    0.000    1.000    0.000    8.400    0.000    8.800 
#    0.000    0.000    0.000    0.000    0.000    0.000 
#    0.000    0.000    0.000    0.000    0.000    0.000 
#
# Total GULP energy -248182.433349 kJ/mol
# GULP energy per Si atom -12409.121667 kJ/mol
# Density = 2.079119 g / cm^3
# Si number density = 20.838620 Si / 1000 Ang^3
#
#
#
# Elastic Constant Matrix: (Units=GPa)
#
#
# Indices 1 2 3 4 5 6 
#
# 1 131.4279 26.1653 40.3717 0.0000 -8.3158 0.0000
# 2 26.1653 87.6508 27.8361 0.0000 -3.8380 0.0000
# 3 40.3717 27.8361 71.4500 0.0000 0.7696 0.0000
# 4 0.0000 0.0000 0.0000 -10.4870 0.0000 -8.2472
# 5 -8.3158 -3.8380 0.7696 0.0000 30.3091 0.0000
# 6 0.0000 0.0000 0.0000 -8.2472 0.0000 34.2251
#
#
#
# Elastic Compliance Matrix: (Units=1/GPa)
#
#
# Indices 1 2 3 4 5 6 
#
# 1 0.009527 -0.001155 -0.004961 0.000000 0.002594 0.000000
# 2 -0.001155 0.013256 -0.004528 0.000000 0.001477 0.000000
# 3 -0.004961 -0.004528 0.018589 0.000000 -0.002406 0.000000
# 4 0.000000 0.000000 0.000000 -0.080165 0.000000 -0.019317
# 5 0.002594 0.001477 -0.002406 0.000000 0.033953 0.000000
# 6 0.000000 0.000000 0.000000 -0.019317 0.000000 0.024564
#
#
# Mechanical properties :
#
#
# Convention : Reuss Voigt Hill
#
# Bulk Modulus (GPa) = 49.78968 53.25279 51.52124
# Shear Modulus (GPa) = 104.80919 23.88646 64.34783
#
# Velocity S-wave (km/s) = 7.09964 3.38932 5.56293
# Velocity P-wave (km/s) = 9.54732 6.39742 8.12645
#
# Compressibility (1/GPa) = 0.02008448
#
# Stress axis : x y z
#
# Youngs Moduli (GPa) = 104.96912 75.43594 53.79581
#
# Poissons Ratio (x) = 0.08711 0.26688
# Poissons Ratio (y) = 0.12122 0.24358
# Poissons Ratio (z) = 0.52074 0.34157
#
# Static dielectric constant tensor:
#      x y z
#    x 3.938680 0.000000 0.047200 
#    y 0.000000 3.742190 0.000000 
#    z 0.047200 0.000000 3.818250 
# 
# 
# High freq. dielectric constant tensor:
#      x y z
#    x 1.826980 0.000000 0.004390 
#    y 0.000000 1.828370 0.000000 
#    z 0.004390 0.000000 1.817840 
# 
# From -- ./inp_files/151836.got.cif
#   From: 2010.06.25/outbox.cif.g09.slc.cpg/sg12_76_cif.got.tgz:151836.got - 2010.06.28 00:19:55.
