data_PCOD8109763
_publ_section_title
;
Structure prediction by ZEFSAII (Michael W. Deem and Ramdas Pophale) SiO2 
 PCOD8109763
Probable space group: C 2/M
;
_chemical_formula_sum "Si O2"
_cell_formula_units_Z 56
_cell_length_a 27.310072
_cell_length_b 8.764138
_cell_length_c 17.453775
_cell_angle_alpha 90.000000
_cell_angle_beta 39.373375
_cell_angle_gamma 90.000000
_cell_volume 2650.116666
_symmetry_space_group_name_H-M "C 2/M"
_symmetry_group_IT_number 12
_symmetry_cell_setting 'monoclinic'
loop_
_space_group_symop_operation_xyz
x,y,z
-x,y,-z
-x,-y,-z
x,-y,z
1/2+x,1/2+y,z
1/2-x,1/2+y,-z
1/2-x,1/2-y,-z
1/2+x,1/2-y,z
loop_
_atom_site_type_symbol
_atom_site_label
_atom_site_fract_x
_atom_site_fract_y
_atom_site_fract_z
Si Si1 0.327729 0.181155 0.938110
Si Si2 0.166230 0.819462 0.622152
Si Si3 0.343917 0.172962 0.655092
Si Si4 0.443789 0.179251 0.671410
Si Si5 0.094636 0.824966 0.549656
Si Si6 0.086507 0.319729 0.869880
Si Si7 0.827471 0.173559 0.096059
O O1 0.356615 0.248918 0.983478
O O2 0.320231 0.000000 0.953402
O O3 0.250000 0.250000 0.000000
O O4 0.393115 0.240400 0.802206
O O5 0.250000 0.750000 0.500000
O O6 0.110946 0.780204 0.617268
O O7 0.120748 0.754297 0.750602
O O8 0.177601 0.000000 0.618995
O O9 0.411036 0.240780 0.629837
O O10 0.333285 0.279854 0.592306
O O11 0.264674 0.177632 0.797483
O O12 0.361936 0.000000 0.607167
O O13 0.530096 0.225227 0.585842
O O14 0.436345 0.000000 0.674782
O O15 0.072620 0.000000 0.569936
O O16 0.087526 0.500000 0.856238
O O17 0.143469 0.271702 0.868075
O O18 0.000000 0.265423 0.000000
O O19 0.858269 0.000000 0.065405
#
# Coordination Sequence:
#
# PCOD8109763 Si02
#       7
#     8   8   8   8   8   8   8
#     4  11  22  39  62  92 128 168 213 258 310 374
#     4  11  25  46  70  97 130 171 221 277 333 397
#     4  10  21  40  62  89 124 167 209 249 306 378
#     4  10  22  40  60  86 125 168 209 249 306 378
#     4  11  25  40  60  94 126 157 205 262 317 369
#     4  11  26  46  68  98 133 171 219 276 336 398
#     4  11  23  41  66  94 127 167 212 261 319 382
#
# _framework density 21.131143999999999
#
# number of rings (size 3 to 8) (size 9 to 14) (size 15 to 20)
#    0.000    1.286    1.429    3.429    2.000   10.286 
#    0.000    0.000    0.000    0.000    0.000    0.000 
#    0.000    0.000    0.000    0.000    0.000    0.000 
#
# Total GULP energy -347097.856615 kJ/mol
# GULP energy per Si atom -12396.352022 kJ/mol
# Density = 2.108305 g / cm^3
# Si number density = 21.131144 Si / 1000 Ang^3
#
#
#
# Elastic Constant Matrix: (Units=GPa)
#
#
# Indices 1 2 3 4 5 6 
#
# 1 128.1926 42.0620 49.6784 -0.0002 24.5893 0.0037
# 2 42.0620 60.1098 43.3829 -0.0050 10.9927 0.0066
# 3 49.6784 43.3829 122.7657 0.0015 24.2581 -0.0007
# 4 -0.0002 -0.0050 0.0015 35.5026 -0.0001 5.5500
# 5 24.5893 10.9927 24.2581 -0.0001 44.7086 -0.0016
# 6 0.0037 0.0066 -0.0007 5.5500 -0.0016 36.2796
#
#
#
# Elastic Compliance Matrix: (Units=1/GPa)
#
#
# Indices 1 2 3 4 5 6 
#
# 1 0.011095 -0.005869 -0.001675 -0.000001 -0.003750 0.000000
# 2 -0.005869 0.025510 -0.006763 0.000005 0.000625 -0.000005
# 3 -0.001675 -0.006763 0.011988 -0.000002 -0.003921 0.000002
# 4 -0.000001 0.000005 -0.000002 0.028857 0.000000 -0.004415
# 5 -0.003750 0.000625 -0.003921 0.000000 0.026403 0.000001
# 6 0.000000 -0.000005 0.000002 -0.004415 0.000001 0.028239
#
#
# Mechanical properties :
#
#
# Convention : Reuss Voigt Hill
#
# Bulk Modulus (GPa) = 50.05303 64.59050 57.32177
# Shear Modulus (GPa) = 29.87468 35.02782 32.45125
#
# Velocity S-wave (km/s) = 3.76410 4.07583 3.92306
# Velocity P-wave (km/s) = 6.52913 7.26517 6.90696
#
# Compressibility (1/GPa) = 0.01997881
#
# Stress axis : x y z
#
# Youngs Moduli (GPa) = 90.13184 39.20014 83.41751
#
# Poissons Ratio (x) = 0.23008 0.13968
# Poissons Ratio (y) = 0.52901 0.56418
# Poissons Ratio (z) = 0.15093 0.26512
#
# Static dielectric constant tensor:
#      x y z
#    x 3.964860 0.000000 0.448160 
#    y 0.000000 3.789120 0.000090 
#    z 0.448160 0.000090 5.191280 
# 
# 
# High freq. dielectric constant tensor:
#      x y z
#    x 1.838080 0.000000 0.011980 
#    y 0.000000 1.825220 0.000000 
#    z 0.011980 0.000000 1.846010 
# 
# From -- ./inp_files/292455.got.cif
#   From: 2010.06.25/outbox.cif.g09.slc.cpg/sg12_147_cif.got.tgz:292455.got - 2010.06.28 00:19:55.
