data_PCOD8109640
_publ_section_title
;
Structure prediction by ZEFSAII (Michael W. Deem and Ramdas Pophale) SiO2 
 PCOD8109640
Probable space group: C 2/M
;
_chemical_formula_sum "Si O2"
_cell_formula_units_Z 56
_cell_length_a 13.740316
_cell_length_b 26.183802
_cell_length_c 13.380056
_cell_angle_alpha 90.000000
_cell_angle_beta 146.246391
_cell_angle_gamma 90.000000
_cell_volume 2674.651894
_symmetry_space_group_name_H-M "C 2/M"
_symmetry_group_IT_number 12
_symmetry_cell_setting 'monoclinic'
loop_
_space_group_symop_operation_xyz
x,y,z
-x,y,-z
-x,-y,-z
x,-y,z
1/2+x,1/2+y,z
1/2-x,1/2+y,-z
1/2-x,1/2-y,-z
1/2+x,1/2-y,z
loop_
_atom_site_type_symbol
_atom_site_label
_atom_site_fract_x
_atom_site_fract_y
_atom_site_fract_z
Si Si1 0.077589 0.442970 0.961876
Si Si2 0.297601 0.942527 0.549792
Si Si3 0.728063 0.348648 0.931948
Si Si4 0.583915 0.800117 0.274535
Si Si5 0.924088 0.137413 0.538613
Si Si6 0.123768 0.646228 0.513127
Si Si7 0.524901 0.692651 0.135838
O O1 0.153084 0.500000 0.041786
O O2 0.920208 0.443129 0.750101
O O3 0.236655 0.408858 0.055056
O O4 0.000000 0.421551 0.000000
O O5 0.124585 0.911055 0.433633
O O6 0.395450 0.911767 0.544459
O O7 0.250827 0.000000 0.474717
O O8 0.577215 0.330800 0.725599
O O9 0.655535 0.333626 0.980026
O O10 0.912178 0.320704 0.070210
O O11 0.757720 0.826027 0.376976
O O12 0.574465 0.813232 0.384207
O O13 0.584844 0.739989 0.256305
O O14 0.000000 0.116520 0.500000
O O15 0.321971 0.651554 0.720836
O O16 0.000000 0.656419 0.500000
O O17 0.500000 0.709392 0.000000
#
# Coordination Sequence:
#
# PCOD8109640 Si02
#       7
#     8   8   8   8   8   8   8
#     4  10  21  39  68 100 136 178 217 269 341 400
#     4  10  21  43  68  97 135 177 222 271 330 398
#     4  12  23  42  68  96 134 174 222 270 330 394
#     4  11  25  47  65  98 134 172 222 276 327 397
#     4  11  24  39  67 101 136 175 216 276 329 396
#     4  11  23  46  71  93 136 173 216 284 332 386
#     4  12  27  44  69  99 129 179 228 271 336 400
#
# _framework density 20.937304000000001
#
# number of rings (size 3 to 8) (size 9 to 14) (size 15 to 20)
#    0.000    1.000    5.714    2.571    2.000    1.714 
#    0.000    0.000    0.000    0.857    0.000    0.000 
#    0.000    0.000    0.000    0.000    0.000    0.000 
#
# Total GULP energy -347153.270510 kJ/mol
# GULP energy per Si atom -12398.331090 kJ/mol
# Density = 2.088965 g / cm^3
# Si number density = 20.937304 Si / 1000 Ang^3
#
#
#
# Elastic Constant Matrix: (Units=GPa)
#
#
# Indices 1 2 3 4 5 6 
#
# 1 129.3192 59.3638 27.0320 0.0000 -0.7185 0.0000
# 2 59.3638 115.5756 26.7179 0.0000 1.5677 0.0000
# 3 27.0320 26.7179 110.9582 0.0000 14.0445 0.0000
# 4 0.0000 0.0000 0.0000 23.4297 0.0000 -3.6691
# 5 -0.7185 1.5677 14.0445 0.0000 37.4452 0.0000
# 6 0.0000 0.0000 0.0000 -3.6691 0.0000 14.6224
#
#
#
# Elastic Compliance Matrix: (Units=1/GPa)
#
#
# Indices 1 2 3 4 5 6 
#
# 1 0.010326 -0.004985 -0.001435 0.000000 0.000945 0.000000
# 2 -0.004985 0.011577 -0.001574 0.000000 0.000010 0.000000
# 3 -0.001435 -0.001574 0.010222 0.000000 -0.003795 0.000000
# 4 0.000000 0.000000 0.000000 0.044427 0.000000 0.011148
# 5 0.000945 0.000010 -0.003795 0.000000 0.028147 0.000000
# 6 0.000000 0.000000 0.000000 0.011148 0.000000 0.071185
#
#
# Mechanical properties :
#
#
# Convention : Reuss Voigt Hill
#
# Bulk Modulus (GPa) = 61.97464 64.67561 63.32512
# Shear Modulus (GPa) = 25.34842 31.28209 28.31525
#
# Velocity S-wave (km/s) = 3.48326 3.86953 3.68147
# Velocity P-wave (km/s) = 6.77066 7.13593 6.95570
#
# Compressibility (1/GPa) = 0.01613563
#
# Stress axis : x y z
#
# Youngs Moduli (GPa) = 96.83890 86.38043 97.83299
#
# Poissons Ratio (x) = 0.43062 0.14039
# Poissons Ratio (y) = 0.48275 0.15403
# Poissons Ratio (z) = 0.13896 0.13600
#
# Static dielectric constant tensor:
#      x y z
#    x 3.788210 0.000000 0.019940 
#    y 0.000000 3.962790 0.000000 
#    z 0.019940 0.000000 3.872800 
# 
# 
# High freq. dielectric constant tensor:
#      x y z
#    x 1.814170 0.000000 0.003450 
#    y 0.000000 1.808670 0.000000 
#    z 0.003450 0.000000 1.829740 
# 
# From -- ./inp_files/219143.got.cif
#   From: 2010.06.25/outbox.cif.g09.slc.cpg/sg12_110_cif.got.tgz:219143.got - 2010.06.28 00:19:55.
