data_PCOD8109250
_publ_section_title
;
Structure prediction by ZEFSAII (Michael W. Deem and Ramdas Pophale) SiO2 
 PCOD8109250
Probable space group: C 2/M
;
_chemical_formula_sum "Si O2"
_cell_formula_units_Z 48
_cell_length_a 14.999144
_cell_length_b 8.682559
_cell_length_c 28.933674
_cell_angle_alpha 90.000000
_cell_angle_beta 40.193845
_cell_angle_gamma 90.000000
_cell_volume 2431.814064
_symmetry_space_group_name_H-M "C 2/M"
_symmetry_group_IT_number 12
_symmetry_cell_setting 'monoclinic'
loop_
_space_group_symop_operation_xyz
x,y,z
-x,y,-z
-x,-y,-z
x,-y,z
1/2+x,1/2+y,z
1/2-x,1/2+y,-z
1/2-x,1/2-y,-z
1/2+x,1/2-y,z
loop_
_atom_site_type_symbol
_atom_site_label
_atom_site_fract_x
_atom_site_fract_y
_atom_site_fract_z
Si Si1 0.388647 0.680509 0.813436
Si Si2 0.618879 0.679293 0.328506
Si Si3 0.653981 0.176268 0.836218
Si Si4 0.359094 0.821066 0.581295
Si Si5 0.080735 0.320038 0.664127
Si Si6 0.876032 0.179547 0.922813
O O1 0.426258 0.500000 0.795619
O O2 0.242378 0.712963 0.846894
O O3 0.510194 0.774190 0.740483
O O4 0.378647 0.743289 0.869444
O O5 0.608447 0.500000 0.345624
O O6 0.755635 0.714471 0.244681
O O7 0.626356 0.781724 0.370824
O O8 0.484710 0.725599 0.352214
O O9 0.519333 0.282024 0.891257
O O10 0.605340 0.000000 0.854993
O O11 0.500000 0.778460 0.500000
O O12 0.241710 0.720140 0.603266
O O13 0.321656 0.000000 0.591021
O O14 0.060852 0.500000 0.662760
O O15 0.852488 0.000000 0.931080
O O16 0.750000 0.250000 0.000000
#
# Coordination Sequence:
#
# PCOD8109250 Si02
#       6
#     8   8   8   8   8   8
#     4   9  20  39  60  81 110 149 188 229 280 336
#     4  10  21  39  63  88 115 149 190 237 285 338
#     4   9  19  37  59  82 108 141 183 229 277 330
#     4  11  24  40  58  83 117 155 193 236 286 339
#     4  11  22  37  61  89 116 149 189 236 287 340
#     4  11  23  37  55  80 112 149 185 227 279 334
#
# _framework density 19.738350000000001
#
# number of rings (size 3 to 8) (size 9 to 14) (size 15 to 20)
#    0.000    1.833    0.000    5.000    0.000   10.000 
#    0.000    3.333    0.000    0.000    0.000    0.000 
#    0.000    0.000    0.000    0.000    0.000    0.000 
#
# Total GULP energy -297735.864497 kJ/mol
# GULP energy per Si atom -12405.661021 kJ/mol
# Density = 1.969342 g / cm^3
# Si number density = 19.738350 Si / 1000 Ang^3
#
#
#
# Elastic Constant Matrix: (Units=GPa)
#
#
# Indices 1 2 3 4 5 6 
#
# 1 80.7555 10.9962 37.0733 -0.0001 -19.9592 -0.0004
# 2 10.9962 53.7256 25.6537 0.0001 -10.7308 0.0001
# 3 37.0733 25.6537 68.6410 0.0001 -25.4040 0.0002
# 4 -0.0001 0.0001 0.0001 31.6487 -0.0002 -2.4933
# 5 -19.9592 -10.7308 -25.4040 -0.0002 21.8081 -0.0004
# 6 -0.0004 0.0001 0.0002 -2.4933 -0.0004 36.8231
#
#
#
# Elastic Compliance Matrix: (Units=1/GPa)
#
#
# Indices 1 2 3 4 5 6 
#
# 1 0.017446 0.001380 -0.006641 0.000000 0.008910 0.000000
# 2 0.001380 0.022829 -0.008178 0.000000 0.002969 0.000000
# 3 -0.006641 -0.008178 0.030715 0.000000 0.025678 0.000000
# 4 0.000000 0.000000 0.000000 0.031766 0.000001 0.002151
# 5 0.008910 0.002969 0.025678 0.000001 0.085382 0.000001
# 6 0.000000 0.000000 0.000000 0.002151 0.000001 0.027302
#
#
# Mechanical properties :
#
#
# Convention : Reuss Voigt Hill
#
# Bulk Modulus (GPa) = 22.66991 38.95206 30.81098
# Shear Modulus (GPa) = 19.45355 26.68259 23.06807
#
# Velocity S-wave (km/s) = 3.14279 3.68069 3.42232
# Velocity P-wave (km/s) = 4.96786 6.15145 5.59106
#
# Compressibility (1/GPa) = 0.04411134
#
# Stress axis : x y z
#
# Youngs Moduli (GPa) = 57.31979 43.80426 32.55735
#
# Poissons Ratio (x) = -0.06044 0.21620
# Poissons Ratio (y) = -0.07909 0.26627
# Poissons Ratio (z) = 0.38064 0.35825
#
# Static dielectric constant tensor:
#      x y z
#    x 4.051950 0.000000 0.075540 
#    y 0.000000 3.562700 0.000000 
#    z 0.075540 0.000000 3.583120 
# 
# 
# High freq. dielectric constant tensor:
#      x y z
#    x 1.781460 0.000000 -0.002550 
#    y 0.000000 1.771690 0.000000 
#    z -0.002550 0.000000 1.763590 
# 
# From -- ./inp_files/360217.got.cif
#   From: 2010.06.25/outbox.cif.g09.slc.cpg/sg12_181_cif.got.tgz:360217.got - 2010.06.28 00:19:55.
