data_PCOD8109223
_publ_section_title
;
Structure prediction by ZEFSAII (Michael W. Deem and Ramdas Pophale) SiO2 
 PCOD8109223
Probable space group: C 2/M
;
_chemical_formula_sum "Si O2"
_cell_formula_units_Z 52
_cell_length_a 17.372237
_cell_length_b 14.612866
_cell_length_c 18.832566
_cell_angle_alpha 90.000000
_cell_angle_beta 34.780853
_cell_angle_gamma 90.000000
_cell_volume 2727.155810
_symmetry_space_group_name_H-M "C 2/M"
_symmetry_group_IT_number 12
_symmetry_cell_setting 'monoclinic'
loop_
_space_group_symop_operation_xyz
x,y,z
-x,y,-z
-x,-y,-z
x,-y,z
1/2+x,1/2+y,z
1/2-x,1/2+y,-z
1/2-x,1/2-y,-z
1/2+x,1/2-y,z
loop_
_atom_site_type_symbol
_atom_site_label
_atom_site_fract_x
_atom_site_fract_y
_atom_site_fract_z
Si Si1 0.155993 0.325531 0.885133
Si Si2 0.417662 0.500000 0.329933
Si Si3 0.430736 0.104951 0.694178
Si Si4 0.848442 0.729197 0.631091
Si Si5 0.134973 0.000000 0.061882
Si Si6 0.701027 0.500000 0.163662
Si Si7 0.226031 0.666715 0.465223
Si Si8 0.266189 0.690380 0.058678
O O1 0.238156 0.295401 0.752092
O O2 0.240712 0.410793 0.845883
O O3 0.149115 0.246629 0.948751
O O4 0.000000 0.355940 0.000000
O O5 0.479275 0.500000 0.203866
O O6 0.538250 0.500000 0.296801
O O7 0.339128 0.593762 0.398623
O O8 0.375430 0.141193 0.660585
O O9 0.589338 0.112174 0.581296
O O10 0.379633 0.167863 0.797971
O O11 0.384040 0.000000 0.737855
O O12 0.772046 0.700805 0.617254
O O13 0.000000 0.772390 0.500000
O O14 0.236516 0.000000 0.052779
O O15 0.156880 0.094021 0.003841
O O16 0.250000 0.750000 0.500000
O O17 0.250000 0.750000 0.000000
#
# Coordination Sequence:
#
# PCOD8109223 Si02
#       8
#     8   4   8   8   4   4   8   8
#     4  11  24  41  66  92 124 165 219 261 308 373
#     4  10  24  38  62  94 126 159 205 256 324 357
#     4  10  21  39  62  92 124 164 208 259 314 367
#     4   9  23  40  63  88 128 165 201 257 330 367
#     4  10  22  36  61  90 122 167 200 247 316 371
#     4  10  23  42  62  86 130 170 206 255 321 366
#     4  11  24  40  64  91 124 161 216 257 303 381
#     4  11  21  39  63  91 129 164 205 257 318 373
#
# _framework density 19.067484
#
# number of rings (size 3 to 8) (size 9 to 14) (size 15 to 20)
#    0.462    1.231    3.077    0.231   11.846    0.923 
#    0.000    1.538    0.000    0.000    0.000    0.000 
#    0.000    0.000    0.000    0.000    0.000    0.000 
#
# Total GULP energy -322140.544042 kJ/mol
# GULP energy per Si atom -12390.020925 kJ/mol
# Density = 1.902409 g / cm^3
# Si number density = 19.067484 Si / 1000 Ang^3
#
#
#
# Elastic Constant Matrix: (Units=GPa)
#
#
# Indices 1 2 3 4 5 6 
#
# 1 110.6464 66.3693 55.6293 -0.0001 -0.8609 0.0000
# 2 66.3693 140.8488 51.1616 -0.0006 -1.6135 0.0000
# 3 55.6293 51.1616 117.9991 -0.0016 -4.0163 0.0003
# 4 -0.0001 -0.0006 -0.0016 33.9796 0.0004 -3.0151
# 5 -0.8609 -1.6135 -4.0163 0.0004 36.7795 -0.0001
# 6 0.0000 0.0000 0.0003 -3.0151 -0.0001 27.4898
#
#
#
# Elastic Compliance Matrix: (Units=1/GPa)
#
#
# Indices 1 2 3 4 5 6 
#
# 1 0.014419 -0.005133 -0.004585 0.000000 -0.000388 0.000000
# 2 -0.005133 0.010255 -0.002022 0.000000 0.000109 0.000000
# 3 -0.004585 -0.002022 0.011549 0.000000 0.001065 0.000000
# 4 0.000000 0.000000 0.000000 0.029719 0.000000 0.003260
# 5 -0.000388 0.000109 0.001065 0.000000 0.027301 0.000000
# 6 0.000000 0.000000 0.000000 0.003260 0.000000 0.036735
#
#
# Mechanical properties :
#
#
# Convention : Reuss Voigt Hill
#
# Bulk Modulus (GPa) = 78.48572 79.53496 79.01034
# Shear Modulus (GPa) = 31.70441 32.73872 32.22157
#
# Velocity S-wave (km/s) = 4.08210 4.14816 4.11526
# Velocity P-wave (km/s) = 7.96678 8.04648 8.00673
#
# Compressibility (1/GPa) = 0.01274117
#
# Stress axis : x y z
#
# Youngs Moduli (GPa) = 69.35151 97.51758 86.58441
#
# Poissons Ratio (x) = 0.50060 0.39702
# Poissons Ratio (y) = 0.35601 0.17510
# Poissons Ratio (z) = 0.31800 0.19721
#
# Static dielectric constant tensor:
#      x y z
#    x 3.377620 0.000000 0.117680 
#    y 0.000000 3.424120 0.000000 
#    z 0.117680 0.000000 3.811700 
# 
# 
# High freq. dielectric constant tensor:
#      x y z
#    x 1.730660 0.000000 0.003440 
#    y 0.000000 1.747200 0.000000 
#    z 0.003440 0.000000 1.753090 
# 
# From -- ./inp_files/316502.got.cif
#   From: 2010.06.25/outbox.cif.g09.slc.cpg/sg12_159_cif.got.tgz:316502.got - 2010.06.28 00:19:55.
