data_PCOD8109498
_publ_section_title
;
Structure prediction by ZEFSAII (Michael W. Deem and Ramdas Pophale) SiO2 
 PCOD8109498
Probable space group: C 2/M
;
_chemical_formula_sum "Si O2"
_cell_formula_units_Z 56
_cell_length_a 17.236089
_cell_length_b 14.215307
_cell_length_c 19.936599
_cell_angle_alpha 90.000000
_cell_angle_beta 33.087683
_cell_angle_gamma 90.000000
_cell_volume 2666.714556
_symmetry_space_group_name_H-M "C 2/M"
_symmetry_group_IT_number 12
_symmetry_cell_setting 'monoclinic'
loop_
_space_group_symop_operation_xyz
x,y,z
-x,y,-z
-x,-y,-z
x,-y,z
1/2+x,1/2+y,z
1/2-x,1/2+y,-z
1/2-x,1/2-y,-z
1/2+x,1/2-y,z
loop_
_atom_site_type_symbol
_atom_site_label
_atom_site_fract_x
_atom_site_fract_y
_atom_site_fract_z
Si Si1 0.296354 0.691406 0.901861
Si Si2 0.116722 0.894279 0.865438
Si Si3 0.582265 0.395262 0.741494
Si Si4 0.685726 0.242860 0.472925
Si Si5 0.639383 0.756397 0.288379
Si Si6 0.018272 0.606945 0.059507
Si Si7 0.766279 0.112946 0.673170
O O1 0.448388 0.643083 0.797778
O O2 0.305962 0.751528 0.827468
O O3 0.250000 0.750000 0.000000
O O4 0.172661 0.615265 0.980247
O O5 0.038188 0.895585 0.850938
O O6 0.261589 0.836258 0.751728
O O7 0.156516 0.000000 0.860169
O O8 0.000000 0.849103 0.000000
O O9 0.615436 0.500000 0.691151
O O10 0.724511 0.335187 0.630519
O O11 0.750000 0.250000 0.500000
O O12 0.523052 0.209101 0.593561
O O13 0.690252 0.342481 0.429780
O O14 0.649290 0.659566 0.324897
O O15 0.979398 0.500000 0.075350
O O16 0.898572 0.644026 0.197523
O O17 0.000000 0.658437 0.000000
O O18 0.794370 0.000000 0.651687
#
# Coordination Sequence:
#
# PCOD8109498 Si02
#       7
#     8   8   8   8   8   8   8
#     4  12  24  38  66 100 136 175 214 272 341 399
#     4  10  23  44  70  99 130 171 223 276 333 399
#     4  11  24  44  69  95 134 179 225 275 331 398
#     4  12  26  47  63  96 137 175 227 276 336 395
#     4  12  25  41  72  96 132 177 224 284 329 404
#     4  10  21  39  64  95 131 167 215 270 328 403
#     4  11  25  45  70 101 135 177 224 280 343 406
#
# _framework density 20.999623
#
# number of rings (size 3 to 8) (size 9 to 14) (size 15 to 20)
#    0.000    0.857    4.286    2.571    2.000    2.857 
#    0.000    2.143    0.000    0.000    0.000    0.000 
#    0.000    0.000    0.000    0.000    0.000    0.000 
#
# Total GULP energy -347112.275782 kJ/mol
# GULP energy per Si atom -12396.866992 kJ/mol
# Density = 2.095183 g / cm^3
# Si number density = 20.999623 Si / 1000 Ang^3
#
#
#
# Elastic Constant Matrix: (Units=GPa)
#
#
# Indices 1 2 3 4 5 6 
#
# 1 111.5773 34.7478 42.6631 -0.0001 0.7578 0.0001
# 2 34.7478 97.5421 32.7832 0.0008 -2.9357 -0.0002
# 3 42.6631 32.7832 114.0980 0.0015 -14.2183 -0.0004
# 4 -0.0001 0.0008 0.0015 25.5677 -0.0005 -0.4169
# 5 0.7578 -2.9357 -14.2183 -0.0005 55.7944 0.0001
# 6 0.0001 -0.0002 -0.0004 -0.4169 0.0001 24.8911
#
#
#
# Elastic Compliance Matrix: (Units=1/GPa)
#
#
# Indices 1 2 3 4 5 6 
#
# 1 0.011202 -0.002843 -0.003521 0.000000 -0.001199 0.000000
# 2 -0.002843 0.012073 -0.002398 0.000000 0.000063 0.000000
# 3 -0.003521 -0.002398 0.011113 -0.000001 0.002754 0.000000
# 4 0.000000 0.000000 -0.000001 0.039123 0.000000 0.000655
# 5 -0.001199 0.000063 0.002754 0.000000 0.018644 0.000000
# 6 0.000000 0.000000 0.000000 0.000655 0.000000 0.040186
#
#
# Mechanical properties :
#
#
# Convention : Reuss Voigt Hill
#
# Bulk Modulus (GPa) = 59.29956 60.40062 59.85009
# Shear Modulus (GPa) = 32.15709 35.45221 33.80465
#
# Velocity S-wave (km/s) = 3.91745 4.11327 4.01655
# Velocity P-wave (km/s) = 6.98295 7.16825 7.07620
#
# Compressibility (1/GPa) = 0.01686353
#
# Stress axis : x y z
#
# Youngs Moduli (GPa) = 89.26661 82.83196 89.98370
#
# Poissons Ratio (x) = 0.23552 0.31685
# Poissons Ratio (y) = 0.25381 0.21576
# Poissons Ratio (z) = 0.31433 0.19861
#
# Static dielectric constant tensor:
#      x y z
#    x 3.881710 0.000000 0.089110 
#    y 0.000000 3.757510 0.000000 
#    z 0.089110 0.000000 4.073570 
# 
# 
# High freq. dielectric constant tensor:
#      x y z
#    x 1.829960 0.000000 0.001520 
#    y 0.000000 1.812560 0.000000 
#    z 0.001520 0.000000 1.836720 
# 
# From -- ./inp_files/316718.got.cif
#   From: 2010.06.25/outbox.cif.g09.slc.cpg/sg12_159_cif.got.tgz:316718.got - 2010.06.28 00:19:55.
