data_PCOD8109463
_publ_section_title
;
Structure prediction by ZEFSAII (Michael W. Deem and Ramdas Pophale) SiO2 
 PCOD8109463
Probable space group: C 2/M
;
_chemical_formula_sum "Si O2"
_cell_formula_units_Z 48
_cell_length_a 15.019567
_cell_length_b 8.493358
_cell_length_c 26.894539
_cell_angle_alpha 90.000000
_cell_angle_beta 44.008396
_cell_angle_gamma 90.000000
_cell_volume 2383.625992
_symmetry_space_group_name_H-M "C 2/M"
_symmetry_group_IT_number 12
_symmetry_cell_setting 'monoclinic'
loop_
_space_group_symop_operation_xyz
x,y,z
-x,y,-z
-x,-y,-z
x,-y,z
1/2+x,1/2+y,z
1/2-x,1/2+y,-z
1/2-x,1/2-y,-z
1/2+x,1/2-y,z
loop_
_atom_site_type_symbol
_atom_site_label
_atom_site_fract_x
_atom_site_fract_y
_atom_site_fract_z
Si Si1 0.328605 0.185568 0.922054
Si Si2 0.454615 0.181585 0.426590
Si Si3 0.288786 0.681818 0.411528
Si Si4 0.773266 0.818762 0.666051
Si Si5 0.893496 0.814740 0.180775
Si Si6 0.375723 0.315097 0.076754
O O1 0.461101 0.276518 0.863399
O O2 0.251509 0.225271 0.902779
O O3 0.351049 0.000000 0.919375
O O4 0.250000 0.250000 0.000000
O O5 0.398728 0.217059 0.394351
O O6 0.349641 0.225721 0.510279
O O7 0.576663 0.287484 0.388650
O O8 0.495760 0.000000 0.413153
O O9 0.320206 0.500000 0.408227
O O10 0.289182 0.718076 0.353121
O O11 0.703285 0.775757 0.744928
O O12 0.751530 0.000000 0.662061
O O13 0.863719 0.749349 0.137428
O O14 0.869115 0.000000 0.195356
O O15 0.399225 0.500000 0.071007
O O16 0.500000 0.238448 0.000000
#
# Coordination Sequence:
#
# PCOD8109463 Si02
#       6
#     8   8   8   8   8   8
#     4  11  21  37  61  88 116 148 192 242 297 361
#     4  10  21  39  64  93 124 160 204 253 306 360
#     4  10  21  39  64  93 123 160 207 253 301 363
#     4  12  25  40  59  87 126 165 206 253 305 366
#     4  11  23  41  61  84 117 157 200 249 306 363
#     4   9  18  36  61  85 111 148 190 233 292 359
#
# _framework density 20.137388000000001
#
# number of rings (size 3 to 8) (size 9 to 14) (size 15 to 20)
#    0.000    1.500    1.667    4.000    0.000    5.333 
#    0.000    9.167    0.000    0.000    0.000    0.000 
#    0.000    0.000    0.000    0.000    0.000    0.000 
#
# Total GULP energy -297725.801319 kJ/mol
# GULP energy per Si atom -12405.241722 kJ/mol
# Density = 2.009155 g / cm^3
# Si number density = 20.137388 Si / 1000 Ang^3
#
#
#
# Elastic Constant Matrix: (Units=GPa)
#
#
# Indices 1 2 3 4 5 6 
#
# 1 107.4559 14.6383 33.4606 -0.0002 21.8082 -0.0011
# 2 14.6383 52.4237 23.8506 -0.0010 -4.2788 -0.0018
# 3 33.4606 23.8506 57.7073 0.0002 25.5790 -0.0001
# 4 -0.0002 -0.0010 0.0002 31.2071 -0.0001 -3.7692
# 5 21.8082 -4.2788 25.5790 -0.0001 30.4890 -0.0004
# 6 -0.0011 -0.0018 -0.0001 -3.7692 -0.0004 32.5043
#
#
#
# Elastic Compliance Matrix: (Units=1/GPa)
#
#
# Indices 1 2 3 4 5 6 
#
# 1 0.011867 -0.002377 -0.003165 0.000000 -0.006166 0.000000
# 2 -0.002377 0.032682 -0.023747 0.000002 0.026209 0.000002
# 3 -0.003165 -0.023747 0.046889 -0.000001 -0.040407 -0.000002
# 4 0.000000 0.000002 -0.000001 0.032499 0.000002 0.003769
# 5 -0.006166 0.026209 -0.040407 0.000002 0.074787 0.000002
# 6 0.000000 0.000002 -0.000002 0.003769 0.000002 0.031202
#
#
# Mechanical properties :
#
#
# Convention : Reuss Voigt Hill
#
# Bulk Modulus (GPa) = 30.43172 40.16508 35.29840
# Shear Modulus (GPa) = 16.69680 28.54923 22.62302
#
# Velocity S-wave (km/s) = 2.88261 3.76935 3.35540
# Velocity P-wave (km/s) = 5.12095 6.23962 5.70776
#
# Compressibility (1/GPa) = 0.03286045
#
# Stress axis : x y z
#
# Youngs Moduli (GPa) = 84.26716 30.59782 21.32682
#
# Poissons Ratio (x) = 0.07273 0.06751
# Poissons Ratio (y) = 0.20029 0.50644
# Poissons Ratio (z) = 0.26673 0.72660
#
# Static dielectric constant tensor:
#      x y z
#    x 3.870670 0.000000 0.121330 
#    y 0.000000 3.567380 0.000000 
#    z 0.121330 0.000000 3.591810 
# 
# 
# High freq. dielectric constant tensor:
#      x y z
#    x 1.799570 0.000000 0.004390 
#    y 0.000000 1.780710 0.000000 
#    z 0.004390 0.000000 1.782810 
# 
# From -- ./inp_files/360229.got.cif
#   From: 2010.06.25/outbox.cif.g09.slc.cpg/sg12_181_cif.got.tgz:360229.got - 2010.06.28 00:19:55.
