data_PCOD8109847
_publ_section_title
;
Structure prediction by ZEFSAII (Michael W. Deem and Ramdas Pophale) SiO2 
 PCOD8109847
Probable space group: C 2/M
;
_chemical_formula_sum "Si O2"
_cell_formula_units_Z 40
_cell_length_a 13.265586
_cell_length_b 14.946330
_cell_length_c 14.305213
_cell_angle_alpha 90.000000
_cell_angle_beta 40.718862
_cell_angle_gamma 90.000000
_cell_volume 1850.267994
_symmetry_space_group_name_H-M "C 2/M"
_symmetry_group_IT_number 12
_symmetry_cell_setting 'monoclinic'
loop_
_space_group_symop_operation_xyz
x,y,z
-x,y,-z
-x,-y,-z
x,-y,z
1/2+x,1/2+y,z
1/2-x,1/2+y,-z
1/2-x,1/2-y,-z
1/2+x,1/2-y,z
loop_
_atom_site_type_symbol
_atom_site_label
_atom_site_fract_x
_atom_site_fract_y
_atom_site_fract_z
Si Si1 0.383971 0.600683 0.743594
Si Si2 0.652482 0.776143 0.334936
Si Si3 0.213206 0.161867 0.582764
Si Si4 0.932868 0.398478 0.953043
Si Si5 0.515283 0.899227 0.286950
O O1 0.386548 0.500000 0.699058
O O2 0.336554 0.670218 0.695109
O O3 0.548125 0.621929 0.673763
O O4 0.253612 0.607393 0.915500
O O5 0.500000 0.794216 0.500000
O O6 0.789874 0.813356 0.304370
O O7 0.639604 0.834983 0.250184
O O8 0.250000 0.250000 0.500000
O O9 0.349929 0.094857 0.455542
O O10 0.993627 0.500000 0.914214
O O11 0.997087 0.358528 0.810113
O O12 0.000000 0.349287 0.000000
O O13 0.583105 0.000000 0.236203
#
# Coordination Sequence:
#
# PCOD8109847 Si02
#       5
#     8   8   8   8   8
#     4  11  23  40  65  93 126 166 209 258 312 369
#     4  10  22  39  60  90 129 158 206 259 306 373
#     4  11  22  41  60  90 129 159 203 263 306 369
#     4   9  21  39  61  93 127 161 209 257 308 375
#     4  10  21  40  64  87 121 168 206 250 315 374
#
# _framework density 21.618490000000001
#
# number of rings (size 3 to 8) (size 9 to 14) (size 15 to 20)
#    0.000    1.800    4.000    0.600    2.800    5.600 
#    0.000    1.000    0.000    3.600    0.000    0.000 
#    0.000    0.000    0.000    0.000    0.000    0.000 
#
# Total GULP energy -247838.612586 kJ/mol
# GULP energy per Si atom -12391.930629 kJ/mol
# Density = 2.156929 g / cm^3
# Si number density = 21.618490 Si / 1000 Ang^3
#
#
#
# Elastic Constant Matrix: (Units=GPa)
#
#
# Indices 1 2 3 4 5 6 
#
# 1 133.3815 44.7221 70.3551 0.0001 28.2252 0.0000
# 2 44.7221 105.9767 31.9101 0.0001 15.3828 -0.0001
# 3 70.3551 31.9101 80.1408 0.0001 12.0074 -0.0001
# 4 0.0001 0.0001 0.0001 18.6114 -0.0001 6.4408
# 5 28.2252 15.3828 12.0074 -0.0001 45.7283 0.0001
# 6 0.0000 -0.0001 -0.0001 6.4408 0.0001 23.2768
#
#
#
# Elastic Compliance Matrix: (Units=1/GPa)
#
#
# Indices 1 2 3 4 5 6 
#
# 1 0.015926 -0.002184 -0.012230 0.000000 -0.005884 0.000000
# 2 -0.002184 0.011323 -0.002314 0.000000 -0.001854 0.000000
# 3 -0.012230 -0.002314 0.023825 0.000000 0.002071 0.000000
# 4 0.000000 0.000000 0.000000 0.059420 0.000000 -0.016442
# 5 -0.005884 -0.001854 0.002071 0.000000 0.025580 0.000000
# 6 0.000000 0.000000 0.000000 -0.016442 0.000000 0.047511
#
#
# Mechanical properties :
#
#
# Convention : Reuss Voigt Hill
#
# Bulk Modulus (GPa) = 56.75524 68.16374 62.45949
# Shear Modulus (GPa) = 22.43025 29.02409 25.72717
#
# Velocity S-wave (km/s) = 3.22460 3.66807 3.45346
# Velocity P-wave (km/s) = 6.33831 7.03835 6.69748
#
# Compressibility (1/GPa) = 0.01761952
#
# Stress axis : x y z
#
# Youngs Moduli (GPa) = 62.79227 88.31277 41.97209
#
# Poissons Ratio (x) = 0.19288 0.51331
# Poissons Ratio (y) = 0.13714 0.09711
# Poissons Ratio (z) = 0.76793 0.20432
#
# Static dielectric constant tensor:
#      x y z
#    x -3.128190 0.000000 6.410510 
#    y 0.000000 3.907690 0.000000 
#    z 6.410510 0.000000 -1.007160 
# 
# 
# High freq. dielectric constant tensor:
#      x y z
#    x 1.849160 0.000000 0.006130 
#    y 0.000000 1.839880 0.000000 
#    z 0.006130 0.000000 1.833680 
# 
# From -- ./inp_files/214577.got.cif
#   From: 2010.06.25/outbox.cif.g09.slc.cpg/sg12_108_cif.got.tgz:214577.got - 2010.06.28 00:19:55.
