data_PCOD8109747
_publ_section_title
;
Structure prediction by ZEFSAII (Michael W. Deem and Ramdas Pophale) SiO2 
 PCOD8109747
Probable space group: C 2/M
;
_chemical_formula_sum "Si O2"
_cell_formula_units_Z 36
_cell_length_a 12.812743
_cell_length_b 30.840779
_cell_length_c 7.397859
_cell_angle_alpha 90.000000
_cell_angle_beta 144.564178
_cell_angle_gamma 90.000000
_cell_volume 1694.902572
_symmetry_space_group_name_H-M "C 2/M"
_symmetry_group_IT_number 12
_symmetry_cell_setting 'monoclinic'
loop_
_space_group_symop_operation_xyz
x,y,z
-x,y,-z
-x,-y,-z
x,-y,z
1/2+x,1/2+y,z
1/2-x,1/2+y,-z
1/2-x,1/2-y,-z
1/2+x,1/2-y,z
loop_
_atom_site_type_symbol
_atom_site_label
_atom_site_fract_x
_atom_site_fract_y
_atom_site_fract_z
Si Si1 0.701212 0.451815 0.830953
Si Si2 0.694323 0.547920 0.242238
Si Si3 0.900019 0.296704 0.549317
Si Si4 0.494351 0.890836 0.707871
Si Si5 0.000000 0.231080 0.000000
O O1 0.500000 0.437264 0.500000
O O2 0.741052 0.500000 0.803237
O O3 0.737674 0.455555 0.093813
O O4 0.831456 0.412752 0.950130
O O5 0.703369 0.500000 0.344061
O O6 0.830947 0.578659 0.540497
O O7 0.500000 0.568760 0.000000
O O8 0.966139 0.259057 0.773763
O O9 0.681212 0.297239 0.218648
O O10 0.000000 0.289229 0.500000
O O11 0.963027 0.341913 0.730690
O O12 0.500000 0.889110 0.500000
#
# Coordination Sequence:
#
# PCOD8109747 Si02
#       5
#     8   8   8   8   4
#     4   9  17  32  51  74 107 144 181 221 269 326
#     4   9  17  30  49  74 104 140 178 215 263 322
#     4  10  21  40  62  87 117 149 191 238 291 350
#     4   9  18  33  53  77 104 141 182 221 273 330
#     4  10  22  40  62  88 114 152 190 236 298 358
#
# _framework density 21.240158999999998
#
# number of rings (size 3 to 8) (size 9 to 14) (size 15 to 20)
#    0.000    2.667    0.000    1.333    1.556    2.667 
#    4.000    5.556    0.000    5.333    0.000    0.000 
#    0.000    0.000    0.000    0.000    0.000    0.000 
#
# Total GULP energy -223041.535526 kJ/mol
# GULP energy per Si atom -12391.196418 kJ/mol
# Density = 2.119182 g / cm^3
# Si number density = 21.240159 Si / 1000 Ang^3
#
#
#
# Elastic Constant Matrix: (Units=GPa)
#
#
# Indices 1 2 3 4 5 6 
#
# 1 63.9914 31.4950 34.0683 0.0000 19.3288 0.0000
# 2 31.4950 128.0417 67.8902 0.0000 32.7633 0.0000
# 3 34.0683 67.8902 128.8162 0.0000 38.9782 0.0000
# 4 0.0000 0.0000 0.0000 25.3651 0.0000 6.9805
# 5 19.3288 32.7633 38.9782 0.0000 43.3025 0.0000
# 6 0.0000 0.0000 0.0000 6.9805 0.0000 11.3118
#
#
#
# Elastic Compliance Matrix: (Units=1/GPa)
#
#
# Indices 1 2 3 4 5 6 
#
# 1 0.019513 -0.002239 -0.002553 0.000000 -0.004718 0.000000
# 2 -0.002239 0.011683 -0.004388 0.000000 -0.003890 0.000000
# 3 -0.002553 -0.004388 0.012921 0.000000 -0.007171 0.000000
# 4 0.000000 0.000000 0.000000 0.047489 0.000000 -0.029305
# 5 -0.004718 -0.003890 -0.007171 0.000000 0.034597 0.000000
# 6 0.000000 0.000000 0.000000 -0.029305 0.000000 0.106488
#
#
# Mechanical properties :
#
#
# Convention : Reuss Voigt Hill
#
# Bulk Modulus (GPa) = 38.82480 65.30628 52.06554
# Shear Modulus (GPa) = 19.25773 28.48892 23.87332
#
# Velocity S-wave (km/s) = 3.01436 3.66632 3.35620
# Velocity P-wave (km/s) = 5.51668 6.98111 6.29165
#
# Compressibility (1/GPa) = 0.02575673
#
# Stress axis : x y z
#
# Youngs Moduli (GPa) = 51.24688 85.59736 77.39597
#
# Poissons Ratio (x) = 0.19163 0.19761
# Poissons Ratio (y) = 0.11473 0.33960
# Poissons Ratio (z) = 0.13085 0.37559
#
# Static dielectric constant tensor:
#      x y z
#    x 3.689220 0.000000 0.301810 
#    y 0.000000 4.089480 0.000000 
#    z 0.301810 0.000000 3.895250 
# 
# 
# High freq. dielectric constant tensor:
#      x y z
#    x 1.822610 0.000000 0.012900 
#    y 0.000000 1.824140 0.000000 
#    z 0.012900 0.000000 1.835770 
# 
# From -- ./inp_files/40639.got.cif
#   From: 2010.06.25/outbox.cif.g09.slc.cpg/sg12_21_cif.got.tgz:40639.got - 2010.06.28 00:19:55.
