data_PCOD8109801
_publ_section_title
;
Structure prediction by ZEFSAII (Michael W. Deem and Ramdas Pophale) SiO2 
 PCOD8109801
Probable space group: C 2/M
;
_chemical_formula_sum "Si O2"
_cell_formula_units_Z 48
_cell_length_a 19.568321
_cell_length_b 9.149552
_cell_length_c 13.496751
_cell_angle_alpha 90.000000
_cell_angle_beta 89.198771
_cell_angle_gamma 90.000000
_cell_volume 2416.240524
_symmetry_space_group_name_H-M "C 2/M"
_symmetry_group_IT_number 12
_symmetry_cell_setting 'monoclinic'
loop_
_space_group_symop_operation_xyz
x,y,z
-x,y,-z
-x,-y,-z
x,-y,z
1/2+x,1/2+y,z
1/2-x,1/2+y,-z
1/2-x,1/2-y,-z
1/2+x,1/2-y,z
loop_
_atom_site_type_symbol
_atom_site_label
_atom_site_fract_x
_atom_site_fract_y
_atom_site_fract_z
Si Si1 0.293352 0.830240 0.081723
Si Si2 0.549482 0.168637 0.910958
Si Si3 0.876596 0.669034 0.630656
Si Si4 0.492279 0.667055 0.727562
Si Si5 0.391543 0.666395 0.428675
Si Si6 0.772043 0.168833 0.284606
O O1 0.373013 0.804714 0.056363
O O2 0.273239 0.768168 0.188374
O O3 0.274522 0.000000 0.080310
O O4 0.250000 0.750000 0.000000
O O5 0.535412 0.265148 0.815511
O O6 0.536318 0.000000 0.883810
O O7 0.500000 0.220004 0.000000
O O8 0.896317 0.500000 0.632449
O O9 0.892915 0.729694 0.522411
O O10 0.797815 0.695879 0.655924
O O11 0.921235 0.748929 0.713716
O O12 0.476135 0.500000 0.754274
O O13 0.535629 0.679186 0.626094
O O14 0.377773 0.500000 0.463514
O O15 0.332554 0.719436 0.355515
O O16 0.781055 0.000000 0.252778
#
# Coordination Sequence:
#
# PCOD8109801 Si02
#       6
#     8   8   8   8   8   8
#     4  11  24  41  65  93 123 159 199 248 300 360
#     4  10  23  43  65  90 121 158 199 247 303 358
#     4  11  24  38  60  91 124 162 204 250 298 357
#     4  11  23  40  63  90 123 161 201 250 302 357
#     4  10  21  40  63  87 120 160 204 252 302 355
#     4  10  22  42  63  87 123 163 202 250 303 355
#
# _framework density 19.865570000000002
#
# number of rings (size 3 to 8) (size 9 to 14) (size 15 to 20)
#    0.000    1.500    1.667    2.500    2.333    6.333 
#    0.000    0.000    0.000    0.000    0.000    0.000 
#    0.000    0.000    0.000    0.000    0.000    0.000 
#
# Total GULP energy -297768.962679 kJ/mol
# GULP energy per Si atom -12407.040112 kJ/mol
# Density = 1.982036 g / cm^3
# Si number density = 19.865570 Si / 1000 Ang^3
#
#
#
# Elastic Constant Matrix: (Units=GPa)
#
#
# Indices 1 2 3 4 5 6 
#
# 1 70.0434 39.4003 24.1829 0.0000 12.8396 0.0000
# 2 39.4003 110.6278 53.5660 0.0000 8.3544 0.0000
# 3 24.1829 53.5660 87.6639 0.0000 4.1053 0.0000
# 4 0.0000 0.0000 0.0000 34.9554 0.0000 4.6259
# 5 12.8396 8.3544 4.1053 0.0000 35.8947 0.0000
# 6 0.0000 0.0000 0.0000 4.6259 0.0000 33.3084
#
#
#
# Elastic Compliance Matrix: (Units=1/GPa)
#
#
# Indices 1 2 3 4 5 6 
#
# 1 0.018928 -0.005586 -0.001560 0.000000 -0.005292 0.000000
# 2 -0.005586 0.014646 -0.007382 0.000000 -0.000566 0.000000
# 3 -0.001560 -0.007382 0.016329 0.000000 0.000409 0.000000
# 4 0.000000 0.000000 0.000000 0.029144 0.000000 -0.004048
# 5 -0.005292 -0.000566 0.000409 0.000000 0.029837 0.000000
# 6 0.000000 0.000000 0.000000 -0.004048 0.000000 0.030585
#
#
# Mechanical properties :
#
#
# Convention : Reuss Voigt Hill
#
# Bulk Modulus (GPa) = 47.96954 55.84819 51.90886
# Shear Modulus (GPa) = 28.49443 30.91074 29.70258
#
# Velocity S-wave (km/s) = 3.79141 3.94889 3.87095
# Velocity P-wave (km/s) = 6.58527 6.99755 6.79454
#
# Compressibility (1/GPa) = 0.02084656
#
# Stress axis : x y z
#
# Youngs Moduli (GPa) = 52.83218 68.27907 61.24088
#
# Poissons Ratio (x) = 0.38141 0.09556
# Poissons Ratio (y) = 0.29512 0.45206
# Poissons Ratio (z) = 0.08243 0.50401
#
# Static dielectric constant tensor:
#      x y z
#    x 3.837850 0.000000 0.081540 
#    y 0.000000 3.688810 0.000000 
#    z 0.081540 0.000000 3.588810 
# 
# 
# High freq. dielectric constant tensor:
#      x y z
#    x 1.790990 0.000000 0.005020 
#    y 0.000000 1.779710 0.000000 
#    z 0.005020 0.000000 1.776140 
# 
# From -- ./inp_files/221506.got.cif
#   From: 2010.06.25/outbox.cif.g09.slc.cpg/sg12_111_cif.got.tgz:221506.got - 2010.06.28 00:19:55.
