data_PCOD8109977
_publ_section_title
;
Structure prediction by ZEFSAII (Michael W. Deem and Ramdas Pophale) SiO2 
 PCOD8109977
Probable space group: C 2/M
;
_chemical_formula_sum "Si O2"
_cell_formula_units_Z 64
_cell_length_a 17.943173
_cell_length_b 13.608982
_cell_length_c 23.679095
_cell_angle_alpha 90.000000
_cell_angle_beta 29.979801
_cell_angle_gamma 90.000000
_cell_volume 2889.313677
_symmetry_space_group_name_H-M "C 2/M"
_symmetry_group_IT_number 12
_symmetry_cell_setting 'monoclinic'
loop_
_space_group_symop_operation_xyz
x,y,z
-x,y,-z
-x,-y,-z
x,-y,z
1/2+x,1/2+y,z
1/2-x,1/2+y,-z
1/2-x,1/2-y,-z
1/2+x,1/2-y,z
loop_
_atom_site_type_symbol
_atom_site_label
_atom_site_fract_x
_atom_site_fract_y
_atom_site_fract_z
Si Si1 0.367598 0.613657 0.939466
Si Si2 0.856545 0.886556 0.453469
Si Si3 0.966509 0.615153 0.866776
Si Si4 0.065087 0.277186 0.515063
Si Si5 0.967804 0.384514 0.299406
Si Si6 0.329425 0.114504 0.735618
Si Si7 0.367460 0.386966 0.318399
Si Si8 0.535227 0.736616 0.912934
O O1 0.367368 0.500000 0.955300
O O2 0.493292 0.642896 0.811664
O O3 0.401893 0.669671 0.975434
O O4 0.208516 0.643061 0.017629
O O5 0.947395 0.815748 0.434858
O O6 0.682477 0.853190 0.569155
O O7 0.917981 0.871375 0.350035
O O8 0.874475 0.000000 0.461224
O O9 0.994745 0.500000 0.855136
O O10 0.031129 0.657745 0.764976
O O11 0.049423 0.666371 0.864828
O O12 0.230519 0.316407 0.394426
O O13 0.000000 0.235425 0.500000
O O14 0.964303 0.367008 0.603536
O O15 0.976102 0.500000 0.288358
O O16 0.111848 0.351449 0.241017
O O17 0.188192 0.176944 0.809607
O O18 0.286189 0.000000 0.762144
O O19 0.320544 0.500000 0.338829
O O20 0.500000 0.767754 0.000000
#
# Coordination Sequence:
#
# PCOD8109977 Si02
#       8
#     8   8   8   8   8   8   8   8
#     4  10  22  41  66  94 126 164 209 268 323 375
#     4  10  22  41  64  92 124 169 219 264 309 365
#     4  10  23  43  67  93 124 168 218 265 315 374
#     4  12  25  37  59  94 130 172 207 252 315 379
#     4   9  19  39  67  91 119 163 216 266 312 366
#     4  11  24  42  64  93 129 165 208 261 322 381
#     4  10  21  40  65  93 126 163 211 265 317 374
#     4  12  26  41  62  96 129 170 211 261 321 383
#
# _framework density 22.150589
#
# number of rings (size 3 to 8) (size 9 to 14) (size 15 to 20)
#    0.000    1.500    1.250    3.000    3.500    5.500 
#    0.000    0.625    0.000    0.000    0.000    0.000 
#    0.000    0.000    0.000    0.000    0.000    0.000 
#
# Total GULP energy -396852.944056 kJ/mol
# GULP energy per Si atom -12401.654502 kJ/mol
# Density = 2.210017 g / cm^3
# Si number density = 22.150589 Si / 1000 Ang^3
#
#
#
# Elastic Constant Matrix: (Units=GPa)
#
#
# Indices 1 2 3 4 5 6 
#
# 1 151.1219 52.3912 36.9447 -0.0009 15.9545 0.0001
# 2 52.3912 48.1781 -0.4971 -0.0023 -2.4164 0.0001
# 3 36.9447 -0.4971 83.1781 -0.0047 13.7428 -0.0001
# 4 -0.0009 -0.0023 -0.0047 19.2444 0.0004 -2.7483
# 5 15.9545 -2.4164 13.7428 0.0004 30.3272 -0.0001
# 6 0.0001 0.0001 -0.0001 -2.7483 -0.0001 40.9231
#
#
#
# Elastic Compliance Matrix: (Units=1/GPa)
#
#
# Indices 1 2 3 4 5 6 
#
# 1 0.013937 -0.015520 -0.005261 -0.000002 -0.006184 0.000000
# 2 -0.015520 0.038125 0.005697 0.000005 0.008621 0.000000
# 3 -0.005261 0.005697 0.014983 0.000004 -0.003568 0.000000
# 4 -0.000002 0.000005 0.000004 0.052466 -0.000001 0.003524
# 5 -0.006184 0.008621 -0.003568 -0.000001 0.038531 0.000000
# 6 0.000000 0.000000 0.000000 0.003524 0.000000 0.024673
#
#
# Mechanical properties :
#
#
# Convention : Reuss Voigt Hill
#
# Bulk Modulus (GPa) = 27.11818 51.12841 39.12330
# Shear Modulus (GPa) = 22.20500 31.00823 26.60662
#
# Velocity S-wave (km/s) = 3.16959 3.74556 3.46955
# Velocity P-wave (km/s) = 5.06600 6.46822 5.80957
#
# Compressibility (1/GPa) = 0.03687563
#
# Stress axis : x y z
#
# Youngs Moduli (GPa) = 71.75256 26.22973 66.74359
#
# Poissons Ratio (x) = 0.40709 0.35115
# Poissons Ratio (y) = 1.11360 -0.38023
# Poissons Ratio (z) = 0.37750 -0.14943
#
# Static dielectric constant tensor:
#      x y z
#    x 4.100660 0.000000 0.158910 
#    y 0.000000 4.005790 0.000010 
#    z 0.158910 0.000010 4.109830 
# 
# 
# High freq. dielectric constant tensor:
#      x y z
#    x 1.869140 0.000000 0.010300 
#    y 0.000000 1.878070 0.000000 
#    z 0.010300 0.000000 1.870290 
# 
# From -- ./inp_files/344008.got.cif
#   From: 2010.06.25/outbox.cif.g09.slc.cpg/sg12_173_cif.got.tgz:344008.got - 2010.06.28 00:19:55.
