data_PCOD8109965
_publ_section_title
;
Structure prediction by ZEFSAII (Michael W. Deem and Ramdas Pophale) SiO2 
 PCOD8109965
Probable space group: C 2/M
;
_chemical_formula_sum "Si O2"
_cell_formula_units_Z 48
_cell_length_a 17.294045
_cell_length_b 11.681325
_cell_length_c 30.650528
_cell_angle_alpha 90.000000
_cell_angle_beta 23.324119
_cell_angle_gamma 90.000000
_cell_volume 2451.587271
_symmetry_space_group_name_H-M "C 2/M"
_symmetry_group_IT_number 12
_symmetry_cell_setting 'monoclinic'
loop_
_space_group_symop_operation_xyz
x,y,z
-x,y,-z
-x,-y,-z
x,-y,z
1/2+x,1/2+y,z
1/2-x,1/2+y,-z
1/2-x,1/2-y,-z
1/2+x,1/2-y,z
loop_
_atom_site_type_symbol
_atom_site_label
_atom_site_fract_x
_atom_site_fract_y
_atom_site_fract_z
Si Si1 0.813799 0.869466 0.231720
Si Si2 0.057701 0.736894 0.178486
Si Si3 0.963597 0.207912 0.395618
Si Si4 0.546412 0.500000 0.538731
Si Si5 0.333345 0.631328 0.795443
Si Si6 0.657647 0.000000 0.693765
Si Si7 0.999534 0.196454 0.952739
O O1 0.601787 0.811316 0.339922
O O2 0.901496 0.875377 0.137256
O O3 0.947222 0.796531 0.195545
O O4 0.793274 0.000000 0.259108
O O5 0.041293 0.812970 0.230442
O O6 0.976713 0.611569 0.231761
O O7 0.283809 0.726750 0.047943
O O8 0.750000 0.250000 0.500000
O O9 0.926132 0.117332 0.451856
O O10 0.042568 0.144433 0.312339
O O11 0.317132 0.500000 0.648175
O O12 0.715620 0.500000 0.415442
O O13 0.296963 0.500000 0.825423
O O14 0.121770 0.687930 0.898260
O O15 0.000000 0.130481 0.000000
#
# Coordination Sequence:
#
# PCOD8109965 Si02
#       7
#     8   8   8   4   8   4   8
#     4  11  24  40  61  93 126 163 205 257 310 370
#     4  11  22  42  61  95 126 167 205 256 307 371
#     4  11  23  42  64  91 123 160 210 260 314 366
#     4  11  22  44  68  88 121 168 210 264 304 374
#     4  10  21  40  65  92 125 165 210 254 307 372
#     4  11  24  40  67  92 124 164 217 254 311 373
#     4   9  22  41  61  92 126 165 208 248 309 366
#
# _framework density 19.579151
#
# number of rings (size 3 to 8) (size 9 to 14) (size 15 to 20)
#    0.000    1.500    2.500    2.000    2.333    4.000 
#   12.000    0.000    0.000    3.000    0.000    0.000 
#    0.000    0.000    0.000    0.000    0.000    0.000 
#
# Total GULP energy -297468.823088 kJ/mol
# GULP energy per Si atom -12394.534295 kJ/mol
# Density = 1.953459 g / cm^3
# Si number density = 19.579151 Si / 1000 Ang^3
#
#
#
# Elastic Constant Matrix: (Units=GPa)
#
#
# Indices 1 2 3 4 5 6 
#
# 1 129.9115 65.0851 78.7231 0.0123 -1.4419 -0.0081
# 2 65.0851 158.0874 67.5166 -0.0052 1.7137 0.0025
# 3 78.7231 67.5166 144.3327 -0.0207 1.0182 0.0336
# 4 0.0123 -0.0052 -0.0207 15.7241 0.0425 4.4674
# 5 -1.4419 1.7137 1.0182 0.0425 55.2026 -0.0296
# 6 -0.0081 0.0025 0.0336 4.4674 -0.0296 30.6996
#
#
#
# Elastic Compliance Matrix: (Units=1/GPa)
#
#
# Indices 1 2 3 4 5 6 
#
# 1 0.012412 -0.002778 -0.005474 -0.000023 0.000511 0.000013
# 2 -0.002778 0.008528 -0.002472 0.000002 -0.000292 0.000001
# 3 -0.005474 -0.002472 0.011073 0.000024 -0.000270 -0.000017
# 4 -0.000023 0.000002 0.000024 0.066339 -0.000057 -0.009654
# 5 0.000511 -0.000292 -0.000270 -0.000057 0.018143 0.000026
# 6 0.000013 0.000001 -0.000017 -0.009654 0.000026 0.033979
#
#
# Mechanical properties :
#
#
# Convention : Reuss Voigt Hill
#
# Bulk Modulus (GPa) = 94.65534 94.99790 94.82662
# Shear Modulus (GPa) = 28.49927 35.05906 31.77916
#
# Velocity S-wave (km/s) = 3.81936 4.23618 4.03316
# Velocity P-wave (km/s) = 8.24014 8.51776 8.38010
#
# Compressibility (1/GPa) = 0.01056464
#
# Stress axis : x y z
#
# Youngs Moduli (GPa) = 80.56705 117.25746 90.31319
#
# Poissons Ratio (x) = 0.32571 0.49438
# Poissons Ratio (y) = 0.22379 0.22328
# Poissons Ratio (z) = 0.44103 0.28989
#
# Static dielectric constant tensor:
#      x y z
#    x 3.735120 -0.000050 0.047930 
#    y -0.000050 3.482380 0.000120 
#    z 0.047930 0.000120 3.488230 
# 
# 
# High freq. dielectric constant tensor:
#      x y z
#    x 1.775820 0.000000 -0.000870 
#    y 0.000000 1.764430 0.000000 
#    z -0.000870 0.000000 1.773820 
# 
# From -- ./inp_files/360979.got.cif
#   From: 2010.06.25/outbox.cif.g09.slc.cpg/sg12_181_cif.got.tgz:360979.got - 2010.06.28 00:19:55.
