data_PCOD8109408
_publ_section_title
;
Structure prediction by ZEFSAII (Michael W. Deem and Ramdas Pophale) SiO2 
 PCOD8109408
Probable space group: C 2/M
;
_chemical_formula_sum "Si O2"
_cell_formula_units_Z 48
_cell_length_a 18.664706
_cell_length_b 8.528611
_cell_length_c 14.892061
_cell_angle_alpha 90.000000
_cell_angle_beta 81.423969
_cell_angle_gamma 90.000000
_cell_volume 2344.072303
_symmetry_space_group_name_H-M "C 2/M"
_symmetry_group_IT_number 12
_symmetry_cell_setting 'monoclinic'
loop_
_space_group_symop_operation_xyz
x,y,z
-x,y,-z
-x,-y,-z
x,-y,z
1/2+x,1/2+y,z
1/2-x,1/2+y,-z
1/2-x,1/2-y,-z
1/2+x,1/2-y,z
loop_
_atom_site_type_symbol
_atom_site_label
_atom_site_fract_x
_atom_site_fract_y
_atom_site_fract_z
Si Si1 0.799147 0.681349 0.067620
Si Si2 0.967100 0.313338 0.412766
Si Si3 0.070859 0.825912 0.044863
Si Si4 0.238185 0.682253 0.254088
Si Si5 0.075095 0.314565 0.237120
Si Si6 0.304502 0.817065 0.417623
O O1 0.782625 0.500000 0.090255
O O2 0.786095 0.783698 0.158133
O O3 0.750000 0.750000 0.000000
O O4 0.880229 0.702003 0.017477
O O5 0.966546 0.500000 0.414175
O O6 0.885633 0.246317 0.414581
O O7 0.000000 0.248458 0.500000
O O8 0.017901 0.254611 0.321927
O O9 0.054444 0.767695 0.148146
O O10 0.106526 0.000000 0.044020
O O11 0.000000 0.836461 0.000000
O O12 0.242114 0.500000 0.278638
O O13 0.155472 0.735378 0.253462
O O14 0.273442 0.782443 0.325946
O O15 0.071071 0.500000 0.223768
O O16 0.250000 0.750000 0.500000
O O17 0.309667 0.000000 0.432513
#
# Coordination Sequence:
#
# PCOD8109408 Si02
#       6
#     8   8   8   8   8   8
#     4  12  24  41  65  93 126 168 215 261 313 376
#     4   9  19  38  63  90 119 156 204 253 306 371
#     4  11  25  42  61  90 128 168 210 263 318 370
#     4  11  23  40  64  93 126 164 207 259 314 374
#     4  10  21  39  64  90 118 163 212 256 310 373
#     4  11  23  40  64  94 125 161 205 259 315 377
#
# _framework density 20.477184000000001
#
# number of rings (size 3 to 8) (size 9 to 14) (size 15 to 20)
#    0.000    1.333    1.667    4.000    2.333    4.667 
#    0.000    0.833    0.000    3.500    0.000    0.000 
#    0.000    0.000    0.000    0.000    0.000    0.000 
#
# Total GULP energy -297657.861152 kJ/mol
# GULP energy per Si atom -12402.410881 kJ/mol
# Density = 2.043058 g / cm^3
# Si number density = 20.477184 Si / 1000 Ang^3
#
#
#
# Elastic Constant Matrix: (Units=GPa)
#
#
# Indices 1 2 3 4 5 6 
#
# 1 133.6588 29.5790 83.1094 0.0000 -5.8410 0.0000
# 2 29.5790 51.8898 15.6462 0.0000 2.2411 0.0000
# 3 83.1094 15.6462 166.0393 0.0000 -5.6422 0.0000
# 4 0.0000 0.0000 0.0000 34.9985 0.0000 0.4168
# 5 -5.8410 2.2411 -5.6422 0.0000 43.1249 0.0000
# 6 0.0000 0.0000 0.0000 0.4168 0.0000 27.1867
#
#
#
# Elastic Compliance Matrix: (Units=1/GPa)
#
#
# Indices 1 2 3 4 5 6 
#
# 1 0.012156 -0.005310 -0.005544 0.000000 0.001197 0.000000
# 2 -0.005310 0.022225 0.000502 0.000000 -0.001808 0.000000
# 3 -0.005544 0.000502 0.008763 0.000000 0.000370 0.000000
# 4 0.000000 0.000000 0.000000 0.028578 0.000000 -0.000438
# 5 0.001197 -0.001808 0.000370 0.000000 0.023493 0.000000
# 6 0.000000 0.000000 0.000000 -0.000438 0.000000 0.036789
#
#
# Mechanical properties :
#
#
# Convention : Reuss Voigt Hill
#
# Bulk Modulus (GPa) = 44.56071 67.58412 56.07242
# Shear Modulus (GPa) = 31.21350 35.94557 33.57954
#
# Velocity S-wave (km/s) = 3.90847 4.19429 4.05390
# Velocity P-wave (km/s) = 6.49435 7.51880 7.02527
#
# Compressibility (1/GPa) = 0.02244130
#
# Stress axis : x y z
#
# Youngs Moduli (GPa) = 82.26314 44.99435 114.11954
#
# Poissons Ratio (x) = 0.23890 0.63264
# Poissons Ratio (y) = 0.43678 -0.05728
# Poissons Ratio (z) = 0.45604 -0.02258
#
# Static dielectric constant tensor:
#      x y z
#    x 3.829880 0.000000 0.105000 
#    y 0.000000 4.344380 0.000000 
#    z 0.105000 0.000000 3.432350 
# 
# 
# High freq. dielectric constant tensor:
#      x y z
#    x 1.811810 0.000000 -0.001230 
#    y 0.000000 1.787430 0.000000 
#    z -0.001230 0.000000 1.816570 
# 
# From -- ./inp_files/221697.got.cif
#   From: 2010.06.25/outbox.cif.g09.slc.cpg/sg12_111_cif.got.tgz:221697.got - 2010.06.28 00:19:55.
