data_PCOD8109412
_publ_section_title
;
Structure prediction by ZEFSAII (Michael W. Deem and Ramdas Pophale) SiO2 
 PCOD8109412
Probable space group: C 2/M
;
_chemical_formula_sum "Si O2"
_cell_formula_units_Z 64
_cell_length_a 14.723571
_cell_length_b 17.577228
_cell_length_c 17.264543
_cell_angle_alpha 90.000000
_cell_angle_beta 134.629709
_cell_angle_gamma 90.000000
_cell_volume 3179.745237
_symmetry_space_group_name_H-M "C 2/M"
_symmetry_group_IT_number 12
_symmetry_cell_setting 'monoclinic'
loop_
_space_group_symop_operation_xyz
x,y,z
-x,y,-z
-x,-y,-z
x,-y,z
1/2+x,1/2+y,z
1/2-x,1/2+y,-z
1/2-x,1/2-y,-z
1/2+x,1/2-y,z
loop_
_atom_site_type_symbol
_atom_site_label
_atom_site_fract_x
_atom_site_fract_y
_atom_site_fract_z
Si Si1 0.596948 0.343770 0.783086
Si Si2 0.606676 0.165170 0.775776
Si Si3 0.253008 0.409628 0.987661
Si Si4 0.194771 0.843348 0.389938
Si Si5 0.625776 0.087596 0.625033
Si Si6 0.490078 0.084909 0.075313
Si Si7 0.774048 0.915515 0.289500
Si Si8 0.183954 0.335000 0.376222
O O1 0.621543 0.254780 0.794587
O O2 0.637396 0.375692 0.891895
O O3 0.451036 0.367824 0.684789
O O4 0.673749 0.379601 0.757665
O O5 0.616018 0.143336 0.691805
O O6 0.465511 0.140657 0.723656
O O7 0.732902 0.125266 0.889912
O O8 0.270090 0.500000 0.991627
O O9 0.119523 0.376366 0.940810
O O10 0.251275 0.890174 0.352105
O O11 0.201210 0.754418 0.376138
O O12 0.273708 0.863894 0.514098
O O13 0.500000 0.101118 0.500000
O O14 0.638345 0.000000 0.659532
O O15 0.622050 0.081860 0.197440
O O16 0.436630 0.000000 0.025821
O O17 0.500000 0.129965 0.000000
O O18 0.788901 0.868792 0.378099
O O19 0.832163 0.000000 0.333016
#
# Coordination Sequence:
#
# PCOD8109412 Si02
#       8
#     8   8   8   8   8   8   8   8
#     4  11  24  39  60  90 128 171 196 236 310 387
#     4  11  22  40  64  93 122 156 213 263 297 353
#     4  11  21  37  62  90 124 160 204 256 307 356
#     4  10  23  43  60  85 123 165 202 244 307 374
#     4  11  23  40  66  93 118 155 208 264 308 349
#     4   9  16  29  53  83 115 150 186 235 290 343
#     4  11  21  35  59  93 124 152 197 248 304 362
#     4  10  21  39  64  90 120 158 202 254 307 361
#
# _framework density 20.127399
#
# number of rings (size 3 to 8) (size 9 to 14) (size 15 to 20)
#    0.000    1.500    3.750    1.875    0.000    2.500 
#    0.000    1.250    0.000    1.500    0.000    0.000 
#    0.000    0.000    0.000    0.000    0.000    0.000 
#
# Total GULP energy -396531.760371 kJ/mol
# GULP energy per Si atom -12391.617512 kJ/mol
# Density = 2.008159 g / cm^3
# Si number density = 20.127399 Si / 1000 Ang^3
#
#
#
# Elastic Constant Matrix: (Units=GPa)
#
#
# Indices 1 2 3 4 5 6 
#
# 1 65.5554 30.8005 23.6055 0.0000 -8.4849 0.0000
# 2 30.8005 92.0185 49.3277 0.0000 -7.1400 0.0000
# 3 23.6055 49.3277 96.5851 0.0000 -8.5207 0.0000
# 4 0.0000 0.0000 0.0000 27.1226 0.0000 -3.8335
# 5 -8.4849 -7.1400 -8.5207 0.0000 31.6746 0.0000
# 6 0.0000 0.0000 0.0000 -3.8335 0.0000 26.2081
#
#
#
# Elastic Compliance Matrix: (Units=1/GPa)
#
#
# Indices 1 2 3 4 5 6 
#
# 1 0.018691 -0.005100 -0.001662 0.000000 0.003410 0.000000
# 2 -0.005100 0.016413 -0.007098 0.000000 0.000424 0.000000
# 3 -0.001662 -0.007098 0.014550 0.000000 0.001869 0.000000
# 4 0.000000 0.000000 0.000000 0.037648 0.000000 0.005507
# 5 0.003410 0.000424 0.001869 0.000000 0.033083 0.000000
# 6 0.000000 0.000000 0.000000 0.005507 0.000000 0.038962
#
#
# Mechanical properties :
#
#
# Convention : Reuss Voigt Hill
#
# Bulk Modulus (GPa) = 45.59738 51.29181 48.44459
# Shear Modulus (GPa) = 25.72312 27.02942 26.37627
#
# Velocity S-wave (km/s) = 3.57881 3.66856 3.62396
# Velocity P-wave (km/s) = 6.30720 6.59419 6.45229
#
# Compressibility (1/GPa) = 0.02193109
#
# Stress axis : x y z
#
# Youngs Moduli (GPa) = 53.50292 60.92881 68.72913
#
# Poissons Ratio (x) = 0.31076 0.11425
# Poissons Ratio (y) = 0.27289 0.48786
# Poissons Ratio (z) = 0.08894 0.43249
#
# Static dielectric constant tensor:
#      x y z
#    x 3.703410 0.000000 -0.114150 
#    y 0.000000 3.595080 0.000000 
#    z -0.114150 0.000000 3.805990 
# 
# 
# High freq. dielectric constant tensor:
#      x y z
#    x 1.784330 0.000000 -0.012770 
#    y 0.000000 1.776220 0.000000 
#    z -0.012770 0.000000 1.789860 
# 
# From -- ./inp_files/271768.got.cif
#   From: 2010.06.25/outbox.cif.g09.slc.cpg/sg12_136_cif.got.tgz:271768.got - 2010.06.28 00:19:55.
