data_PCOD8109446
_publ_section_title
;
Structure prediction by ZEFSAII (Michael W. Deem and Ramdas Pophale) SiO2 
 PCOD8109446
Probable space group: C 2/M
;
_chemical_formula_sum "Si O2"
_cell_formula_units_Z 56
_cell_length_a 8.815795
_cell_length_b 24.312080
_cell_length_c 12.740250
_cell_angle_alpha 90.000000
_cell_angle_beta 114.553384
_cell_angle_gamma 90.000000
_cell_volume 2483.703922
_symmetry_space_group_name_H-M "C 2/M"
_symmetry_group_IT_number 12
_symmetry_cell_setting 'monoclinic'
loop_
_space_group_symop_operation_xyz
x,y,z
-x,y,-z
-x,-y,-z
x,-y,z
1/2+x,1/2+y,z
1/2-x,1/2+y,-z
1/2-x,1/2-y,-z
1/2+x,1/2-y,z
loop_
_atom_site_type_symbol
_atom_site_label
_atom_site_fract_x
_atom_site_fract_y
_atom_site_fract_z
Si Si1 0.906924 0.742529 0.736808
Si Si2 0.486664 0.937180 0.742237
Si Si3 0.791507 0.062592 0.169026
Si Si4 0.187012 0.092043 0.051606
Si Si5 0.238427 0.287180 0.894209
Si Si6 0.487850 0.644453 0.663453
Si Si7 0.270010 0.853264 0.576726
O O1 0.795398 0.757109 0.804352
O O2 0.001523 0.795979 0.719896
O O3 0.815196 0.710466 0.615556
O O4 0.044081 0.699506 0.819898
O O5 0.369020 0.922340 0.807304
O O6 0.683828 0.929354 0.822803
O O7 0.425310 0.895511 0.632791
O O8 0.458266 0.000000 0.697371
O O9 0.961489 0.098412 0.236556
O O10 0.845591 0.000000 0.201859
O O11 0.729922 0.074571 0.033878
O O12 0.162027 0.157284 0.056796
O O13 0.000000 0.065702 0.000000
O O14 0.250000 0.250000 0.000000
O O15 0.299760 0.640088 0.562349
O O16 0.620530 0.632418 0.611340
#
# Coordination Sequence:
#
# PCOD8109446 Si02
#       7
#     8   8   8   8   8   8   8
#     4  12  22  41  61  92 128 164 207 253 311 374
#     4  10  22  40  63  91 121 159 210 259 309 366
#     4  10  22  40  63  90 121 162 209 257 311 368
#     4  12  24  39  60  90 124 164 204 252 312 374
#     4  12  25  38  61  92 128 165 205 252 309 375
#     4  10  21  39  64  92 125 161 211 260 308 366
#     4  10  21  39  64  92 123 166 208 258 312 366
#
# _framework density 22.546972
#
# number of rings (size 3 to 8) (size 9 to 14) (size 15 to 20)
#    0.000    1.143    2.857    4.286    2.000    4.000 
#    0.000    2.857    0.000    0.000    0.000    3.000 
#    0.000    0.000    0.000    0.000    0.000    0.000 
#
# Total GULP energy -347009.223230 kJ/mol
# GULP energy per Si atom -12393.186544 kJ/mol
# Density = 2.249565 g / cm^3
# Si number density = 22.546972 Si / 1000 Ang^3
#
#
#
# Elastic Constant Matrix: (Units=GPa)
#
#
# Indices 1 2 3 4 5 6 
#
# 1 55.9273 23.8111 20.0793 0.0000 22.5116 0.0000
# 2 23.8111 108.4797 32.9014 0.0000 18.9198 0.0000
# 3 20.0793 32.9014 95.7625 0.0000 31.1192 0.0000
# 4 0.0000 0.0000 0.0000 18.6913 0.0000 1.4802
# 5 22.5116 18.9198 31.1192 0.0000 33.1828 0.0000
# 6 0.0000 0.0000 0.0000 1.4802 0.0000 20.3054
#
#
#
# Elastic Compliance Matrix: (Units=1/GPa)
#
#
# Indices 1 2 3 4 5 6 
#
# 1 0.025442 -0.003027 0.001084 0.000000 -0.016550 0.000000
# 2 -0.003027 0.010971 -0.002545 0.000000 -0.001816 0.000000
# 3 0.001084 -0.002545 0.015616 0.000000 -0.013929 0.000000
# 4 0.000000 0.000000 0.000000 0.053811 0.000000 -0.003923
# 5 -0.016550 -0.001816 -0.013929 0.000000 0.055462 0.000000
# 6 0.000000 0.000000 0.000000 -0.003923 0.000000 0.049534
#
#
# Mechanical properties :
#
#
# Convention : Reuss Voigt Hill
#
# Bulk Modulus (GPa) = 23.22702 45.97256 34.59979
# Shear Modulus (GPa) = 21.35267 26.66109 24.00688
#
# Velocity S-wave (km/s) = 3.08072 3.44244 3.26659
# Velocity P-wave (km/s) = 4.79359 6.01950 5.44118
#
# Compressibility (1/GPa) = 0.04305331
#
# Stress axis : x y z
#
# Youngs Moduli (GPa) = 39.30562 91.14846 64.03687
#
# Poissons Ratio (x) = 0.27586 -0.06939
# Poissons Ratio (y) = 0.11896 0.16296
# Poissons Ratio (z) = -0.04259 0.23195
#
# Static dielectric constant tensor:
#      x y z
#    x 4.064780 0.000000 0.279650 
#    y 0.000000 3.979170 0.000000 
#    z 0.279650 0.000000 4.368650 
# 
# 
# High freq. dielectric constant tensor:
#      x y z
#    x 1.873210 0.000000 0.020110 
#    y 0.000000 1.886820 0.000000 
#    z 0.020110 0.000000 1.892090 
# 
# From -- ./inp_files/198965.got.cif
#   From: 2010.06.25/outbox.cif.g09.slc.cpg/sg12_100_cif.got.tgz:198965.got - 2010.06.28 00:19:55.
