data_PCOD8109530
_publ_section_title
;
Structure prediction by ZEFSAII (Michael W. Deem and Ramdas Pophale) SiO2 
 PCOD8109530
Probable space group: C 2/M
;
_chemical_formula_sum "Si O2"
_cell_formula_units_Z 48
_cell_length_a 27.730677
_cell_length_b 14.544450
_cell_length_c 8.850461
_cell_angle_alpha 90.000000
_cell_angle_beta 40.584975
_cell_angle_gamma 90.000000
_cell_volume 2322.314834
_symmetry_space_group_name_H-M "C 2/M"
_symmetry_group_IT_number 12
_symmetry_cell_setting 'monoclinic'
loop_
_space_group_symop_operation_xyz
x,y,z
-x,y,-z
-x,-y,-z
x,-y,z
1/2+x,1/2+y,z
1/2-x,1/2+y,-z
1/2-x,1/2-y,-z
1/2+x,1/2-y,z
loop_
_atom_site_type_symbol
_atom_site_label
_atom_site_fract_x
_atom_site_fract_y
_atom_site_fract_z
Si Si1 0.719128 0.183077 0.443631
Si Si2 0.172629 0.105783 0.047188
Si Si3 0.549818 0.741882 0.252316
Si Si4 0.532030 0.399234 0.759048
Si Si5 0.196494 0.148192 0.320219
Si Si6 0.153073 0.602110 0.869151
O O1 0.750000 0.250000 0.500000
O O2 0.781595 0.121241 0.215549
O O3 0.683725 0.244634 0.394660
O O4 0.661258 0.117072 0.667843
O O5 0.149774 0.000000 0.112137
O O6 0.099456 0.166372 0.217183
O O7 0.215559 0.136103 0.097516
O O8 0.500000 0.789420 0.500000
O O9 0.497790 0.687504 0.261235
O O10 0.597080 0.821662 0.063103
O O11 0.505553 0.500000 0.760835
O O12 0.621439 0.403288 0.545886
O O13 0.500000 0.384537 0.000000
O O14 0.266755 0.108194 0.242707
O O15 0.120477 0.500000 0.973434
#
# Coordination Sequence:
#
# PCOD8109530 Si02
#       6
#     8   8   8   8   8   8
#     4  10  21  39  65  91 126 170 210 265 319 371
#     4  12  23  38  63  97 133 168 208 261 323 389
#     4  12  25  42  63  92 130 180 208 263 323 383
#     4  11  24  39  61  95 132 169 209 260 324 389
#     4  11  22  41  65  95 131 165 212 269 322 377
#     4  11  24  44  68  96 125 169 226 269 315 375
#
# _framework density 20.669032000000001
#
# number of rings (size 3 to 8) (size 9 to 14) (size 15 to 20)
#    0.000    0.833    5.000    4.000    2.333    1.000 
#    0.000    0.000    0.000    5.500    0.000    0.000 
#    0.000    0.000    0.000    0.000    0.000    0.000 
#
# Total GULP energy -297462.269265 kJ/mol
# GULP energy per Si atom -12394.261219 kJ/mol
# Density = 2.062199 g / cm^3
# Si number density = 20.669032 Si / 1000 Ang^3
#
#
#
# Elastic Constant Matrix: (Units=GPa)
#
#
# Indices 1 2 3 4 5 6 
#
# 1 40.6955 46.2330 48.2509 0.0000 7.8031 0.0000
# 2 46.2330 139.7912 58.2027 0.0000 -0.8395 0.0000
# 3 48.2509 58.2027 156.9987 0.0000 14.9838 0.0000
# 4 0.0000 0.0000 0.0000 -552.4758 0.0000 -211.3214
# 5 7.8031 -0.8395 14.9838 0.0000 29.2486 0.0000
# 6 0.0000 0.0000 0.0000 -211.3214 0.0000 -62.5745
#
#
#
# Elastic Compliance Matrix: (Units=1/GPa)
#
#
# Indices 1 2 3 4 5 6 
#
# 1 0.054779 -0.013645 -0.010877 0.000000 -0.009434 0.000000
# 2 -0.013645 0.011965 -0.000654 0.000000 0.004319 0.000000
# 3 -0.010877 -0.000654 0.010177 0.000000 -0.002331 0.000000
# 4 0.000000 0.000000 0.000000 0.006204 0.000000 -0.020952
# 5 -0.009434 0.004319 -0.002331 0.000000 0.038025 0.000000
# 6 0.000000 0.000000 0.000000 -0.020952 0.000000 0.054778
#
#
# Mechanical properties :
#
#
# Convention : Reuss Voigt Hill
#
# Bulk Modulus (GPa) = 37.63732 71.42871 54.53301
# Shear Modulus (GPa) = 21.26429 -104.84042 -41.78807
#
# Velocity S-wave (km/s) = 3.21097 -7.12976 -4.50129
# Velocity P-wave (km/s) = 5.65651 5.75714 0.75781
#
# Compressibility (1/GPa) = 0.02656937
#
# Stress axis : x y z
#
# Youngs Moduli (GPa) = 18.25501 83.57924 98.25937
#
# Poissons Ratio (x) = 1.14046 1.06873
# Poissons Ratio (y) = 0.24910 0.06427
# Poissons Ratio (z) = 0.19855 0.05467
#
# Static dielectric constant tensor:
#      x y z
#    x 3.744110 0.000000 0.284650 
#    y 0.000000 3.974710 0.000000 
#    z 0.284650 0.000000 3.956790 
# 
# 
# High freq. dielectric constant tensor:
#      x y z
#    x 1.789880 0.000000 0.021750 
#    y 0.000000 1.811530 0.000000 
#    z 0.021750 0.000000 1.820570 
# 
# From -- ./inp_files/104936.got.cif
#   From: 2010.06.25/outbox.cif.g09.slc.cpg/sg12_53_cif.got.tgz:104936.got - 2010.06.28 00:19:55.
