data_PCOD8109386
_publ_section_title
;
Structure prediction by ZEFSAII (Michael W. Deem and Ramdas Pophale) SiO2 
 PCOD8109386
Probable space group: C 2/M
;
_chemical_formula_sum "Si O2"
_cell_formula_units_Z 64
_cell_length_a 16.318743
_cell_length_b 23.670523
_cell_length_c 12.730009
_cell_angle_alpha 90.000000
_cell_angle_beta 37.585344
_cell_angle_gamma 90.000000
_cell_volume 2999.246415
_symmetry_space_group_name_H-M "C 2/M"
_symmetry_group_IT_number 12
_symmetry_cell_setting 'monoclinic'
loop_
_space_group_symop_operation_xyz
x,y,z
-x,y,-z
-x,-y,-z
x,-y,z
1/2+x,1/2+y,z
1/2-x,1/2+y,-z
1/2-x,1/2-y,-z
1/2+x,1/2-y,z
loop_
_atom_site_type_symbol
_atom_site_label
_atom_site_fract_x
_atom_site_fract_y
_atom_site_fract_z
Si Si1 0.503078 0.435952 0.289306
Si Si2 0.043088 0.767111 0.765630
Si Si3 0.754027 0.379653 0.369561
Si Si4 0.233534 0.435459 0.855923
Si Si5 0.469110 0.851136 0.827410
Si Si6 0.812523 0.756189 0.594083
Si Si7 0.909127 0.874480 0.992102
Si Si8 0.378900 0.838684 0.684204
O O1 0.452665 0.500000 0.350009
O O2 0.376431 0.394522 0.429277
O O3 0.613518 0.422578 0.266174
O O4 0.569252 0.426828 0.108037
O O5 0.070624 0.759154 0.613066
O O6 0.185380 0.778903 0.677867
O O7 0.974856 0.709623 0.880476
O O8 0.940395 0.817173 0.895768
O O9 0.779186 0.426785 0.255672
O O10 0.730897 0.320020 0.333856
O O11 0.880852 0.377667 0.319744
O O12 0.194754 0.500000 0.922811
O O13 0.133710 0.393773 0.016110
O O14 0.423250 0.835255 0.758418
O O15 0.862399 0.723631 0.647393
O O16 0.756397 0.874729 0.186978
O O17 0.000000 0.882708 0.000000
O O18 0.500000 0.870583 0.500000
#
# Coordination Sequence:
#
# PCOD8109386 Si02
#       8
#     8   8   8   8   8   8   8   8
#     4  11  25  47  71  99 134 177 235 295 338 399
#     4  10  21  40  63  97 134 179 223 273 325 407
#     4  11  24  42  72 100 136 177 228 279 348 411
#     4  11  25  46  69  98 134 177 230 290 342 399
#     4  11  25  42  67 100 142 177 223 278 343 410
#     4  10  21  39  63  96 138 175 220 269 333 404
#     4  12  25  42  72  98 140 186 229 276 349 408
#     4  12  25  42  65 102 138 182 222 275 339 408
#
# _framework density 21.338692999999999
#
# number of rings (size 3 to 8) (size 9 to 14) (size 15 to 20)
#    0.000    1.000    5.000    1.125    3.500    5.250 
#    0.000    0.000    0.000    0.750    0.000    0.000 
#    0.000    0.000    0.000    0.000    0.000    0.000 
#
# Total GULP energy -396788.870935 kJ/mol
# GULP energy per Si atom -12399.652217 kJ/mol
# Density = 2.129012 g / cm^3
# Si number density = 21.338693 Si / 1000 Ang^3
#
#
#
# Elastic Constant Matrix: (Units=GPa)
#
#
# Indices 1 2 3 4 5 6 
#
# 1 135.8961 32.8511 38.2796 -0.0064 -8.5836 0.0091
# 2 32.8511 64.3879 28.5420 -0.0068 -6.6763 0.0055
# 3 38.2796 28.5420 103.8233 -0.0030 -13.8838 0.0073
# 4 -0.0064 -0.0068 -0.0030 35.5666 -0.0025 2.4733
# 5 -8.5836 -6.6763 -13.8838 -0.0025 32.9421 0.0008
# 6 0.0091 0.0055 0.0073 2.4733 0.0008 26.6567
#
#
#
# Elastic Compliance Matrix: (Units=1/GPa)
#
#
# Indices 1 2 3 4 5 6 
#
# 1 0.008866 -0.003467 -0.002226 0.000001 0.000669 -0.000002
# 2 -0.003467 0.019125 -0.003796 0.000003 0.001373 -0.000002
# 3 -0.002226 -0.003796 0.011991 0.000000 0.003705 -0.000002
# 4 0.000001 0.000003 0.000000 0.028299 0.000003 -0.002626
# 5 0.000669 0.001373 0.003705 0.000003 0.032370 -0.000003
# 6 -0.000002 -0.000002 -0.000002 -0.002626 -0.000003 0.037758
#
#
# Mechanical properties :
#
#
# Convention : Reuss Voigt Hill
#
# Bulk Modulus (GPa) = 47.60999 55.93918 51.77458
# Shear Modulus (GPa) = 30.41573 32.66206 31.53890
#
# Velocity S-wave (km/s) = 3.77952 3.91660 3.84867
# Velocity P-wave (km/s) = 6.43477 6.83555 6.63819
#
# Compressibility (1/GPa) = 0.02100400
#
# Stress axis : x y z
#
# Youngs Moduli (GPa) = 112.78922 52.28817 83.39301
#
# Poissons Ratio (x) = 0.18130 0.18565
# Poissons Ratio (y) = 0.39107 0.31653
# Poissons Ratio (z) = 0.25110 0.19847
#
# Static dielectric constant tensor:
#      x y z
#    x 3.919290 -0.000020 -0.108200 
#    y -0.000020 3.766700 0.000010 
#    z -0.108200 0.000010 4.187160 
# 
# 
# High freq. dielectric constant tensor:
#      x y z
#    x 1.844550 0.000000 -0.009730 
#    y 0.000000 1.819220 0.000000 
#    z -0.009730 0.000000 1.840780 
# 
# From -- ./inp_files/149746.got.cif
#   From: 2010.06.25/outbox.cif.g09.slc.cpg/sg12_75_cif.got.tgz:149746.got - 2010.06.28 00:19:55.
