data_PCOD8109682
_publ_section_title
;
Structure prediction by ZEFSAII (Michael W. Deem and Ramdas Pophale) SiO2 
 PCOD8109682
Probable space group: C 2/M
;
_chemical_formula_sum "Si O2"
_cell_formula_units_Z 52
_cell_length_a 16.152148
_cell_length_b 25.991243
_cell_length_c 11.860271
_cell_angle_alpha 90.000000
_cell_angle_beta 148.334336
_cell_angle_gamma 90.000000
_cell_volume 2613.843343
_symmetry_space_group_name_H-M "C 2/M"
_symmetry_group_IT_number 12
_symmetry_cell_setting 'monoclinic'
loop_
_space_group_symop_operation_xyz
x,y,z
-x,y,-z
-x,-y,-z
x,-y,z
1/2+x,1/2+y,z
1/2-x,1/2+y,-z
1/2-x,1/2-y,-z
1/2+x,1/2-y,z
loop_
_atom_site_type_symbol
_atom_site_label
_atom_site_fract_x
_atom_site_fract_y
_atom_site_fract_z
Si Si1 0.367285 0.316699 0.085923
Si Si2 0.274798 0.915822 0.017848
Si Si3 0.957076 0.390846 0.828120
Si Si4 0.032746 0.000000 0.668919
Si Si5 0.823599 0.237320 0.270281
Si Si6 0.494490 0.000000 0.363685
Si Si7 0.302991 0.000000 0.605864
Si Si8 0.778237 0.198049 0.464525
O O1 0.321922 0.299662 0.160028
O O2 0.554085 0.321306 0.297076
O O3 0.295787 0.372942 0.981554
O O4 0.297520 0.282563 0.903216
O O5 0.373223 0.889128 0.033349
O O6 0.399700 0.949033 0.228672
O O7 0.130662 0.948801 0.803911
O O8 0.882559 0.448309 0.747420
O O9 0.842046 0.347620 0.640426
O O10 0.000000 0.371355 0.000000
O O11 0.000000 0.000000 0.500000
O O12 0.880258 0.000000 0.573638
O O13 0.766192 0.208015 0.316077
O O14 0.000000 0.259027 0.500000
O O15 0.500000 0.000000 0.500000
O O16 0.661553 0.000000 0.488828
O O17 0.750000 0.250000 0.500000
#
# Coordination Sequence:
#
# PCOD8109682 Si02
#       8
#     8   8   8   4   8   4   4   8
#     4  10  21  40  60  85 120 156 219 251 308 382
#     4  10  22  37  62  91 120 164 208 256 318 378
#     4  11  22  37  63  92 130 163 206 266 327 386
#     4  11  21  37  64  96 136 159 201 263 326 394
#     4   9  21  38  61  84 116 163 205 259 309 374
#     4   9  21  43  62  90 124 167 211 259 310 376
#     4  10  21  40  65  96 128 164 214 261 325 392
#     4  11  25  38  59  89 126 166 210 261 325 368
#
# _framework density 19.894075999999998
#
# number of rings (size 3 to 8) (size 9 to 14) (size 15 to 20)
#    0.000    1.846    0.000    3.462    8.615    2.462 
#    2.769    1.538    3.385    0.000    0.000    0.000 
#    0.000    0.000    0.000    0.000    0.000    0.000 
#
# Total GULP energy -322215.185411 kJ/mol
# GULP energy per Si atom -12392.891747 kJ/mol
# Density = 1.984880 g / cm^3
# Si number density = 19.894076 Si / 1000 Ang^3
#
#
#
# Elastic Constant Matrix: (Units=GPa)
#
#
# Indices 1 2 3 4 5 6 
#
# 1 108.6208 30.7278 55.1271 0.0000 18.7445 0.0000
# 2 30.7278 115.5193 37.4391 0.0000 25.1129 0.0000
# 3 55.1271 37.4391 98.6354 0.0000 14.2627 0.0000
# 4 0.0000 0.0000 0.0000 39.0459 0.0000 19.4213
# 5 18.7445 25.1129 14.2627 0.0000 40.3207 0.0000
# 6 0.0000 0.0000 0.0000 19.4213 0.0000 32.2822
#
#
#
# Elastic Compliance Matrix: (Units=1/GPa)
#
#
# Indices 1 2 3 4 5 6 
#
# 1 0.013409 -0.000626 -0.006757 0.000000 -0.003453 0.000000
# 2 -0.000626 0.010998 -0.003031 0.000000 -0.005487 0.000000
# 3 -0.006757 -0.003031 0.015111 0.000000 -0.000316 0.000000
# 4 0.000000 0.000000 0.000000 0.036547 0.000000 -0.021987
# 5 -0.003453 -0.005487 -0.000316 0.000000 0.029936 0.000000
# 6 0.000000 0.000000 0.000000 -0.021987 0.000000 0.044204
#
#
# Mechanical properties :
#
#
# Convention : Reuss Voigt Hill
#
# Bulk Modulus (GPa) = 53.50673 63.26261 58.38467
# Shear Modulus (GPa) = 28.20648 35.62855 31.91751
#
# Velocity S-wave (km/s) = 3.76950 4.23651 4.00981
# Velocity P-wave (km/s) = 6.77493 7.46990 7.13089
#
# Compressibility (1/GPa) = 0.01868924
#
# Stress axis : x y z
#
# Youngs Moduli (GPa) = 74.57808 90.92320 66.17599
#
# Poissons Ratio (x) = 0.05692 0.44716
# Poissons Ratio (y) = 0.04669 0.20060
# Poissons Ratio (z) = 0.50394 0.27562
#
# Static dielectric constant tensor:
#      x y z
#    x 4.287580 0.000000 0.378600 
#    y 0.000000 2.844640 0.000000 
#    z 0.378600 0.000000 3.654260 
# 
# 
# High freq. dielectric constant tensor:
#      x y z
#    x 1.771810 0.000000 0.015620 
#    y 0.000000 1.785310 0.000000 
#    z 0.015620 0.000000 1.775830 
# 
# From -- ./inp_files/160871.got.cif
#   From: 2010.06.25/outbox.cif.g09.slc.cpg/sg12_81_cif.got.tgz:160871.got - 2010.06.28 00:19:55.
