data_PCOD8109349
_publ_section_title
;
Structure prediction by ZEFSAII (Michael W. Deem and Ramdas Pophale) SiO2 
 PCOD8109349
Probable space group: C 2/M
;
_chemical_formula_sum "Si O2"
_cell_formula_units_Z 48
_cell_length_a 15.817458
_cell_length_b 8.584683
_cell_length_c 29.301710
_cell_angle_alpha 90.000000
_cell_angle_beta 144.913940
_cell_angle_gamma 90.000000
_cell_volume 2287.048358
_symmetry_space_group_name_H-M "C 2/M"
_symmetry_group_IT_number 12
_symmetry_cell_setting 'monoclinic'
loop_
_space_group_symop_operation_xyz
x,y,z
-x,y,-z
-x,-y,-z
x,-y,z
1/2+x,1/2+y,z
1/2-x,1/2+y,-z
1/2-x,1/2-y,-z
1/2+x,1/2-y,z
loop_
_atom_site_type_symbol
_atom_site_label
_atom_site_fract_x
_atom_site_fract_y
_atom_site_fract_z
Si Si1 0.087169 0.179371 0.992924
Si Si2 0.869107 0.185354 0.410625
Si Si3 0.402470 0.680498 0.322238
Si Si4 0.111644 0.820058 0.845951
Si Si5 0.055226 0.683175 0.308180
Si Si6 0.073696 0.321752 0.161811
O O1 0.256431 0.219537 0.075021
O O2 0.072470 0.000000 0.971548
O O3 0.000000 0.216799 0.000000
O O4 0.019334 0.287100 0.924159
O O5 0.895005 0.246359 0.370597
O O6 0.714878 0.246350 0.363158
O O7 0.000000 0.250700 0.500000
O O8 0.866910 0.000000 0.409598
O O9 0.447369 0.500000 0.342408
O O10 0.525649 0.773784 0.347992
O O11 0.245471 0.707677 0.228497
O O12 0.071335 0.766688 0.777273
O O13 0.972647 0.789270 0.817066
O O14 0.156482 0.000000 0.865140
O O15 0.043214 0.500000 0.295444
O O16 0.047501 0.500000 0.165331
#
# Coordination Sequence:
#
# PCOD8109349 Si02
#       6
#     8   8   8   8   8   8
#     4  11  24  40  58  85 120 159 205 256 304 359
#     4   9  19  39  65  91 124 165 204 247 307 374
#     4  10  21  39  63  92 125 165 207 251 305 367
#     4  12  24  39  61  87 119 161 206 255 307 362
#     4  11  22  39  63  93 125 163 207 255 307 365
#     4  11  22  39  61  86 120 162 207 253 305 364
#
# _framework density 20.987750999999999
#
# number of rings (size 3 to 8) (size 9 to 14) (size 15 to 20)
#    0.000    1.333    1.667    4.500    0.000    6.000 
#    0.000    0.000    0.000    3.500    0.000    0.000 
#    0.000    0.000    0.000    0.000    0.000    0.000 
#
# Total GULP energy -297720.354537 kJ/mol
# GULP energy per Si atom -12405.014772 kJ/mol
# Density = 2.093998 g / cm^3
# Si number density = 20.987751 Si / 1000 Ang^3
#
#
#
# Elastic Constant Matrix: (Units=GPa)
#
#
# Indices 1 2 3 4 5 6 
#
# 1 143.7559 30.7680 50.8119 0.0000 -10.8264 0.0000
# 2 30.7680 44.8002 11.8859 -0.0001 -0.6727 0.0001
# 3 50.8119 11.8859 126.9909 0.0000 -6.5206 0.0000
# 4 0.0000 -0.0001 0.0000 21.9772 0.0000 -5.8273
# 5 -10.8264 -0.6727 -6.5206 0.0000 23.6266 0.0000
# 6 0.0000 0.0001 0.0000 -5.8273 0.0000 36.3463
#
#
#
# Elastic Compliance Matrix: (Units=1/GPa)
#
#
# Indices 1 2 3 4 5 6 
#
# 1 0.009518 -0.005662 -0.003107 0.000000 0.003343 0.000000
# 2 -0.005662 0.026258 -0.000291 0.000000 -0.001927 0.000000
# 3 -0.003107 -0.000291 0.009202 0.000000 0.001108 0.000000
# 4 0.000000 0.000000 0.000000 0.047522 0.000000 0.007619
# 5 0.003343 -0.001927 0.001108 0.000000 0.044108 0.000000
# 6 0.000000 0.000000 0.000000 0.007619 0.000000 0.028735
#
#
# Mechanical properties :
#
#
# Convention : Reuss Voigt Hill
#
# Bulk Modulus (GPa) = 37.23296 55.83095 46.53195
# Shear Modulus (GPa) = 25.98544 31.19544 28.59044
#
# Velocity S-wave (km/s) = 3.52252 3.85952 3.69486
# Velocity P-wave (km/s) = 5.85858 6.82060 6.35782
#
# Compressibility (1/GPa) = 0.02685793
#
# Stress axis : x y z
#
# Youngs Moduli (GPa) = 105.06396 38.08307 108.67468
#
# Poissons Ratio (x) = 0.21564 0.33763
# Poissons Ratio (y) = 0.59491 0.03163
# Poissons Ratio (z) = 0.32641 0.01108
#
# Static dielectric constant tensor:
#      x y z
#    x 3.927520 0.000000 -0.031280 
#    y 0.000000 3.516130 0.000000 
#    z -0.031280 0.000000 3.855070 
# 
# 
# High freq. dielectric constant tensor:
#      x y z
#    x 1.835820 0.000000 -0.003100 
#    y 0.000000 1.803420 0.000000 
#    z -0.003100 0.000000 1.820140 
# 
# From -- ./inp_files/274568.got.cif
#   From: 2010.06.25/outbox.cif.g09.slc.cpg/sg12_138_cif.got.tgz:274568.got - 2010.06.28 00:19:55.
