data_PCOD8109776
_publ_section_title
;
Structure prediction by ZEFSAII (Michael W. Deem and Ramdas Pophale) SiO2 
 PCOD8109776
Probable space group: C 2/M
;
_chemical_formula_sum "Si O2"
_cell_formula_units_Z 40
_cell_length_a 19.048827
_cell_length_b 8.838464
_cell_length_c 26.908914
_cell_angle_alpha 90.000000
_cell_angle_beta 151.547700
_cell_angle_gamma 90.000000
_cell_volume 2158.427846
_symmetry_space_group_name_H-M "C 2/M"
_symmetry_group_IT_number 12
_symmetry_cell_setting 'monoclinic'
loop_
_space_group_symop_operation_xyz
x,y,z
-x,y,-z
-x,-y,-z
x,-y,z
1/2+x,1/2+y,z
1/2-x,1/2+y,-z
1/2-x,1/2-y,-z
1/2+x,1/2-y,z
loop_
_atom_site_type_symbol
_atom_site_label
_atom_site_fract_x
_atom_site_fract_y
_atom_site_fract_z
Si Si1 0.697780 0.821507 0.272348
Si Si2 0.604523 0.675483 0.888575
Si Si3 0.906332 0.676984 0.326960
Si Si4 0.985722 0.826903 0.277770
Si Si5 0.200690 0.676871 0.566970
O O1 0.535450 0.752451 0.173124
O O2 0.772483 0.768360 0.267817
O O3 0.798691 0.766178 0.380863
O O4 0.684617 0.000000 0.265275
O O5 0.600883 0.500000 0.900314
O O6 0.602231 0.699005 0.827948
O O7 0.750000 0.750000 0.000000
O O8 0.877136 0.500000 0.314914
O O9 0.913780 0.718296 0.273692
O O10 0.058671 0.726470 0.447691
O O11 0.156282 0.780989 0.376421
O O12 0.973645 0.000000 0.288197
O O13 0.201523 0.500000 0.581058
#
# Coordination Sequence:
#
# PCOD8109776 Si02
#       5
#     8   8   8   8   8
#     4  11  22  35  54  80 109 143 183 223 264 315
#     4  10  21  40  63  83 105 135 174 221 271 323
#     4  11  21  33  52  79 113 148 180 220 267 314
#     4   9  19  35  54  79 110 141 176 219 265 317
#     4   9  19  35  53  76 110 149 184 220 264 313
#
# _framework density 18.532007
#
# number of rings (size 3 to 8) (size 9 to 14) (size 15 to 20)
#    0.000    2.000    0.000    5.400    0.000    8.000 
#    0.000    1.000    0.000    6.000    0.000    0.000 
#    0.000    0.000    0.000    0.000    0.000    0.000 
#
# Total GULP energy -248102.202317 kJ/mol
# GULP energy per Si atom -12405.110116 kJ/mol
# Density = 1.848983 g / cm^3
# Si number density = 18.532007 Si / 1000 Ang^3
#
#
#
# Elastic Constant Matrix: (Units=GPa)
#
#
# Indices 1 2 3 4 5 6 
#
# 1 122.6440 57.3776 44.7199 -0.0004 7.1908 0.0000
# 2 57.3776 111.8401 48.7591 -0.0001 3.2384 0.0000
# 3 44.7199 48.7591 101.6370 0.0015 2.6591 -0.0001
# 4 -0.0004 -0.0001 0.0015 31.1133 0.0003 -0.9245
# 5 7.1908 3.2384 2.6591 0.0003 11.6257 0.0000
# 6 0.0000 0.0000 -0.0001 -0.9245 0.0000 37.0038
#
#
#
# Elastic Compliance Matrix: (Units=1/GPa)
#
#
# Indices 1 2 3 4 5 6 
#
# 1 0.011627 -0.004605 -0.002768 0.000000 -0.005276 0.000000
# 2 -0.004605 0.013173 -0.004297 0.000000 0.000162 0.000000
# 3 -0.002768 -0.004297 0.013121 -0.000001 -0.000092 0.000000
# 4 0.000000 0.000000 -0.000001 0.032164 -0.000001 0.000804
# 5 -0.005276 0.000162 -0.000092 -0.000001 0.089255 0.000000
# 6 0.000000 0.000000 0.000000 0.000804 0.000000 0.027044
#
#
# Mechanical properties :
#
#
# Convention : Reuss Voigt Hill
#
# Bulk Modulus (GPa) = 68.59402 70.87048 69.73225
# Shear Modulus (GPa) = 23.30061 28.29953 25.80007
#
# Velocity S-wave (km/s) = 3.54971 3.91200 3.73525
# Velocity P-wave (km/s) = 7.34131 7.66357 7.50417
#
# Compressibility (1/GPa) = 0.01457853
#
# Stress axis : x y z
#
# Youngs Moduli (GPa) = 86.00662 75.91364 76.21306
#
# Poissons Ratio (x) = 0.34960 0.21100
# Poissons Ratio (y) = 0.39609 0.32752
# Poissons Ratio (z) = 0.23811 0.32623
#
# Static dielectric constant tensor:
#      x y z
#    x 3.372350 0.000000 0.054150 
#    y 0.000000 3.400920 0.000000 
#    z 0.054150 0.000000 3.332490 
# 
# 
# High freq. dielectric constant tensor:
#      x y z
#    x 1.722430 0.000000 0.004950 
#    y 0.000000 1.725460 0.000000 
#    z 0.004950 0.000000 1.706130 
# 
# From -- ./inp_files/151644.got.cif
#   From: 2010.06.25/outbox.cif.g09.slc.cpg/sg12_76_cif.got.tgz:151644.got - 2010.06.28 00:19:55.
