data_PCOD8109241
_publ_section_title
;
Structure prediction by ZEFSAII (Michael W. Deem and Ramdas Pophale) SiO2 
 PCOD8109241
Probable space group: C 2/M
;
_chemical_formula_sum "Si O2"
_cell_formula_units_Z 36
_cell_length_a 26.345405
_cell_length_b 14.900662
_cell_length_c 8.658098
_cell_angle_alpha 90.000000
_cell_angle_beta 148.051465
_cell_angle_gamma 90.000000
_cell_volume 1798.530206
_symmetry_space_group_name_H-M "C 2/M"
_symmetry_group_IT_number 12
_symmetry_cell_setting 'monoclinic'
loop_
_space_group_symop_operation_xyz
x,y,z
-x,y,-z
-x,-y,-z
x,-y,z
1/2+x,1/2+y,z
1/2-x,1/2+y,-z
1/2-x,1/2-y,-z
1/2+x,1/2-y,z
loop_
_atom_site_type_symbol
_atom_site_label
_atom_site_fract_x
_atom_site_fract_y
_atom_site_fract_z
Si Si1 0.922781 0.500000 0.930442
Si Si2 0.263301 0.687151 0.385126
Si Si3 0.007590 0.000000 0.702577
Si Si4 0.208566 0.000000 0.387110
Si Si5 0.554724 0.167179 0.793928
Si Si6 0.449957 0.679454 0.708036
O O1 0.814474 0.500000 0.580231
O O2 0.942684 0.587450 0.079580
O O3 0.000000 0.500000 0.000000
O O4 0.250000 0.750000 0.500000
O O5 0.297630 0.587910 0.522819
O O6 0.343935 0.719108 0.471296
O O7 0.164474 0.690162 0.034651
O O8 0.000000 0.000000 0.500000
O O9 0.950483 0.085122 0.621061
O O10 0.121002 0.000000 0.039868
O O11 0.500000 0.136316 0.500000
O O12 0.504456 0.252037 0.739429
O O13 0.500000 0.666409 0.000000
#
# Coordination Sequence:
#
# PCOD8109241 Si02
#       6
#     4   8   4   4   8   8
#     4  10  23  42  65  86 118 167 213 241 299 379
#     4  11  22  39  65  92 120 164 211 249 304 376
#     4  12  24  42  63  96 128 157 208 270 315 359
#     4  10  21  39  63  85 121 159 203 250 302 359
#     4  11  24  42  62  93 129 157 203 266 307 358
#     4  12  22  40  68  90 124 168 208 250 311 376
#
# _framework density 20.016345000000001
#
# number of rings (size 3 to 8) (size 9 to 14) (size 15 to 20)
#    0.000    0.889    4.444    2.667    3.111    0.889 
#    4.000    0.000    0.000    0.000    0.000    0.000 
#    0.000    0.000    0.000    0.000    0.000    0.000 
#
# Total GULP energy -223179.828547 kJ/mol
# GULP energy per Si atom -12398.879364 kJ/mol
# Density = 1.997079 g / cm^3
# Si number density = 20.016345 Si / 1000 Ang^3
#
#
#
# Elastic Constant Matrix: (Units=GPa)
#
#
# Indices 1 2 3 4 5 6 
#
# 1 120.1347 27.5543 68.3149 0.0000 26.5214 0.0000
# 2 27.5543 105.9284 18.3094 0.0000 15.4474 0.0000
# 3 68.3149 18.3094 156.7115 0.0000 16.4791 0.0000
# 4 0.0000 0.0000 0.0000 27.7411 0.0000 1.1348
# 5 26.5214 15.4474 16.4791 0.0000 36.7161 0.0000
# 6 0.0000 0.0000 0.0000 1.1348 0.0000 27.5942
#
#
#
# Elastic Compliance Matrix: (Units=1/GPa)
#
#
# Indices 1 2 3 4 5 6 
#
# 1 0.012791 -0.001570 -0.004713 0.000000 -0.006464 0.000000
# 2 -0.001570 0.010339 -0.000195 0.000000 -0.003128 0.000000
# 3 -0.004713 -0.000195 0.008493 0.000000 -0.000326 0.000000
# 4 0.000000 0.000000 0.000000 0.036108 0.000000 -0.001485
# 5 -0.006464 -0.003128 -0.000326 0.000000 0.033367 0.000000
# 6 0.000000 0.000000 0.000000 -0.001485 0.000000 0.036301
#
#
# Mechanical properties :
#
#
# Convention : Reuss Voigt Hill
#
# Bulk Modulus (GPa) = 53.56948 67.90351 60.73650
# Shear Modulus (GPa) = 31.93347 36.31667 34.12507
#
# Velocity S-wave (km/s) = 3.99854 4.26414 4.13347
# Velocity P-wave (km/s) = 6.93821 7.63161 7.29316
#
# Compressibility (1/GPa) = 0.01866735
#
# Stress axis : x y z
#
# Youngs Moduli (GPa) = 78.18001 96.72529 117.75000
#
# Poissons Ratio (x) = 0.15186 0.55494
# Poissons Ratio (y) = 0.12275 0.02291
# Poissons Ratio (z) = 0.36845 0.01882
#
# Static dielectric constant tensor:
#      x y z
#    x 2.663620 0.000000 0.161140 
#    y 0.000000 3.811720 0.000000 
#    z 0.161140 0.000000 3.940970 
# 
# 
# High freq. dielectric constant tensor:
#      x y z
#    x 1.777660 0.000000 0.023540 
#    y 0.000000 1.796970 0.000000 
#    z 0.023540 0.000000 1.785490 
# 
# From -- ./inp_files/58394.got.cif
#   From: 2010.06.25/outbox.cif.g09.slc.cpg/sg12_30_cif.got.tgz:58394.got - 2010.06.28 00:19:55.
