data_PCOD8109273
_publ_section_title
;
Structure prediction by ZEFSAII (Michael W. Deem and Ramdas Pophale) SiO2 
 PCOD8109273
Probable space group: C 2/M
;
_chemical_formula_sum "Si O2"
_cell_formula_units_Z 48
_cell_length_a 30.760138
_cell_length_b 8.776452
_cell_length_c 8.873601
_cell_angle_alpha 90.000000
_cell_angle_beta 90.226579
_cell_angle_gamma 90.000000
_cell_volume 2395.541850
_symmetry_space_group_name_H-M "C 2/M"
_symmetry_group_IT_number 12
_symmetry_cell_setting 'monoclinic'
loop_
_space_group_symop_operation_xyz
x,y,z
-x,y,-z
-x,-y,-z
x,-y,z
1/2+x,1/2+y,z
1/2-x,1/2+y,-z
1/2-x,1/2-y,-z
1/2+x,1/2-y,z
loop_
_atom_site_type_symbol
_atom_site_label
_atom_site_fract_x
_atom_site_fract_y
_atom_site_fract_z
Si Si1 0.041120 0.824130 0.601691
Si Si2 0.708825 0.178836 0.579299
Si Si3 0.628138 0.675268 0.422525
Si Si4 0.955309 0.676812 0.080826
Si Si5 0.873829 0.822885 0.926166
Si Si6 0.791601 0.679736 0.079016
O O1 0.083787 0.787788 0.506756
O O2 0.040256 0.714129 0.743964
O O3 0.000000 0.782541 0.500000
O O4 0.039615 0.000000 0.653864
O O5 0.750000 0.250000 0.500000
O O6 0.665439 0.219769 0.489961
O O7 0.705529 0.240549 0.749858
O O8 0.715130 0.000000 0.578431
O O9 0.642045 0.500000 0.442677
O O10 0.621172 0.716799 0.248732
O O11 0.943298 0.500000 0.060326
O O12 0.918116 0.780085 0.009058
O O13 0.000000 0.718956 0.000000
O O14 0.864055 0.000000 0.952917
O O15 0.834653 0.726290 0.992183
O O16 0.786815 0.500000 0.074827
O O17 0.750000 0.750000 0.000000
#
# Coordination Sequence:
#
# PCOD8109273 Si02
#       6
#     8   8   8   8   8   8
#     4  10  21  39  63  89 118 155 198 243 291 346
#     4  11  24  40  60  86 117 153 194 240 290 346
#     4  10  22  39  60  88 119 151 193 242 291 345
#     4  11  24  40  59  87 122 158 197 243 295 351
#     4  11  23  40  63  89 118 155 198 244 294 350
#     4  11  24  41  61  89 122 156 197 243 293 350
#
# _framework density 20.037222
#
# number of rings (size 3 to 8) (size 9 to 14) (size 15 to 20)
#    0.000    1.333    0.000    5.000    0.000   14.333 
#    0.000    0.000    0.000    0.000    0.000    0.000 
#    0.000    0.000    0.000    0.000    0.000    0.000 
#
# Total GULP energy -297771.698276 kJ/mol
# GULP energy per Si atom -12407.154095 kJ/mol
# Density = 1.999162 g / cm^3
# Si number density = 20.037222 Si / 1000 Ang^3
#
#
#
# Elastic Constant Matrix: (Units=GPa)
#
#
# Indices 1 2 3 4 5 6 
#
# 1 137.0163 31.8953 57.3193 0.0000 0.4005 0.0000
# 2 31.8953 52.7779 37.3932 0.0000 -2.4307 0.0000
# 3 57.3193 37.3932 140.3476 0.0000 -6.9614 0.0000
# 4 0.0000 0.0000 0.0000 33.4106 0.0000 3.3327
# 5 0.4005 -2.4307 -6.9614 0.0000 43.3659 0.0000
# 6 0.0000 0.0000 0.0000 3.3327 0.0000 36.3139
#
#
#
# Elastic Compliance Matrix: (Units=1/GPa)
#
#
# Indices 1 2 3 4 5 6 
#
# 1 0.009357 -0.003643 -0.002888 0.000000 -0.000754 0.000000
# 2 -0.003643 0.024779 -0.005084 0.000000 0.000606 0.000000
# 3 -0.002888 -0.005084 0.009724 0.000000 0.001303 0.000000
# 4 0.000000 0.000000 0.000000 0.030207 0.000000 -0.002772
# 5 -0.000754 0.000606 0.001303 0.000000 0.023310 0.000000
# 6 0.000000 0.000000 0.000000 -0.002772 0.000000 0.027792
#
#
# Mechanical properties :
#
#
# Convention : Reuss Voigt Hill
#
# Bulk Modulus (GPa) = 48.47512 64.81750 56.64631
# Shear Modulus (GPa) = 32.20083 36.18703 34.19393
#
# Velocity S-wave (km/s) = 4.01315 4.25430 4.13549
# Velocity P-wave (km/s) = 6.76158 7.52003 7.15087
#
# Compressibility (1/GPa) = 0.02062914
#
# Stress axis : x y z
#
# Youngs Moduli (GPa) = 106.87277 40.35691 102.83950
#
# Poissons Ratio (x) = 0.14702 0.29702
# Poissons Ratio (y) = 0.38935 0.52283
# Poissons Ratio (z) = 0.30867 0.20517
#
# Static dielectric constant tensor:
#      x y z
#    x 3.436960 0.000000 -0.077800 
#    y 0.000000 3.634420 0.000000 
#    z -0.077800 0.000000 3.922080 
# 
# 
# High freq. dielectric constant tensor:
#      x y z
#    x 1.800880 0.000000 -0.001630 
#    y 0.000000 1.784590 0.000000 
#    z -0.001630 0.000000 1.801280 
# 
# From -- ./inp_files/108726.got.cif
#   From: 2010.06.25/outbox.cif.g09.slc.cpg/sg12_55_cif.got.tgz:108726.got - 2010.06.28 00:19:55.
