data_PCOD8109709
_publ_section_title
;
Structure prediction by ZEFSAII (Michael W. Deem and Ramdas Pophale) SiO2 
 PCOD8109709
Probable space group: C 2/M
;
_chemical_formula_sum "Si O2"
_cell_formula_units_Z 48
_cell_length_a 19.582792
_cell_length_b 8.701509
_cell_length_c 22.158699
_cell_angle_alpha 90.000000
_cell_angle_beta 39.273538
_cell_angle_gamma 90.000000
_cell_volume 2390.194333
_symmetry_space_group_name_H-M "C 2/M"
_symmetry_group_IT_number 12
_symmetry_cell_setting 'monoclinic'
loop_
_space_group_symop_operation_xyz
x,y,z
-x,y,-z
-x,-y,-z
x,-y,z
1/2+x,1/2+y,z
1/2-x,1/2+y,-z
1/2-x,1/2-y,-z
1/2+x,1/2-y,z
loop_
_atom_site_type_symbol
_atom_site_label
_atom_site_fract_x
_atom_site_fract_y
_atom_site_fract_z
Si Si1 0.995409 0.179216 0.219508
Si Si2 0.988628 0.319234 0.917499
Si Si3 0.558296 0.679242 0.521280
Si Si4 0.340047 0.680408 0.116973
Si Si5 0.266693 0.319835 0.423485
Si Si6 0.613377 0.677915 0.261088
O O1 0.035830 0.274662 0.134506
O O2 0.877668 0.241129 0.318828
O O3 0.079511 0.211009 0.215642
O O4 0.991565 0.000000 0.205527
O O5 0.004582 0.500000 0.913084
O O6 0.097121 0.235065 0.866108
O O7 0.886552 0.267863 0.026960
O O8 0.500000 0.727967 0.500000
O O9 0.586765 0.500000 0.502893
O O10 0.669136 0.773233 0.446687
O O11 0.485173 0.725051 0.628295
O O12 0.356955 0.500000 0.097015
O O13 0.214618 0.718478 0.209794
O O14 0.274172 0.500000 0.426605
O O15 0.250000 0.250000 0.500000
O O16 0.643497 0.500000 0.250397
#
# Coordination Sequence:
#
# PCOD8109709 Si02
#       6
#     8   8   8   8   8   8
#     4  10  22  40  61  88 123 160 199 247 300 353
#     4  11  23  41  65  91 118 155 202 244 298 361
#     4  10  22  40  61  89 123 161 203 248 300 351
#     4  11  23  41  64  90 123 156 195 246 302 355
#     4  11  22  39  62  88 122 161 203 247 298 353
#     4  10  21  40  61  87 124 161 200 246 298 354
#
# _framework density 20.082049999999999
#
# number of rings (size 3 to 8) (size 9 to 14) (size 15 to 20)
#    0.000    1.500    1.667    4.500    2.333    3.667 
#    0.000    0.000    0.000    0.000    0.000    0.000 
#    0.000    0.000    0.000    0.000    0.000    0.000 
#
# Total GULP energy -297747.147433 kJ/mol
# GULP energy per Si atom -12406.131143 kJ/mol
# Density = 2.003634 g / cm^3
# Si number density = 20.082050 Si / 1000 Ang^3
#
#
#
# Elastic Constant Matrix: (Units=GPa)
#
#
# Indices 1 2 3 4 5 6 
#
# 1 75.9943 19.5858 14.1600 0.0000 2.5281 0.0001
# 2 19.5858 67.8375 15.3158 0.0000 0.4273 -0.0005
# 3 14.1600 15.3158 38.2621 -0.0001 7.9094 0.0002
# 4 0.0000 0.0000 -0.0001 29.7862 0.0001 -2.8643
# 5 2.5281 0.4273 7.9094 0.0001 42.8279 -0.0002
# 6 0.0001 -0.0005 0.0002 -2.8643 -0.0002 34.8752
#
#
#
# Elastic Compliance Matrix: (Units=1/GPa)
#
#
# Indices 1 2 3 4 5 6 
#
# 1 0.014790 -0.003339 -0.004120 0.000000 -0.000079 0.000000
# 2 -0.003339 0.017008 -0.005799 0.000000 0.001098 0.000000
# 3 -0.004120 -0.005799 0.031107 0.000000 -0.005444 0.000000
# 4 0.000000 0.000000 0.000000 0.033840 0.000000 0.002779
# 5 -0.000079 0.001098 -0.005444 0.000000 0.024348 0.000000
# 6 0.000000 0.000000 0.000000 0.002779 0.000000 0.028902
#
#
# Mechanical properties :
#
#
# Convention : Reuss Voigt Hill
#
# Bulk Modulus (GPa) = 27.48259 31.13523 29.30891
# Shear Modulus (GPa) = 26.50532 30.36668 28.43600
#
# Velocity S-wave (km/s) = 3.63692 3.89283 3.76705
# Velocity P-wave (km/s) = 5.59920 5.97856 5.79199
#
# Compressibility (1/GPa) = 0.03638667
#
# Stress axis : x y z
#
# Youngs Moduli (GPa) = 67.61371 58.79726 32.14705
#
# Poissons Ratio (x) = 0.19634 0.13246
# Poissons Ratio (y) = 0.22578 0.18643
# Poissons Ratio (z) = 0.27860 0.34098
#
# Static dielectric constant tensor:
#      x y z
#    x 3.765730 0.000000 -0.088550 
#    y 0.000000 3.589580 0.000000 
#    z -0.088550 0.000000 3.772380 
# 
# 
# High freq. dielectric constant tensor:
#      x y z
#    x 1.792750 0.000000 0.001530 
#    y 0.000000 1.780630 0.000000 
#    z 0.001530 0.000000 1.786040 
# 
# From -- ./inp_files/319546.got.cif
#   From: 2010.06.25/outbox.cif.g09.slc.cpg/sg12_160_cif.got.tgz:319546.got - 2010.06.28 00:19:55.
