data_PCOD8109310
_publ_section_title
;
Structure prediction by ZEFSAII (Michael W. Deem and Ramdas Pophale) SiO2 
 PCOD8109310
Probable space group: C 2/M
;
_chemical_formula_sum "Si O2"
_cell_formula_units_Z 48
_cell_length_a 9.199072
_cell_length_b 27.175891
_cell_length_c 9.060374
_cell_angle_alpha 90.000000
_cell_angle_beta 90.081802
_cell_angle_gamma 90.000000
_cell_volume 2265.027569
_symmetry_space_group_name_H-M "C 2/M"
_symmetry_group_IT_number 12
_symmetry_cell_setting 'monoclinic'
loop_
_space_group_symop_operation_xyz
x,y,z
-x,y,-z
-x,-y,-z
x,-y,z
1/2+x,1/2+y,z
1/2-x,1/2+y,-z
1/2-x,1/2-y,-z
1/2+x,1/2-y,z
loop_
_atom_site_type_symbol
_atom_site_label
_atom_site_fract_x
_atom_site_fract_y
_atom_site_fract_z
Si Si1 0.599106 0.376009 0.638641
Si Si2 0.423038 0.555032 0.846596
Si Si3 0.073797 0.391154 0.350343
Si Si4 0.801721 0.765261 0.336891
Si Si5 0.030112 0.296292 0.173222
Si Si6 0.403251 0.056286 0.130529
O O1 0.500000 0.387294 0.500000
O O2 0.519523 0.403390 0.770355
O O3 0.757071 0.401041 0.617639
O O4 0.614998 0.317520 0.662748
O O5 0.419283 0.500000 0.769645
O O6 0.260247 0.578235 0.860738
O O7 0.500000 0.547111 0.000000
O O8 0.053221 0.352625 0.217328
O O9 0.000000 0.372066 0.500000
O O10 0.988802 0.438681 0.287160
O O11 0.750000 0.750000 0.500000
O O12 0.671235 0.765848 0.220071
O O13 0.900758 0.722527 0.275002
O O14 0.000000 0.289982 0.000000
O O15 0.380227 0.000000 0.090514
O O16 0.500000 0.080877 0.000000
#
# Coordination Sequence:
#
# PCOD8109310 Si02
#       6
#     8   8   8   8   8   8
#     4  11  23  39  61  90 121 161 209 257 310 372
#     4  10  22  40  62  90 125 164 205 254 313 374
#     4  11  23  39  60  86 119 162 208 258 319 382
#     4  11  23  42  64  90 125 166 208 257 322 387
#     4  11  23  39  61  90 122 158 205 259 314 378
#     4  10  21  39  63  90 122 162 208 259 317 383
#
# _framework density 21.191797000000001
#
# number of rings (size 3 to 8) (size 9 to 14) (size 15 to 20)
#    0.000    1.333    0.000    6.500    0.000    6.000 
#    0.000    0.000    0.000    0.000    0.000    0.000 
#    0.000    0.000    0.000    0.000    0.000    0.000 
#
# Total GULP energy -297484.494652 kJ/mol
# GULP energy per Si atom -12395.187277 kJ/mol
# Density = 2.114356 g / cm^3
# Si number density = 21.191797 Si / 1000 Ang^3
#
#
#
# Elastic Constant Matrix: (Units=GPa)
#
#
# Indices 1 2 3 4 5 6 
#
# 1 187.2558 39.5366 67.9622 0.0000 1.3993 0.0000
# 2 39.5366 67.2141 40.5872 0.0000 -12.4316 0.0000
# 3 67.9622 40.5872 122.9612 0.0000 6.6308 0.0000
# 4 0.0000 0.0000 0.0000 32.9816 0.0000 -3.7171
# 5 1.3993 -12.4316 6.6308 0.0000 48.3395 0.0000
# 6 0.0000 0.0000 0.0000 -3.7171 0.0000 30.0437
#
#
#
# Elastic Compliance Matrix: (Units=1/GPa)
#
#
# Indices 1 2 3 4 5 6 
#
# 1 0.006938 -0.002307 -0.003053 0.000000 -0.000375 0.000000
# 2 -0.002307 0.021026 -0.006005 0.000000 0.006298 0.000000
# 3 -0.003053 -0.006005 0.011969 0.000000 -0.003098 0.000000
# 4 0.000000 0.000000 0.000000 0.030749 0.000000 0.003804
# 5 -0.000375 0.006298 -0.003098 0.000000 0.022742 0.000000
# 6 0.000000 0.000000 0.000000 0.003804 0.000000 0.033755
#
#
# Mechanical properties :
#
#
# Convention : Reuss Voigt Hill
#
# Bulk Modulus (GPa) = 58.12777 74.84479 66.48628
# Shear Modulus (GPa) = 32.12464 37.56263 34.84363
#
# Velocity S-wave (km/s) = 3.89768 4.21468 4.05928
# Velocity P-wave (km/s) = 6.90976 7.68630 7.30835
#
# Compressibility (1/GPa) = 0.01720348
#
# Stress axis : x y z
#
# Youngs Moduli (GPa) = 144.12780 47.56114 83.54763
#
# Poissons Ratio (x) = 0.10972 0.25508
# Poissons Ratio (y) = 0.33251 0.50167
# Poissons Ratio (z) = 0.44004 0.28559
#
# Static dielectric constant tensor:
#      x y z
#    x 4.243420 0.000000 0.116170 
#    y 0.000000 3.735720 0.000000 
#    z 0.116170 0.000000 3.768460 
# 
# 
# High freq. dielectric constant tensor:
#      x y z
#    x 1.854500 0.000000 0.008310 
#    y 0.000000 1.822250 0.000000 
#    z 0.008310 0.000000 1.830370 
# 
# From -- ./inp_files/42224.got.cif
#   From: 2010.06.25/outbox.cif.g09.slc.cpg/sg12_22_cif.got.tgz:42224.got - 2010.06.28 00:19:55.
