data_PCOD8109318
_publ_section_title
;
Structure prediction by ZEFSAII (Michael W. Deem and Ramdas Pophale) SiO2 
 PCOD8109318
Probable space group: C 2/M
;
_chemical_formula_sum "Si O2"
_cell_formula_units_Z 56
_cell_length_a 25.457820
_cell_length_b 12.802487
_cell_length_c 9.082359
_cell_angle_alpha 90.000000
_cell_angle_beta 62.145466
_cell_angle_gamma 90.000000
_cell_volume 2617.180177
_symmetry_space_group_name_H-M "C 2/M"
_symmetry_group_IT_number 12
_symmetry_cell_setting 'monoclinic'
loop_
_space_group_symop_operation_xyz
x,y,z
-x,y,-z
-x,-y,-z
x,-y,z
1/2+x,1/2+y,z
1/2-x,1/2+y,-z
1/2-x,1/2-y,-z
1/2+x,1/2-y,z
loop_
_atom_site_type_symbol
_atom_site_label
_atom_site_fract_x
_atom_site_fract_y
_atom_site_fract_z
Si Si1 0.551160 0.755234 0.835880
Si Si2 0.615227 0.381065 0.979505
Si Si3 0.297489 0.209023 0.051090
Si Si4 0.733802 0.616182 0.408503
Si Si5 0.471084 0.696579 0.678513
Si Si6 0.661878 0.815729 0.534638
Si Si7 0.388418 0.119422 0.710691
O O1 0.524834 0.714014 0.719212
O O2 0.606524 0.829980 0.720986
O O3 0.500000 0.815188 0.000000
O O4 0.571945 0.656720 0.906347
O O5 0.634753 0.500000 0.926753
O O6 0.673511 0.308994 0.905752
O O7 0.581020 0.372273 0.180992
O O8 0.345932 0.138780 0.905673
O O9 0.250000 0.250000 0.000000
O O10 0.266014 0.138291 0.212828
O O11 0.707205 0.500000 0.440592
O O12 0.678059 0.692710 0.505377
O O13 0.781208 0.622962 0.479306
O O14 0.500000 0.637828 0.500000
O O15 0.445628 0.807273 0.653338
O O16 0.646681 0.858652 0.394174
O O17 0.410147 0.000000 0.684576
#
# Coordination Sequence:
#
# PCOD8109318 Si02
#       7
#     8   8   8   8   8   8   8
#     4  10  21  41  66  87 130 166 208 265 315 370
#     4  10  23  41  65  90 123 172 215 255 319 388
#     4  11  22  43  62  93 132 161 208 267 318 380
#     4  11  24  42  66  94 131 173 212 259 324 385
#     4  10  21  39  63  90 128 158 206 275 317 368
#     4  11  22  43  64  96 130 166 217 268 312 376
#     4  11  23  40  65  93 126 168 209 259 327 384
#
# _framework density 21.397075000000001
#
# number of rings (size 3 to 8) (size 9 to 14) (size 15 to 20)
#    0.000    1.429    4.286    0.857    0.000    4.857 
#    0.000    0.000    0.000    3.857    0.000    0.000 
#    0.000    0.000    0.000    0.000    0.000    0.000 
#
# Total GULP energy -347214.297385 kJ/mol
# GULP energy per Si atom -12400.510621 kJ/mol
# Density = 2.134837 g / cm^3
# Si number density = 21.397075 Si / 1000 Ang^3
#
#
#
# Elastic Constant Matrix: (Units=GPa)
#
#
# Indices 1 2 3 4 5 6 
#
# 1 88.7977 23.1911 20.9806 0.0000 17.4850 0.0000
# 2 23.1911 105.9472 4.0931 0.0000 10.0586 0.0000
# 3 20.9806 4.0931 104.4746 0.0000 4.6296 0.0000
# 4 0.0000 0.0000 0.0000 17.4654 0.0000 -0.7374
# 5 17.4850 10.0586 4.6296 0.0000 45.1518 0.0000
# 6 0.0000 0.0000 0.0000 -0.7374 0.0000 10.5835
#
#
#
# Elastic Compliance Matrix: (Units=1/GPa)
#
#
# Indices 1 2 3 4 5 6 
#
# 1 0.013316 -0.002407 -0.002386 0.000000 -0.004376 0.000000
# 2 -0.002407 0.010086 0.000147 0.000000 -0.001330 0.000000
# 3 -0.002386 0.000147 0.010051 0.000000 -0.000139 0.000000
# 4 0.000000 0.000000 0.000000 0.057425 0.000000 0.004001
# 5 -0.004376 -0.001330 -0.000139 0.000000 0.024152 0.000000
# 6 0.000000 0.000000 0.000000 0.004001 0.000000 0.094766
#
#
# Mechanical properties :
#
#
# Convention : Reuss Voigt Hill
#
# Bulk Modulus (GPa) = 41.38834 43.97212 42.68023
# Shear Modulus (GPa) = 22.01274 31.37046 26.69160
#
# Velocity S-wave (km/s) = 3.21093 3.83314 3.53575
# Velocity P-wave (km/s) = 5.75602 6.33922 6.05464
#
# Compressibility (1/GPa) = 0.02416139
#
# Stress axis : x y z
#
# Youngs Moduli (GPa) = 75.10041 99.14603 99.49026
#
# Poissons Ratio (x) = 0.23865 0.23737
# Poissons Ratio (y) = 0.18077 -0.01464
# Poissons Ratio (z) = 0.17918 -0.01459
#
# Static dielectric constant tensor:
#      x y z
#    x 3.949560 0.000000 -0.007870 
#    y 0.000000 3.450830 0.000000 
#    z -0.007870 0.000000 4.387440 
# 
# 
# High freq. dielectric constant tensor:
#      x y z
#    x 1.848860 0.000000 0.003580 
#    y 0.000000 1.802140 0.000000 
#    z 0.003580 0.000000 1.862920 
# 
# From -- ./inp_files/103148.got.cif
#   From: 2010.06.25/outbox.cif.g09.slc.cpg/sg12_52_cif.got.tgz:103148.got - 2010.06.28 00:19:55.
