data_PCOD8109785
_publ_section_title
;
Structure prediction by ZEFSAII (Michael W. Deem and Ramdas Pophale) SiO2 
 PCOD8109785
Probable space group: C 2/M
;
_chemical_formula_sum "Si O2"
_cell_formula_units_Z 44
_cell_length_a 28.634875
_cell_length_b 15.660776
_cell_length_c 5.119866
_cell_angle_alpha 90.000000
_cell_angle_beta 81.727496
_cell_angle_gamma 90.000000
_cell_volume 2272.085315
_symmetry_space_group_name_H-M "C 2/M"
_symmetry_group_IT_number 12
_symmetry_cell_setting 'monoclinic'
loop_
_space_group_symop_operation_xyz
x,y,z
-x,y,-z
-x,-y,-z
x,-y,z
1/2+x,1/2+y,z
1/2-x,1/2+y,-z
1/2-x,1/2-y,-z
1/2+x,1/2-y,z
loop_
_atom_site_type_symbol
_atom_site_label
_atom_site_fract_x
_atom_site_fract_y
_atom_site_fract_z
Si Si1 0.348742 0.601091 0.407465
Si Si2 0.378825 0.302329 0.888354
Si Si3 0.032889 0.314647 0.223619
Si Si4 0.967929 0.500000 0.775872
Si Si5 0.791452 0.683971 0.005378
Si Si6 0.740480 0.902216 0.463153
O O1 0.354270 0.500000 0.375058
O O2 0.367582 0.629513 0.672901
O O3 0.294472 0.630733 0.416824
O O4 0.379216 0.647227 0.160616
O O5 0.429558 0.260987 0.802138
O O6 0.341687 0.225841 0.917427
O O7 0.059745 0.408616 0.201565
O O8 0.000000 0.304664 0.500000
O O9 0.000000 0.304730 0.000000
O O10 0.000000 0.500000 0.500000
O O11 0.000000 0.500000 0.000000
O O12 0.783445 0.609330 0.799700
O O13 0.750000 0.750000 0.000000
O O14 0.789913 0.648268 0.299218
O O15 0.739691 0.000000 0.545205
#
# Coordination Sequence:
#
# PCOD8109785 Si02
#       6
#     8   8   8   4   8   8
#     4  11  22  38  60  87 117 158 203 238 280 357
#     4  12  23  37  64  89 116 154 198 244 298 344
#     4  10  21  40  63  86 115 150 194 240 289 349
#     4   8  16  34  60  82 108 146 184 228 280 344
#     4  12  21  37  58  86 121 151 194 246 287 342
#     4  11  22  38  56  80 121 165 195 231 286 345
#
# _framework density 19.365469000000001
#
# number of rings (size 3 to 8) (size 9 to 14) (size 15 to 20)
#    0.000    1.091    3.636    3.818    0.000    2.909 
#    3.273    0.000    4.000   10.909    0.000    0.000 
#    0.000    0.000    0.000    0.000    0.000    0.000 
#
# Total GULP energy -272780.701084 kJ/mol
# GULP energy per Si atom -12399.122777 kJ/mol
# Density = 1.932139 g / cm^3
# Si number density = 19.365469 Si / 1000 Ang^3
#
#
#
# Elastic Constant Matrix: (Units=GPa)
#
#
# Indices 1 2 3 4 5 6 
#
# 1 76.7016 39.2317 22.0776 0.0000 -9.8103 0.0000
# 2 39.2317 83.8671 29.5009 0.0000 -7.9965 0.0000
# 3 22.0776 29.5009 120.0327 0.0000 -9.6483 0.0000
# 4 0.0000 0.0000 0.0000 39.8447 0.0000 1.2716
# 5 -9.8103 -7.9965 -9.6483 0.0000 18.1499 0.0000
# 6 0.0000 0.0000 0.0000 1.2716 0.0000 25.8986
#
#
#
# Elastic Compliance Matrix: (Units=1/GPa)
#
#
# Indices 1 2 3 4 5 6 
#
# 1 0.017887 -0.007462 -0.000985 0.000000 0.005857 0.000000
# 2 -0.007462 0.016483 -0.002527 0.000000 0.001885 0.000000
# 3 -0.000985 -0.002527 0.009403 0.000000 0.003353 0.000000
# 4 0.000000 0.000000 0.000000 0.025137 0.000000 -0.001234
# 5 0.005857 0.001885 0.003353 0.000000 0.060875 0.000000
# 6 0.000000 0.000000 0.000000 -0.001234 0.000000 0.038673
#
#
# Mechanical properties :
#
#
# Convention : Reuss Voigt Hill
#
# Bulk Modulus (GPa) = 45.82126 51.35799 48.58963
# Shear Modulus (GPa) = 25.29324 29.43140 27.36232
#
# Velocity S-wave (km/s) = 3.61792 3.90267 3.76299
# Velocity P-wave (km/s) = 6.41601 6.84732 6.63517
#
# Compressibility (1/GPa) = 0.02182393
#
# Stress axis : x y z
#
# Youngs Moduli (GPa) = 55.90634 60.66847 106.35108
#
# Poissons Ratio (x) = 0.45273 0.10477
# Poissons Ratio (y) = 0.41719 0.26875
# Poissons Ratio (z) = 0.05508 0.15331
#
# Static dielectric constant tensor:
#      x y z
#    x 3.369010 0.000000 0.116640 
#    y 0.000000 4.188960 0.000000 
#    z 0.116640 0.000000 3.851770 
# 
# 
# High freq. dielectric constant tensor:
#      x y z
#    x 1.714430 0.000000 0.001480 
#    y 0.000000 1.767560 0.000000 
#    z 0.001480 0.000000 1.779900 
# 
# From -- ./inp_files/27970.got.cif
#   From: 2010.06.25/outbox.cif.g09.slc.cpg/sg12_14_cif.got.tgz:27970.got - 2010.06.28 00:19:55.
