data_PCOD8109930
_publ_section_title
;
Structure prediction by ZEFSAII (Michael W. Deem and Ramdas Pophale) SiO2 
 PCOD8109930
Probable space group: C 2/M
;
_chemical_formula_sum "Si O2"
_cell_formula_units_Z 40
_cell_length_a 22.764814
_cell_length_b 16.076771
_cell_length_c 15.496355
_cell_angle_alpha 90.000000
_cell_angle_beta 19.386236
_cell_angle_gamma 90.000000
_cell_volume 1882.543099
_symmetry_space_group_name_H-M "C 2/M"
_symmetry_group_IT_number 12
_symmetry_cell_setting 'monoclinic'
loop_
_space_group_symop_operation_xyz
x,y,z
-x,y,-z
-x,-y,-z
x,-y,z
1/2+x,1/2+y,z
1/2-x,1/2+y,-z
1/2-x,1/2-y,-z
1/2+x,1/2-y,z
loop_
_atom_site_type_symbol
_atom_site_label
_atom_site_fract_x
_atom_site_fract_y
_atom_site_fract_z
Si Si1 0.324397 0.689125 0.692662
Si Si2 0.237093 0.349597 0.331013
Si Si3 0.145565 0.402302 0.090172
Si Si4 0.064066 0.905868 0.788582
Si Si5 0.508436 0.596150 0.295865
O O1 0.500000 0.719478 0.500000
O O2 0.249469 0.761759 0.736216
O O3 0.375767 0.614147 0.557638
O O4 0.173215 0.653083 0.965601
O O5 0.312059 0.345826 0.325176
O O6 0.038317 0.383117 0.608763
O O7 0.363997 0.412146 0.102947
O O8 0.163225 0.500000 0.042554
O O9 0.294529 0.373550 0.952297
O O10 0.055956 0.863046 0.704882
O O11 0.142575 0.000000 0.679065
O O12 0.513390 0.500000 0.269315
#
# Coordination Sequence:
#
# PCOD8109930 Si02
#       5
#     8   8   8   8   8
#     4  10  23  38  60  90 128 152 190 250 304 347
#     4  11  23  37  62  86 120 156 197 246 300 342
#     4  10  21  40  65  89 117 159 204 240 288 361
#     4  10  22  42  61  83 121 159 197 245 298 352
#     4   9  20  39  64  87 116 159 199 238 294 357
#
# _framework density 21.247854
#
# number of rings (size 3 to 8) (size 9 to 14) (size 15 to 20)
#    0.000    2.000    0.000    3.000    5.600    4.800 
#    3.600    3.000    0.000    3.600    0.000    0.000 
#    0.000    0.000    0.000    0.000    0.000    0.000 
#
# Total GULP energy -247910.252609 kJ/mol
# GULP energy per Si atom -12395.512630 kJ/mol
# Density = 2.119949 g / cm^3
# Si number density = 21.247854 Si / 1000 Ang^3
#
#
#
# Elastic Constant Matrix: (Units=GPa)
#
#
# Indices 1 2 3 4 5 6 
#
# 1 152.9886 40.3287 3.6652 0.0021 -1.8262 0.0007
# 2 40.3287 65.6369 10.9344 0.0228 -6.5503 0.0005
# 3 3.6652 10.9344 27.2810 0.0183 0.0104 0.0033
# 4 0.0021 0.0228 0.0183 18.7464 0.0079 5.4342
# 5 -1.8262 -6.5503 0.0104 0.0079 17.5059 -0.0023
# 6 0.0007 0.0005 0.0033 5.4342 -0.0023 37.5269
#
#
#
# Elastic Compliance Matrix: (Units=1/GPa)
#
#
# Indices 1 2 3 4 5 6 
#
# 1 0.007842 -0.005091 0.000987 0.000005 -0.001088 -0.000001
# 2 -0.005091 0.020312 -0.007460 -0.000021 0.007074 0.000004
# 3 0.000987 -0.007460 0.039514 -0.000029 -0.002712 0.000001
# 4 0.000005 -0.000021 -0.000029 0.055681 -0.000033 -0.008063
# 5 -0.001088 0.007074 -0.002712 -0.000033 0.059659 0.000009
# 6 -0.000001 0.000004 0.000001 -0.008063 0.000009 0.027815
#
#
# Mechanical properties :
#
#
# Convention : Reuss Voigt Hill
#
# Bulk Modulus (GPa) = 22.45148 39.52924 30.99036
# Shear Modulus (GPa) = 20.09670 27.48772 23.79221
#
# Velocity S-wave (km/s) = 3.07876 3.60066 3.34989
# Velocity P-wave (km/s) = 4.81952 5.99422 5.43868
#
# Compressibility (1/GPa) = 0.04454050
#
# Stress axis : x y z
#
# Youngs Moduli (GPa) = 127.52049 49.23156 25.30756
#
# Poissons Ratio (x) = 0.25065 -0.02499
# Poissons Ratio (y) = 0.64924 0.18879
# Poissons Ratio (z) = -0.12592 0.36726
#
# Static dielectric constant tensor:
#      x y z
#    x 4.198370 0.000000 0.012410 
#    y 0.000000 3.601690 0.000000 
#    z 0.012410 0.000000 3.731520 
# 
# 
# High freq. dielectric constant tensor:
#      x y z
#    x 1.847780 0.000000 0.006280 
#    y 0.000000 1.818890 0.000000 
#    z 0.006280 0.000000 1.821170 
# 
# From -- ./inp_files/88215.got.cif
#   From: 2010.06.25/outbox.cif.g09.slc.cpg/sg12_45_cif.got.tgz:88215.got - 2010.06.28 00:19:55.
