data_PCOD8109410
_publ_section_title
;
Structure prediction by ZEFSAII (Michael W. Deem and Ramdas Pophale) SiO2 
 PCOD8109410
Probable space group: C 2/M
;
_chemical_formula_sum "Si O2"
_cell_formula_units_Z 64
_cell_length_a 33.118780
_cell_length_b 8.742734
_cell_length_c 16.591774
_cell_angle_alpha 90.000000
_cell_angle_beta 42.281054
_cell_angle_gamma 90.000000
_cell_volume 3232.061993
_symmetry_space_group_name_H-M "C 2/M"
_symmetry_group_IT_number 12
_symmetry_cell_setting 'monoclinic'
loop_
_space_group_symop_operation_xyz
x,y,z
-x,y,-z
-x,-y,-z
x,-y,z
1/2+x,1/2+y,z
1/2-x,1/2+y,-z
1/2-x,1/2-y,-z
1/2+x,1/2-y,z
loop_
_atom_site_type_symbol
_atom_site_label
_atom_site_fract_x
_atom_site_fract_y
_atom_site_fract_z
Si Si1 0.218852 0.682104 0.468417
Si Si2 0.415968 0.181110 0.337403
Si Si3 0.089738 0.824286 0.226499
Si Si4 0.246690 0.318466 0.750909
Si Si5 0.638272 0.675871 0.319624
Si Si6 0.534571 0.180507 0.568977
Si Si7 0.984360 0.680102 0.932267
Si Si8 0.125815 0.818775 0.996207
O O1 0.222952 0.500000 0.462885
O O2 0.250000 0.750000 0.500000
O O3 0.150959 0.744206 0.574010
O O4 0.249859 0.743664 0.342027
O O5 0.442682 0.249188 0.379959
O O6 0.457950 0.236497 0.202838
O O7 0.414127 0.000000 0.343818
O O8 0.142375 0.803997 0.216084
O O9 0.110500 0.759750 0.109204
O O10 0.032449 0.737173 0.346477
O O11 0.071661 0.000000 0.242738
O O12 0.246033 0.500000 0.742796
O O13 0.301952 0.260757 0.725203
O O14 0.186426 0.264465 0.882214
O O15 0.629393 0.500000 0.356371
O O16 0.579412 0.765960 0.433757
O O17 0.533796 0.000000 0.570633
O O18 0.971860 0.500000 0.940098
O O19 0.926154 0.771156 0.988955
O O20 0.000000 0.723973 0.000000
O O21 0.135196 0.000000 0.979497
#
# Coordination Sequence:
#
# PCOD8109410 Si02
#       8
#     8   8   8   8   8   8   8   8
#     4  11  23  41  63  92 126 161 200 247 298 354
#     4   9  19  36  59  88 123 156 192 241 295 345
#     4  10  22  40  60  86 121 159 196 244 303 361
#     4  11  24  42  63  86 116 159 206 251 300 358
#     4  10  22  40  61  86 119 158 201 245 298 359
#     4  11  20  35  60  91 123 155 195 244 298 355
#     4  10  21  39  64  90 119 159 199 241 294 355
#     4  11  24  41  61  87 120 157 198 250 305 359
#
# _framework density 19.801601000000002
#
# number of rings (size 3 to 8) (size 9 to 14) (size 15 to 20)
#    0.000    1.625    2.500    1.875    1.750    3.750 
#    0.000    1.250    0.000    0.000    0.000    0.000 
#    0.000    0.000    0.000    0.000    0.000    0.000 
#
# Total GULP energy -396843.134001 kJ/mol
# GULP energy per Si atom -12401.347938 kJ/mol
# Density = 1.975653 g / cm^3
# Si number density = 19.801601 Si / 1000 Ang^3
#
#
#
# Elastic Constant Matrix: (Units=GPa)
#
#
# Indices 1 2 3 4 5 6 
#
# 1 130.2165 31.2922 65.5362 0.0004 19.0521 -0.0002
# 2 31.2922 58.6532 31.7882 0.0010 2.4083 0.0001
# 3 65.5362 31.7882 131.0224 -0.0002 -0.7082 0.0000
# 4 0.0004 0.0010 -0.0002 22.0396 0.0000 1.2287
# 5 19.0521 2.4083 -0.7082 0.0000 35.9133 -0.0001
# 6 -0.0002 0.0001 0.0000 1.2287 -0.0001 27.0297
#
#
#
# Elastic Compliance Matrix: (Units=1/GPa)
#
#
# Indices 1 2 3 4 5 6 
#
# 1 0.012035 -0.003319 -0.005249 0.000000 -0.006266 0.000000
# 2 -0.003319 0.020618 -0.003340 -0.000001 0.000312 0.000000
# 3 -0.005249 -0.003340 0.011085 0.000000 0.003227 0.000000
# 4 0.000000 -0.000001 0.000000 0.045488 0.000000 -0.002068
# 5 -0.006266 0.000312 0.003227 0.000000 0.031212 0.000000
# 6 0.000000 0.000000 0.000000 -0.002068 0.000000 0.037090
#
#
# Mechanical properties :
#
#
# Convention : Reuss Voigt Hill
#
# Bulk Modulus (GPa) = 50.19467 64.12503 57.15985
# Shear Modulus (GPa) = 26.59777 29.74821 28.17299
#
# Velocity S-wave (km/s) = 3.66896 3.88017 3.77605
# Velocity P-wave (km/s) = 6.58424 7.24765 6.92389
#
# Compressibility (1/GPa) = 0.01992244
#
# Stress axis : x y z
#
# Youngs Moduli (GPa) = 83.08780 48.50205 90.20847
#
# Poissons Ratio (x) = 0.16099 0.47347
# Poissons Ratio (y) = 0.27579 0.30132
# Poissons Ratio (z) = 0.43609 0.16201
#
# Static dielectric constant tensor:
#      x y z
#    x 3.697350 0.000000 0.129110 
#    y 0.000000 3.449880 0.000000 
#    z 0.129110 0.000000 3.656090 
# 
# 
# High freq. dielectric constant tensor:
#      x y z
#    x 1.787740 0.000000 0.007380 
#    y 0.000000 1.760690 0.000000 
#    z 0.007380 0.000000 1.776900 
# 
# From -- ./inp_files/249707.got.cif
#   From: 2010.06.25/outbox.cif.g09.slc.cpg/sg12_125_cif.got.tgz:249707.got - 2010.06.28 00:19:55.
