data_PCOD8109155
_publ_section_title
;
Structure prediction by ZEFSAII (Michael W. Deem and Ramdas Pophale) SiO2 
 PCOD8109155
Probable space group: C 2/M
;
_chemical_formula_sum "Si O2"
_cell_formula_units_Z 56
_cell_length_a 25.894761
_cell_length_b 20.258557
_cell_length_c 5.066116
_cell_angle_alpha 90.000000
_cell_angle_beta 103.070174
_cell_angle_gamma 90.000000
_cell_volume 2588.787083
_symmetry_space_group_name_H-M "C 2/M"
_symmetry_group_IT_number 12
_symmetry_cell_setting 'monoclinic'
loop_
_space_group_symop_operation_xyz
x,y,z
-x,y,-z
-x,-y,-z
x,-y,z
1/2+x,1/2+y,z
1/2-x,1/2+y,-z
1/2-x,1/2-y,-z
1/2+x,1/2-y,z
loop_
_atom_site_type_symbol
_atom_site_label
_atom_site_fract_x
_atom_site_fract_y
_atom_site_fract_z
Si Si1 0.881575 0.309300 0.921577
Si Si2 0.687770 0.071793 0.172418
Si Si3 0.744283 0.574072 0.250235
Si Si4 0.802520 0.205047 0.999146
Si Si5 0.438356 0.577432 0.942704
Si Si6 0.057938 0.717216 0.514374
Si Si7 0.603377 0.352329 0.605361
O O1 0.856074 0.376613 0.792994
O O2 0.838975 0.250260 0.854764
O O3 0.928711 0.293277 0.776230
O O4 0.902190 0.320550 0.242423
O O5 0.737316 0.077930 0.426841
O O6 0.661364 0.000000 0.167708
O O7 0.707357 0.084313 0.897704
O O8 0.718929 0.500000 0.171049
O O9 0.706690 0.636745 0.167269
O O10 0.750000 0.250000 0.000000
O O11 0.837636 0.181172 0.293535
O O12 0.434588 0.500000 0.887508
O O13 0.401896 0.613532 0.683845
O O14 0.500000 0.600168 0.000000
O O15 0.411741 0.594011 0.191389
O O16 0.060058 0.794598 0.585014
O O17 0.000000 0.688960 0.500000
#
# Coordination Sequence:
#
# PCOD8109155 Si02
#       7
#     8   8   8   8   8   8   8
#     4  11  23  39  65  95 123 167 214 258 328 382
#     4  10  21  39  62  88 122 165 210 253 307 386
#     4  10  22  39  60  87 126 174 211 253 313 368
#     4  11  24  42  63  96 134 174 216 276 314 384
#     4  11  23  42  67  92 125 169 217 270 331 398
#     4  11  23  41  64  92 125 159 207 271 326 388
#     4  11  24  40  61  93 124 170 211 263 329 382
#
# _framework density 21.631751999999999
#
# number of rings (size 3 to 8) (size 9 to 14) (size 15 to 20)
#    0.000    1.286    1.429    4.714    2.000    6.286 
#    0.000    1.429    0.000    2.571    0.000    0.000 
#    0.000    0.000    0.000    0.000    0.000    0.000 
#
# Total GULP energy -347069.603643 kJ/mol
# GULP energy per Si atom -12395.342987 kJ/mol
# Density = 2.158252 g / cm^3
# Si number density = 21.631752 Si / 1000 Ang^3
#
#
#
# Elastic Constant Matrix: (Units=GPa)
#
#
# Indices 1 2 3 4 5 6 
#
# 1 88.2381 38.9087 14.9757 0.0000 1.6575 0.0000
# 2 38.9087 132.5124 28.1254 0.0000 17.8914 0.0000
# 3 14.9757 28.1254 89.4464 0.0000 1.2417 0.0000
# 4 0.0000 0.0000 0.0000 31.9795 0.0000 5.6225
# 5 1.6575 17.8914 1.2417 0.0000 29.8235 0.0000
# 6 0.0000 0.0000 0.0000 5.6225 0.0000 22.6058
#
#
#
# Elastic Compliance Matrix: (Units=1/GPa)
#
#
# Indices 1 2 3 4 5 6 
#
# 1 0.013183 -0.003877 -0.001011 0.000000 0.001635 0.000000
# 2 -0.003877 0.009959 -0.002404 0.000000 -0.005659 0.000000
# 3 -0.001011 -0.002404 0.012091 0.000000 0.000995 0.000000
# 4 0.000000 0.000000 0.000000 0.032700 0.000000 -0.008133
# 5 0.001635 -0.005659 0.000995 0.000000 0.036793 0.000000
# 6 0.000000 0.000000 0.000000 -0.008133 0.000000 0.046259
#
#
# Mechanical properties :
#
#
# Convention : Reuss Voigt Hill
#
# Bulk Modulus (GPa) = 48.42603 52.69072 50.55837
# Shear Modulus (GPa) = 28.99334 32.09423 30.54378
#
# Velocity S-wave (km/s) = 3.66500 3.85601 3.76172
# Velocity P-wave (km/s) = 6.35176 6.65102 6.50311
#
# Compressibility (1/GPa) = 0.02065005
#
# Stress axis : x y z
#
# Youngs Moduli (GPa) = 75.85251 100.40982 82.70505
#
# Poissons Ratio (x) = 0.38931 0.08360
# Poissons Ratio (y) = 0.29410 0.19881
# Poissons Ratio (z) = 0.07667 0.24137
#
# Static dielectric constant tensor:
#      x y z
#    x 3.699560 0.000000 0.116650 
#    y 0.000000 4.091240 0.000000 
#    z 0.116650 0.000000 3.919400 
# 
# 
# High freq. dielectric constant tensor:
#      x y z
#    x 1.829660 0.000000 -0.001320 
#    y 0.000000 1.854570 0.000000 
#    z -0.001320 0.000000 1.858450 
# 
# From -- ./inp_files/25434.got.cif
#   From: 2010.06.25/outbox.cif.g09.slc.cpg/sg12_13_cif.got.tgz:25434.got - 2010.06.28 00:19:55.
