data_PCOD8109708
_publ_section_title
;
Structure prediction by ZEFSAII (Michael W. Deem and Ramdas Pophale) SiO2 
 PCOD8109708
Probable space group: C 2/M
;
_chemical_formula_sum "Si O2"
_cell_formula_units_Z 36
_cell_length_a 10.863098
_cell_length_b 17.401943
_cell_length_c 13.811248
_cell_angle_alpha 90.000000
_cell_angle_beta 43.857607
_cell_angle_gamma 90.000000
_cell_volume 1808.985906
_symmetry_space_group_name_H-M "C 2/M"
_symmetry_group_IT_number 12
_symmetry_cell_setting 'monoclinic'
loop_
_space_group_symop_operation_xyz
x,y,z
-x,y,-z
-x,-y,-z
x,-y,z
1/2+x,1/2+y,z
1/2-x,1/2+y,-z
1/2-x,1/2-y,-z
1/2+x,1/2-y,z
loop_
_atom_site_type_symbol
_atom_site_label
_atom_site_fract_x
_atom_site_fract_y
_atom_site_fract_z
Si Si1 0.500000 0.292700 0.500000
Si Si2 0.413608 0.845370 0.678630
Si Si3 0.278764 0.413482 0.528212
Si Si4 0.602814 0.586830 0.745401
Si Si5 0.647568 0.307518 0.989788
O O1 0.533831 0.240941 0.385321
O O2 0.332032 0.349113 0.576858
O O3 0.580802 0.898392 0.604519
O O4 0.298768 0.880693 0.656936
O O5 0.297872 0.847895 0.841275
O O6 0.288719 0.500000 0.566413
O O7 0.415681 0.407149 0.360159
O O8 0.589253 0.500000 0.789923
O O9 0.446462 0.631797 0.887076
O O10 0.500000 0.270135 0.000000
O O11 0.750000 0.250000 0.000000
#
# Coordination Sequence:
#
# PCOD8109708 Si02
#       5
#     4   8   8   8   8
#     4  12  23  36  61  90 122 158 196 246 305 358
#     4  11  22  36  64  87 116 152 204 248 291 353
#     4  11  23  39  60  87 123 158 199 246 301 359
#     4  10  21  40  61  87 119 155 196 250 303 350
#     4  10  23  38  60  88 119 156 199 248 299 358
#
# _framework density 19.900653999999999
#
# number of rings (size 3 to 8) (size 9 to 14) (size 15 to 20)
#    0.000    1.333    2.222    3.000    6.222    6.667 
#    0.000    0.000    0.000    0.667    0.000    0.000 
#    0.000    0.000    0.000    0.000    0.000    0.000 
#
# Total GULP energy -223155.718280 kJ/mol
# GULP energy per Si atom -12397.539904 kJ/mol
# Density = 1.985536 g / cm^3
# Si number density = 19.900654 Si / 1000 Ang^3
#
#
#
# Elastic Constant Matrix: (Units=GPa)
#
#
# Indices 1 2 3 4 5 6 
#
# 1 60.6917 44.9330 18.7039 0.0000 -4.1912 -0.0010
# 2 44.9330 130.4271 19.0132 -0.0002 -17.7661 -0.0004
# 3 18.7039 19.0132 82.0608 -0.0014 -14.6251 0.0002
# 4 0.0000 -0.0002 -0.0014 17.7028 0.0005 -2.9169
# 5 -4.1912 -17.7661 -14.6251 0.0005 18.7733 0.0004
# 6 -0.0010 -0.0004 0.0002 -2.9169 0.0004 34.9676
#
#
#
# Elastic Compliance Matrix: (Units=1/GPa)
#
#
# Indices 1 2 3 4 5 6 
#
# 1 0.023602 -0.008303 -0.004549 0.000000 -0.006132 0.000001
# 2 -0.008303 0.011752 0.000954 0.000000 0.010011 0.000000
# 3 -0.004549 0.000954 0.015075 0.000001 0.011631 0.000000
# 4 0.000000 0.000000 0.000001 0.057275 -0.000001 0.004778
# 5 -0.006132 0.010011 0.011631 -0.000001 0.070433 -0.000001
# 6 0.000001 0.000000 0.000000 0.004778 -0.000001 0.028996
#
#
# Mechanical properties :
#
#
# Convention : Reuss Voigt Hill
#
# Bulk Modulus (GPa) = 37.54746 48.71997 43.13372
# Shear Modulus (GPa) = 20.84997 26.99073 23.92035
#
# Velocity S-wave (km/s) = 3.24034 3.68676 3.47073
# Velocity P-wave (km/s) = 5.73656 6.53128 6.14678
#
# Compressibility (1/GPa) = 0.02663296
#
# Stress axis : x y z
#
# Youngs Moduli (GPa) = 42.36847 85.08967 66.33607
#
# Poissons Ratio (x) = 0.70653 0.30174
# Poissons Ratio (y) = 0.35180 -0.06327
# Poissons Ratio (z) = 0.19272 -0.08116
#
# Static dielectric constant tensor:
#      x y z
#    x 3.840110 0.000000 0.231010 
#    y 0.000000 3.638210 0.000000 
#    z 0.231010 0.000000 3.963920 
# 
# 
# High freq. dielectric constant tensor:
#      x y z
#    x 1.774210 0.000000 0.000110 
#    y 0.000000 1.774950 0.000000 
#    z 0.000110 0.000000 1.780090 
# 
# From -- ./inp_files/46554.got.cif
#   From: 2010.06.25/outbox.cif.g09.slc.cpg/sg12_24_cif.got.tgz:46554.got - 2010.06.28 00:19:55.
