data_PCOD8109522
_publ_section_title
;
Structure prediction by ZEFSAII (Michael W. Deem and Ramdas Pophale) SiO2 
 PCOD8109522
Probable space group: C 2/M
;
_chemical_formula_sum "Si O2"
_cell_formula_units_Z 48
_cell_length_a 17.513132
_cell_length_b 12.938023
_cell_length_c 10.993690
_cell_angle_alpha 90.000000
_cell_angle_beta 108.260211
_cell_angle_gamma 90.000000
_cell_volume 2365.569626
_symmetry_space_group_name_H-M "C 2/M"
_symmetry_group_IT_number 12
_symmetry_cell_setting 'monoclinic'
loop_
_space_group_symop_operation_xyz
x,y,z
-x,y,-z
-x,-y,-z
x,-y,z
1/2+x,1/2+y,z
1/2-x,1/2+y,-z
1/2-x,1/2-y,-z
1/2+x,1/2-y,z
loop_
_atom_site_type_symbol
_atom_site_label
_atom_site_fract_x
_atom_site_fract_y
_atom_site_fract_z
Si Si1 0.468137 0.384548 0.119290
Si Si2 0.555383 0.244667 0.343338
Si Si3 0.310319 0.734491 0.420024
Si Si4 0.326262 0.878336 0.764504
Si Si5 0.396058 0.881115 0.293400
Si Si6 0.660429 0.785067 0.969891
O O1 0.448221 0.500000 0.154869
O O2 0.535245 0.335995 0.240349
O O3 0.388147 0.318129 0.084253
O O4 0.500000 0.386511 0.000000
O O5 0.603347 0.298738 0.479857
O O6 0.614002 0.160911 0.310219
O O7 0.477452 0.184358 0.352959
O O8 0.250000 0.750000 0.500000
O O9 0.267340 0.651136 0.310016
O O10 0.326907 0.838071 0.349417
O O11 0.333173 0.000000 0.777789
O O12 0.356854 0.828795 0.905410
O O13 0.364541 0.872749 0.139344
O O14 0.412478 0.000000 0.333558
O O15 0.750000 0.750000 0.000000
#
# Coordination Sequence:
#
# PCOD8109522 Si02
#       6
#     8   8   8   8   8   8
#     4  10  21  39  65  90 121 164 205 251 310 364
#     4  10  22  41  64  93 130 159 209 262 304 367
#     4  10  23  41  59  88 127 163 204 255 302 366
#     4  11  22  40  63  91 126 168 206 253 317 368
#     4  11  23  40  67  95 121 164 209 256 314 369
#     4  11  22  41  61  92 131 159 205 264 306 370
#
# _framework density 20.291096
#
# number of rings (size 3 to 8) (size 9 to 14) (size 15 to 20)
#    0.000    1.500    3.333    1.500    0.000    6.000 
#    0.000    5.000    0.000    3.000    0.000    0.000 
#    0.000    0.000    0.000    0.000    0.000    0.000 
#
# Total GULP energy -297530.348190 kJ/mol
# GULP energy per Si atom -12397.097841 kJ/mol
# Density = 2.024491 g / cm^3
# Si number density = 20.291096 Si / 1000 Ang^3
#
#
#
# Elastic Constant Matrix: (Units=GPa)
#
#
# Indices 1 2 3 4 5 6 
#
# 1 88.6427 32.6216 28.4212 0.0000 7.5176 0.0000
# 2 32.6216 137.9524 40.5581 0.0000 9.2349 0.0000
# 3 28.4212 40.5581 115.8292 0.0000 18.3471 0.0000
# 4 0.0000 0.0000 0.0000 15.1909 0.0000 3.1413
# 5 7.5176 9.2349 18.3471 0.0000 40.7859 0.0000
# 6 0.0000 0.0000 0.0000 3.1413 0.0000 15.5040
#
#
#
# Elastic Compliance Matrix: (Units=1/GPa)
#
#
# Indices 1 2 3 4 5 6 
#
# 1 0.012928 -0.002349 -0.002214 0.000000 -0.000855 0.000000
# 2 -0.002349 0.008521 -0.002337 0.000000 -0.000445 0.000000
# 3 -0.002214 -0.002337 0.010602 0.000000 -0.003832 0.000000
# 4 0.000000 0.000000 0.000000 0.068708 0.000000 -0.013921
# 5 -0.000855 -0.000445 -0.003832 0.000000 0.026500 0.000000
# 6 0.000000 0.000000 0.000000 -0.013921 0.000000 0.067320
#
#
# Mechanical properties :
#
#
# Convention : Reuss Voigt Hill
#
# Bulk Modulus (GPa) = 54.79095 60.62512 57.70804
# Shear Modulus (GPa) = 23.31406 30.35106 26.83256
#
# Velocity S-wave (km/s) = 3.39334 3.87173 3.64040
# Velocity P-wave (km/s) = 6.51261 7.06609 6.79499
#
# Compressibility (1/GPa) = 0.01825119
#
# Stress axis : x y z
#
# Youngs Moduli (GPa) = 77.35073 117.35493 94.32224
#
# Poissons Ratio (x) = 0.27565 0.20886
# Poissons Ratio (y) = 0.18169 0.22042
# Poissons Ratio (z) = 0.17128 0.27424
#
# Static dielectric constant tensor:
#      x y z
#    x 3.809980 0.000000 0.231530 
#    y 0.000000 3.592620 0.000000 
#    z 0.231530 0.000000 4.334500 
# 
# 
# High freq. dielectric constant tensor:
#      x y z
#    x 1.797530 0.000000 0.003800 
#    y 0.000000 1.771890 0.000000 
#    z 0.003800 0.000000 1.818020 
# 
# From -- ./inp_files/154284.got.cif
#   From: 2010.06.25/outbox.cif.g09.slc.cpg/sg12_78_cif.got.tgz:154284.got - 2010.06.28 00:19:55.
