data_PCOD8109901
_publ_section_title
;
Structure prediction by ZEFSAII (Michael W. Deem and Ramdas Pophale) SiO2 
 PCOD8109901
Probable space group: C 2/M
;
_chemical_formula_sum "Si O2"
_cell_formula_units_Z 40
_cell_length_a 13.998655
_cell_length_b 8.576543
_cell_length_c 15.995503
_cell_angle_alpha 90.000000
_cell_angle_beta 113.973117
_cell_angle_gamma 90.000000
_cell_volume 1754.758322
_symmetry_space_group_name_H-M "C 2/M"
_symmetry_group_IT_number 12
_symmetry_cell_setting 'monoclinic'
loop_
_space_group_symop_operation_xyz
x,y,z
-x,y,-z
-x,-y,-z
x,-y,z
1/2+x,1/2+y,z
1/2-x,1/2+y,-z
1/2-x,1/2-y,-z
1/2+x,1/2-y,z
loop_
_atom_site_type_symbol
_atom_site_label
_atom_site_fract_x
_atom_site_fract_y
_atom_site_fract_z
Si Si1 0.789115 0.174302 0.386447
Si Si2 0.743418 0.317869 0.905841
Si Si3 0.846897 0.819257 0.791303
Si Si4 0.090370 0.674698 0.435601
Si Si5 0.536446 0.183052 0.762996
O O1 0.761157 0.285328 0.297979
O O2 0.894209 0.228487 0.472980
O O3 0.694205 0.182355 0.417300
O O4 0.806373 0.000000 0.358664
O O5 0.769079 0.500000 0.916089
O O6 0.829429 0.227362 0.881315
O O7 0.629619 0.290459 0.826831
O O8 0.750000 0.250000 0.000000
O O9 0.938497 0.711145 0.788927
O O10 0.876912 0.000000 0.794374
O O11 0.067604 0.500000 0.456127
O O12 0.994687 0.735113 0.343073
O O13 0.565846 0.000000 0.777254
#
# Coordination Sequence:
#
# PCOD8109901 Si02
#       5
#     8   8   8   8   8
#     4   9  16  28  50  82 119 158 199 242 289 344
#     4  12  26  45  66  90 119 153 197 250 306 361
#     4  11  22  39  63  91 123 161 202 245 297 355
#     4   8  15  28  50  81 118 157 195 237 289 348
#     4  10  21  40  64  92 124 159 200 247 299 355
#
# _framework density 22.795159999999999
#
# number of rings (size 3 to 8) (size 9 to 14) (size 15 to 20)
#    0.000    2.000    0.000    6.000    0.000    6.400 
#    0.000    5.000    0.000    6.000    0.000    0.000 
#    0.000    0.000    0.000    0.000    0.000    0.000 
#
# Total GULP energy -248009.703279 kJ/mol
# GULP energy per Si atom -12400.485164 kJ/mol
# Density = 2.274328 g / cm^3
# Si number density = 22.795160 Si / 1000 Ang^3
#
#
#
# Elastic Constant Matrix: (Units=GPa)
#
#
# Indices 1 2 3 4 5 6 
#
# 1 14.0999 -13.6544 11.9428 0.0000 3.1450 0.0000
# 2 -13.6544 108.2188 27.3951 0.0000 -0.1055 0.0000
# 3 11.9428 27.3951 95.0384 0.0000 -12.5522 0.0000
# 4 0.0000 0.0000 0.0000 40.9505 0.0000 3.4785
# 5 3.1450 -0.1055 -12.5522 0.0000 37.3139 0.0000
# 6 0.0000 0.0000 0.0000 3.4785 0.0000 25.8128
#
#
#
# Elastic Compliance Matrix: (Units=1/GPa)
#
#
# Indices 1 2 3 4 5 6 
#
# 1 0.112502 0.019762 -0.022059 0.000000 -0.016847 0.000000
# 2 0.019762 0.013474 -0.006888 0.000000 -0.003945 0.000000
# 3 -0.022059 -0.006888 0.016244 0.000000 0.007304 0.000000
# 4 0.000000 0.000000 0.000000 0.024702 0.000000 -0.003329
# 5 -0.016847 -0.003945 0.007304 0.000000 0.030666 0.000000
# 6 0.000000 0.000000 0.000000 -0.003329 0.000000 0.039189
#
#
# Mechanical properties :
#
#
# Convention : Reuss Voigt Hill
#
# Bulk Modulus (GPa) = 8.07424 29.85824 18.96624
# Shear Modulus (GPa) = 16.86736 33.59368 25.23052
#
# Velocity S-wave (km/s) = 2.72316 3.84307 3.33052
# Velocity P-wave (km/s) = 3.66568 5.72880 4.80918
#
# Compressibility (1/GPa) = 0.12385074
#
# Stress axis : x y z
#
# Youngs Moduli (GPa) = 8.88873 74.21739 61.55996
#
# Poissons Ratio (x) = -1.46672 1.35795
# Poissons Ratio (y) = -0.17566 0.42404
# Poissons Ratio (z) = 0.19608 0.51123
#
# Static dielectric constant tensor:
#      x y z
#    x 3.998590 0.000000 0.020570 
#    y 0.000000 3.991580 0.000000 
#    z 0.020570 0.000000 4.375110 
# 
# 
# High freq. dielectric constant tensor:
#      x y z
#    x 1.894520 0.000000 -0.005630 
#    y 0.000000 1.895150 0.000000 
#    z -0.005630 0.000000 1.905450 
# 
# From -- ./inp_files/211437.got.cif
#   From: 2010.06.25/outbox.cif.g09.slc.cpg/sg12_106_cif.got.tgz:211437.got - 2010.06.28 00:19:55.
