data_PCOD8109749
_publ_section_title
;
Structure prediction by ZEFSAII (Michael W. Deem and Ramdas Pophale) SiO2 
 PCOD8109749
Probable space group: C 2/M
;
_chemical_formula_sum "Si O2"
_cell_formula_units_Z 64
_cell_length_a 30.207119
_cell_length_b 9.121159
_cell_length_c 19.567394
_cell_angle_alpha 90.000000
_cell_angle_beta 36.088858
_cell_angle_gamma 90.000000
_cell_volume 3175.678551
_symmetry_space_group_name_H-M "C 2/M"
_symmetry_group_IT_number 12
_symmetry_cell_setting 'monoclinic'
loop_
_space_group_symop_operation_xyz
x,y,z
-x,y,-z
-x,-y,-z
x,-y,z
1/2+x,1/2+y,z
1/2-x,1/2+y,-z
1/2-x,1/2-y,-z
1/2+x,1/2-y,z
loop_
_atom_site_type_symbol
_atom_site_label
_atom_site_fract_x
_atom_site_fract_y
_atom_site_fract_z
Si Si1 0.085627 0.326469 0.911256
Si Si2 0.558942 0.666680 0.585789
Si Si3 0.819304 0.828486 0.322763
Si Si4 0.583750 0.166170 0.422098
Si Si5 0.895108 0.163416 0.833716
Si Si6 0.690578 0.329372 0.189272
Si Si7 0.138746 0.670784 0.993453
Si Si8 0.847028 0.670465 0.426312
O O1 0.097814 0.500000 0.888525
O O2 0.144381 0.246532 0.788544
O O3 0.105104 0.271157 0.963679
O O4 0.000000 0.282277 0.000000
O O5 0.586989 0.500000 0.561241
O O6 0.595212 0.727708 0.471722
O O7 0.468995 0.676087 0.694356
O O8 0.584570 0.768701 0.615537
O O9 0.853110 0.756357 0.348000
O O10 0.729776 0.800676 0.435946
O O11 0.838691 0.000000 0.297945
O O12 0.500000 0.175087 0.500000
O O13 0.638527 0.220382 0.295453
O O14 0.604665 0.000000 0.416889
O O15 0.824852 0.203324 0.871932
O O16 0.885153 0.000000 0.874838
O O17 0.905078 0.264139 0.887367
O O18 0.672767 0.500000 0.227667
O O19 0.774481 0.286633 0.105730
O O20 0.125644 0.500000 0.013349
O O21 0.858199 0.500000 0.396279
#
# Coordination Sequence:
#
# PCOD8109749 Si02
#       8
#     8   8   8   8   8   8   8   8
#     4  10  23  42  61  87 122 161 202 250 307 362
#     4  11  23  38  60  89 123 162 200 243 298 361
#     4  10  22  41  64  91 121 156 199 247 303 359
#     4  11  23  38  58  88 122 159 201 245 298 355
#     4  10  22  39  60  87 121 158 201 251 303 355
#     4  10  21  40  62  87 120 160 203 250 303 360
#     4  10  23  40  62  89 116 157 208 250 302 363
#     4  10  22  40  63  92 124 157 197 247 299 358
#
# _framework density 20.153172999999999
#
# number of rings (size 3 to 8) (size 9 to 14) (size 15 to 20)
#    0.000    1.750    1.250    1.875    3.500    4.750 
#    0.000    0.000    0.000    0.000    0.000    0.000 
#    0.000    0.000    0.000    0.000    0.000    0.000 
#
# Total GULP energy -396855.007031 kJ/mol
# GULP energy per Si atom -12401.718970 kJ/mol
# Density = 2.010730 g / cm^3
# Si number density = 20.153173 Si / 1000 Ang^3
#
#
#
# Elastic Constant Matrix: (Units=GPa)
#
#
# Indices 1 2 3 4 5 6 
#
# 1 130.1557 35.3392 37.6005 0.0266 11.3679 -0.0058
# 2 35.3392 63.0049 45.4517 0.0164 8.4471 0.0002
# 3 37.6005 45.4517 89.1356 0.0299 21.1934 -0.0105
# 4 0.0266 0.0164 0.0299 2.7271 -0.0221 10.3474
# 5 11.3679 8.4471 21.1934 -0.0221 28.3140 0.0097
# 6 -0.0058 0.0002 -0.0105 10.3474 0.0097 31.2785
#
#
#
# Elastic Compliance Matrix: (Units=1/GPa)
#
#
# Indices 1 2 3 4 5 6 
#
# 1 0.009325 -0.003866 -0.001638 0.000262 -0.001364 -0.000085
# 2 -0.003866 0.026862 -0.012810 -0.000254 0.003126 0.000078
# 3 -0.001638 -0.012810 0.021138 0.001058 -0.011342 -0.000340
# 4 0.000262 -0.000254 0.001058 -1.436635 -0.002105 0.475262
# 5 -0.001364 0.003126 -0.011342 -0.002105 0.043421 0.000679
# 6 -0.000085 0.000078 -0.000340 0.475262 0.000679 -0.125253
#
#
# Mechanical properties :
#
#
# Convention : Reuss Voigt Hill
#
# Bulk Modulus (GPa) = 48.31470 57.67545 52.99508
# Shear Modulus (GPa) = -3.52705 23.39088 9.93192
#
# Velocity S-wave (km/s) = -1.32436 3.41053 2.22237
# Velocity P-wave (km/s) = 4.65695 6.64753 5.73920
#
# Compressibility (1/GPa) = 0.02069763
#
# Stress axis : x y z
#
# Youngs Moduli (GPa) = 107.23782 37.22717 47.30767
#
# Poissons Ratio (x) = 0.14391 0.07750
# Poissons Ratio (y) = 0.41456 0.60601
# Poissons Ratio (z) = 0.17567 0.47688
#
# Static dielectric constant tensor:
#      x y z
#    x 3.834570 -0.000030 -0.032190 
#    y -0.000030 3.679410 0.000050 
#    z -0.032190 0.000050 3.697560 
# 
# 
# High freq. dielectric constant tensor:
#      x y z
#    x 1.794950 0.000000 0.002810 
#    y 0.000000 1.789110 0.000000 
#    z 0.002810 0.000000 1.784320 
# 
# From -- ./inp_files/295479.got.cif
#   From: 2010.06.25/outbox.cif.g09.slc.cpg/sg12_148_cif.got.tgz:295479.got - 2010.06.28 00:19:55.
