data_PCOD8109658
_publ_section_title
;
Structure prediction by ZEFSAII (Michael W. Deem and Ramdas Pophale) SiO2 
 PCOD8109658
Probable space group: C 2/M
;
_chemical_formula_sum "Si O2"
_cell_formula_units_Z 64
_cell_length_a 19.717507
_cell_length_b 18.655403
_cell_length_c 16.811857
_cell_angle_alpha 90.000000
_cell_angle_beta 149.896822
_cell_angle_gamma 90.000000
_cell_volume 3101.659466
_symmetry_space_group_name_H-M "C 2/M"
_symmetry_group_IT_number 12
_symmetry_cell_setting 'monoclinic'
loop_
_space_group_symop_operation_xyz
x,y,z
-x,y,-z
-x,-y,-z
x,-y,z
1/2+x,1/2+y,z
1/2-x,1/2+y,-z
1/2-x,1/2-y,-z
1/2+x,1/2-y,z
loop_
_atom_site_type_symbol
_atom_site_label
_atom_site_fract_x
_atom_site_fract_y
_atom_site_fract_z
Si Si1 0.341016 0.918872 0.339025
Si Si2 0.198417 0.210535 0.120316
Si Si3 0.258861 0.916640 0.435282
Si Si4 0.850855 0.083043 0.332942
Si Si5 0.131622 0.675885 0.178466
Si Si6 0.767681 0.155800 0.092835
Si Si7 0.498323 0.326827 0.207765
Si Si8 0.965047 0.327073 0.743379
O O1 0.500000 0.906261 0.500000
O O2 0.280069 0.862871 0.214525
O O3 0.275720 0.904922 0.358671
O O4 0.307361 0.000000 0.276764
O O5 0.173920 0.249023 0.179938
O O6 0.278723 0.263798 0.141449
O O7 0.053332 0.192297 0.933808
O O8 0.386911 0.881340 0.607842
O O9 0.120299 0.882435 0.326477
O O10 0.256398 0.000000 0.455113
O O11 0.752375 0.119624 0.295851
O O12 0.800164 0.097441 0.192524
O O13 0.000000 0.114889 0.500000
O O14 0.848725 0.000000 0.349580
O O15 0.107366 0.683932 0.246076
O O16 0.000000 0.644619 0.000000
O O17 0.872277 0.140691 0.128268
O O18 0.616920 0.143141 0.906767
O O19 0.540388 0.253894 0.297160
#
# Coordination Sequence:
#
# PCOD8109658 Si02
#       8
#     8   8   8   8   8   8   8   8
#     4  10  24  43  64  93 126 165 212 256 310 374
#     4  10  21  39  69  91 124 162 207 268 314 362
#     4  11  27  44  61  93 131 167 210 252 307 378
#     4  10  23  41  60  88 129 168 210 261 309 365
#     4  11  20  40  64  94 122 159 214 258 309 371
#     4  10  23  40  64  96 125 161 216 251 310 382
#     4  11  23  41  66  96 127 163 206 259 318 368
#     4  11  22  42  65  91 126 166 204 259 313 372
#
# _framework density 20.634115999999999
#
# number of rings (size 3 to 8) (size 9 to 14) (size 15 to 20)
#    0.000    1.500    3.750    2.625    5.250    4.250 
#    0.000    1.250    0.000    0.000    0.000    0.000 
#    0.000    0.000    0.000    0.000    0.000    0.000 
#
# Total GULP energy -396803.541298 kJ/mol
# GULP energy per Si atom -12400.110666 kJ/mol
# Density = 2.058715 g / cm^3
# Si number density = 20.634116 Si / 1000 Ang^3
#
#
#
# Elastic Constant Matrix: (Units=GPa)
#
#
# Indices 1 2 3 4 5 6 
#
# 1 77.1616 23.2438 24.8964 0.0006 28.1002 0.0003
# 2 23.2438 100.6934 66.9031 0.0000 14.2907 0.0001
# 3 24.8964 66.9031 98.6373 0.0017 22.8874 0.0011
# 4 0.0006 0.0000 0.0017 33.0590 0.0009 0.0018
# 5 28.1002 14.2907 22.8874 0.0009 36.2835 0.0005
# 6 0.0003 0.0001 0.0011 0.0018 0.0005 16.8082
#
#
#
# Elastic Compliance Matrix: (Units=1/GPa)
#
#
# Indices 1 2 3 4 5 6 
#
# 1 0.018574 -0.002435 0.000092 0.000000 -0.013484 0.000000
# 2 -0.002435 0.018414 -0.012452 0.000001 0.002488 0.000001
# 3 0.000092 -0.012452 0.020430 -0.000001 -0.008054 -0.000001
# 4 0.000000 0.000001 -0.000001 0.030249 0.000000 -0.000003
# 5 -0.013484 0.002488 -0.008054 0.000000 0.042104 0.000000
# 6 0.000000 0.000001 -0.000001 -0.000003 0.000000 0.059495
#
#
# Mechanical properties :
#
#
# Convention : Reuss Voigt Hill
#
# Bulk Modulus (GPa) = 35.93599 56.28656 46.11127
# Shear Modulus (GPa) = 21.91716 27.99338 24.95527
#
# Velocity S-wave (km/s) = 3.26265 3.68728 3.48144
# Velocity P-wave (km/s) = 5.62555 6.74282 6.20936
#
# Compressibility (1/GPa) = 0.02782726
#
# Stress axis : x y z
#
# Youngs Moduli (GPa) = 53.83830 54.30724 48.94824
#
# Poissons Ratio (x) = 0.13226 -0.00453
# Poissons Ratio (y) = 0.13111 0.60952
# Poissons Ratio (z) = -0.00498 0.67625
#
# Static dielectric constant tensor:
#      x y z
#    x 3.801330 0.000000 0.105050 
#    y 0.000000 3.752170 0.000000 
#    z 0.105050 0.000000 3.771440 
# 
# 
# High freq. dielectric constant tensor:
#      x y z
#    x 1.816090 0.000000 0.010870 
#    y 0.000000 1.799340 0.000000 
#    z 0.010870 0.000000 1.806420 
# 
# From -- ./inp_files/285246.got.cif
#   From: 2010.06.25/outbox.cif.g09.slc.cpg/sg12_143_cif.got.tgz:285246.got - 2010.06.28 00:19:55.
