data_PCOD8109153
_publ_section_title
;
Structure prediction by ZEFSAII (Michael W. Deem and Ramdas Pophale) SiO2 
 PCOD8109153
Probable space group: C 2/M
;
_chemical_formula_sum "Si O2"
_cell_formula_units_Z 64
_cell_length_a 30.832186
_cell_length_b 8.794261
_cell_length_c 14.117741
_cell_angle_alpha 90.000000
_cell_angle_beta 122.856699
_cell_angle_gamma 90.000000
_cell_volume 3215.612732
_symmetry_space_group_name_H-M "C 2/M"
_symmetry_group_IT_number 12
_symmetry_cell_setting 'monoclinic'
loop_
_space_group_symop_operation_xyz
x,y,z
-x,y,-z
-x,-y,-z
x,-y,z
1/2+x,1/2+y,z
1/2-x,1/2+y,-z
1/2-x,1/2-y,-z
1/2+x,1/2-y,z
loop_
_atom_site_type_symbol
_atom_site_label
_atom_site_fract_x
_atom_site_fract_y
_atom_site_fract_z
Si Si1 0.354314 0.177150 0.923906
Si Si2 0.675444 0.675341 0.477412
Si Si3 0.806073 0.320239 0.061690
Si Si4 0.963266 0.179336 0.039160
Si Si5 0.990398 0.823250 0.281306
Si Si6 0.587191 0.822345 0.490669
Si Si7 0.389843 0.323512 0.283265
Si Si8 0.789779 0.325378 0.666340
O O1 0.310747 0.213901 0.794741
O O2 0.365961 0.000000 0.945207
O O3 0.333907 0.240646 0.999655
O O4 0.406538 0.257524 0.955025
O O5 0.658451 0.500000 0.464773
O O6 0.632024 0.780803 0.470712
O O7 0.728692 0.707026 0.595868
O O8 0.681639 0.717892 0.374809
O O9 0.800792 0.500000 0.054929
O O10 0.839190 0.267632 0.191141
O O11 0.750000 0.250000 0.000000
O O12 0.986481 0.228895 0.167691
O O13 0.959204 0.000000 0.028550
O O14 0.000000 0.244435 0.000000
O O15 0.935661 0.790528 0.264515
O O16 0.032416 0.718721 0.380788
O O17 0.006116 0.000000 0.309720
O O18 0.593429 0.728688 0.593704
O O19 0.588848 0.000000 0.515506
O O20 0.375453 0.500000 0.269883
O O21 0.800491 0.500000 0.650478
#
# Coordination Sequence:
#
# PCOD8109153 Si02
#       8
#     8   8   8   8   8   8   8   8
#     4  10  22  40  63  92 126 163 205 252 310 370
#     4  10  21  39  62  88 121 162 204 251 303 361
#     4  11  24  41  64  95 129 168 212 259 312 371
#     4  10  22  40  63  93 126 162 207 253 302 369
#     4  10  22  42  64  89 122 161 203 251 311 370
#     4  12  26  40  61  92 124 157 203 256 307 369
#     4  11  23  43  67  89 121 161 205 257 313 371
#     4   9  20  39  61  87 122 161 201 249 303 361
#
# _framework density 19.902895000000001
#
# number of rings (size 3 to 8) (size 9 to 14) (size 15 to 20)
#    0.000    1.625    1.250    2.625    3.500    4.750 
#    0.000    0.000    0.000    0.000    0.000    0.000 
#    0.000    0.000    0.000    0.000    0.000    0.000 
#
# Total GULP energy -396998.498750 kJ/mol
# GULP energy per Si atom -12406.203086 kJ/mol
# Density = 1.985759 g / cm^3
# Si number density = 19.902895 Si / 1000 Ang^3
#
#
#
# Elastic Constant Matrix: (Units=GPa)
#
#
# Indices 1 2 3 4 5 6 
#
# 1 88.9613 35.1287 29.6959 0.0000 12.7658 0.0000
# 2 35.1287 55.4653 26.9584 0.0000 10.5855 0.0000
# 3 29.6959 26.9584 109.9221 0.0000 8.7661 0.0000
# 4 0.0000 0.0000 0.0000 34.1386 0.0000 1.3312
# 5 12.7658 10.5855 8.7661 0.0000 26.7370 0.0000
# 6 0.0000 0.0000 0.0000 1.3312 0.0000 30.8561
#
#
#
# Elastic Compliance Matrix: (Units=1/GPa)
#
#
# Indices 1 2 3 4 5 6 
#
# 1 0.015675 -0.008319 -0.001910 0.000000 -0.003564 0.000000
# 2 -0.008319 0.026097 -0.003744 0.000000 -0.005133 0.000000
# 3 -0.001910 -0.003744 0.010618 0.000000 -0.001087 0.000000
# 4 0.000000 0.000000 0.000000 0.029342 0.000000 -0.001266
# 5 -0.003564 -0.005133 -0.001087 0.000000 0.041492 0.000000
# 6 0.000000 0.000000 0.000000 -0.001266 0.000000 0.032463
#
#
# Mechanical properties :
#
#
# Convention : Reuss Voigt Hill
#
# Bulk Modulus (GPa) = 40.90842 48.65720 44.78281
# Shear Modulus (GPa) = 26.07145 29.18404 27.62774
#
# Velocity S-wave (km/s) = 3.62323 3.83341 3.72980
# Velocity P-wave (km/s) = 6.17271 6.64031 6.41078
#
# Compressibility (1/GPa) = 0.02444484
#
# Stress axis : x y z
#
# Youngs Moduli (GPa) = 63.79636 38.31830 94.17783
#
# Poissons Ratio (x) = 0.31877 0.17990
# Poissons Ratio (y) = 0.53072 0.35256
# Poissons Ratio (z) = 0.12186 0.14345
#
# Static dielectric constant tensor:
#      x y z
#    x 3.731770 0.000000 -0.089350 
#    y 0.000000 3.578610 0.000000 
#    z -0.089350 0.000000 3.712510 
# 
# 
# High freq. dielectric constant tensor:
#      x y z
#    x 1.783510 0.000000 -0.000170 
#    y 0.000000 1.774290 0.000000 
#    z -0.000170 0.000000 1.789070 
# 
# From -- ./inp_files/249904.got.cif
#   From: 2010.06.25/outbox.cif.g09.slc.cpg/sg12_125_cif.got.tgz:249904.got - 2010.06.28 00:19:55.
