data_PCOD8109519
_publ_section_title
;
Structure prediction by ZEFSAII (Michael W. Deem and Ramdas Pophale) SiO2 
 PCOD8109519
Probable space group: C 2/M
;
_chemical_formula_sum "Si O2"
_cell_formula_units_Z 40
_cell_length_a 12.874735
_cell_length_b 12.929296
_cell_length_c 13.953886
_cell_angle_alpha 90.000000
_cell_angle_beta 52.255009
_cell_angle_gamma 90.000000
_cell_volume 1836.723381
_symmetry_space_group_name_H-M "C 2/M"
_symmetry_group_IT_number 12
_symmetry_cell_setting 'monoclinic'
loop_
_space_group_symop_operation_xyz
x,y,z
-x,y,-z
-x,-y,-z
x,-y,z
1/2+x,1/2+y,z
1/2-x,1/2+y,-z
1/2-x,1/2-y,-z
1/2+x,1/2-y,z
loop_
_atom_site_type_symbol
_atom_site_label
_atom_site_fract_x
_atom_site_fract_y
_atom_site_fract_z
Si Si1 0.127912 0.382193 0.030202
Si Si2 0.795837 0.619126 0.809794
Si Si3 0.156014 0.304129 0.814659
Si Si4 0.204007 0.116926 0.453793
Si Si5 0.553195 0.184827 0.570919
O O1 0.076632 0.500000 0.061362
O O2 0.227961 0.364002 0.062383
O O3 0.999254 0.310732 0.113161
O O4 0.200741 0.359596 0.888714
O O5 0.782204 0.500000 0.787325
O O6 0.692382 0.682808 0.804569
O O7 0.943083 0.661721 0.711494
O O8 0.235762 0.352990 0.682692
O O9 0.313957 0.126139 0.474497
O O10 0.082271 0.191958 0.547510
O O11 0.150969 0.000000 0.480956
O O12 0.500000 0.141366 0.500000
#
# Coordination Sequence:
#
# PCOD8109519 Si02
#       5
#     8   8   8   8   8
#     4  10  21  39  65  89 118 158 195 240 301 355
#     4  11  23  40  61  88 120 161 200 240 295 357
#     4  11  20  38  62  93 118 149 199 251 289 350
#     4  11  23  40  63  89 119 154 200 248 295 349
#     4  11  23  42  58  87 120 157 200 239 294 353
#
# _framework density 21.777911
#
# number of rings (size 3 to 8) (size 9 to 14) (size 15 to 20)
#    0.000    1.200    4.000    3.600    0.000    2.000 
#    0.000    2.000    0.000    4.800    0.000    0.000 
#    0.000    0.000    0.000    0.000    0.000    0.000 
#
# Total GULP energy -247998.286161 kJ/mol
# GULP energy per Si atom -12399.914308 kJ/mol
# Density = 2.172834 g / cm^3
# Si number density = 21.777911 Si / 1000 Ang^3
#
#
#
# Elastic Constant Matrix: (Units=GPa)
#
#
# Indices 1 2 3 4 5 6 
#
# 1 73.9465 32.0221 15.9572 0.0000 17.8334 0.0000
# 2 32.0221 140.4696 30.4644 0.0000 4.3993 0.0000
# 3 15.9572 30.4644 56.7467 0.0000 19.4907 0.0000
# 4 0.0000 0.0000 0.0000 23.7379 0.0000 4.6514
# 5 17.8334 4.3993 19.4907 0.0000 33.6746 0.0000
# 6 0.0000 0.0000 0.0000 4.6514 0.0000 27.2771
#
#
#
# Elastic Compliance Matrix: (Units=1/GPa)
#
#
# Indices 1 2 3 4 5 6 
#
# 1 0.017183 -0.003672 0.000125 0.000000 -0.008692 0.000000
# 2 -0.003672 0.008931 -0.005029 0.000000 0.003689 0.000000
# 3 0.000125 -0.005029 0.025067 0.000000 -0.013918 0.000000
# 4 0.000000 0.000000 0.000000 0.043583 0.000000 -0.007432
# 5 -0.008692 0.003689 -0.013918 0.000000 0.041873 0.000000
# 6 0.000000 0.000000 0.000000 -0.007432 0.000000 0.037928
#
#
# Mechanical properties :
#
#
# Convention : Reuss Voigt Hill
#
# Bulk Modulus (GPa) = 29.38657 47.56114 38.47386
# Shear Modulus (GPa) = 24.62321 29.78585 27.20453
#
# Velocity S-wave (km/s) = 3.36616 3.70227 3.53821
# Velocity P-wave (km/s) = 5.35081 6.33737 5.86487
#
# Compressibility (1/GPa) = 0.03402914
#
# Stress axis : x y z
#
# Youngs Moduli (GPa) = 58.19807 111.96683 39.89263
#
# Poissons Ratio (x) = 0.41113 -0.00499
# Poissons Ratio (y) = 0.21370 0.20062
# Poissons Ratio (z) = -0.00727 0.56309
#
# Static dielectric constant tensor:
#      x y z
#    x 3.833390 0.000000 0.334200 
#    y 0.000000 3.965040 0.000000 
#    z 0.334200 0.000000 4.002500 
# 
# 
# High freq. dielectric constant tensor:
#      x y z
#    x 1.850100 0.000000 0.028300 
#    y 0.000000 1.853100 0.000000 
#    z 0.028300 0.000000 1.850740 
# 
# From -- ./inp_files/212371.got.cif
#   From: 2010.06.25/outbox.cif.g09.slc.cpg/sg12_107_cif.got.tgz:212371.got - 2010.06.28 00:19:55.
