data_PCOD8109107
_publ_section_title
;
Structure prediction by ZEFSAII (Michael W. Deem and Ramdas Pophale) SiO2 
 PCOD8109107
Probable space group: C 2/M
;
_chemical_formula_sum "Si O2"
_cell_formula_units_Z 64
_cell_length_a 9.586607
_cell_length_b 13.342773
_cell_length_c 29.256266
_cell_angle_alpha 90.000000
_cell_angle_beta 119.362376
_cell_angle_gamma 90.000000
_cell_volume 3261.483901
_symmetry_space_group_name_H-M "C 2/M"
_symmetry_group_IT_number 12
_symmetry_cell_setting 'monoclinic'
loop_
_space_group_symop_operation_xyz
x,y,z
-x,y,-z
-x,-y,-z
x,-y,z
1/2+x,1/2+y,z
1/2-x,1/2+y,-z
1/2-x,1/2-y,-z
1/2+x,1/2-y,z
loop_
_atom_site_type_symbol
_atom_site_label
_atom_site_fract_x
_atom_site_fract_y
_atom_site_fract_z
Si Si1 0.155134 0.249653 0.785251
Si Si2 0.954849 0.389541 0.698173
Si Si3 0.733938 0.883836 0.056716
Si Si4 0.355765 0.610645 0.297785
Si Si5 0.486521 0.737591 0.142115
Si Si6 0.083463 0.749983 0.389032
Si Si7 0.405392 0.118945 0.438089
Si Si8 0.423886 0.883107 0.058024
O O1 0.115880 0.340292 0.744194
O O2 0.135310 0.148443 0.752839
O O3 0.325236 0.264904 0.836346
O O4 0.030049 0.243018 0.806221
O O5 0.999788 0.500000 0.687662
O O6 0.829792 0.393048 0.719240
O O7 0.875607 0.328966 0.643966
O O8 0.905908 0.859640 0.106096
O O9 0.590290 0.839371 0.064328
O O10 0.703502 0.000000 0.053626
O O11 0.716712 0.852446 0.000454
O O12 0.432742 0.500000 0.311219
O O13 0.444022 0.677733 0.349336
O O14 0.398097 0.830239 0.102694
O O15 0.239752 0.820398 0.422033
O O16 0.015914 0.683806 0.420684
O O17 0.500000 0.116272 0.500000
O O18 0.377084 0.000000 0.418179
O O19 0.426880 0.000000 0.068871
#
# Coordination Sequence:
#
# PCOD8109107 Si02
#       8
#     8   8   8   8   8   8   8   8
#     4  11  24  36  55  85 116 147 186 239 294 361
#     4  10  21  39  62  86 117 157 202 255 306 354
#     4   9  19  36  57  81 106 139 188 232 275 348
#     4  10  21  39  63  86 115 158 206 251 297 360
#     4  12  21  37  56  82 113 145 183 229 292 350
#     4  11  21  42  65  95 125 168 221 260 306 374
#     4  11  24  41  64  98 139 176 212 264 323 371
#     4   9  19  36  58  80 105 145 187 225 281 351
#
# _framework density 19.622969000000001
#
# number of rings (size 3 to 8) (size 9 to 14) (size 15 to 20)
#    0.000    1.625    3.750    2.250    0.000    2.000 
#    0.000    1.250    0.000    4.500    0.000    0.000 
#    0.000    0.000    0.000    0.000    0.000    0.000 
#
# Total GULP energy -396493.824157 kJ/mol
# GULP energy per Si atom -12390.432005 kJ/mol
# Density = 1.957831 g / cm^3
# Si number density = 19.622969 Si / 1000 Ang^3
#
#
#
# Elastic Constant Matrix: (Units=GPa)
#
#
# Indices 1 2 3 4 5 6 
#
# 1 58.3402 32.7801 23.5417 0.0000 -8.3427 0.0000
# 2 32.7801 116.1230 42.7191 0.0000 -7.2252 0.0000
# 3 23.5417 42.7191 105.7341 0.0000 -2.4583 0.0000
# 4 0.0000 0.0000 0.0000 32.6065 0.0000 -1.7649
# 5 -8.3427 -7.2252 -2.4583 0.0000 34.6044 0.0000
# 6 0.0000 0.0000 0.0000 -1.7649 0.0000 29.1792
#
#
#
# Elastic Compliance Matrix: (Units=1/GPa)
#
#
# Indices 1 2 3 4 5 6 
#
# 1 0.021529 -0.004816 -0.002755 0.000000 0.003989 0.000000
# 2 -0.004816 0.011308 -0.003475 0.000000 0.000953 0.000000
# 3 -0.002755 -0.003475 0.011462 0.000000 -0.000575 0.000000
# 4 0.000000 0.000000 0.000000 0.030769 0.000000 0.001861
# 5 0.003989 0.000953 -0.000575 0.000000 0.030018 0.000000
# 6 0.000000 0.000000 0.000000 0.001861 0.000000 0.034384
#
#
# Mechanical properties :
#
#
# Convention : Reuss Voigt Hill
#
# Bulk Modulus (GPa) = 45.02788 53.14212 49.08500
# Shear Modulus (GPa) = 29.59230 31.35512 30.47371
#
# Velocity S-wave (km/s) = 3.88757 4.00168 3.94504
# Velocity P-wave (km/s) = 6.56866 6.96360 6.76901
#
# Compressibility (1/GPa) = 0.02220847
#
# Stress axis : x y z
#
# Youngs Moduli (GPa) = 46.44938 88.42934 87.24859
#
# Poissons Ratio (x) = 0.42584 0.24037
# Poissons Ratio (y) = 0.22368 0.30315
# Poissons Ratio (z) = 0.12797 0.30725
#
# Static dielectric constant tensor:
#      x y z
#    x 3.482660 0.000000 -0.015160 
#    y 0.000000 3.795180 0.000000 
#    z -0.015160 0.000000 3.574520 
# 
# 
# High freq. dielectric constant tensor:
#      x y z
#    x 1.751380 0.000000 -0.002560 
#    y 0.000000 1.768550 0.000000 
#    z -0.002560 0.000000 1.772980 
# 
# From -- ./inp_files/372384.got.cif
#   From: 2010.06.25/outbox.cif.g09.slc.cpg/sg12_187_cif.got.tgz:372384.got - 2010.06.28 00:19:55.
