data_PCOD8109966
_publ_section_title
;
Structure prediction by ZEFSAII (Michael W. Deem and Ramdas Pophale) SiO2 
 PCOD8109966
Probable space group: C 2/M
;
_chemical_formula_sum "Si O2"
_cell_formula_units_Z 56
_cell_length_a 20.271940
_cell_length_b 8.723192
_cell_length_c 27.617141
_cell_angle_alpha 90.000000
_cell_angle_beta 145.484226
_cell_angle_gamma 90.000000
_cell_volume 2767.269169
_symmetry_space_group_name_H-M "C 2/M"
_symmetry_group_IT_number 12
_symmetry_cell_setting 'monoclinic'
loop_
_space_group_symop_operation_xyz
x,y,z
-x,y,-z
-x,-y,-z
x,-y,z
1/2+x,1/2+y,z
1/2-x,1/2+y,-z
1/2-x,1/2-y,-z
1/2+x,1/2-y,z
loop_
_atom_site_type_symbol
_atom_site_label
_atom_site_fract_x
_atom_site_fract_y
_atom_site_fract_z
Si Si1 0.920178 0.820355 0.216364
Si Si2 0.349624 0.179810 0.686954
Si Si3 0.779449 0.820219 0.966329
Si Si4 0.727126 0.824019 0.252434
Si Si5 0.063460 0.675159 0.670788
Si Si6 0.500313 0.177158 0.944816
Si Si7 0.695271 0.177332 0.514314
O O1 0.805222 0.741356 0.126395
O O2 0.932162 0.783618 0.280080
O O3 0.032551 0.765080 0.255490
O O4 0.906119 0.000000 0.201024
O O5 0.321651 0.223080 0.724963
O O6 0.242546 0.235041 0.589651
O O7 0.369405 0.000000 0.691325
O O8 0.764460 0.000000 0.961314
O O9 0.750000 0.750000 0.000000
O O10 0.911115 0.779222 0.032222
O O11 0.836022 0.717347 0.306114
O O12 0.628398 0.795065 0.152983
O O13 0.768251 0.000000 0.277120
O O14 0.076829 0.500000 0.696187
O O15 0.942940 0.699044 0.569729
O O16 0.538033 0.000000 0.962769
O O17 0.500000 0.231448 0.000000
O O18 0.750000 0.250000 0.500000
O O19 0.732046 0.000000 0.539078
#
# Coordination Sequence:
#
# PCOD8109966 Si02
#       7
#     8   8   8   8   8   8   8
#     4  12  24  40  65  93 124 164 210 259 315 376
#     4  11  23  40  63  92 129 168 210 261 317 378
#     4  12  25  41  63  92 127 164 209 261 314 373
#     4  10  23  41  62  91 128 168 207 257 319 377
#     4  11  24  41  64  93 126 161 207 262 311 369
#     4  10  21  40  65  92 125 166 212 261 315 376
#     4  11  23  40  64  93 125 164 209 262 316 372
#
# _framework density 20.236557000000001
#
# number of rings (size 3 to 8) (size 9 to 14) (size 15 to 20)
#    0.000    1.000    1.429    5.571    0.000    6.571 
#    0.000    2.857    0.000    0.000    0.000    0.000 
#    0.000    0.000    0.000    0.000    0.000    0.000 
#
# Total GULP energy -347432.606572 kJ/mol
# GULP energy per Si atom -12408.307378 kJ/mol
# Density = 2.019050 g / cm^3
# Si number density = 20.236557 Si / 1000 Ang^3
#
#
#
# Elastic Constant Matrix: (Units=GPa)
#
#
# Indices 1 2 3 4 5 6 
#
# 1 100.0135 38.0252 23.6540 0.0000 4.0737 0.0000
# 2 38.0252 112.2178 23.0289 0.0000 8.3828 0.0004
# 3 23.6540 23.0289 72.3128 0.0001 2.8871 -0.0002
# 4 0.0000 0.0000 0.0001 36.0875 0.0000 2.7121
# 5 4.0737 8.3828 2.8871 0.0000 40.5493 0.0000
# 6 0.0000 0.0004 -0.0002 2.7121 0.0000 36.1404
#
#
#
# Elastic Compliance Matrix: (Units=1/GPa)
#
#
# Indices 1 2 3 4 5 6 
#
# 1 0.011992 -0.003466 -0.002807 0.000000 -0.000288 0.000000
# 2 -0.003466 0.010663 -0.002194 0.000000 -0.001700 0.000000
# 3 -0.002807 -0.002194 0.015460 0.000000 -0.000365 0.000000
# 4 0.000000 0.000000 0.000000 0.027868 0.000000 -0.002091
# 5 -0.000288 -0.001700 -0.000365 0.000000 0.025068 0.000000
# 6 0.000000 0.000000 0.000000 -0.002091 0.000000 0.027827
#
#
# Mechanical properties :
#
#
# Convention : Reuss Voigt Hill
#
# Bulk Modulus (GPa) = 47.21306 50.44002 48.82654
# Shear Modulus (GPa) = 34.99618 35.87785 35.43701
#
# Velocity S-wave (km/s) = 4.16306 4.21518 4.18920
# Velocity P-wave (km/s) = 6.81831 6.97636 6.89779
#
# Compressibility (1/GPa) = 0.02118058
#
# Stress axis : x y z
#
# Youngs Moduli (GPa) = 83.38820 93.78291 64.68111
#
# Poissons Ratio (x) = 0.32504 0.18159
# Poissons Ratio (y) = 0.28901 0.14192
# Poissons Ratio (z) = 0.23411 0.20577
#
# Static dielectric constant tensor:
#      x y z
#    x 3.718280 0.000000 0.074690 
#    y 0.000000 4.071030 0.000000 
#    z 0.074690 0.000000 4.005820 
# 
# 
# High freq. dielectric constant tensor:
#      x y z
#    x 1.797900 0.000000 0.000120 
#    y 0.000000 1.798560 0.000000 
#    z 0.000120 0.000000 1.805160 
# 
# From -- ./inp_files/380732.got.cif
#   From: 2010.06.25/outbox.cif.g09.slc.cpg/sg12_191_cif.got.tgz:380732.got - 2010.06.28 00:19:55.
