data_PCOD8109089
_publ_section_title
;
Structure prediction by ZEFSAII (Michael W. Deem and Ramdas Pophale) SiO2 
 PCOD8109089
Probable space group: C 2/M
;
_chemical_formula_sum "Si O2"
_cell_formula_units_Z 56
_cell_length_a 21.136938
_cell_length_b 8.866593
_cell_length_c 29.485578
_cell_angle_alpha 90.000000
_cell_angle_beta 149.760093
_cell_angle_gamma 90.000000
_cell_volume 2782.998762
_symmetry_space_group_name_H-M "C 2/M"
_symmetry_group_IT_number 12
_symmetry_cell_setting 'monoclinic'
loop_
_space_group_symop_operation_xyz
x,y,z
-x,y,-z
-x,-y,-z
x,-y,z
1/2+x,1/2+y,z
1/2-x,1/2+y,-z
1/2-x,1/2-y,-z
1/2+x,1/2-y,z
loop_
_atom_site_type_symbol
_atom_site_label
_atom_site_fract_x
_atom_site_fract_y
_atom_site_fract_z
Si Si1 0.408135 0.821279 0.402103
Si Si2 0.145431 0.679025 0.219507
Si Si3 0.005705 0.825552 0.797524
Si Si4 0.502686 0.677662 0.054058
Si Si5 0.748433 0.678400 0.048633
Si Si6 0.422775 0.177724 0.574405
Si Si7 0.353240 0.327345 0.616119
O O1 0.500000 0.771838 0.500000
O O2 0.274312 0.740129 0.321026
O O3 0.471365 0.765552 0.394519
O O4 0.385021 0.000000 0.389827
O O5 0.147819 0.500000 0.220986
O O6 0.031052 0.740156 0.179238
O O7 0.117815 0.739730 0.151492
O O8 0.893946 0.806181 0.692789
O O9 0.128525 0.748950 0.851225
O O10 0.031831 0.000000 0.825669
O O11 0.527190 0.500000 0.072652
O O12 0.500000 0.730304 0.000000
O O13 0.371498 0.725541 0.995918
O O14 0.759691 0.500000 0.052020
O O15 0.750000 0.750000 0.000000
O O16 0.446925 0.240098 0.639879
O O17 0.287382 0.238810 0.473771
O O18 0.424236 0.000000 0.575957
O O19 0.356983 0.500000 0.603343
#
# Coordination Sequence:
#
# PCOD8109089 Si02
#       7
#     8   8   8   8   8   8   8
#     4  10  21  39  62  85 117 162 205 244 295 364
#     4  12  25  39  60  90 123 157 199 255 311 364
#     4  11  22  38  61  86 117 156 201 247 296 360
#     4  10  23  44  67  90 122 166 209 251 305 371
#     4  11  22  38  63  91 120 154 196 247 300 355
#     4   9  18  34  56  81 112 152 196 241 291 350
#     4   9  19  35  56  83 114 151 193 241 295 348
#
# _framework density 20.12218
#
# number of rings (size 3 to 8) (size 9 to 14) (size 15 to 20)
#    0.000    1.714    1.429    3.000    0.000    6.286 
#    0.000    7.143    0.000    0.000    0.000    0.000 
#    0.000    0.000    0.000    0.000    0.000    0.000 
#
# Total GULP energy -347205.907430 kJ/mol
# GULP energy per Si atom -12400.210980 kJ/mol
# Density = 2.007638 g / cm^3
# Si number density = 20.122180 Si / 1000 Ang^3
#
#
#
# Elastic Constant Matrix: (Units=GPa)
#
#
# Indices 1 2 3 4 5 6 
#
# 1 118.2555 42.4102 39.8446 0.0000 -1.1071 0.0001
# 2 42.4102 74.3423 44.6753 -0.0002 -0.7281 0.0001
# 3 39.8446 44.6753 105.6137 0.0000 -0.5493 0.0001
# 4 0.0000 -0.0002 0.0000 34.5021 0.0000 1.0192
# 5 -1.1071 -0.7281 -0.5493 0.0000 31.0308 0.0000
# 6 0.0001 0.0001 0.0001 1.0192 0.0000 28.4328
#
#
#
# Elastic Compliance Matrix: (Units=1/GPa)
#
#
# Indices 1 2 3 4 5 6 
#
# 1 0.010937 -0.005039 -0.001993 0.000000 0.000237 0.000000
# 2 -0.005039 0.020360 -0.006711 0.000000 0.000179 0.000000
# 3 -0.001993 -0.006711 0.013059 0.000000 0.000003 0.000000
# 4 0.000000 0.000000 0.000000 0.029014 0.000000 -0.001040
# 5 0.000237 0.000179 0.000003 0.000000 0.032239 0.000000
# 6 0.000000 0.000000 0.000000 -0.001040 0.000000 0.035208
#
#
# Mechanical properties :
#
#
# Convention : Reuss Voigt Hill
#
# Bulk Modulus (GPa) = 59.27493 61.34129 60.30811
# Shear Modulus (GPa) = 28.74755 30.21191 29.47973
#
# Velocity S-wave (km/s) = 3.78385 3.87902 3.83173
# Velocity P-wave (km/s) = 6.97219 7.11428 7.04360
#
# Compressibility (1/GPa) = 0.01687054
#
# Stress axis : x y z
#
# Youngs Moduli (GPa) = 91.42972 49.11502 76.57465
#
# Poissons Ratio (x) = 0.24750 0.15265
# Poissons Ratio (y) = 0.46073 0.51386
# Poissons Ratio (z) = 0.18226 0.32959
#
# Static dielectric constant tensor:
#      x y z
#    x 4.899510 0.000000 1.856000 
#    y 0.000000 3.597500 -0.000010 
#    z 1.856000 -0.000010 6.641230 
# 
# 
# High freq. dielectric constant tensor:
#      x y z
#    x 1.786900 0.000000 -0.000480 
#    y 0.000000 1.775580 0.000000 
#    z -0.000480 0.000000 1.791400 
# 
# From -- ./inp_files/380792.got.cif
#   From: 2010.06.25/outbox.cif.g09.slc.cpg/sg12_191_cif.got.tgz:380792.got - 2010.06.28 00:19:55.
