data_PCOD8109711
_publ_section_title
;
Structure prediction by ZEFSAII (Michael W. Deem and Ramdas Pophale) SiO2 
 PCOD8109711
Probable space group: C 2/M
;
_chemical_formula_sum "Si O2"
_cell_formula_units_Z 48
_cell_length_a 22.458112
_cell_length_b 23.992140
_cell_length_c 6.914251
_cell_angle_alpha 90.000000
_cell_angle_beta 140.862458
_cell_angle_gamma 90.000000
_cell_volume 2351.491777
_symmetry_space_group_name_H-M "C 2/M"
_symmetry_group_IT_number 12
_symmetry_cell_setting 'monoclinic'
loop_
_space_group_symop_operation_xyz
x,y,z
-x,y,-z
-x,-y,-z
x,-y,z
1/2+x,1/2+y,z
1/2-x,1/2+y,-z
1/2-x,1/2-y,-z
1/2+x,1/2-y,z
loop_
_atom_site_type_symbol
_atom_site_label
_atom_site_fract_x
_atom_site_fract_y
_atom_site_fract_z
Si Si1 0.604306 0.636129 0.713594
Si Si2 0.598718 0.936943 0.656577
Si Si3 0.899713 0.349256 0.664166
Si Si4 0.093757 0.777317 0.352693
Si Si5 0.709093 0.652758 0.375035
Si Si6 0.793620 0.062779 0.328701
O O1 0.500000 0.614616 0.500000
O O2 0.598489 0.690702 0.566100
O O3 0.658238 0.585999 0.744207
O O4 0.659584 0.654593 0.043583
O O5 0.500000 0.917503 0.500000
O O6 0.629665 0.894382 0.568415
O O7 0.589707 0.000000 0.550049
O O8 0.680252 0.934831 0.022943
O O9 0.904486 0.287526 0.585596
O O10 0.821959 0.348680 0.637406
O O11 0.000000 0.367720 0.000000
O O12 0.181585 0.793439 0.435094
O O13 0.000000 0.794017 0.000000
O O14 0.675010 0.597907 0.405371
O O15 0.828946 0.000000 0.449847
#
# Coordination Sequence:
#
# PCOD8109711 Si02
#       6
#     8   8   8   8   8   8
#     4  11  22  40  66  90 120 163 203 245 306 361
#     4  10  21  40  61  87 125 162 201 251 303 355
#     4  11  23  39  61  94 123 158 206 247 298 365
#     4  10  22  40  61  91 127 158 199 251 298 358
#     4  11  22  41  63  89 124 162 199 250 306 355
#     4  10  23  41  62  91 123 157 204 254 298 357
#
# _framework density 20.412575
#
# number of rings (size 3 to 8) (size 9 to 14) (size 15 to 20)
#    0.000    1.500    3.333    1.500    0.000    3.333 
#    3.000    0.833    0.000    0.000    0.000    0.000 
#    0.000    0.000    0.000    0.000    0.000    0.000 
#
# Total GULP energy -297690.852850 kJ/mol
# GULP energy per Si atom -12403.785535 kJ/mol
# Density = 2.036612 g / cm^3
# Si number density = 20.412575 Si / 1000 Ang^3
#
#
#
# Elastic Constant Matrix: (Units=GPa)
#
#
# Indices 1 2 3 4 5 6 
#
# 1 116.8204 19.9033 34.4508 0.0000 9.1605 0.0000
# 2 19.9033 104.0624 33.6388 0.0000 -16.9478 0.0000
# 3 34.4508 33.6388 92.6991 0.0000 -10.3100 0.0000
# 4 0.0000 0.0000 0.0000 26.5828 0.0000 3.3416
# 5 9.1605 -16.9478 -10.3100 0.0000 36.8688 0.0000
# 6 0.0000 0.0000 0.0000 3.3416 0.0000 24.7453
#
#
#
# Elastic Compliance Matrix: (Units=1/GPa)
#
#
# Indices 1 2 3 4 5 6 
#
# 1 0.010248 -0.001438 -0.003760 0.000000 -0.004259 0.000000
# 2 -0.001438 0.011700 -0.003172 0.000000 0.004848 0.000000
# 3 -0.003760 -0.003172 0.013704 0.000000 0.003309 0.000000
# 4 0.000000 0.000000 0.000000 0.038268 0.000000 -0.005168
# 5 -0.004259 0.004848 0.003309 0.000000 0.031335 0.000000
# 6 0.000000 0.000000 0.000000 -0.005168 0.000000 0.041110
#
#
# Mechanical properties :
#
#
# Convention : Reuss Voigt Hill
#
# Bulk Modulus (GPa) = 52.87928 54.39641 53.63784
# Shear Modulus (GPa) = 29.51436 32.67865 31.09650
#
# Velocity S-wave (km/s) = 3.80661 4.00547 3.90731
# Velocity P-wave (km/s) = 6.72918 6.93528 6.83301
#
# Compressibility (1/GPa) = 0.01891100
#
# Stress axis : x y z
#
# Youngs Moduli (GPa) = 97.57907 85.47281 72.97085
#
# Poissons Ratio (x) = 0.12292 0.27440
# Poissons Ratio (y) = 0.14033 0.23145
# Poissons Ratio (z) = 0.36694 0.27111
#
# Static dielectric constant tensor:
#      x y z
#    x 3.864630 0.000000 0.185680 
#    y 0.000000 3.659720 0.000000 
#    z 0.185680 0.000000 3.548320 
# 
# 
# High freq. dielectric constant tensor:
#      x y z
#    x 1.808310 0.000000 0.010240 
#    y 0.000000 1.798860 0.000000 
#    z 0.010240 0.000000 1.792040 
# 
# From -- ./inp_files/12382.got.cif
#   From: 2010.06.25/outbox.cif.g09.slc.cpg/sg12_7_cif.got.tgz:12382.got - 2010.06.28 00:19:55.
