data_PCOD8109615
_publ_section_title
;
Structure prediction by ZEFSAII (Michael W. Deem and Ramdas Pophale) SiO2 
 PCOD8109615
Probable space group: C 2/M
;
_chemical_formula_sum "Si O2"
_cell_formula_units_Z 28
_cell_length_a 8.336879
_cell_length_b 21.387657
_cell_length_c 10.144415
_cell_angle_alpha 90.000000
_cell_angle_beta 44.832275
_cell_angle_gamma 90.000000
_cell_volume 1275.274442
_symmetry_space_group_name_H-M "C 2/M"
_symmetry_group_IT_number 12
_symmetry_cell_setting 'monoclinic'
loop_
_space_group_symop_operation_xyz
x,y,z
-x,y,-z
-x,-y,-z
x,-y,z
1/2+x,1/2+y,z
1/2-x,1/2+y,-z
1/2-x,1/2-y,-z
1/2+x,1/2-y,z
loop_
_atom_site_type_symbol
_atom_site_label
_atom_site_fract_x
_atom_site_fract_y
_atom_site_fract_z
Si Si1 0.500000 0.262263 0.000000
Si Si2 0.073759 0.930703 0.108330
Si Si3 0.291921 0.571617 0.522432
Si Si4 0.588017 0.836992 0.156364
O O1 0.474596 0.219448 0.143591
O O2 0.277259 0.305725 0.140602
O O3 0.866076 0.917446 0.328155
O O4 0.168389 0.000000 0.079964
O O5 0.277784 0.882994 0.022512
O O6 0.000000 0.923109 0.000000
O O7 0.500000 0.585043 0.500000
O O8 0.203834 0.500000 0.593170
O O9 0.093227 0.621830 0.658979
#
# Coordination Sequence:
#
# PCOD8109615 Si02
#       4
#     4   8   8   8
#     4  10  24  40  66  90 128 174 228 246 320 368
#     4  10  21  39  66  97 126 161 205 260 329 381
#     4  10  22  40  67 100 127 162 210 262 327 385
#     4  11  21  44  63  92 129 170 211 274 301 382
#
# _framework density 21.956057999999999
#
# number of rings (size 3 to 8) (size 9 to 14) (size 15 to 20)
#    0.000    1.714    1.429    2.571    0.000    1.143 
#    0.000   25.714    0.000    0.000    0.000    0.000 
#    0.000    0.000    0.000    0.000    0.000    0.000 
#
# Total GULP energy -173532.565951 kJ/mol
# GULP energy per Si atom -12395.183282 kJ/mol
# Density = 2.190608 g / cm^3
# Si number density = 21.956058 Si / 1000 Ang^3
#
#
#
# Elastic Constant Matrix: (Units=GPa)
#
#
# Indices 1 2 3 4 5 6 
#
# 1 112.2278 74.4080 66.6846 0.0000 -11.8968 0.0000
# 2 74.4080 182.8310 92.2228 0.0000 -27.5360 0.0000
# 3 66.6846 92.2228 146.7584 0.0000 -7.7379 0.0000
# 4 0.0000 0.0000 0.0000 34.3963 0.0000 -19.5777
# 5 -11.8968 -27.5360 -7.7379 0.0000 29.9294 0.0000
# 6 0.0000 0.0000 0.0000 -19.5777 0.0000 31.1029
#
#
#
# Elastic Compliance Matrix: (Units=1/GPa)
#
#
# Indices 1 2 3 4 5 6 
#
# 1 0.013656 -0.003313 -0.004053 0.000000 0.001333 0.000000
# 2 -0.003313 0.010109 -0.004487 0.000000 0.006824 0.000000
# 3 -0.004053 -0.004487 0.011327 0.000000 -0.002811 0.000000
# 4 0.000000 0.000000 0.000000 0.045304 0.000000 0.028517
# 5 0.001333 0.006824 -0.002811 0.000000 0.039493 0.000000
# 6 0.000000 0.000000 0.000000 0.028517 0.000000 0.050101
#
#
# Mechanical properties :
#
#
# Convention : Reuss Voigt Hill
#
# Bulk Modulus (GPa) = 87.82761 100.93868 94.38314
# Shear Modulus (GPa) = 25.31738 32.98585 29.15162
#
# Velocity S-wave (km/s) = 3.39941 3.88023 3.64775
# Velocity P-wave (km/s) = 7.44959 8.13313 7.79885
#
# Compressibility (1/GPa) = 0.01138594
#
# Stress axis : x y z
#
# Youngs Moduli (GPa) = 73.22539 98.92275 88.28125
#
# Poissons Ratio (x) = 0.32768 0.35784
# Poissons Ratio (y) = 0.24256 0.39616
# Poissons Ratio (z) = 0.29681 0.44391
#
# Static dielectric constant tensor:
#      x y z
#    x 3.926510 0.000000 0.012670 
#    y 0.000000 4.459850 0.000000 
#    z 0.012670 0.000000 3.748120 
# 
# 
# High freq. dielectric constant tensor:
#      x y z
#    x 1.856340 0.000000 0.000640 
#    y 0.000000 1.892810 0.000000 
#    z 0.000640 0.000000 1.845240 
# 
# From -- ./inp_files/37920.got.cif
#   From: 2010.06.25/outbox.cif.g09.slc.cpg/sg12_19_cif.got.tgz:37920.got - 2010.06.28 00:19:55.
