data_PCOD8109626
_publ_section_title
;
Structure prediction by ZEFSAII (Michael W. Deem and Ramdas Pophale) SiO2 
 PCOD8109626
Probable space group: C 2/M
;
_chemical_formula_sum "Si O2"
_cell_formula_units_Z 48
_cell_length_a 11.675653
_cell_length_b 14.483046
_cell_length_c 14.523877
_cell_angle_alpha 90.000000
_cell_angle_beta 117.397437
_cell_angle_gamma 90.000000
_cell_volume 2180.501491
_symmetry_space_group_name_H-M "C 2/M"
_symmetry_group_IT_number 12
_symmetry_cell_setting 'monoclinic'
loop_
_space_group_symop_operation_xyz
x,y,z
-x,y,-z
-x,-y,-z
x,-y,z
1/2+x,1/2+y,z
1/2-x,1/2+y,-z
1/2-x,1/2-y,-z
1/2+x,1/2-y,z
loop_
_atom_site_type_symbol
_atom_site_label
_atom_site_fract_x
_atom_site_fract_y
_atom_site_fract_z
Si Si1 0.015524 0.609272 0.904258
Si Si2 0.751113 0.891424 0.270830
Si Si3 0.157831 0.748708 0.557767
Si Si4 0.698477 0.392944 0.266147
Si Si5 0.715418 0.389831 0.066986
Si Si6 0.088692 0.107193 0.839059
O O1 0.025647 0.500000 0.918048
O O2 0.898860 0.635760 0.793205
O O3 0.144031 0.649127 0.906691
O O4 0.000000 0.652678 0.000000
O O5 0.809689 0.845417 0.382601
O O6 0.817596 0.850671 0.203300
O O7 0.774040 0.000000 0.290064
O O8 0.250000 0.750000 0.500000
O O9 0.200250 0.662201 0.635373
O O10 0.000000 0.741635 0.500000
O O11 0.740791 0.500000 0.284180
O O12 0.687807 0.352415 0.158680
O O13 0.555034 0.377581 0.251924
O O14 0.708835 0.500000 0.069380
O O15 0.615684 0.351957 0.951884
O O16 0.122866 0.000000 0.860398
#
# Coordination Sequence:
#
# PCOD8109626 Si02
#       6
#     8   8   8   8   8   8
#     4   9  15  28  54  92 130 161 192 234 291 365
#     4  10  21  39  67  93 120 161 206 251 307 367
#     4  12  29  49  66  88 120 158 214 281 321 352
#     4  10  22  40  64  91 125 165 201 243 309 378
#     4   9  16  29  57  94 129 162 195 233 291 369
#     4   9  16  33  62  96 129 163 199 239 292 368
#
# _framework density 22.013285
#
# number of rings (size 3 to 8) (size 9 to 14) (size 15 to 20)
#    0.000    2.167    1.667    1.500    2.333    3.333 
#    0.000    2.500    0.000    0.000    0.000    0.000 
#    0.000    0.000    0.000    0.000    0.000    0.000 
#
# Total GULP energy -297358.534240 kJ/mol
# GULP energy per Si atom -12389.938927 kJ/mol
# Density = 2.196318 g / cm^3
# Si number density = 22.013285 Si / 1000 Ang^3
#
#
#
# Elastic Constant Matrix: (Units=GPa)
#
#
# Indices 1 2 3 4 5 6 
#
# 1 106.1686 18.8414 53.9225 0.0000 4.2620 0.0000
# 2 18.8414 52.6644 44.6310 0.0000 2.1127 0.0000
# 3 53.9225 44.6310 144.2218 0.0000 8.7611 0.0000
# 4 0.0000 0.0000 0.0000 17.2142 0.0000 -3.2072
# 5 4.2620 2.1127 8.7611 0.0000 41.6261 0.0000
# 6 0.0000 0.0000 0.0000 -3.2072 0.0000 16.6033
#
#
#
# Elastic Compliance Matrix: (Units=1/GPa)
#
#
# Indices 1 2 3 4 5 6 
#
# 1 0.011646 -0.000650 -0.004136 0.000000 -0.000289 0.000000
# 2 -0.000650 0.025780 -0.007759 0.000000 0.000391 0.000000
# 3 -0.004136 -0.007759 0.010972 0.000000 -0.001492 0.000000
# 4 0.000000 0.000000 0.000000 0.060260 0.000000 0.011640
# 5 -0.000289 0.000391 -0.001492 0.000000 0.024347 0.000000
# 6 0.000000 0.000000 0.000000 0.011640 0.000000 0.062478
#
#
# Mechanical properties :
#
#
# Convention : Reuss Voigt Hill
#
# Bulk Modulus (GPa) = 42.90137 59.76049 51.33093
# Shear Modulus (GPa) = 21.89698 27.46605 24.68151
#
# Velocity S-wave (km/s) = 3.15733 3.53612 3.35208
# Velocity P-wave (km/s) = 5.72912 6.62409 6.19279
#
# Compressibility (1/GPa) = 0.02330928
#
# Stress axis : x y z
#
# Youngs Moduli (GPa) = 85.86291 38.78943 91.14407
#
# Poissons Ratio (x) = 0.02522 0.37694
# Poissons Ratio (y) = 0.05584 0.70715
# Poissons Ratio (z) = 0.35510 0.30095
#
# Static dielectric constant tensor:
#      x y z
#    x 4.314260 0.000000 -0.065930 
#    y 0.000000 3.605620 0.000000 
#    z -0.065930 0.000000 3.992630 
# 
# 
# High freq. dielectric constant tensor:
#      x y z
#    x 1.879820 0.000000 0.003500 
#    y 0.000000 1.845940 0.000000 
#    z 0.003500 0.000000 1.856680 
# 
# From -- ./inp_files/204853.got.cif
#   From: 2010.06.25/outbox.cif.g09.slc.cpg/sg12_103_cif.got.tgz:204853.got - 2010.06.28 00:19:55.
