data_PCOD8109151
_publ_section_title
;
Structure prediction by ZEFSAII (Michael W. Deem and Ramdas Pophale) SiO2 
 PCOD8109151
Probable space group: C 2/M
;
_chemical_formula_sum "Si O2"
_cell_formula_units_Z 56
_cell_length_a 19.361919
_cell_length_b 8.898037
_cell_length_c 16.554259
_cell_angle_alpha 90.000000
_cell_angle_beta 73.290617
_cell_angle_gamma 90.000000
_cell_volume 2731.593310
_symmetry_space_group_name_H-M "C 2/M"
_symmetry_group_IT_number 12
_symmetry_cell_setting 'monoclinic'
loop_
_space_group_symop_operation_xyz
x,y,z
-x,y,-z
-x,-y,-z
x,-y,z
1/2+x,1/2+y,z
1/2-x,1/2+y,-z
1/2-x,1/2-y,-z
1/2+x,1/2-y,z
loop_
_atom_site_type_symbol
_atom_site_label
_atom_site_fract_x
_atom_site_fract_y
_atom_site_fract_z
Si Si1 0.659149 0.827656 0.886575
Si Si2 0.883794 0.825798 0.940377
Si Si3 0.893961 0.674056 0.624005
Si Si4 0.477414 0.176449 0.167244
Si Si5 0.544971 0.824267 0.644225
Si Si6 0.672312 0.321843 0.509231
Si Si7 0.817651 0.171348 0.792511
O O1 0.597716 0.772759 0.846253
O O2 0.732471 0.805020 0.812145
O O3 0.648416 0.000000 0.915727
O O4 0.659768 0.733077 0.968158
O O5 0.837328 0.787887 0.877335
O O6 0.961425 0.749942 0.907669
O O7 0.896938 0.000000 0.947105
O O8 0.880377 0.500000 0.607579
O O9 0.858192 0.775476 0.567649
O O10 0.857294 0.712281 0.721243
O O11 0.979756 0.705195 0.603173
O O12 0.479522 0.232967 0.259179
O O13 0.489035 0.000000 0.160327
O O14 0.615593 0.732451 0.595382
O O15 0.565410 0.000000 0.639519
O O16 0.680398 0.500000 0.510027
O O17 0.750000 0.250000 0.500000
O O18 0.840093 0.000000 0.763469
#
# Coordination Sequence:
#
# PCOD8109151 Si02
#       7
#     8   8   8   8   8   8   8
#     4  10  22  38  59  85 119 164 211 255 313 375
#     4  11  22  37  58  87 123 160 207 262 315 366
#     4  11  23  42  68  96 127 167 210 255 311 375
#     4  10  21  39  62  88 120 163 207 253 310 373
#     4  10  22  42  67  95 128 166 211 257 310 374
#     4  12  27  45  68  98 132 165 204 254 311 372
#     4  10  22  39  60  89 122 163 211 262 313 369
#
# _framework density 20.500855999999999
#
# number of rings (size 3 to 8) (size 9 to 14) (size 15 to 20)
#    0.000    1.429    1.429    3.429    2.000    6.857 
#    0.000    0.000    0.000    0.000    0.000    0.000 
#    0.000    0.000    0.000    0.000    0.000    0.000 
#
# Total GULP energy -347335.665582 kJ/mol
# GULP energy per Si atom -12404.845199 kJ/mol
# Density = 2.045420 g / cm^3
# Si number density = 20.500856 Si / 1000 Ang^3
#
#
#
# Elastic Constant Matrix: (Units=GPa)
#
#
# Indices 1 2 3 4 5 6 
#
# 1 99.1144 31.5000 7.7748 0.0000 -9.0197 0.0000
# 2 31.5000 69.9275 27.3408 0.0000 -4.7388 0.0000
# 3 7.7748 27.3408 73.7209 0.0000 -3.4771 0.0000
# 4 0.0000 0.0000 0.0000 39.5680 0.0000 -1.2369
# 5 -9.0197 -4.7388 -3.4771 0.0000 32.5975 0.0000
# 6 0.0000 0.0000 0.0000 -1.2369 0.0000 30.0575
#
#
#
# Elastic Compliance Matrix: (Units=1/GPa)
#
#
# Indices 1 2 3 4 5 6 
#
# 1 0.012037 -0.005611 0.000935 0.000000 0.002615 0.000000
# 2 -0.005611 0.019444 -0.006593 0.000000 0.000571 0.000000
# 3 0.000935 -0.006593 0.015958 0.000000 0.001002 0.000000
# 4 0.000000 0.000000 0.000000 0.025305 0.000000 0.001041
# 5 0.002615 0.000571 0.001002 0.000000 0.031591 0.000000
# 6 0.000000 0.000000 0.000000 0.001041 0.000000 0.033312
#
#
# Mechanical properties :
#
#
# Convention : Reuss Voigt Hill
#
# Bulk Modulus (GPa) = 40.15642 41.77714 40.96678
# Shear Modulus (GPa) = 29.67603 32.18776 30.93190
#
# Velocity S-wave (km/s) = 3.80880 3.96671 3.88855
# Velocity P-wave (km/s) = 6.24282 6.43445 6.33936
#
# Compressibility (1/GPa) = 0.02490262
#
# Stress axis : x y z
#
# Youngs Moduli (GPa) = 83.07647 51.42914 62.66300
#
# Poissons Ratio (x) = 0.28855 -0.05857
# Poissons Ratio (y) = 0.46611 0.41311
# Poissons Ratio (z) = -0.07765 0.33905
#
# Static dielectric constant tensor:
#      x y z
#    x 3.887880 0.000000 0.033290 
#    y 0.000000 3.650480 0.000000 
#    z 0.033290 0.000000 3.747640 
# 
# 
# High freq. dielectric constant tensor:
#      x y z
#    x 1.816200 0.000000 -0.000050 
#    y 0.000000 1.794780 0.000000 
#    z -0.000050 0.000000 1.807480 
# 
# From -- ./inp_files/275178.got.cif
#   From: 2010.06.25/outbox.cif.g09.slc.cpg/sg12_138_cif.got.tgz:275178.got - 2010.06.28 00:19:55.
