data_PCOD8109249
_publ_section_title
;
Structure prediction by ZEFSAII (Michael W. Deem and Ramdas Pophale) SiO2 
 PCOD8109249
Probable space group: C 2/M
;
_chemical_formula_sum "Si O2"
_cell_formula_units_Z 48
_cell_length_a 8.707932
_cell_length_b 30.336522
_cell_length_c 14.865009
_cell_angle_alpha 90.000000
_cell_angle_beta 139.883433
_cell_angle_gamma 90.000000
_cell_volume 2530.255094
_symmetry_space_group_name_H-M "C 2/M"
_symmetry_group_IT_number 12
_symmetry_cell_setting 'monoclinic'
loop_
_space_group_symop_operation_xyz
x,y,z
-x,y,-z
-x,-y,-z
x,-y,z
1/2+x,1/2+y,z
1/2-x,1/2+y,-z
1/2-x,1/2-y,-z
1/2+x,1/2-y,z
loop_
_atom_site_type_symbol
_atom_site_label
_atom_site_fract_x
_atom_site_fract_y
_atom_site_fract_z
Si Si1 0.226419 0.122302 0.350348
Si Si2 0.623343 0.450216 0.790432
Si Si3 0.021311 0.202833 0.355160
Si Si4 0.623001 0.206370 0.322598
Si Si5 0.247649 0.129034 0.152288
Si Si6 0.102661 0.449387 0.905299
O O1 0.500000 0.128670 0.500000
O O2 0.054666 0.161892 0.304052
O O3 0.210169 0.117016 0.237703
O O4 0.107047 0.078688 0.339165
O O5 0.532612 0.500000 0.749493
O O6 0.826820 0.443217 0.807230
O O7 0.729829 0.437629 0.935380
O O8 0.236618 0.198967 0.521987
O O9 0.017971 0.244715 0.287008
O O10 0.778047 0.203039 0.301919
O O11 0.423971 0.169863 0.220760
O O12 0.342597 0.084221 0.149907
O O13 0.000000 0.144854 0.000000
O O14 0.148505 0.500000 0.894801
#
# Coordination Sequence:
#
# PCOD8109249 Si02
#       6
#     8   8   8   8   8   8
#     4  12  23  38  59  89 125 159 196 243 301 355
#     4   9  19  38  62  87 119 160 202 244 295 355
#     4  10  21  39  64  85 117 156 202 241 290 363
#     4  10  21  39  63  88 114 158 201 242 293 353
#     4  12  23  38  60  92 125 154 198 250 295 351
#     4   9  19  38  63  87 117 161 204 241 295 358
#
# _framework density 18.970420000000001
#
# number of rings (size 3 to 8) (size 9 to 14) (size 15 to 20)
#    0.000    1.667    3.333    3.000    2.333    1.333 
#    0.000    3.333    0.000    2.000    0.000    0.000 
#    0.000    0.000    0.000    0.000    0.000    0.000 
#
# Total GULP energy -297547.528717 kJ/mol
# GULP energy per Si atom -12397.813697 kJ/mol
# Density = 1.892724 g / cm^3
# Si number density = 18.970420 Si / 1000 Ang^3
#
#
#
# Elastic Constant Matrix: (Units=GPa)
#
#
# Indices 1 2 3 4 5 6 
#
# 1 123.9134 82.7708 39.1122 0.0000 0.5648 0.0000
# 2 82.7708 156.7706 38.7396 0.0000 9.1394 0.0000
# 3 39.1122 38.7396 44.3347 0.0000 9.9230 0.0000
# 4 0.0000 0.0000 0.0000 8.5659 0.0000 28.4224
# 5 0.5648 9.1394 9.9230 0.0000 31.8740 0.0000
# 6 0.0000 0.0000 0.0000 28.4224 0.0000 17.2175
#
#
#
# Elastic Compliance Matrix: (Units=1/GPa)
#
#
# Indices 1 2 3 4 5 6 
#
# 1 0.014742 -0.005844 -0.008831 0.000000 0.004164 0.000000
# 2 -0.005844 0.010453 -0.003580 0.000000 -0.001779 0.000000
# 3 -0.008831 -0.003580 0.035697 0.000000 -0.009930 0.000000
# 4 0.000000 0.000000 0.000000 -0.026073 0.000000 0.043042
# 5 0.004164 -0.001779 -0.009930 0.000000 0.034901 0.000000
# 6 0.000000 0.000000 0.000000 0.043042 0.000000 -0.012972
#
#
# Mechanical properties :
#
#
# Convention : Reuss Voigt Hill
#
# Bulk Modulus (GPa) = 41.01336 71.80709 56.41022
# Shear Modulus (GPa) = 49.31717 22.49124 35.90420
#
# Velocity S-wave (km/s) = 5.10424 3.44698 4.35517
# Velocity P-wave (km/s) = 7.51028 7.33325 7.42229
#
# Compressibility (1/GPa) = 0.02438230
#
# Stress axis : x y z
#
# Youngs Moduli (GPa) = 67.83202 95.67085 28.01365
#
# Poissons Ratio (x) = 0.55910 0.24739
# Poissons Ratio (y) = 0.39641 0.10028
# Poissons Ratio (z) = 0.59903 0.34246
#
# Static dielectric constant tensor:
#      x y z
#    x 3.613240 0.000000 0.036820 
#    y 0.000000 3.542890 0.000000 
#    z 0.036820 0.000000 3.173850 
# 
# 
# High freq. dielectric constant tensor:
#      x y z
#    x 1.755600 0.000000 0.005930 
#    y 0.000000 1.749710 0.000000 
#    z 0.005930 0.000000 1.710420 
# 
# From -- ./inp_files/200110.got.cif
#   From: 2010.06.25/outbox.cif.g09.slc.cpg/sg12_101_cif.got.tgz:200110.got - 2010.06.28 00:19:55.
