data_PCOD8109538
_publ_section_title
;
Structure prediction by ZEFSAII (Michael W. Deem and Ramdas Pophale) SiO2 
 PCOD8109538
Probable space group: C 2/M
;
_chemical_formula_sum "Si O2"
_cell_formula_units_Z 48
_cell_length_a 29.650138
_cell_length_b 9.016481
_cell_length_c 9.285284
_cell_angle_alpha 90.000000
_cell_angle_beta 80.231171
_cell_angle_gamma 90.000000
_cell_volume 2446.334086
_symmetry_space_group_name_H-M "C 2/M"
_symmetry_group_IT_number 12
_symmetry_cell_setting 'monoclinic'
loop_
_space_group_symop_operation_xyz
x,y,z
-x,y,-z
-x,-y,-z
x,-y,z
1/2+x,1/2+y,z
1/2-x,1/2+y,-z
1/2-x,1/2-y,-z
1/2+x,1/2-y,z
loop_
_atom_site_type_symbol
_atom_site_label
_atom_site_fract_x
_atom_site_fract_y
_atom_site_fract_z
Si Si1 0.957384 0.826144 0.420589
Si Si2 0.372244 0.676003 0.658029
Si Si3 0.224728 0.163527 0.391471
Si Si4 0.284544 0.834652 0.081560
Si Si5 0.045227 0.329509 0.882038
Si Si6 0.376612 0.676401 0.981360
O O1 0.911622 0.771447 0.527329
O O2 0.963528 0.734288 0.271845
O O3 0.000000 0.791284 0.500000
O O4 0.954908 0.000000 0.384195
O O5 0.369786 0.500000 0.667045
O O6 0.323078 0.740254 0.632623
O O7 0.383028 0.733777 0.813567
O O8 0.250000 0.250000 0.500000
O O9 0.261225 0.153022 0.246844
O O10 0.212674 0.000000 0.456311
O O11 0.294810 0.000000 0.015739
O O12 0.250000 0.750000 0.000000
O O13 0.330431 0.741088 0.072507
O O14 0.061125 0.500000 0.860895
O O15 0.082953 0.233125 0.941173
O O16 0.000000 0.314749 0.000000
O O17 0.374723 0.500000 0.990302
#
# Coordination Sequence:
#
# PCOD8109538 Si02
#       6
#     8   8   8   8   8   8
#     4  10  21  39  65  93 120 155 201 249 298 359
#     4   9  19  38  60  86 119 155 198 250 301 351
#     4  10  22  39  57  83 121 160 203 249 296 352
#     4  11  22  39  61  89 124 162 207 252 301 358
#     4  11  25  43  62  90 127 160 196 246 303 365
#     4  11  22  40  66  91 120 159 204 254 304 357
#
# _framework density 19.621195
#
# number of rings (size 3 to 8) (size 9 to 14) (size 15 to 20)
#    0.000    1.667    1.667    2.500    2.333    4.333 
#    0.000    1.667    0.000    0.000    0.000    0.000 
#    0.000    0.000    0.000    0.000    0.000    0.000 
#
# Total GULP energy -297609.905866 kJ/mol
# GULP energy per Si atom -12400.412744 kJ/mol
# Density = 1.957654 g / cm^3
# Si number density = 19.621195 Si / 1000 Ang^3
#
#
#
# Elastic Constant Matrix: (Units=GPa)
#
#
# Indices 1 2 3 4 5 6 
#
# 1 127.0556 51.4508 55.8131 0.0000 3.2917 0.0000
# 2 51.4508 103.1698 52.2654 0.0000 7.7685 0.0000
# 3 55.8131 52.2654 120.9834 0.0000 7.2024 0.0000
# 4 0.0000 0.0000 0.0000 29.0072 0.0000 4.0388
# 5 3.2917 7.7685 7.2024 0.0000 39.2765 0.0000
# 6 0.0000 0.0000 0.0000 4.0388 0.0000 31.9312
#
#
#
# Elastic Compliance Matrix: (Units=1/GPa)
#
#
# Indices 1 2 3 4 5 6 
#
# 1 0.010874 -0.003715 -0.003438 0.000000 0.000454 0.000000
# 2 -0.003715 0.013764 -0.004134 0.000000 -0.001653 0.000000
# 3 -0.003438 -0.004134 0.011700 0.000000 -0.001040 0.000000
# 4 0.000000 0.000000 0.000000 0.035092 0.000000 -0.004439
# 5 0.000454 -0.001653 -0.001040 0.000000 0.025940 0.000000
# 6 0.000000 0.000000 0.000000 -0.004439 0.000000 0.031879
#
#
# Mechanical properties :
#
#
# Convention : Reuss Voigt Hill
#
# Bulk Modulus (GPa) = 72.66042 74.47416 73.56729
# Shear Modulus (GPa) = 31.96715 32.82162 32.39439
#
# Velocity S-wave (km/s) = 4.04073 4.09438 4.06764
# Velocity P-wave (km/s) = 7.67346 7.77112 7.72245
#
# Compressibility (1/GPa) = 0.01376265
#
# Stress axis : x y z
#
# Youngs Moduli (GPa) = 91.96573 72.65265 85.47281
#
# Poissons Ratio (x) = 0.26990 0.29389
# Poissons Ratio (y) = 0.34165 0.35334
# Poissons Ratio (z) = 0.31622 0.30034
#
# Static dielectric constant tensor:
#      x y z
#    x 3.624300 0.000000 -0.093420 
#    y 0.000000 3.669570 0.000000 
#    z -0.093420 0.000000 3.529730 
# 
# 
# High freq. dielectric constant tensor:
#      x y z
#    x 1.781470 0.000000 0.000520 
#    y 0.000000 1.752640 0.000000 
#    z 0.000520 0.000000 1.772500 
# 
# From -- ./inp_files/108699.got.cif
#   From: 2010.06.25/outbox.cif.g09.slc.cpg/sg12_55_cif.got.tgz:108699.got - 2010.06.28 00:19:55.
