data_PCOD8109672
_publ_section_title
;
Structure prediction by ZEFSAII (Michael W. Deem and Ramdas Pophale) SiO2 
 PCOD8109672
Probable space group: C 2/M
;
_chemical_formula_sum "Si O2"
_cell_formula_units_Z 32
_cell_length_a 5.452438
_cell_length_b 36.013908
_cell_length_c 6.121502
_cell_angle_alpha 90.000000
_cell_angle_beta 103.499828
_cell_angle_gamma 90.000000
_cell_volume 1168.828550
_symmetry_space_group_name_H-M "C 2/M"
_symmetry_group_IT_number 12
_symmetry_cell_setting 'monoclinic'
loop_
_space_group_symop_operation_xyz
x,y,z
-x,y,-z
-x,-y,-z
x,-y,z
1/2+x,1/2+y,z
1/2-x,1/2+y,-z
1/2-x,1/2-y,-z
1/2+x,1/2-y,z
loop_
_atom_site_type_symbol
_atom_site_label
_atom_site_fract_x
_atom_site_fract_y
_atom_site_fract_z
Si Si1 0.286636 0.540279 0.139091
Si Si2 0.211931 0.381678 0.262217
Si Si3 0.706030 0.648191 0.239431
Si Si4 0.297771 0.234826 0.249940
O O1 0.341281 0.500000 0.264041
O O2 0.296497 0.575276 0.304002
O O3 0.500000 0.546760 0.000000
O O4 0.000000 0.539469 0.000000
O O5 0.254448 0.363102 0.502708
O O6 0.403820 0.360267 0.130106
O O7 0.911870 0.376386 0.141160
O O8 0.760678 0.691218 0.233082
O O9 0.592954 0.244377 0.367390
O O10 0.250000 0.250000 0.000000
#
# Coordination Sequence:
#
# PCOD8109672 Si02
#       4
#     8   8   8   8
#     4  10  21  40  63  93 128 163 204 252 303 368
#     4  10  21  40  60  92 121 164 201 254 311 361
#     4  10  21  40  62  87 127 155 210 254 306 375
#     4  10  21  40  59  86 120 158 206 256 312 364
#
# _framework density 27.377838000000001
#
# number of rings (size 3 to 8) (size 9 to 14) (size 15 to 20)
#    0.000    2.000    0.000    3.000    0.000    0.000 
#   27.000   20.000    0.000    0.000    0.000    0.000 
#    0.000    0.000    0.000    0.000    0.000    0.000 
#
# Total GULP energy -198383.027421 kJ/mol
# GULP energy per Si atom -12398.939214 kJ/mol
# Density = 2.731552 g / cm^3
# Si number density = 27.377838 Si / 1000 Ang^3
#
#
#
# Elastic Constant Matrix: (Units=GPa)
#
#
# Indices 1 2 3 4 5 6 
#
# 1 315.2988 91.7565 92.1783 0.0000 -10.7003 0.0000
# 2 91.7565 305.1024 50.5028 0.0000 -22.6805 0.0000
# 3 92.1783 50.5028 102.2399 0.0000 -18.5291 0.0000
# 4 0.0000 0.0000 0.0000 88.6365 0.0000 -8.8558
# 5 -10.7003 -22.6805 -18.5291 0.0000 61.2804 0.0000
# 6 0.0000 0.0000 0.0000 -8.8558 0.0000 54.9382
#
#
#
# Elastic Compliance Matrix: (Units=1/GPa)
#
#
# Indices 1 2 3 4 5 6 
#
# 1 0.004477 -0.000770 -0.003773 0.000000 -0.000644 0.000000
# 2 -0.000770 0.003742 -0.000982 0.000000 0.000954 0.000000
# 3 -0.003773 -0.000982 0.014264 0.000000 0.003291 0.000000
# 4 0.000000 0.000000 0.000000 0.011467 0.000000 0.001848
# 5 -0.000644 0.000954 0.003291 0.000000 0.017554 0.000000
# 6 0.000000 0.000000 0.000000 0.001848 0.000000 0.018500
#
#
# Mechanical properties :
#
#
# Convention : Reuss Voigt Hill
#
# Bulk Modulus (GPa) = 87.45450 132.39070 109.92260
# Shear Modulus (GPa) = 58.91814 73.51794 66.21804
#
# Velocity S-wave (km/s) = 4.64404 5.18762 4.92334
# Velocity P-wave (km/s) = 7.79545 9.18388 8.51800
#
# Compressibility (1/GPa) = 0.01143452
#
# Stress axis : x y z
#
# Youngs Moduli (GPa) = 223.38049 267.20128 70.10842
#
# Poissons Ratio (x) = 0.20567 0.26449
# Poissons Ratio (y) = 0.17194 0.06883
# Poissons Ratio (z) = 0.84272 0.26234
#
# Static dielectric constant tensor:
#      x y z
#    x 8.443180 0.000000 0.130080 
#    y 0.000000 5.462130 0.000000 
#    z 0.130080 0.000000 5.398180 
# 
# 
# High freq. dielectric constant tensor:
#      x y z
#    x 2.180310 0.000000 -0.003020 
#    y 0.000000 2.097480 0.000000 
#    z -0.003020 0.000000 2.156440 
# 
# From -- ./inp_files/34324.got.cif
#   From: 2010.06.25/outbox.cif.g09.slc.cpg/sg12_18_cif.got.tgz:34324.got - 2010.06.28 00:19:55.
