data_PCOD8109871
_publ_section_title
;
Structure prediction by ZEFSAII (Michael W. Deem and Ramdas Pophale) SiO2 
 PCOD8109871
Probable space group: C 2/M
;
_chemical_formula_sum "Si O2"
_cell_formula_units_Z 44
_cell_length_a 20.685675
_cell_length_b 10.348848
_cell_length_c 11.260975
_cell_angle_alpha 90.000000
_cell_angle_beta 110.582684
_cell_angle_gamma 90.000000
_cell_volume 2256.786543
_symmetry_space_group_name_H-M "C 2/M"
_symmetry_group_IT_number 12
_symmetry_cell_setting 'monoclinic'
loop_
_space_group_symop_operation_xyz
x,y,z
-x,y,-z
-x,-y,-z
x,-y,z
1/2+x,1/2+y,z
1/2-x,1/2+y,-z
1/2-x,1/2-y,-z
1/2+x,1/2-y,z
loop_
_atom_site_type_symbol
_atom_site_label
_atom_site_fract_x
_atom_site_fract_y
_atom_site_fract_z
Si Si1 0.383680 0.500000 0.678061
Si Si2 0.787192 0.143221 0.772639
Si Si3 0.352659 0.755076 0.292690
Si Si4 0.051491 0.500000 0.644001
Si Si5 0.471601 0.500000 0.111813
Si Si6 0.451368 0.000000 0.083839
Si Si7 0.917476 0.000000 0.436673
Si Si8 0.371621 0.260807 0.045090
O O1 0.345360 0.628065 0.706459
O O2 0.464879 0.500000 0.756699
O O3 0.376825 0.500000 0.533747
O O4 0.720046 0.223406 0.684208
O O5 0.761982 0.000000 0.795808
O O6 0.820299 0.211577 0.906034
O O7 0.403732 0.872894 0.347076
O O8 0.392495 0.625771 0.351870
O O9 0.329521 0.749863 0.140181
O O10 0.018251 0.500000 0.758342
O O11 0.000000 0.500000 0.500000
O O12 0.428069 0.371578 0.102180
O O13 0.500000 0.500000 0.000000
O O14 0.406560 0.126428 0.037189
O O15 0.500000 0.000000 0.000000
O O16 0.000000 0.000000 0.500000
#
# Coordination Sequence:
#
# PCOD8109871 Si02
#       8
#     4   8   8   4   4   4   4   8
#     4  10  23  39  65  93 125 161 217 256 307 379
#     4  10  21  40  64  90 118 168 206 244 312 385
#     4  11  23  41  64  91 127 159 212 253 310 372
#     4  10  21  42  64  87 121 176 205 247 318 385
#     4  12  18  36  66  88 118 168 209 251 311 367
#     4  10  24  36  56  95 134 149 203 269 314 360
#     4  12  26  43  63  98 124 156 214 274 301 360
#     4  11  21  38  64  93 125 163 203 261 312 370
#
# _framework density 19.496746999999999
#
# number of rings (size 3 to 8) (size 9 to 14) (size 15 to 20)
#    0.545    0.727    3.636    3.273    0.000    2.909 
#    0.000    0.000    0.000    0.000    0.000    0.000 
#    0.000    0.000    0.000    0.000    0.000    0.000 
#
# Total GULP energy -272608.474227 kJ/mol
# GULP energy per Si atom -12391.294283 kJ/mol
# Density = 1.945237 g / cm^3
# Si number density = 19.496747 Si / 1000 Ang^3
#
#
#
# Elastic Constant Matrix: (Units=GPa)
#
#
# Indices 1 2 3 4 5 6 
#
# 1 101.9162 46.7430 47.6240 0.0000 12.2014 0.0000
# 2 46.7430 152.7369 38.3361 0.0000 14.5903 0.0000
# 3 47.6240 38.3361 114.6921 0.0000 -2.3488 0.0000
# 4 0.0000 0.0000 0.0000 55.1375 0.0000 49.1789
# 5 12.2014 14.5903 -2.3488 0.0000 27.5875 0.0000
# 6 0.0000 0.0000 0.0000 49.1789 0.0000 113.7357
#
#
#
# Elastic Compliance Matrix: (Units=1/GPa)
#
#
# Indices 1 2 3 4 5 6 
#
# 1 0.013958 -0.002494 -0.005070 0.000000 -0.005286 0.000000
# 2 -0.002494 0.008060 -0.001726 0.000000 -0.003306 0.000000
# 3 -0.005070 -0.001726 0.011486 0.000000 0.004133 0.000000
# 4 0.000000 0.000000 0.000000 0.029522 0.000000 -0.012765
# 5 -0.005286 -0.003306 0.004133 0.000000 0.040687 0.000000
# 6 0.000000 0.000000 0.000000 -0.012765 0.000000 0.014312
#
#
# Mechanical properties :
#
#
# Convention : Reuss Voigt Hill
#
# Bulk Modulus (GPa) = 67.01280 70.52792 68.77036
# Shear Modulus (GPa) = 35.31573 55.06828 45.19200
#
# Velocity S-wave (km/s) = 4.26063 5.32035 4.81971
# Velocity P-wave (km/s) = 7.65832 8.60199 8.14384
#
# Compressibility (1/GPa) = 0.01492252
#
# Stress axis : x y z
#
# Youngs Moduli (GPa) = 71.64317 124.07652 87.06253
#
# Poissons Ratio (x) = 0.30945 0.44145
# Poissons Ratio (y) = 0.17868 0.15027
# Poissons Ratio (z) = 0.36326 0.21416
#
# Static dielectric constant tensor:
#      x y z
#    x 3.586500 0.000000 -0.159730 
#    y 0.000000 3.616960 0.000000 
#    z -0.159730 0.000000 3.578340 
# 
# 
# High freq. dielectric constant tensor:
#      x y z
#    x 1.762040 0.000000 -0.002880 
#    y 0.000000 1.766770 0.000000 
#    z -0.002880 0.000000 1.757110 
# 
# From -- ./inp_files/173229.got.cif
#   From: 2010.06.25/outbox.cif.g09.slc.cpg/sg12_87_cif.got.tgz:173229.got - 2010.06.28 00:19:55.
