data_PCOD8109444
_publ_section_title
;
Structure prediction by ZEFSAII (Michael W. Deem and Ramdas Pophale) SiO2 
 PCOD8109444
Probable space group: C 2/M
;
_chemical_formula_sum "Si O2"
_cell_formula_units_Z 56
_cell_length_a 27.053129
_cell_length_b 8.282430
_cell_length_c 13.499435
_cell_angle_alpha 90.000000
_cell_angle_beta 60.611702
_cell_angle_gamma 90.000000
_cell_volume 2635.515586
_symmetry_space_group_name_H-M "C 2/M"
_symmetry_group_IT_number 12
_symmetry_cell_setting 'monoclinic'
loop_
_space_group_symop_operation_xyz
x,y,z
-x,y,-z
-x,-y,-z
x,-y,z
1/2+x,1/2+y,z
1/2-x,1/2+y,-z
1/2-x,1/2-y,-z
1/2+x,1/2-y,z
loop_
_atom_site_type_symbol
_atom_site_label
_atom_site_fract_x
_atom_site_fract_y
_atom_site_fract_z
Si Si1 0.231990 0.686580 0.623808
Si Si2 0.451841 0.808355 0.475030
Si Si3 0.381254 0.683855 0.176550
Si Si4 0.898766 0.684733 0.948636
Si Si5 0.307405 0.685787 0.896917
Si Si6 0.171027 0.312491 0.336770
Si Si7 0.474189 0.809959 0.230699
O O1 0.215083 0.500000 0.633419
O O2 0.250000 0.750000 0.500000
O O3 0.177739 0.786663 0.710847
O O4 0.282407 0.708459 0.652135
O O5 0.500000 0.734982 0.500000
O O6 0.390497 0.746281 0.570416
O O7 0.463743 0.748577 0.352373
O O8 0.454031 0.000000 0.478426
O O9 0.383751 0.500000 0.137536
O O10 0.432238 0.714970 0.201174
O O11 0.386549 0.799085 0.076821
O O12 0.888359 0.500000 0.927114
O O13 0.857241 0.798368 0.927672
O O14 0.962639 0.737642 0.862803
O O15 0.300239 0.500000 0.873369
O O16 0.322173 0.791298 0.786832
O O17 0.250000 0.750000 0.000000
O O18 0.178391 0.500000 0.357505
O O19 0.462804 0.000000 0.231271
#
# Coordination Sequence:
#
# PCOD8109444 Si02
#       7
#     8   8   8   8   8   8   8
#     4  12  25  43  65  91 124 162 207 256 310 368
#     4   9  18  35  61  91 121 156 199 245 293 353
#     4  12  25  41  62  90 125 163 205 254 310 369
#     4  11  23  41  65  92 123 161 207 256 308 368
#     4  12  25  42  63  89 123 161 205 256 311 369
#     4  11  22  39  64  93 125 162 205 252 305 365
#     4  10  21  39  64  92 123 162 207 254 306 365
#
# _framework density 21.248213
#
# number of rings (size 3 to 8) (size 9 to 14) (size 15 to 20)
#    0.000    1.000    0.000    7.714    0.000    6.286 
#    0.000    0.714    0.000    3.000    0.000    0.000 
#    0.000    0.000    0.000    0.000    0.000    0.000 
#
# Total GULP energy -347436.716993 kJ/mol
# GULP energy per Si atom -12408.454178 kJ/mol
# Density = 2.119985 g / cm^3
# Si number density = 21.248213 Si / 1000 Ang^3
#
#
#
# Elastic Constant Matrix: (Units=GPa)
#
#
# Indices 1 2 3 4 5 6 
#
# 1 145.5142 22.7543 56.1982 0.0000 -6.9425 0.0000
# 2 22.7543 65.5594 5.3621 0.0000 -4.3939 0.0000
# 3 56.1982 5.3621 155.6849 0.0000 -8.7148 0.0000
# 4 0.0000 0.0000 0.0000 26.6826 0.0000 4.6846
# 5 -6.9425 -4.3939 -8.7148 0.0000 46.7631 0.0000
# 6 0.0000 0.0000 0.0000 4.6846 0.0000 34.6064
#
#
#
# Elastic Compliance Matrix: (Units=1/GPa)
#
#
# Indices 1 2 3 4 5 6 
#
# 1 0.008441 -0.002660 -0.002930 0.000000 0.000457 0.000000
# 2 -0.002660 0.016220 0.000469 0.000000 0.001217 0.000000
# 3 -0.002930 0.000469 0.007521 0.000000 0.001011 0.000000
# 4 0.000000 0.000000 0.000000 0.038390 0.000000 -0.005197
# 5 0.000457 0.001217 0.001011 0.000000 0.021755 0.000000
# 6 0.000000 0.000000 0.000000 -0.005197 0.000000 0.029600
#
#
# Mechanical properties :
#
#
# Convention : Reuss Voigt Hill
#
# Bulk Modulus (GPa) = 45.57410 59.48751 52.53081
# Shear Modulus (GPa) = 35.84715 40.44003 38.14359
#
# Velocity S-wave (km/s) = 4.11185 4.36732 4.24151
# Velocity P-wave (km/s) = 6.63612 7.31359 6.98308
#
# Compressibility (1/GPa) = 0.02194229
#
# Stress axis : x y z
#
# Youngs Moduli (GPa) = 118.46337 61.65392 132.95625
#
# Poissons Ratio (x) = 0.16397 0.38955
# Poissons Ratio (y) = 0.31506 -0.06242
# Poissons Ratio (z) = 0.34709 -0.02895
#
# Static dielectric constant tensor:
#      x y z
#    x 4.021260 0.000000 -0.043640 
#    y 0.000000 3.913890 0.000000 
#    z -0.043640 0.000000 3.990970 
# 
# 
# High freq. dielectric constant tensor:
#      x y z
#    x 1.850340 0.000000 -0.002350 
#    y 0.000000 1.822050 0.000000 
#    z -0.002350 0.000000 1.850630 
# 
# From -- ./inp_files/180757.got.cif
#   From: 2010.06.25/outbox.cif.g09.slc.cpg/sg12_91_cif.got.tgz:180757.got - 2010.06.28 00:19:55.
