data_PCOD8109880
_publ_section_title
;
Structure prediction by ZEFSAII (Michael W. Deem and Ramdas Pophale) SiO2 
 PCOD8109880
Probable space group: C 2/M
;
_chemical_formula_sum "Si O2"
_cell_formula_units_Z 48
_cell_length_a 9.098253
_cell_length_b 14.946242
_cell_length_c 18.267374
_cell_angle_alpha 90.000000
_cell_angle_beta 82.133805
_cell_angle_gamma 90.000000
_cell_volume 2460.708942
_symmetry_space_group_name_H-M "C 2/M"
_symmetry_group_IT_number 12
_symmetry_cell_setting 'monoclinic'
loop_
_space_group_symop_operation_xyz
x,y,z
-x,y,-z
-x,-y,-z
x,-y,z
1/2+x,1/2+y,z
1/2-x,1/2+y,-z
1/2-x,1/2-y,-z
1/2+x,1/2-y,z
loop_
_atom_site_type_symbol
_atom_site_label
_atom_site_fract_x
_atom_site_fract_y
_atom_site_fract_z
Si Si1 0.697248 0.500000 0.415406
Si Si2 0.226510 0.657146 0.326987
Si Si3 0.362061 0.500000 0.409782
Si Si4 0.876180 0.345364 0.331088
Si Si5 0.082917 0.601829 0.834570
Si Si6 0.638965 0.245859 0.942987
Si Si7 0.759658 0.103197 0.161147
O O1 0.539617 0.500000 0.383255
O O2 0.669777 0.500000 0.502832
O O3 0.792660 0.412732 0.390237
O O4 0.285777 0.586776 0.381094
O O5 0.296330 0.750954 0.344794
O O6 0.285610 0.628531 0.243455
O O7 0.048363 0.661550 0.341675
O O8 0.856467 0.381943 0.250562
O O9 0.113849 0.500000 0.855272
O O10 0.171550 0.664968 0.884471
O O11 0.908791 0.624588 0.850184
O O12 0.632283 0.337863 0.897067
O O13 0.500000 0.223877 0.000000
O O14 0.750000 0.250000 0.000000
O O15 0.800341 0.000000 0.146019
#
# Coordination Sequence:
#
# PCOD8109880 Si02
#       7
#     4   8   4   8   8   8   8
#     4  11  25  45  67  99 137 167 211 267 320 387
#     4  11  22  40  68  98 129 172 218 265 323 383
#     4  11  25  45  67  99 137 169 207 268 326 376
#     4  11  22  40  68  99 129 170 221 265 317 391
#     4  10  21  40  65  90 122 168 215 258 318 385
#     4  12  24  40  61  91 129 166 208 267 322 374
#     4  10  21  40  64  90 125 165 212 265 318 379
#
# _framework density 19.506575000000002
#
# number of rings (size 3 to 8) (size 9 to 14) (size 15 to 20)
#    0.000    1.167    5.000    1.500    0.000    3.333 
#    3.000    0.000    0.000    0.000    0.000    0.000 
#    0.000    0.000    0.000    0.000    0.000    0.000 
#
# Total GULP energy -297595.270493 kJ/mol
# GULP energy per Si atom -12399.802937 kJ/mol
# Density = 1.946218 g / cm^3
# Si number density = 19.506575 Si / 1000 Ang^3
#
#
#
# Elastic Constant Matrix: (Units=GPa)
#
#
# Indices 1 2 3 4 5 6 
#
# 1 87.0350 34.3227 38.0487 0.0000 13.3751 0.0000
# 2 34.3227 156.2407 51.0776 0.0000 10.0410 0.0000
# 3 38.0487 51.0776 99.3371 0.0000 9.1895 0.0000
# 4 0.0000 0.0000 0.0000 60.5262 0.0000 -7.0162
# 5 13.3751 10.0410 9.1895 0.0000 31.8721 0.0000
# 6 0.0000 0.0000 0.0000 -7.0162 0.0000 37.4306
#
#
#
# Elastic Compliance Matrix: (Units=1/GPa)
#
#
# Indices 1 2 3 4 5 6 
#
# 1 0.014704 -0.001489 -0.004458 0.000000 -0.004416 0.000000
# 2 -0.001489 0.007899 -0.003410 0.000000 -0.000880 0.000000
# 3 -0.004458 -0.003410 0.013618 0.000000 -0.000982 0.000000
# 4 0.000000 0.000000 0.000000 0.016889 0.000000 0.003166
# 5 -0.004416 -0.000880 -0.000982 0.000000 0.033789 0.000000
# 6 0.000000 0.000000 0.000000 0.003166 0.000000 0.027309
#
#
# Mechanical properties :
#
#
# Convention : Reuss Voigt Hill
#
# Bulk Modulus (GPa) = 57.11650 65.50119 61.30885
# Shear Modulus (GPa) = 36.03397 40.57670 38.30534
#
# Velocity S-wave (km/s) = 4.30265 4.56582 4.43619
# Velocity P-wave (km/s) = 7.35037 7.83885 7.59854
#
# Compressibility (1/GPa) = 0.01750807
#
# Stress axis : x y z
#
# Youngs Moduli (GPa) = 68.00695 126.60261 73.43101
#
# Poissons Ratio (x) = 0.18852 0.32735
# Poissons Ratio (y) = 0.10126 0.25037
# Poissons Ratio (z) = 0.30317 0.43167
#
# Static dielectric constant tensor:
#      x y z
#    x 3.551330 0.000000 0.061730 
#    y 0.000000 23.923010 0.000000 
#    z 0.061730 0.000000 3.711850 
# 
# 
# High freq. dielectric constant tensor:
#      x y z
#    x 1.756510 0.000000 0.002050 
#    y 0.000000 1.774240 0.000000 
#    z 0.002050 0.000000 1.767260 
# 
# From -- ./inp_files/255822.got.cif
#   From: 2010.06.25/outbox.cif.g09.slc.cpg/sg12_128_cif.got.tgz:255822.got - 2010.06.28 00:19:55.
