data_PCOD8109939
_publ_section_title
;
Structure prediction by ZEFSAII (Michael W. Deem and Ramdas Pophale) SiO2 
 PCOD8109939
Probable space group: C 2/M
;
_chemical_formula_sum "Si O2"
_cell_formula_units_Z 36
_cell_length_a 24.515506
_cell_length_b 9.806997
_cell_length_c 8.040574
_cell_angle_alpha 90.000000
_cell_angle_beta 118.579025
_cell_angle_gamma 90.000000
_cell_volume 1697.605201
_symmetry_space_group_name_H-M "C 2/M"
_symmetry_group_IT_number 12
_symmetry_cell_setting 'monoclinic'
loop_
_space_group_symop_operation_xyz
x,y,z
-x,y,-z
-x,-y,-z
x,-y,z
1/2+x,1/2+y,z
1/2-x,1/2+y,-z
1/2-x,1/2-y,-z
1/2+x,1/2-y,z
loop_
_atom_site_type_symbol
_atom_site_label
_atom_site_fract_x
_atom_site_fract_y
_atom_site_fract_z
Si Si1 0.157669 0.849368 0.024985
Si Si2 0.629375 0.649446 0.610919
Si Si3 0.046804 0.654943 0.921703
Si Si4 0.277697 0.842435 0.400090
Si Si5 0.000000 0.253788 0.500000
O O1 0.228771 0.827193 0.180314
O O2 0.134558 0.000000 0.046153
O O3 0.161583 0.836407 0.834633
O O4 0.109291 0.743097 0.033666
O O5 0.644905 0.500000 0.554974
O O6 0.655501 0.775671 0.542979
O O7 0.555609 0.657791 0.522006
O O8 0.066044 0.500000 0.984699
O O9 0.019320 0.660791 0.692944
O O10 0.000000 0.704335 0.000000
O O11 0.250000 0.750000 0.500000
O O12 0.288514 0.000000 0.467734
#
# Coordination Sequence:
#
# PCOD8109939 Si02
#       5
#     8   8   8   8   4
#     4   9  21  41  61  86 118 158 204 248 307 371
#     4  10  21  40  65  90 120 159 204 254 306 366
#     4  10  22  38  60  90 123 162 207 257 308 364
#     4  11  24  40  60  90 124 161 204 251 306 365
#     4  10  22  40  62  92 128 164 206 254 308 374
#
# _framework density 21.206346
#
# number of rings (size 3 to 8) (size 9 to 14) (size 15 to 20)
#    0.000    2.000    0.000    2.000    3.111    7.556 
#    0.000    0.000    0.000    0.000    0.000    0.000 
#    0.000    0.000    0.000    0.000    0.000    0.000 
#
# Total GULP energy -223076.286477 kJ/mol
# GULP energy per Si atom -12393.127027 kJ/mol
# Density = 2.115808 g / cm^3
# Si number density = 21.206346 Si / 1000 Ang^3
#
#
#
# Elastic Constant Matrix: (Units=GPa)
#
#
# Indices 1 2 3 4 5 6 
#
# 1 122.1618 76.0779 20.6925 0.0000 -2.5470 0.0000
# 2 76.0779 166.9295 18.3669 0.0000 -4.0074 0.0000
# 3 20.6925 18.3669 43.9372 0.0000 -0.0574 0.0000
# 4 0.0000 0.0000 0.0000 20.0130 0.0000 -5.5720
# 5 -2.5470 -4.0074 -0.0574 0.0000 25.7874 0.0000
# 6 0.0000 0.0000 0.0000 -5.5720 0.0000 38.9208
#
#
#
# Elastic Compliance Matrix: (Units=1/GPa)
#
#
# Indices 1 2 3 4 5 6 
#
# 1 0.011927 -0.005040 -0.003510 0.000000 0.000387 0.000000
# 2 -0.005040 0.008434 -0.001151 0.000000 0.000810 0.000000
# 3 -0.003510 -0.001151 0.024893 0.000000 -0.000470 0.000000
# 4 0.000000 0.000000 0.000000 0.052042 0.000000 0.007450
# 5 0.000387 0.000810 -0.000470 0.000000 0.038942 0.000000
# 6 0.000000 0.000000 0.000000 0.007450 0.000000 0.026760
#
#
# Mechanical properties :
#
#
# Convention : Reuss Voigt Hill
#
# Bulk Modulus (GPa) = 38.68085 62.58921 50.63503
# Shear Modulus (GPa) = 26.17569 31.47033 28.82301
#
# Velocity S-wave (km/s) = 3.51712 3.85646 3.69069
# Velocity P-wave (km/s) = 5.89689 7.02909 6.48774
#
# Compressibility (1/GPa) = 0.02585259
#
# Stress axis : x y z
#
# Youngs Moduli (GPa) = 83.84027 118.57072 40.17184
#
# Poissons Ratio (x) = 0.59765 0.14099
# Poissons Ratio (y) = 0.42259 0.04622
# Poissons Ratio (z) = 0.29426 0.13643
#
# Static dielectric constant tensor:
#      x y z
#    x 4.066540 0.000000 -0.054840 
#    y 0.000000 4.162320 0.000000 
#    z -0.054840 0.000000 4.293840 
# 
# 
# High freq. dielectric constant tensor:
#      x y z
#    x 1.829760 0.000000 0.003350 
#    y 0.000000 1.837520 0.000000 
#    z 0.003350 0.000000 1.831140 
# 
# From -- ./inp_files/93129.got.cif
#   From: 2010.06.25/outbox.cif.g09.slc.cpg/sg12_47_cif.got.tgz:93129.got - 2010.06.28 00:19:55.
