data_PCOD8109433
_publ_section_title
;
Structure prediction by ZEFSAII (Michael W. Deem and Ramdas Pophale) SiO2 
 PCOD8109433
Probable space group: C 2/M
;
_chemical_formula_sum "Si O2"
_cell_formula_units_Z 56
_cell_length_a 14.977594
_cell_length_b 8.780681
_cell_length_c 21.237762
_cell_angle_alpha 90.000000
_cell_angle_beta 92.466979
_cell_angle_gamma 90.000000
_cell_volume 2790.463268
_symmetry_space_group_name_H-M "C 2/M"
_symmetry_group_IT_number 12
_symmetry_cell_setting 'monoclinic'
loop_
_space_group_symop_operation_xyz
x,y,z
-x,y,-z
-x,-y,-z
x,-y,z
1/2+x,1/2+y,z
1/2-x,1/2+y,-z
1/2-x,1/2-y,-z
1/2+x,1/2-y,z
loop_
_atom_site_type_symbol
_atom_site_label
_atom_site_fract_x
_atom_site_fract_y
_atom_site_fract_z
Si Si1 0.135682 0.176364 0.437964
Si Si2 0.317202 0.323233 0.417391
Si Si3 0.833371 0.177965 0.140358
Si Si4 0.859696 0.819899 0.869928
Si Si5 0.519698 0.179276 0.641861
Si Si6 0.154640 0.822190 0.995394
Si Si7 0.000718 0.819700 0.773362
O O1 0.225044 0.232536 0.405898
O O2 0.142577 0.204742 0.512427
O O3 0.051806 0.273365 0.412688
O O4 0.119839 0.000000 0.421334
O O5 0.298241 0.500000 0.404264
O O6 0.386216 0.261062 0.368259
O O7 0.740921 0.265912 0.147122
O O8 0.901039 0.222531 0.197789
O O9 0.810548 0.000000 0.140818
O O10 0.884512 0.218458 0.075028
O O11 0.894855 0.767486 0.941516
O O12 0.927156 0.754693 0.819888
O O13 0.860878 0.000000 0.864707
O O14 0.483847 0.231964 0.708279
O O15 0.534018 0.000000 0.640191
O O16 0.166132 0.000000 0.002368
O O17 0.250000 0.750000 0.000000
O O18 0.991195 0.000000 0.762428
#
# Coordination Sequence:
#
# PCOD8109433 Si02
#       7
#     8   8   8   8   8   8   8
#     4  10  21  39  64  92 119 147 182 227 278 331
#     4  10  21  39  64  92 119 147 182 227 278 331
#     4   9  18  33  54  77 104 137 174 222 276 330
#     4   9  18  33  54  77 104 137 174 222 276 330
#     4  12  25  39  57  82 115 155 194 233 276 326
#     4   8  14  27  49  77 102 128 168 217 273 331
#     4  10  22  38  53  74 106 146 188 227 272 327
#
# _framework density 20.068352000000001
#
# number of rings (size 3 to 8) (size 9 to 14) (size 15 to 20)
#    0.000    2.286    0.000    2.571    0.000    6.286 
#    0.000    5.714    0.000    0.000    0.000   11.000 
#    0.000    0.000    0.000    0.000    0.000    0.000 
#
# Total GULP energy -347022.622595 kJ/mol
# GULP energy per Si atom -12393.665093 kJ/mol
# Density = 2.002268 g / cm^3
# Si number density = 20.068352 Si / 1000 Ang^3
#
#
#
# Elastic Constant Matrix: (Units=GPa)
#
#
# Indices 1 2 3 4 5 6 
#
# 1 54.0816 3.3993 21.3887 0.0000 -18.9899 0.0000
# 2 3.3993 33.6577 29.8888 0.0000 -4.1169 0.0000
# 3 21.3887 29.8888 64.1302 0.0000 -19.9713 0.0000
# 4 0.0000 0.0000 0.0000 25.4996 0.0000 0.4039
# 5 -18.9899 -4.1169 -19.9713 0.0000 33.4730 0.0000
# 6 0.0000 0.0000 0.0000 0.4039 0.0000 30.8987
#
#
#
# Elastic Compliance Matrix: (Units=1/GPa)
#
#
# Indices 1 2 3 4 5 6 
#
# 1 0.024740 0.005573 -0.007694 0.000000 0.010131 0.000000
# 2 0.005573 0.054620 -0.029770 0.000000 -0.007883 0.000000
# 3 -0.007694 -0.029770 0.036274 0.000000 0.013616 0.000000
# 4 0.000000 0.000000 0.000000 0.039224 0.000000 -0.000513
# 5 0.010131 -0.007883 0.013616 0.000000 0.042777 0.000000
# 6 0.000000 0.000000 0.000000 -0.000513 0.000000 0.032371
#
#
# Mechanical properties :
#
#
# Convention : Reuss Voigt Hill
#
# Bulk Modulus (GPa) = 19.28527 29.02477 24.15502
# Shear Modulus (GPa) = 16.07338 24.45377 20.26357
#
# Velocity S-wave (km/s) = 2.83314 3.49452 3.18107
# Velocity P-wave (km/s) = 4.50920 5.54767 5.05517
#
# Compressibility (1/GPa) = 0.05185306
#
# Stress axis : x y z
#
# Youngs Moduli (GPa) = 40.41982 18.30820 27.56763
#
# Poissons Ratio (x) = -0.10203 0.21210
# Poissons Ratio (y) = -0.22525 0.82069
# Poissons Ratio (z) = 0.31098 0.54503
#
# Static dielectric constant tensor:
#      x y z
#    x 3.576960 0.000000 -0.114770 
#    y 0.000000 3.549590 0.000000 
#    z -0.114770 0.000000 4.032630 
# 
# 
# High freq. dielectric constant tensor:
#      x y z
#    x 1.776030 0.000000 -0.007190 
#    y 0.000000 1.774010 0.000000 
#    z -0.007190 0.000000 1.791630 
# 
# From -- ./inp_files/308992.got.cif
#   From: 2010.06.25/outbox.cif.g09.slc.cpg/sg12_155_cif.got.tgz:308992.got - 2010.06.28 00:19:55.
