data_PCOD8109973
_publ_section_title
;
Structure prediction by ZEFSAII (Michael W. Deem and Ramdas Pophale) SiO2 
 PCOD8109973
Probable space group: C 2/M
;
_chemical_formula_sum "Si O2"
_cell_formula_units_Z 32
_cell_length_a 13.438812
_cell_length_b 16.243390
_cell_length_c 10.479199
_cell_angle_alpha 90.000000
_cell_angle_beta 141.200659
_cell_angle_gamma 90.000000
_cell_volume 1433.350682
_symmetry_space_group_name_H-M "C 2/M"
_symmetry_group_IT_number 12
_symmetry_cell_setting 'monoclinic'
loop_
_space_group_symop_operation_xyz
x,y,z
-x,y,-z
-x,-y,-z
x,-y,z
1/2+x,1/2+y,z
1/2-x,1/2+y,-z
1/2-x,1/2-y,-z
1/2+x,1/2-y,z
loop_
_atom_site_type_symbol
_atom_site_label
_atom_site_fract_x
_atom_site_fract_y
_atom_site_fract_z
Si Si1 0.844092 0.592974 0.598504
Si Si2 0.184564 0.342284 0.942530
Si Si3 0.684439 0.327856 0.670442
Si Si4 0.185266 0.146970 0.188558
O O1 0.901862 0.500000 0.682280
O O2 0.715028 0.618796 0.575168
O O3 0.763070 0.595788 0.379963
O O4 0.993729 0.654477 0.756263
O O5 0.243255 0.388167 0.873276
O O6 0.250000 0.250000 0.000000
O O7 0.255065 0.379405 0.144776
O O8 0.500000 0.307183 0.500000
O O9 0.780835 0.243137 0.756497
O O10 0.000000 0.130339 0.000000
#
# Coordination Sequence:
#
# PCOD8109973 Si02
#       4
#     8   8   8   8
#     4  12  26  42  63  95 134 171 207 258 323 382
#     4  10  21  40  65  93 122 163 215 260 310 372
#     4  11  22  41  68  95 125 165 217 267 312 372
#     4  11  22  41  68  95 125 165 217 267 312 372
#
# _framework density 22.325310000000002
#
# number of rings (size 3 to 8) (size 9 to 14) (size 15 to 20)
#    0.000    1.000    0.000    9.750    0.000    5.000 
#    0.000    2.500    0.000    0.000    0.000    0.000 
#    0.000    0.000    0.000    0.000    0.000    0.000 
#
# Total GULP energy -198426.976821 kJ/mol
# GULP energy per Si atom -12401.686051 kJ/mol
# Density = 2.227450 g / cm^3
# Si number density = 22.325310 Si / 1000 Ang^3
#
#
#
# Elastic Constant Matrix: (Units=GPa)
#
#
# Indices 1 2 3 4 5 6 
#
# 1 136.8979 14.5090 29.0251 0.0000 -14.6260 0.0000
# 2 14.5090 67.8892 5.8790 0.0000 3.8017 0.0000
# 3 29.0251 5.8790 123.2511 0.0000 7.0533 0.0000
# 4 0.0000 0.0000 0.0000 16.5334 0.0000 2.3703
# 5 -14.6260 3.8017 7.0533 0.0000 57.2095 0.0000
# 6 0.0000 0.0000 0.0000 2.3703 0.0000 6.8199
#
#
#
# Elastic Compliance Matrix: (Units=1/GPa)
#
#
# Indices 1 2 3 4 5 6 
#
# 1 0.008168 -0.001711 -0.001982 0.000000 0.002446 0.000000
# 2 -0.001711 0.015196 -0.000241 0.000000 -0.001418 0.000000
# 3 -0.001982 -0.000241 0.008681 0.000000 -0.001561 0.000000
# 4 0.000000 0.000000 0.000000 0.063655 0.000000 -0.022124
# 5 0.002446 -0.001418 -0.001561 0.000000 0.018392 0.000000
# 6 0.000000 0.000000 0.000000 -0.022124 0.000000 0.154320
#
#
# Mechanical properties :
#
#
# Convention : Reuss Voigt Hill
#
# Bulk Modulus (GPa) = 41.36097 47.42934 44.39516
# Shear Modulus (GPa) = 17.58476 34.68756 26.13616
#
# Velocity S-wave (km/s) = 2.80957 3.94602 3.42526
# Velocity P-wave (km/s) = 5.39367 6.48477 5.96422
#
# Compressibility (1/GPa) = 0.02417738
#
# Stress axis : x y z
#
# Youngs Moduli (GPa) = 122.43552 65.80782 115.19365
#
# Poissons Ratio (x) = 0.11259 0.22829
# Poissons Ratio (y) = 0.20947 0.02774
# Poissons Ratio (z) = 0.24264 0.01585
#
# Static dielectric constant tensor:
#      x y z
#    x 4.733750 0.000000 -0.521560 
#    y 0.000000 3.550150 0.000000 
#    z -0.521560 0.000000 4.257080 
# 
# 
# High freq. dielectric constant tensor:
#      x y z
#    x 1.906130 0.000000 -0.011650 
#    y 0.000000 1.835570 0.000000 
#    z -0.011650 0.000000 1.896100 
# 
# From -- ./inp_files/145909.got.cif
#   From: 2010.06.25/outbox.cif.g09.slc.cpg/sg12_73_cif.got.tgz:145909.got - 2010.06.28 00:19:55.
