data_PCOD8109057
_publ_section_title
;
Structure prediction by ZEFSAII (Michael W. Deem and Ramdas Pophale) SiO2 
 PCOD8109057
Probable space group: C 2/M
;
_chemical_formula_sum "Si O2"
_cell_formula_units_Z 48
_cell_length_a 13.154937
_cell_length_b 19.175618
_cell_length_c 12.324724
_cell_angle_alpha 90.000000
_cell_angle_beta 133.067134
_cell_angle_gamma 90.000000
_cell_volume 2271.264561
_symmetry_space_group_name_H-M "C 2/M"
_symmetry_group_IT_number 12
_symmetry_cell_setting 'monoclinic'
loop_
_space_group_symop_operation_xyz
x,y,z
-x,y,-z
-x,-y,-z
x,-y,z
1/2+x,1/2+y,z
1/2-x,1/2+y,-z
1/2-x,1/2-y,-z
1/2+x,1/2-y,z
loop_
_atom_site_type_symbol
_atom_site_label
_atom_site_fract_x
_atom_site_fract_y
_atom_site_fract_z
Si Si1 0.452834 0.076430 0.851961
Si Si2 0.851295 0.105917 0.388510
Si Si3 0.816629 0.821934 0.586498
Si Si4 0.662403 0.920218 0.641934
Si Si5 0.164304 0.649398 0.868050
Si Si6 0.373838 0.691630 0.192790
O O1 0.287005 0.062798 0.737496
O O2 0.510343 0.127785 0.800173
O O3 0.521560 0.000000 0.885300
O O4 0.500000 0.109944 0.000000
O O5 0.821622 0.131209 0.485902
O O6 0.868971 0.167618 0.313995
O O7 0.000000 0.063871 0.500000
O O8 0.750000 0.750000 0.500000
O O9 0.733372 0.863376 0.617184
O O10 0.971919 0.810193 0.745097
O O11 0.500000 0.914552 0.500000
O O12 0.699334 0.900797 0.793017
O O13 0.713704 0.000000 0.657614
O O14 0.174168 0.728704 0.836822
O O15 0.276981 0.641841 0.047320
#
# Coordination Sequence:
#
# PCOD8109057 Si02
#       6
#     8   8   8   8   8   8
#     4  11  22  38  61  88 120 160 204 250 308 373
#     4  10  21  39  61  89 126 156 207 260 311 364
#     4  11  22  39  64  92 125 167 212 263 316 377
#     4  11  24  42  64  91 127 171 215 260 322 393
#     4  11  22  40  64  90 128 161 208 267 313 381
#     4  10  22  39  62  96 122 161 209 263 322 374
#
# _framework density 21.133600999999999
#
# number of rings (size 3 to 8) (size 9 to 14) (size 15 to 20)
#    0.000    1.333    1.667    4.500    0.000    4.333 
#    0.000    5.000    0.000    0.000    0.000    0.000 
#    0.000    0.000    0.000    0.000    0.000    0.000 
#
# Total GULP energy -297400.168314 kJ/mol
# GULP energy per Si atom -12391.673680 kJ/mol
# Density = 2.108550 g / cm^3
# Si number density = 21.133601 Si / 1000 Ang^3
#
#
#
# Elastic Constant Matrix: (Units=GPa)
#
#
# Indices 1 2 3 4 5 6 
#
# 1 122.1853 37.7594 43.4981 0.0000 0.0326 0.0000
# 2 37.7594 84.9145 13.7932 0.0000 -3.4830 0.0000
# 3 43.4981 13.7932 107.0753 0.0000 10.2566 0.0000
# 4 0.0000 0.0000 0.0000 659.7165 0.0000 99.5507
# 5 0.0326 -3.4830 10.2566 0.0000 44.4376 0.0000
# 6 0.0000 0.0000 0.0000 99.5507 0.0000 45.5659
#
#
#
# Elastic Compliance Matrix: (Units=1/GPa)
#
#
# Indices 1 2 3 4 5 6 
#
# 1 0.010875 -0.004173 -0.003935 0.000000 0.000573 0.000000
# 2 -0.004173 0.013707 -0.000178 0.000000 0.001118 0.000000
# 3 -0.003935 -0.000178 0.011210 0.000000 -0.002598 0.000000
# 4 0.000000 0.000000 0.000000 0.002261 0.000000 -0.004940
# 5 0.000573 0.001118 -0.002598 0.000000 0.023190 0.000000
# 6 0.000000 0.000000 0.000000 -0.004940 0.000000 0.032740
#
#
# Mechanical properties :
#
#
# Convention : Reuss Voigt Hill
#
# Bulk Modulus (GPa) = 52.02958 56.03074 54.03016
# Shear Modulus (GPa) = 42.74946 164.55227 103.65086
#
# Velocity S-wave (km/s) = 4.50246 8.83357 7.01085
# Velocity P-wave (km/s) = 7.19043 11.42859 9.54764
#
# Compressibility (1/GPa) = 0.01921983
#
# Stress axis : x y z
#
# Youngs Moduli (GPa) = 91.95735 72.95597 89.20961
#
# Poissons Ratio (x) = 0.30444 0.35104
# Poissons Ratio (y) = 0.38374 0.01584
# Poissons Ratio (z) = 0.36186 0.01296
#
# Static dielectric constant tensor:
#      x y z
#    x 3.915510 0.000000 0.227840 
#    y 0.000000 3.593430 0.000000 
#    z 0.227840 0.000000 4.292720 
# 
# 
# High freq. dielectric constant tensor:
#      x y z
#    x 1.831200 0.000000 -0.000490 
#    y 0.000000 1.819960 0.000000 
#    z -0.000490 0.000000 1.842660 
# 
# From -- ./inp_files/133728.got.cif
#   From: 2010.06.25/outbox.cif.g09.slc.cpg/sg12_67_cif.got.tgz:133728.got - 2010.06.28 00:19:55.
