data_PCOD8109622
_publ_section_title
;
Structure prediction by ZEFSAII (Michael W. Deem and Ramdas Pophale) SiO2 
 PCOD8109622
Probable space group: C 2/M
;
_chemical_formula_sum "Si O2"
_cell_formula_units_Z 44
_cell_length_a 8.386818
_cell_length_b 19.998209
_cell_length_c 14.314720
_cell_angle_alpha 90.000000
_cell_angle_beta 58.788960
_cell_angle_gamma 90.000000
_cell_volume 2053.390690
_symmetry_space_group_name_H-M "C 2/M"
_symmetry_group_IT_number 12
_symmetry_cell_setting 'monoclinic'
loop_
_space_group_symop_operation_xyz
x,y,z
-x,y,-z
-x,-y,-z
x,-y,z
1/2+x,1/2+y,z
1/2-x,1/2+y,-z
1/2-x,1/2-y,-z
1/2+x,1/2-y,z
loop_
_atom_site_type_symbol
_atom_site_label
_atom_site_fract_x
_atom_site_fract_y
_atom_site_fract_z
Si Si1 0.151240 0.169588 0.288651
Si Si2 0.500000 0.890822 0.500000
Si Si3 0.133973 0.072655 0.688257
Si Si4 0.327361 0.579406 0.113131
Si Si5 0.954747 0.424010 0.121221
Si Si6 0.112008 0.287110 0.612035
O O1 0.294661 0.133218 0.174275
O O2 0.257074 0.178617 0.352409
O O3 0.982370 0.117670 0.347736
O O4 0.048821 0.239684 0.292119
O O5 0.673091 0.937935 0.425082
O O6 0.509058 0.845406 0.589199
O O7 0.154666 0.105673 0.785532
O O8 0.039443 0.000000 0.728542
O O9 0.333106 0.500000 0.110123
O O10 0.131188 0.602563 0.127791
O O11 0.500000 0.608521 0.000000
O O12 0.896148 0.500000 0.172516
O O13 0.000000 0.429333 0.000000
O O14 0.250000 0.250000 0.500000
#
# Coordination Sequence:
#
# PCOD8109622 Si02
#       6
#     8   4   8   8   8   8
#     4  12  23  41  67  93 126 170 221 272 317 383
#     4  12  23  42  64  86 125 168 214 270 326 400
#     4  11  23  38  61  96 131 165 209 266 333 399
#     4   9  18  36  61  90 129 171 206 245 309 390
#     4  10  21  39  67 104 139 170 206 259 329 396
#     4  12  23  42  65  87 117 172 227 270 319 373
#
# _framework density 21.427972
#
# number of rings (size 3 to 8) (size 9 to 14) (size 15 to 20)
#    0.000    1.091    3.636    3.000    0.000    2.909 
#    0.000    4.545    0.000    2.182    0.000    0.000 
#    0.000    0.000    0.000    0.000    0.000    0.000 
#
# Total GULP energy -272560.122955 kJ/mol
# GULP energy per Si atom -12389.096498 kJ/mol
# Density = 2.137920 g / cm^3
# Si number density = 21.427972 Si / 1000 Ang^3
#
#
#
# Elastic Constant Matrix: (Units=GPa)
#
#
# Indices 1 2 3 4 5 6 
#
# 1 142.3048 45.6209 41.6206 0.0000 9.5521 0.0000
# 2 45.6209 74.1622 35.0504 0.0000 12.9807 0.0000
# 3 41.6206 35.0504 96.9681 0.0000 -9.8821 0.0000
# 4 0.0000 0.0000 0.0000 131.6083 0.0000 -155.7044
# 5 9.5521 12.9807 -9.8821 0.0000 38.0318 0.0000
# 6 0.0000 0.0000 0.0000 -155.7044 0.0000 260.4450
#
#
#
# Elastic Compliance Matrix: (Units=1/GPa)
#
#
# Indices 1 2 3 4 5 6 
#
# 1 0.009235 -0.004167 -0.002618 0.000000 -0.001577 0.000000
# 2 -0.004167 0.020367 -0.006343 0.000000 -0.007553 0.000000
# 3 -0.002618 -0.006343 0.014398 0.000000 0.006564 0.000000
# 4 0.000000 0.000000 0.000000 0.025959 0.000000 0.015519
# 5 -0.001577 -0.007553 0.006564 0.000000 0.030973 0.000000
# 6 0.000000 0.000000 0.000000 0.015519 0.000000 0.013118
#
#
# Mechanical properties :
#
#
# Convention : Reuss Voigt Hill
#
# Bulk Modulus (GPa) = 56.35984 62.00212 59.18098
# Shear Modulus (GPa) = 34.19450 98.75990 66.47720
#
# Velocity S-wave (km/s) = 3.99907 6.79627 5.57592
# Velocity P-wave (km/s) = 6.90525 9.51755 8.31463
#
# Compressibility (1/GPa) = 0.01774313
#
# Stress axis : x y z
#
# Youngs Moduli (GPa) = 108.28636 49.09809 69.45326
#
# Poissons Ratio (x) = 0.20461 0.18184
# Poissons Ratio (y) = 0.45126 0.44055
# Poissons Ratio (z) = 0.28351 0.31144
#
# Static dielectric constant tensor:
#      x y z
#    x 4.222260 0.000000 -0.101440 
#    y 0.000000 4.626040 0.000000 
#    z -0.101440 0.000000 3.624430 
# 
# 
# High freq. dielectric constant tensor:
#      x y z
#    x 1.861520 0.000000 -0.008180 
#    y 0.000000 1.823890 0.000000 
#    z -0.008180 0.000000 1.826780 
# 
# From -- ./inp_files/196824.got.cif
#   From: 2010.06.25/outbox.cif.g09.slc.cpg/sg12_99_cif.got.tgz:196824.got - 2010.06.28 00:19:55.
