data_PCOD8109666
_publ_section_title
;
Structure prediction by ZEFSAII (Michael W. Deem and Ramdas Pophale) SiO2 
 PCOD8109666
Probable space group: C 2/M
;
_chemical_formula_sum "Si O2"
_cell_formula_units_Z 64
_cell_length_a 34.955990
_cell_length_b 9.105263
_cell_length_c 15.529984
_cell_angle_alpha 90.000000
_cell_angle_beta 42.771261
_cell_angle_gamma 90.000000
_cell_volume 3356.616246
_symmetry_space_group_name_H-M "C 2/M"
_symmetry_group_IT_number 12
_symmetry_cell_setting 'monoclinic'
loop_
_space_group_symop_operation_xyz
x,y,z
-x,y,-z
-x,-y,-z
x,-y,z
1/2+x,1/2+y,z
1/2-x,1/2+y,-z
1/2-x,1/2-y,-z
1/2+x,1/2-y,z
loop_
_atom_site_type_symbol
_atom_site_label
_atom_site_fract_x
_atom_site_fract_y
_atom_site_fract_z
Si Si1 0.504664 0.325316 0.126378
Si Si2 0.782309 0.328173 0.023644
Si Si3 0.283606 0.673644 0.368651
Si Si4 0.598879 0.833283 0.244315
Si Si5 0.766232 0.670288 0.732849
Si Si6 0.910436 0.174465 0.154679
Si Si7 0.497591 0.326336 0.329998
Si Si8 0.390842 0.832944 0.575388
O O1 0.504633 0.500000 0.128160
O O2 0.446884 0.270931 0.176374
O O3 0.507503 0.261396 0.217909
O O4 0.558909 0.268596 0.983178
O O5 0.768351 0.500000 0.041145
O O6 0.764885 0.266722 0.144643
O O7 0.750000 0.250000 0.000000
O O8 0.848969 0.298608 0.904309
O O9 0.281863 0.500000 0.386337
O O10 0.250000 0.750000 0.500000
O O11 0.256422 0.717503 0.322694
O O12 0.347336 0.736688 0.264666
O O13 0.546622 0.728906 0.311129
O O14 0.619587 0.803782 0.306819
O O15 0.577967 0.000000 0.267698
O O16 0.753559 0.500000 0.774089
O O17 0.832774 0.701538 0.622730
O O18 0.908391 0.000000 0.155559
O O19 0.498681 0.500000 0.328280
O O20 0.437298 0.276298 0.463023
O O21 0.410486 0.000000 0.526615
#
# Coordination Sequence:
#
# PCOD8109666 Si02
#       8
#     8   8   8   8   8   8   8   8
#     4   8  16  31  52  79 108 140 179 230 287 334
#     4  11  22  39  63  90 119 156 198 244 293 350
#     4  10  22  37  60  87 117 155 193 237 291 349
#     4  10  22  40  58  79 113 157 190 221 287 355
#     4  10  22  40  60  87 118 158 203 241 292 358
#     4   8  15  32  54  76 108 146 181 221 281 343
#     4  11  23  34  55  89 113 139 191 249 285 325
#     4  10  21  40  58  74 112 159 191 227 286 356
#
# _framework density 19.06682
#
# number of rings (size 3 to 8) (size 9 to 14) (size 15 to 20)
#    0.000    2.250    1.250    1.875    3.500    4.000 
#    0.000    0.000    0.000    0.000    0.000    4.375 
#    0.000    0.000    0.000    0.000    0.000    0.000 
#
# Total GULP energy -396834.818889 kJ/mol
# GULP energy per Si atom -12401.088090 kJ/mol
# Density = 1.902342 g / cm^3
# Si number density = 19.066820 Si / 1000 Ang^3
#
#
#
# Elastic Constant Matrix: (Units=GPa)
#
#
# Indices 1 2 3 4 5 6 
#
# 1 127.8247 36.9617 68.3666 0.0000 -9.3347 0.0000
# 2 36.9617 58.0864 49.2739 0.0002 -1.2767 -0.0002
# 3 68.3666 49.2739 133.1533 0.0000 -8.1315 0.0000
# 4 0.0000 0.0002 0.0000 33.3336 0.0000 -0.1362
# 5 -9.3347 -1.2767 -8.1315 0.0000 33.1046 0.0000
# 6 0.0000 -0.0002 0.0000 -0.1362 0.0000 19.7634
#
#
#
# Elastic Compliance Matrix: (Units=1/GPa)
#
#
# Indices 1 2 3 4 5 6 
#
# 1 0.011322 -0.003399 -0.004435 0.000000 0.001972 0.000000
# 2 -0.003399 0.026171 -0.008057 0.000000 -0.001928 0.000000
# 3 -0.004435 -0.008057 0.012867 0.000000 0.001599 0.000000
# 4 0.000000 0.000000 0.000000 0.030001 0.000000 0.000207
# 5 0.001972 -0.001928 0.001599 0.000000 0.031082 0.000000
# 6 0.000000 0.000000 0.000000 0.000207 0.000000 0.050600
#
#
# Mechanical properties :
#
#
# Convention : Reuss Voigt Hill
#
# Bulk Modulus (GPa) = 53.82949 69.80762 61.81856
# Shear Modulus (GPa) = 24.99787 28.20448 26.60117
#
# Velocity S-wave (km/s) = 3.62479 3.85027 3.73923
# Velocity P-wave (km/s) = 6.76847 7.51383 7.15087
#
# Compressibility (1/GPa) = 0.01857718
#
# Stress axis : x y z
#
# Youngs Moduli (GPa) = 88.32247 38.21011 77.72096
#
# Poissons Ratio (x) = 0.12988 0.34469
# Poissons Ratio (y) = 0.30021 0.62622
# Poissons Ratio (z) = 0.39171 0.30787
#
# Static dielectric constant tensor:
#      x y z
#    x 3.707620 0.000000 0.010590 
#    y 0.000000 3.215910 0.000000 
#    z 0.010590 0.000000 3.662300 
# 
# 
# High freq. dielectric constant tensor:
#      x y z
#    x 1.751250 0.000000 -0.002430 
#    y 0.000000 1.711790 0.000000 
#    z -0.002430 0.000000 1.752200 
# 
# From -- ./inp_files/249892.got.cif
#   From: 2010.06.25/outbox.cif.g09.slc.cpg/sg12_125_cif.got.tgz:249892.got - 2010.06.28 00:19:55.
