data_PCOD8109306
_publ_section_title
;
Structure prediction by ZEFSAII (Michael W. Deem and Ramdas Pophale) SiO2 
 PCOD8109306
Probable space group: C 2/M
;
_chemical_formula_sum "Si O2"
_cell_formula_units_Z 64
_cell_length_a 30.294498
_cell_length_b 8.413627
_cell_length_c 16.180636
_cell_angle_alpha 90.000000
_cell_angle_beta 132.598855
_cell_angle_gamma 90.000000
_cell_volume 3035.887561
_symmetry_space_group_name_H-M "C 2/M"
_symmetry_group_IT_number 12
_symmetry_cell_setting 'monoclinic'
loop_
_space_group_symop_operation_xyz
x,y,z
-x,y,-z
-x,-y,-z
x,-y,z
1/2+x,1/2+y,z
1/2-x,1/2+y,-z
1/2-x,1/2-y,-z
1/2+x,1/2-y,z
loop_
_atom_site_type_symbol
_atom_site_label
_atom_site_fract_x
_atom_site_fract_y
_atom_site_fract_z
Si Si1 0.340522 0.312759 0.774864
Si Si2 0.828650 0.682304 0.283345
Si Si3 0.988845 0.684816 0.247529
Si Si4 0.115567 0.311672 0.335551
Si Si5 0.449805 0.315270 0.371562
Si Si6 0.792450 0.685232 0.415738
Si Si7 0.611592 0.685327 0.990336
Si Si8 0.774933 0.683518 0.947412
O O1 0.334547 0.500000 0.777701
O O2 0.382723 0.268223 0.751970
O O3 0.273812 0.237240 0.677682
O O4 0.371048 0.246040 0.897109
O O5 0.810320 0.500000 0.242782
O O6 0.890351 0.716520 0.315354
O O7 0.833766 0.715287 0.387611
O O8 0.775844 0.795989 0.185755
O O9 0.987096 0.500000 0.268480
O O10 0.970408 0.784481 0.304423
O O11 0.054840 0.739769 0.304081
O O12 0.945378 0.719132 0.115481
O O13 0.118401 0.500000 0.328690
O O14 0.171475 0.243976 0.460322
O O15 0.500000 0.258487 0.500000
O O16 0.435266 0.500000 0.364573
O O17 0.783800 0.500000 0.420134
O O18 0.595488 0.500000 0.972616
O O19 0.666896 0.713278 0.999258
O O20 0.793286 0.500000 0.978542
O O21 0.750000 0.750000 0.000000
#
# Coordination Sequence:
#
# PCOD8109306 Si02
#       8
#     8   8   8   8   8   8   8   8
#     4  10  21  39  63  90 122 158 203 253 311 369
#     4  11  21  38  63  89 122 161 203 248 303 366
#     4  11  24  42  62  89 123 164 211 256 308 369
#     4  10  22  39  62  90 121 158 205 256 307 365
#     4  11  24  41  61  90 127 164 208 258 307 364
#     4   9  18  37  62  90 123 158 199 249 304 368
#     4  11  23  42  64  88 122 163 206 255 307 366
#     4  12  24  39  60  88 121 157 200 248 304 364
#
# _framework density 21.081150000000001
#
# number of rings (size 3 to 8) (size 9 to 14) (size 15 to 20)
#    0.000    1.375    1.250    4.500    0.000    4.500 
#    0.000    3.750    0.000    0.000    0.000    0.000 
#    0.000    0.000    0.000    0.000    0.000    0.000 
#
# Total GULP energy -396933.024061 kJ/mol
# GULP energy per Si atom -12404.157002 kJ/mol
# Density = 2.103317 g / cm^3
# Si number density = 21.081150 Si / 1000 Ang^3
#
#
#
# Elastic Constant Matrix: (Units=GPa)
#
#
# Indices 1 2 3 4 5 6 
#
# 1 95.4668 10.5584 30.8832 0.0000 -7.6244 0.0000
# 2 10.5584 34.9434 11.4309 0.0000 -2.1223 0.0000
# 3 30.8832 11.4309 128.0960 0.0000 -2.5468 0.0000
# 4 0.0000 0.0000 0.0000 19.4290 0.0000 -0.7912
# 5 -7.6244 -2.1223 -2.5468 0.0000 39.4468 0.0000
# 6 0.0000 0.0000 0.0000 -0.7912 0.0000 31.6936
#
#
#
# Elastic Compliance Matrix: (Units=1/GPa)
#
#
# Indices 1 2 3 4 5 6 
#
# 1 0.011747 -0.002592 -0.002562 0.000000 0.001966 0.000000
# 2 -0.002592 0.030130 -0.002044 0.000000 0.000988 0.000000
# 3 -0.002562 -0.002044 0.008606 0.000000 -0.000050 0.000000
# 4 0.000000 0.000000 0.000000 0.051522 0.000000 0.001286
# 5 0.001966 0.000988 -0.000050 0.000000 0.025781 0.000000
# 6 0.000000 0.000000 0.000000 0.001286 0.000000 0.031584
#
#
# Mechanical properties :
#
#
# Convention : Reuss Voigt Hill
#
# Bulk Modulus (GPa) = 27.71111 40.47234 34.09173
# Shear Modulus (GPa) = 26.91154 31.82279 29.36716
#
# Velocity S-wave (km/s) = 3.57679 3.88949 3.73641
# Velocity P-wave (km/s) = 5.49831 6.27781 5.90094
#
# Compressibility (1/GPa) = 0.03608661
#
# Stress axis : x y z
#
# Youngs Moduli (GPa) = 85.12633 33.18995 116.20195
#
# Poissons Ratio (x) = 0.08603 0.29769
# Poissons Ratio (y) = 0.22065 0.23753
# Poissons Ratio (z) = 0.21808 0.06784
#
# Static dielectric constant tensor:
#      x y z
#    x 3.777740 0.000000 0.039460 
#    y 0.000000 3.694400 0.000000 
#    z 0.039460 0.000000 4.117770 
# 
# 
# High freq. dielectric constant tensor:
#      x y z
#    x 1.831810 0.000000 -0.003580 
#    y 0.000000 1.808740 0.000000 
#    z -0.003580 0.000000 1.839360 
# 
# From -- ./inp_files/249965.got.cif
#   From: 2010.06.25/outbox.cif.g09.slc.cpg/sg12_125_cif.got.tgz:249965.got - 2010.06.28 00:19:55.
