data_PCOD8109645
_publ_section_title
;
Structure prediction by ZEFSAII (Michael W. Deem and Ramdas Pophale) SiO2 
 PCOD8109645
Probable space group: C 2/M
;
_chemical_formula_sum "Si O2"
_cell_formula_units_Z 56
_cell_length_a 28.613597
_cell_length_b 15.549451
_cell_length_c 8.343080
_cell_angle_alpha 90.000000
_cell_angle_beta 47.840892
_cell_angle_gamma 90.000000
_cell_volume 2751.683261
_symmetry_space_group_name_H-M "C 2/M"
_symmetry_group_IT_number 12
_symmetry_cell_setting 'monoclinic'
loop_
_space_group_symop_operation_xyz
x,y,z
-x,y,-z
-x,-y,-z
x,-y,z
1/2+x,1/2+y,z
1/2-x,1/2+y,-z
1/2-x,1/2-y,-z
1/2+x,1/2-y,z
loop_
_atom_site_type_symbol
_atom_site_label
_atom_site_fract_x
_atom_site_fract_y
_atom_site_fract_z
Si Si1 0.277432 0.844282 0.472422
Si Si2 0.662190 0.593190 0.918026
Si Si3 0.510973 0.180736 0.285786
Si Si4 0.612070 0.788186 0.587454
Si Si5 0.554881 0.668088 0.982240
Si Si6 0.860591 0.401429 0.991354
Si Si7 0.823295 0.245722 0.866124
O O1 0.250000 0.750000 0.500000
O O2 0.220917 0.903311 0.662678
O O3 0.329605 0.847318 0.493291
O O4 0.307231 0.885317 0.245873
O O5 0.663051 0.500000 0.002766
O O6 0.599281 0.595908 0.954603
O O7 0.662072 0.670224 0.043971
O O8 0.500000 0.178415 0.500000
O O9 0.447331 0.153818 0.335749
O O10 0.525299 0.278003 0.197367
O O11 0.568802 0.118008 0.104589
O O12 0.595909 0.731763 0.778836
O O13 0.636642 0.727096 0.386191
O O14 0.500000 0.625254 0.000000
O O15 0.857283 0.500000 0.940340
O O16 0.846853 0.337926 0.875775
O O17 0.750000 0.250000 0.000000
#
# Coordination Sequence:
#
# PCOD8109645 Si02
#       7
#     8   8   8   8   8   8   8
#     4  12  20  42  66  91 126 170 211 260 323 369
#     4  12  24  41  66  95 127 167 212 264 321 378
#     4  11  20  39  64  92 125 170 213 255 314 374
#     4  11  20  37  70  89 123 173 211 255 317 375
#     4  10  21  39  68  93 122 166 217 259 317 374
#     4  12  25  42  64  93 130 171 212 261 321 381
#     4  12  23  42  64  90 129 170 207 263 315 377
#
# _framework density 20.351179999999999
#
# number of rings (size 3 to 8) (size 9 to 14) (size 15 to 20)
#    0.000    0.571    8.571    0.429    0.000    1.143 
#    0.000    2.857    0.000    8.143    0.000    0.000 
#    0.000    0.000    0.000    0.000    0.000    0.000 
#
# Total GULP energy -347142.302133 kJ/mol
# GULP energy per Si atom -12397.939362 kJ/mol
# Density = 2.030486 g / cm^3
# Si number density = 20.351180 Si / 1000 Ang^3
#
#
#
# Elastic Constant Matrix: (Units=GPa)
#
#
# Indices 1 2 3 4 5 6 
#
# 1 133.5918 44.6530 10.8509 0.0000 -24.4607 0.0000
# 2 44.6530 112.0276 12.1737 0.0000 -4.5172 0.0000
# 3 10.8509 12.1737 82.1327 0.0000 -3.1706 0.0000
# 4 0.0000 0.0000 0.0000 12.8658 0.0000 -5.3659
# 5 -24.4607 -4.5172 -3.1706 0.0000 38.6851 0.0000
# 6 0.0000 0.0000 0.0000 -5.3659 0.0000 9.3579
#
#
#
# Elastic Compliance Matrix: (Units=1/GPa)
#
#
# Indices 1 2 3 4 5 6 
#
# 1 0.009783 -0.003611 -0.000537 0.000000 0.005720 0.000000
# 2 -0.003611 0.010440 -0.001115 0.000000 -0.001155 0.000000
# 3 -0.000537 -0.001115 0.012433 0.000000 0.000550 0.000000
# 4 0.000000 0.000000 0.000000 0.102156 0.000000 0.058577
# 5 0.005720 -0.001155 0.000550 0.000000 0.029377 0.000000
# 6 0.000000 0.000000 0.000000 0.058577 0.000000 0.140449
#
#
# Mechanical properties :
#
#
# Convention : Reuss Voigt Hill
#
# Bulk Modulus (GPa) = 45.18353 51.45635 48.31994
# Shear Modulus (GPa) = 15.50196 29.52009 22.51103
#
# Velocity S-wave (km/s) = 2.76293 3.81272 3.32946
# Velocity P-wave (km/s) = 5.69460 6.68742 6.21088
#
# Compressibility (1/GPa) = 0.02213196
#
# Stress axis : x y z
#
# Youngs Moduli (GPa) = 102.21498 95.78472 80.43255
#
# Poissons Ratio (x) = 0.34584 0.04315
# Poissons Ratio (y) = 0.36905 0.08968
# Poissons Ratio (z) = 0.05484 0.10680
#
# Static dielectric constant tensor:
#      x y z
#    x 4.152870 0.000000 -0.249940 
#    y 0.000000 3.344420 0.000000 
#    z -0.249940 0.000000 4.037070 
# 
# 
# High freq. dielectric constant tensor:
#      x y z
#    x 1.815730 0.000000 -0.013450 
#    y 0.000000 1.748020 0.000000 
#    z -0.013450 0.000000 1.814050 
# 
# From -- ./inp_files/111552.got.cif
#   From: 2010.06.25/outbox.cif.g09.slc.cpg/sg12_56_cif.got.tgz:111552.got - 2010.06.28 00:19:55.
