data_PCOD8109302
_publ_section_title
;
Structure prediction by ZEFSAII (Michael W. Deem and Ramdas Pophale) SiO2 
 PCOD8109302
Probable space group: C 2/M
;
_chemical_formula_sum "Si O2"
_cell_formula_units_Z 48
_cell_length_a 34.865384
_cell_length_b 8.820523
_cell_length_c 6.480561
_cell_angle_alpha 90.000000
_cell_angle_beta 84.233826
_cell_angle_gamma 90.000000
_cell_volume 1982.888845
_symmetry_space_group_name_H-M "C 2/M"
_symmetry_group_IT_number 12
_symmetry_cell_setting 'monoclinic'
loop_
_space_group_symop_operation_xyz
x,y,z
-x,y,-z
-x,-y,-z
x,-y,z
1/2+x,1/2+y,z
1/2-x,1/2+y,-z
1/2-x,1/2-y,-z
1/2+x,1/2-y,z
loop_
_atom_site_type_symbol
_atom_site_label
_atom_site_fract_x
_atom_site_fract_y
_atom_site_fract_z
Si Si1 0.860438 0.675370 0.628093
Si Si2 0.435988 0.673329 0.692251
Si Si3 0.209479 0.178133 0.575330
Si Si4 0.988942 0.672674 0.244352
Si Si5 0.840341 0.328527 0.110925
Si Si6 0.585788 0.327245 0.818473
O O1 0.865052 0.500000 0.562966
O O2 0.900612 0.766631 0.567059
O O3 0.823193 0.749876 0.549091
O O4 0.852527 0.692410 0.873370
O O5 0.444458 0.500000 0.631223
O O6 0.474944 0.772344 0.633342
O O7 0.425208 0.691115 0.936978
O O8 0.250000 0.250000 0.500000
O O9 0.196858 0.223678 0.815904
O O10 0.212045 0.000000 0.544978
O O11 0.979235 0.500000 0.304476
O O12 0.950655 0.775422 0.303154
O O13 0.000000 0.690193 0.000000
O O14 0.829704 0.500000 0.172912
O O15 0.876223 0.277459 0.241557
O O16 0.596407 0.500000 0.760138
#
# Coordination Sequence:
#
# PCOD8109302 Si02
#       6
#     8   8   8   8   8   8
#     4  10  21  39  63  90 121 157 197 242 293 350
#     4   9  16  27  46  75 111 151 195 241 289 341
#     4  12  26  44  66  91 120 153 192 240 294 354
#     4   9  15  23  39  68 107 150 196 243 288 336
#     4  10  21  39  63  90 121 157 197 242 293 350
#     4   9  16  27  46  75 111 151 195 241 289 341
#
# _framework density 24.207107000000001
#
# number of rings (size 3 to 8) (size 9 to 14) (size 15 to 20)
#    0.000    2.167    0.000    4.000    0.000    8.667 
#    0.000    0.000    0.000    1.000    0.000    7.000 
#    0.000    0.000    0.000    0.000    0.000    0.000 
#
# Total GULP energy -297724.180101 kJ/mol
# GULP energy per Si atom -12405.174171 kJ/mol
# Density = 2.415201 g / cm^3
# Si number density = 24.207107 Si / 1000 Ang^3
#
#
#
# Elastic Constant Matrix: (Units=GPa)
#
#
# Indices 1 2 3 4 5 6 
#
# 1 183.6549 110.1811 33.6782 0.0000 -3.8461 0.0000
# 2 110.1811 212.6563 6.6965 0.0000 -8.4865 0.0000
# 3 33.6782 6.6965 24.8580 0.0000 11.0514 0.0000
# 4 0.0000 0.0000 0.0000 27.9428 0.0000 -3.0530
# 5 -3.8461 -8.4865 11.0514 0.0000 36.4920 0.0000
# 6 0.0000 0.0000 0.0000 -3.0530 0.0000 53.7181
#
#
#
# Elastic Compliance Matrix: (Units=1/GPa)
#
#
# Indices 1 2 3 4 5 6 
#
# 1 0.011932 -0.005442 -0.016982 0.000000 0.005135 0.000000
# 2 -0.005442 0.007321 0.005662 0.000000 -0.000586 0.000000
# 3 -0.016982 0.005662 0.071556 0.000000 -0.022143 0.000000
# 4 0.000000 0.000000 0.000000 0.036011 0.000000 0.002047
# 5 0.005135 -0.000586 -0.022143 0.000000 0.034514 0.000000
# 6 0.000000 0.000000 0.000000 0.002047 0.000000 0.018732
#
#
# Mechanical properties :
#
#
# Convention : Reuss Voigt Hill
#
# Bulk Modulus (GPa) = 17.45729 80.25342 48.85535
# Shear Modulus (GPa) = 21.48825 41.67146 31.57985
#
# Velocity S-wave (km/s) = 2.98263 4.15354 3.61580
# Velocity P-wave (km/s) = 4.36907 7.49849 6.13662
#
# Compressibility (1/GPa) = 0.05728267
#
# Stress axis : x y z
#
# Youngs Moduli (GPa) = 83.80981 136.60169 13.97509
#
# Poissons Ratio (x) = 0.74344 0.23733
# Poissons Ratio (y) = 0.45613 -0.07912
# Poissons Ratio (z) = 1.42328 -0.77342
#
# Static dielectric constant tensor:
#      x y z
#    x 4.119870 0.000000 -0.123090 
#    y 0.000000 4.373550 0.000000 
#    z -0.123090 0.000000 5.070210 
# 
# 
# High freq. dielectric constant tensor:
#      x y z
#    x 1.963520 0.000000 -0.011670 
#    y 0.000000 1.961490 0.000000 
#    z -0.011670 0.000000 2.017450 
# 
# From -- ./inp_files/108735.got.cif
#   From: 2010.06.25/outbox.cif.g09.slc.cpg/sg12_55_cif.got.tgz:108735.got - 2010.06.28 00:19:55.
