data_PCOD8109080
_publ_section_title
;
Structure prediction by ZEFSAII (Michael W. Deem and Ramdas Pophale) SiO2 
 PCOD8109080
Probable space group: C 2/M
;
_chemical_formula_sum "Si O2"
_cell_formula_units_Z 40
_cell_length_a 13.921810
_cell_length_b 18.783029
_cell_length_c 13.740952
_cell_angle_alpha 90.000000
_cell_angle_beta 148.103448
_cell_angle_gamma 90.000000
_cell_volume 1898.586892
_symmetry_space_group_name_H-M "C 2/M"
_symmetry_group_IT_number 12
_symmetry_cell_setting 'monoclinic'
loop_
_space_group_symop_operation_xyz
x,y,z
-x,y,-z
-x,-y,-z
x,-y,z
1/2+x,1/2+y,z
1/2-x,1/2+y,-z
1/2-x,1/2-y,-z
1/2+x,1/2-y,z
loop_
_atom_site_type_symbol
_atom_site_label
_atom_site_fract_x
_atom_site_fract_y
_atom_site_fract_z
Si Si1 0.590329 0.140789 0.975261
Si Si2 0.441257 0.420818 0.216445
Si Si3 0.900350 0.712003 0.516525
Si Si4 0.492989 0.724367 0.196980
Si Si5 0.151198 0.579713 0.399620
O O1 0.639221 0.218638 0.969938
O O2 0.450592 0.099580 0.786273
O O3 0.500000 0.152771 0.000000
O O4 0.773470 0.094256 0.145159
O O5 0.420414 0.500000 0.151798
O O6 0.430729 0.357932 0.124997
O O7 0.633014 0.414620 0.437105
O O8 0.693145 0.738095 0.324011
O O9 0.904502 0.630989 0.559683
O O10 0.000000 0.717372 0.500000
O O11 0.998714 0.763212 0.679151
O O12 0.097711 0.500000 0.385481
#
# Coordination Sequence:
#
# PCOD8109080 Si02
#       5
#     8   8   8   8   8
#     4  11  23  37  60  90 117 158 201 245 290 352
#     4  10  21  39  62  82 117 159 192 243 301 348
#     4   9  18  34  62  88 115 154 200 246 291 350
#     4   9  20  38  56  88 120 153 198 246 293 347
#     4   9  20  39  58  86 123 155 193 241 296 353
#
# _framework density 21.068301999999999
#
# number of rings (size 3 to 8) (size 9 to 14) (size 15 to 20)
#    0.000    2.400    0.000    2.400    2.800    2.800 
#    0.000    2.000    0.000    0.600    0.000    0.000 
#    0.000    0.000    0.000    0.000    0.000    0.000 
#
# Total GULP energy -247893.487548 kJ/mol
# GULP energy per Si atom -12394.674377 kJ/mol
# Density = 2.102035 g / cm^3
# Si number density = 21.068302 Si / 1000 Ang^3
#
#
#
# Elastic Constant Matrix: (Units=GPa)
#
#
# Indices 1 2 3 4 5 6 
#
# 1 130.0105 37.8902 38.0709 0.0000 -9.5899 0.0000
# 2 37.8902 167.0885 32.5149 0.0000 7.9670 0.0000
# 3 38.0709 32.5149 56.4589 0.0000 11.6443 0.0000
# 4 0.0000 0.0000 0.0000 24.6581 0.0000 11.5036
# 5 -9.5899 7.9670 11.6443 0.0000 20.2280 0.0000
# 6 0.0000 0.0000 0.0000 11.5036 0.0000 13.0272
#
#
#
# Elastic Compliance Matrix: (Units=1/GPa)
#
#
# Indices 1 2 3 4 5 6 
#
# 1 0.011726 -0.001360 -0.009510 0.000000 0.011569 0.000000
# 2 -0.001360 0.006902 -0.002683 0.000000 -0.001819 0.000000
# 3 -0.009510 -0.002683 0.029936 0.000000 -0.020684 0.000000
# 4 0.000000 0.000000 0.000000 0.068966 0.000000 -0.060900
# 5 0.011569 -0.001819 -0.020684 0.000000 0.067545 0.000000
# 6 0.000000 0.000000 0.000000 -0.060900 0.000000 0.130540
#
#
# Mechanical properties :
#
#
# Convention : Reuss Voigt Hill
#
# Bulk Modulus (GPa) = 46.60150 63.38997 54.99574
# Shear Modulus (GPa) = 14.29092 27.92146 21.10619
#
# Velocity S-wave (km/s) = 2.60727 3.64439 3.16855
# Velocity P-wave (km/s) = 5.58848 6.91823 6.28860
#
# Compressibility (1/GPa) = 0.02145854
#
# Stress axis : x y z
#
# Youngs Moduli (GPa) = 85.27844 144.88451 33.40505
#
# Poissons Ratio (x) = 0.19707 0.31768
# Poissons Ratio (y) = 0.11599 0.08961
# Poissons Ratio (z) = 0.81100 0.38866
#
# Static dielectric constant tensor:
#      x y z
#    x 3.413280 0.000000 0.368120 
#    y 0.000000 4.384210 0.000000 
#    z 0.368120 0.000000 3.844180 
# 
# 
# High freq. dielectric constant tensor:
#      x y z
#    x 1.792520 0.000000 0.041210 
#    y 0.000000 1.849400 0.000000 
#    z 0.041210 0.000000 1.820720 
# 
# From -- ./inp_files/62122.got.cif
#   From: 2010.06.25/outbox.cif.g09.slc.cpg/sg12_32_cif.got.tgz:62122.got - 2010.06.28 00:19:55.
