data_PCOD8109232
_publ_section_title
;
Structure prediction by ZEFSAII (Michael W. Deem and Ramdas Pophale) SiO2 
 PCOD8109232
Probable space group: C 2/M
;
_chemical_formula_sum "Si O2"
_cell_formula_units_Z 48
_cell_length_a 27.332914
_cell_length_b 14.233125
_cell_length_c 11.721270
_cell_angle_alpha 90.000000
_cell_angle_beta 26.006946
_cell_angle_gamma 90.000000
_cell_volume 1999.450981
_symmetry_space_group_name_H-M "C 2/M"
_symmetry_group_IT_number 12
_symmetry_cell_setting 'monoclinic'
loop_
_space_group_symop_operation_xyz
x,y,z
-x,y,-z
-x,-y,-z
x,-y,z
1/2+x,1/2+y,z
1/2-x,1/2+y,-z
1/2-x,1/2-y,-z
1/2+x,1/2-y,z
loop_
_atom_site_type_symbol
_atom_site_label
_atom_site_fract_x
_atom_site_fract_y
_atom_site_fract_z
Si Si1 0.361235 0.720211 0.327137
Si Si2 0.386148 0.609018 0.060376
Si Si3 0.531968 0.607683 0.552302
Si Si4 0.760521 0.892480 0.745206
Si Si5 0.527184 0.109266 0.318875
Si Si6 0.874895 0.606459 0.428062
O O1 0.250000 0.750000 0.500000
O O2 0.427891 0.664249 0.087270
O O3 0.327231 0.655478 0.503629
O O4 0.425318 0.815243 0.235907
O O5 0.413793 0.500000 0.024149
O O6 0.257875 0.622058 0.292704
O O7 0.460643 0.654184 0.803700
O O8 0.500000 0.657841 0.500000
O O9 0.492852 0.500000 0.628059
O O10 0.663784 0.617019 0.299709
O O11 0.746009 0.000000 0.737352
O O12 0.639855 0.846789 0.026389
O O13 0.500000 0.154443 0.500000
O O14 0.422096 0.125759 0.455869
O O15 0.552984 0.000000 0.283210
O O16 0.905776 0.500000 0.323504
#
# Coordination Sequence:
#
# PCOD8109232 Si02
#       6
#     8   8   8   8   8   8
#     4  10  21  40  60  89 126 163 209 255 309 368
#     4   9  18  35  62  93 126 164 205 252 314 374
#     4   9  19  35  60  95 129 164 202 251 311 374
#     4  10  21  39  62  94 129 161 205 254 309 372
#     4   9  19  37  64  92 123 167 210 256 312 370
#     4   9  19  38  63  91 121 161 210 262 312 365
#
# _framework density 24.006591
#
# number of rings (size 3 to 8) (size 9 to 14) (size 15 to 20)
#    0.000    2.667    0.000    0.500    2.333    1.333 
#    9.000    6.667    0.000   13.000    0.000    0.000 
#    0.000    0.667    0.000    0.000    0.000    0.000 
#
# Total GULP energy -297450.455624 kJ/mol
# GULP energy per Si atom -12393.768984 kJ/mol
# Density = 2.395195 g / cm^3
# Si number density = 24.006591 Si / 1000 Ang^3
#
#
#
# Elastic Constant Matrix: (Units=GPa)
#
#
# Indices 1 2 3 4 5 6 
#
# 1 181.3623 60.5625 62.5841 0.0000 18.1166 0.0000
# 2 60.5625 93.9610 36.3595 0.0000 13.1059 0.0000
# 3 62.5841 36.3595 123.1969 0.0000 25.2655 0.0000
# 4 0.0000 0.0000 0.0000 5.8462 0.0000 -14.8544
# 5 18.1166 13.1059 25.2655 0.0000 42.6731 0.0000
# 6 0.0000 0.0000 0.0000 -14.8544 0.0000 -4.9297
#
#
#
# Elastic Compliance Matrix: (Units=1/GPa)
#
#
# Indices 1 2 3 4 5 6 
#
# 1 0.007805 -0.003913 -0.002706 0.000000 -0.000510 0.000000
# 2 -0.003913 0.014100 -0.001851 0.000000 -0.001573 0.000000
# 3 -0.002706 -0.001851 0.011024 0.000000 -0.004810 0.000000
# 4 0.000000 0.000000 0.000000 0.019760 0.000000 -0.059543
# 5 -0.000510 -0.001573 -0.004810 0.000000 0.026982 0.000000
# 6 0.000000 0.000000 0.000000 -0.059543 0.000000 -0.023434
#
#
# Mechanical properties :
#
#
# Convention : Reuss Voigt Hill
#
# Bulk Modulus (GPa) = 62.53565 79.72584 71.13075
# Shear Modulus (GPa) = 63.68898 24.65219 44.17059
#
# Velocity S-wave (km/s) = 5.15630 3.20799 4.29410
# Velocity P-wave (km/s) = 7.84575 6.85592 7.36748
#
# Compressibility (1/GPa) = 0.01599088
#
# Stress axis : x y z
#
# Youngs Moduli (GPa) = 128.12398 70.92005 90.70845
#
# Poissons Ratio (x) = 0.27748 0.24542
# Poissons Ratio (y) = 0.50129 0.16792
# Poissons Ratio (z) = 0.34665 0.13129
#
# Static dielectric constant tensor:
#      x y z
#    x 4.587490 0.000000 0.261940 
#    y 0.000000 4.540830 0.000000 
#    z 0.261940 0.000000 4.465060 
# 
# 
# High freq. dielectric constant tensor:
#      x y z
#    x 1.967520 0.000000 -0.011200 
#    y 0.000000 1.946430 0.000000 
#    z -0.011200 0.000000 1.944280 
# 
# From -- ./inp_files/183691.got.cif
#   From: 2010.06.25/outbox.cif.g09.slc.cpg/sg12_92_cif.got.tgz:183691.got - 2010.06.28 00:19:55.
