data_PCOD8109598
_publ_section_title
;
Structure prediction by ZEFSAII (Michael W. Deem and Ramdas Pophale) SiO2 
 PCOD8109598
Probable space group: C 2/M
;
_chemical_formula_sum "Si O2"
_cell_formula_units_Z 52
_cell_length_a 22.449506
_cell_length_b 18.332202
_cell_length_c 15.369681
_cell_angle_alpha 90.000000
_cell_angle_beta 24.012749
_cell_angle_gamma 90.000000
_cell_volume 2574.047513
_symmetry_space_group_name_H-M "C 2/M"
_symmetry_group_IT_number 12
_symmetry_cell_setting 'monoclinic'
loop_
_space_group_symop_operation_xyz
x,y,z
-x,y,-z
-x,-y,-z
x,-y,z
1/2+x,1/2+y,z
1/2-x,1/2+y,-z
1/2-x,1/2-y,-z
1/2+x,1/2-y,z
loop_
_atom_site_type_symbol
_atom_site_label
_atom_site_fract_x
_atom_site_fract_y
_atom_site_fract_z
Si Si1 0.899870 0.586092 0.472436
Si Si2 0.859734 0.820627 0.251360
Si Si3 0.309824 0.915233 0.024383
Si Si4 0.500000 0.177442 0.500000
Si Si5 0.150172 0.185336 0.535987
Si Si6 0.153421 0.414305 0.827009
Si Si7 0.876142 0.211600 0.784262
O O1 0.883028 0.500000 0.510319
O O2 0.752681 0.614812 0.623149
O O3 0.920016 0.625659 0.537565
O O4 0.040373 0.604063 0.225360
O O5 0.905717 0.830637 0.291365
O O6 0.780565 0.743176 0.352347
O O7 0.000000 0.823195 0.000000
O O8 0.270829 0.000000 0.066835
O O9 0.328073 0.889543 0.098650
O O10 0.169238 0.871457 0.176559
O O11 0.616205 0.234956 0.308234
O O12 0.212733 0.111353 0.411456
O O13 0.019273 0.214516 0.652058
O O14 0.150022 0.500000 0.823103
O O15 0.000000 0.380477 0.000000
O O16 0.750000 0.250000 0.000000
#
# Coordination Sequence:
#
# PCOD8109598 Si02
#       7
#     8   8   8   4   8   8   8
#     4  11  24  44  66  96 132 171 219 267 320 385
#     4  11  25  42  65  93 128 168 214 265 324 377
#     4  10  22  41  66  98 133 167 210 268 322 378
#     4  12  23  42  67  96 126 174 218 268 317 386
#     4  11  24  42  63  95 128 165 212 271 316 381
#     4  10  21  39  66  94 125 169 210 257 319 377
#     4  12  24  40  67  95 128 168 219 259 323 386
#
# _framework density 20.201647000000001
#
# number of rings (size 3 to 8) (size 9 to 14) (size 15 to 20)
#    0.000    1.077    3.077    2.538    2.154    5.231 
#    0.000    1.923    0.000    0.000    0.000    0.000 
#    0.000    0.000    0.000    0.000    0.000    0.000 
#
# Total GULP energy -322331.805358 kJ/mol
# GULP energy per Si atom -12397.377129 kJ/mol
# Density = 2.015567 g / cm^3
# Si number density = 20.201647 Si / 1000 Ang^3
#
#
#
# Elastic Constant Matrix: (Units=GPa)
#
#
# Indices 1 2 3 4 5 6 
#
# 1 129.4652 56.2898 58.4303 0.0008 17.5696 -0.0003
# 2 56.2898 79.7211 44.1050 0.0000 5.4166 -0.0001
# 3 58.4303 44.1050 121.3976 0.0016 24.9383 -0.0012
# 4 0.0008 0.0000 0.0016 32.7962 -0.0007 3.1674
# 5 17.5696 5.4166 24.9383 -0.0007 34.3441 0.0005
# 6 -0.0003 -0.0001 -0.0012 3.1674 0.0005 35.4143
#
#
#
# Elastic Compliance Matrix: (Units=1/GPa)
#
#
# Indices 1 2 3 4 5 6 
#
# 1 0.012490 -0.007061 -0.002776 0.000000 -0.003260 0.000000
# 2 -0.007061 0.019804 -0.004580 0.000000 0.003815 0.000000
# 3 -0.002776 -0.004580 0.012691 -0.000001 -0.007072 0.000001
# 4 0.000000 0.000000 -0.000001 0.030757 0.000001 -0.002751
# 5 -0.003260 0.003815 -0.007072 0.000001 0.035318 -0.000001
# 6 0.000000 0.000000 0.000001 -0.002751 -0.000001 0.028483
#
#
# Mechanical properties :
#
#
# Convention : Reuss Voigt Hill
#
# Bulk Modulus (GPa) = 61.92305 72.02602 66.97454
# Shear Modulus (GPa) = 28.77509 31.96151 30.36830
#
# Velocity S-wave (km/s) = 3.77821 3.98191 3.88139
# Velocity P-wave (km/s) = 7.05352 7.54133 7.30150
#
# Compressibility (1/GPa) = 0.01614907
#
# Stress axis : x y z
#
# Youngs Moduli (GPa) = 80.06638 50.49418 78.79892
#
# Poissons Ratio (x) = 0.35655 0.21878
# Poissons Ratio (y) = 0.56537 0.36090
# Poissons Ratio (z) = 0.22230 0.23127
#
# Static dielectric constant tensor:
#      x y z
#    x 3.764540 0.000000 0.229190 
#    y 0.000000 3.617060 0.000000 
#    z 0.229190 0.000000 3.596380 
# 
# 
# High freq. dielectric constant tensor:
#      x y z
#    x 1.798830 0.000000 0.009880 
#    y 0.000000 1.798800 0.000000 
#    z 0.009880 0.000000 1.792620 
# 
# From -- ./inp_files/234447.got.cif
#   From: 2010.06.25/outbox.cif.g09.slc.cpg/sg12_118_cif.got.tgz:234447.got - 2010.06.28 00:19:55.
