data_PCOD8109924
_publ_section_title
;
Structure prediction by ZEFSAII (Michael W. Deem and Ramdas Pophale) SiO2 
 PCOD8109924
Probable space group: C 2/M
;
_chemical_formula_sum "Si O2"
_cell_formula_units_Z 64
_cell_length_a 9.929685
_cell_length_b 14.376502
_cell_length_c 31.639934
_cell_angle_alpha 90.000000
_cell_angle_beta 43.167889
_cell_angle_gamma 90.000000
_cell_volume 3090.069668
_symmetry_space_group_name_H-M "C 2/M"
_symmetry_group_IT_number 12
_symmetry_cell_setting 'monoclinic'
loop_
_space_group_symop_operation_xyz
x,y,z
-x,y,-z
-x,-y,-z
x,-y,z
1/2+x,1/2+y,z
1/2-x,1/2+y,-z
1/2-x,1/2-y,-z
1/2+x,1/2-y,z
loop_
_atom_site_type_symbol
_atom_site_label
_atom_site_fract_x
_atom_site_fract_y
_atom_site_fract_z
Si Si1 0.780009 0.389539 0.550153
Si Si2 0.070480 0.107550 0.681863
Si Si3 0.807507 0.110664 0.521565
Si Si4 0.352615 0.755550 0.844099
Si Si5 0.064281 0.607679 0.341159
Si Si6 0.275936 0.392079 0.055312
Si Si7 0.462843 0.892164 0.056686
Si Si8 0.205033 0.269070 0.237581
O O1 0.791833 0.500000 0.550940
O O2 0.651802 0.353109 0.618699
O O3 0.682890 0.354332 0.528914
O O4 0.000000 0.348286 0.500000
O O5 0.234990 0.123230 0.679516
O O6 0.875289 0.164060 0.738899
O O7 0.008465 0.000000 0.692897
O O8 0.614736 0.148207 0.589785
O O9 0.000000 0.151138 0.500000
O O10 0.802395 0.000000 0.523131
O O11 0.326377 0.836978 0.883770
O O12 0.215549 0.666884 0.883955
O O13 0.575697 0.721441 0.795045
O O14 0.303208 0.797961 0.809581
O O15 0.028554 0.500000 0.338991
O O16 0.069138 0.660921 0.295470
O O17 0.269295 0.500000 0.069077
O O18 0.162288 0.372697 0.037410
O O19 0.500000 0.356967 0.000000
O O20 0.401194 0.000000 0.073750
O O21 0.500000 0.861994 0.000000
#
# Coordination Sequence:
#
# PCOD8109924 Si02
#       8
#     8   8   8   8   8   8   8   8
#     4   9  15  29  58  88 110 148 204 251 309 387
#     4  10  21  40  65  87 119 165 208 258 314 372
#     4   9  17  31  56  89 119 148 193 257 324 378
#     4  12  25  42  65  91 129 174 208 253 302 360
#     4  10  21  41  64  86 122 165 204 258 319 371
#     4  10  23  43  68 100 133 162 201 257 312 357
#     4  10  23  43  69 100 131 164 205 251 305 369
#     4  12  26  42  61  93 125 164 222 259 291 361
#
# _framework density 20.711507999999998
#
# number of rings (size 3 to 8) (size 9 to 14) (size 15 to 20)
#    0.000    1.750    3.750    0.375    1.750    4.000 
#    0.000    2.500    0.000    0.000    0.000    0.000 
#    0.000    0.000    0.000    0.000    0.000    0.000 
#
# Total GULP energy -396903.247162 kJ/mol
# GULP energy per Si atom -12403.226474 kJ/mol
# Density = 2.066437 g / cm^3
# Si number density = 20.711508 Si / 1000 Ang^3
#
#
#
# Elastic Constant Matrix: (Units=GPa)
#
#
# Indices 1 2 3 4 5 6 
#
# 1 125.7683 29.7336 47.4783 -0.0002 7.3061 -0.0001
# 2 29.7336 58.3155 37.2359 -0.0002 8.4228 -0.0002
# 3 47.4783 37.2359 110.1262 -0.0014 16.7285 0.0006
# 4 -0.0002 -0.0002 -0.0014 31.6324 0.0002 5.5959
# 5 7.3061 8.4228 16.7285 0.0002 48.1199 0.0000
# 6 -0.0001 -0.0002 0.0006 5.5959 0.0000 16.7482
#
#
#
# Elastic Compliance Matrix: (Units=1/GPa)
#
#
# Indices 1 2 3 4 5 6 
#
# 1 0.009882 -0.002966 -0.003282 0.000000 0.000160 0.000000
# 2 -0.002966 0.022841 -0.006234 0.000000 -0.001380 0.000001
# 3 -0.003282 -0.006234 0.013051 0.000001 -0.002948 -0.000001
# 4 0.000000 0.000000 0.000001 0.033599 0.000000 -0.011226
# 5 0.000160 -0.001380 -0.002948 0.000000 0.022023 0.000000
# 6 0.000000 0.000001 -0.000001 -0.011226 0.000000 0.063459
#
#
# Mechanical properties :
#
#
# Convention : Reuss Voigt Hill
#
# Bulk Modulus (GPa) = 48.05599 58.12287 53.08943
# Shear Modulus (GPa) = 25.41220 31.28425 28.34822
#
# Velocity S-wave (km/s) = 3.50660 3.89070 3.70363
# Velocity P-wave (km/s) = 6.29666 6.95035 6.63157
#
# Compressibility (1/GPa) = 0.02080906
#
# Stress axis : x y z
#
# Youngs Moduli (GPa) = 101.19436 43.78157 76.62218
#
# Poissons Ratio (x) = 0.12986 0.25145
# Poissons Ratio (y) = 0.30016 0.47770
# Poissons Ratio (z) = 0.33209 0.27295
#
# Static dielectric constant tensor:
#      x y z
#    x 3.876660 0.000000 0.087010 
#    y 0.000000 3.519460 0.000000 
#    z 0.087010 0.000000 3.806120 
# 
# 
# High freq. dielectric constant tensor:
#      x y z
#    x 1.816280 0.000000 0.006640 
#    y 0.000000 1.803330 0.000000 
#    z 0.006640 0.000000 1.815640 
# 
# From -- ./inp_files/372562.got.cif
#   From: 2010.06.25/outbox.cif.g09.slc.cpg/sg12_187_cif.got.tgz:372562.got - 2010.06.28 00:19:55.
