data_PCOD8109570
_publ_section_title
;
Structure prediction by ZEFSAII (Michael W. Deem and Ramdas Pophale) SiO2 
 PCOD8109570
Probable space group: C 2/M
;
_chemical_formula_sum "Si O2"
_cell_formula_units_Z 32
_cell_length_a 16.811828
_cell_length_b 15.768436
_cell_length_c 9.833963
_cell_angle_alpha 90.000000
_cell_angle_beta 148.719788
_cell_angle_gamma 90.000000
_cell_volume 1353.589166
_symmetry_space_group_name_H-M "C 2/M"
_symmetry_group_IT_number 12
_symmetry_cell_setting 'monoclinic'
loop_
_space_group_symop_operation_xyz
x,y,z
-x,y,-z
-x,-y,-z
x,-y,z
1/2+x,1/2+y,z
1/2-x,1/2+y,-z
1/2-x,1/2-y,-z
1/2+x,1/2-y,z
loop_
_atom_site_type_symbol
_atom_site_label
_atom_site_fract_x
_atom_site_fract_y
_atom_site_fract_z
Si Si1 0.702171 0.838112 0.999200
Si Si2 0.369904 0.900427 0.557904
Si Si3 0.867080 0.905959 0.002254
Si Si4 0.309158 0.599582 0.438479
O O1 0.519905 0.847032 0.741713
O O2 0.750000 0.750000 0.000000
O O3 0.771433 0.909932 0.002548
O O4 0.773277 0.846759 0.252332
O O5 0.326633 0.887024 0.651908
O O6 0.399316 0.000000 0.570202
O O7 0.233378 0.862479 0.263715
O O8 0.032501 0.862403 0.267800
O O9 0.902683 0.000000 0.002619
O O10 0.325666 0.500000 0.424932
#
# Coordination Sequence:
#
# PCOD8109570 Si02
#       4
#     8   8   8   8
#     4  12  25  39  57  91 132 174 217 256 309 378
#     4  10  21  41  69  96 123 161 213 269 320 373
#     4  10  21  39  65  96 126 160 209 268 324 377
#     4  10  21  41  69  96 123 161 213 269 320 373
#
# _framework density 23.64085
#
# number of rings (size 3 to 8) (size 9 to 14) (size 15 to 20)
#    0.000    1.500    0.000    5.250    0.000   13.000 
#    0.000    7.500    0.000    0.000    0.000    0.000 
#    0.000    0.000    0.000    0.000    0.000    0.000 
#
# Total GULP energy -198371.543298 kJ/mol
# GULP energy per Si atom -12398.221456 kJ/mol
# Density = 2.358704 g / cm^3
# Si number density = 23.640850 Si / 1000 Ang^3
#
#
#
# Elastic Constant Matrix: (Units=GPa)
#
#
# Indices 1 2 3 4 5 6 
#
# 1 149.3987 45.2548 65.3858 0.0000 5.5843 0.0000
# 2 45.2548 77.3798 51.5955 0.0000 3.2318 0.0000
# 3 65.3858 51.5955 185.7207 0.0000 12.6718 0.0000
# 4 0.0000 0.0000 0.0000 4.3862 0.0000 -1.5467
# 5 5.5843 3.2318 12.6718 0.0000 32.2495 0.0000
# 6 0.0000 0.0000 0.0000 -1.5467 0.0000 38.2101
#
#
#
# Elastic Compliance Matrix: (Units=1/GPa)
#
#
# Indices 1 2 3 4 5 6 
#
# 1 0.008719 -0.003748 -0.002005 0.000000 -0.000346 0.000000
# 2 -0.003748 0.017473 -0.003555 0.000000 0.000295 0.000000
# 3 -0.002005 -0.003555 0.007224 0.000000 -0.002135 0.000000
# 4 0.000000 0.000000 0.000000 0.231290 0.000000 0.009362
# 5 -0.000346 0.000295 -0.002135 0.000000 0.031878 0.000000
# 6 0.000000 0.000000 0.000000 0.009362 0.000000 0.026550
#
#
# Mechanical properties :
#
#
# Convention : Reuss Voigt Hill
#
# Bulk Modulus (GPa) = 67.56530 81.88573 74.72551
# Shear Modulus (GPa) = 14.42241 31.65336 23.03789
#
# Velocity S-wave (km/s) = 2.47263 3.66310 3.12508
# Velocity P-wave (km/s) = 6.06579 7.25284 6.68571
#
# Compressibility (1/GPa) = 0.01480050
#
# Stress axis : x y z
#
# Youngs Moduli (GPa) = 114.68898 57.23020 138.43690
#
# Poissons Ratio (x) = 0.21450 0.27754
# Poissons Ratio (y) = 0.42987 0.49212
# Poissons Ratio (z) = 0.22993 0.20344
#
# Static dielectric constant tensor:
#      x y z
#    x 4.392320 0.000000 0.015190 
#    y 0.000000 3.901020 0.000000 
#    z 0.015190 0.000000 4.582270 
# 
# 
# High freq. dielectric constant tensor:
#      x y z
#    x 1.948320 0.000000 0.000380 
#    y 0.000000 1.902540 0.000000 
#    z 0.000380 0.000000 1.953140 
# 
# From -- ./inp_files/63875.got.cif
#   From: 2010.06.25/outbox.cif.g09.slc.cpg/sg12_32_cif.got.tgz:63875.got - 2010.06.28 00:19:55.
