data_PCOD8109429
_publ_section_title
;
Structure prediction by ZEFSAII (Michael W. Deem and Ramdas Pophale) SiO2 
 PCOD8109429
Probable space group: C 2/M
;
_chemical_formula_sum "Si O2"
_cell_formula_units_Z 48
_cell_length_a 30.333658
_cell_length_b 18.717602
_cell_length_c 13.319609
_cell_angle_alpha 90.000000
_cell_angle_beta 17.857725
_cell_angle_gamma 90.000000
_cell_volume 2319.079772
_symmetry_space_group_name_H-M "C 2/M"
_symmetry_group_IT_number 12
_symmetry_cell_setting 'monoclinic'
loop_
_space_group_symop_operation_xyz
x,y,z
-x,y,-z
-x,-y,-z
x,-y,z
1/2+x,1/2+y,z
1/2-x,1/2+y,-z
1/2-x,1/2-y,-z
1/2+x,1/2-y,z
loop_
_atom_site_type_symbol
_atom_site_label
_atom_site_fract_x
_atom_site_fract_y
_atom_site_fract_z
Si Si1 0.869944 0.198735 0.704043
Si Si2 0.835424 0.917259 0.337330
Si Si3 0.251092 0.791757 0.599959
Si Si4 0.022760 0.274889 0.725655
Si Si5 0.842978 0.579265 0.870836
Si Si6 0.615954 0.079273 0.990300
O O1 0.000000 0.197992 0.500000
O O2 0.904006 0.229038 0.520087
O O3 0.750000 0.250000 0.000000
O O4 0.795694 0.121257 0.868125
O O5 0.770781 0.875107 0.381425
O O6 0.741324 0.899598 0.640120
O O7 0.827893 0.000000 0.324586
O O8 0.000000 0.893345 0.000000
O O9 0.250000 0.750000 0.500000
O O10 0.397076 0.774221 0.341626
O O11 0.128141 0.764321 0.939399
O O12 0.006284 0.359732 0.739239
O O13 0.837816 0.500000 0.834012
O O14 0.000000 0.613274 0.500000
O O15 0.816386 0.575971 0.046876
O O16 0.552296 0.000000 0.100937
#
# Coordination Sequence:
#
# PCOD8109429 Si02
#       6
#     8   8   8   8   8   8
#     4  12  25  43  66  95 131 167 212 267 321 379
#     4  10  22  39  61  90 128 169 208 258 316 377
#     4  12  24  39  61  90 126 165 210 261 309 369
#     4  12  25  41  63  94 125 166 214 261 315 376
#     4  10  22  42  69  96 127 167 211 263 323 386
#     4  10  21  39  64  91 125 168 212 257 318 384
#
# _framework density 20.697865
#
# number of rings (size 3 to 8) (size 9 to 14) (size 15 to 20)
#    0.000    1.000    1.667    6.000    2.333    1.000 
#    0.000    1.667    0.000    4.000    0.000    0.000 
#    0.000    0.000    0.000    0.000    0.000    0.000 
#
# Total GULP energy -297461.259371 kJ/mol
# GULP energy per Si atom -12394.219140 kJ/mol
# Density = 2.065076 g / cm^3
# Si number density = 20.697865 Si / 1000 Ang^3
#
#
#
# Elastic Constant Matrix: (Units=GPa)
#
#
# Indices 1 2 3 4 5 6 
#
# 1 97.2529 36.9017 22.6857 -0.0006 -14.5874 -0.0001
# 2 36.9017 114.0214 41.6725 0.0011 -8.7410 0.0002
# 3 22.6857 41.6725 87.7580 0.0044 -1.0035 0.0001
# 4 -0.0006 0.0011 0.0044 38.6695 0.0000 -2.7302
# 5 -14.5874 -8.7410 -1.0035 0.0000 39.5682 -0.0001
# 6 -0.0001 0.0002 0.0001 -2.7302 -0.0001 33.2898
#
#
#
# Elastic Compliance Matrix: (Units=1/GPa)
#
#
# Indices 1 2 3 4 5 6 
#
# 1 0.012436 -0.003110 -0.001694 0.000000 0.003855 0.000000
# 2 -0.003110 0.011588 -0.004684 0.000000 0.001294 0.000000
# 3 -0.001694 -0.004684 0.014042 -0.000002 -0.001303 0.000000
# 4 0.000000 0.000000 -0.000002 0.026011 0.000000 0.002133
# 5 0.003855 0.001294 -0.001303 0.000000 0.026947 0.000000
# 6 0.000000 0.000000 0.000000 0.002133 0.000000 0.030214
#
#
# Mechanical properties :
#
#
# Convention : Reuss Voigt Hill
#
# Bulk Modulus (GPa) = 52.38246 55.72803 54.05524
# Shear Modulus (GPa) = 34.11186 35.49033 34.80109
#
# Velocity S-wave (km/s) = 4.06407 4.14537 4.10492
# Velocity P-wave (km/s) = 6.88370 7.06365 6.97425
#
# Compressibility (1/GPa) = 0.01909036
#
# Stress axis : x y z
#
# Youngs Moduli (GPa) = 80.41255 86.29662 71.21462
#
# Poissons Ratio (x) = 0.26840 0.12062
# Poissons Ratio (y) = 0.25010 0.33356
# Poissons Ratio (z) = 0.13620 0.40420
#
# Static dielectric constant tensor:
#      x y z
#    x 3.666550 0.000000 0.192910 
#    y 0.000000 4.015640 0.000010 
#    z 0.192910 0.000010 3.767700 
# 
# 
# High freq. dielectric constant tensor:
#      x y z
#    x 1.800720 0.000000 0.015590 
#    y 0.000000 1.827950 0.000000 
#    z 0.015590 0.000000 1.814700 
# 
# From -- ./inp_files/184766.got.cif
#   From: 2010.06.25/outbox.cif.g09.slc.cpg/sg12_93_cif.got.tgz:184766.got - 2010.06.28 00:19:55.
