data_PCOD8109457
_publ_section_title
;
Structure prediction by ZEFSAII (Michael W. Deem and Ramdas Pophale) SiO2 
 PCOD8109457
Probable space group: C 2/M
;
_chemical_formula_sum "Si O2"
_cell_formula_units_Z 56
_cell_length_a 26.037693
_cell_length_b 17.741179
_cell_length_c 17.411524
_cell_angle_alpha 90.000000
_cell_angle_beta 19.596723
_cell_angle_gamma 90.000000
_cell_volume 2697.626574
_symmetry_space_group_name_H-M "C 2/M"
_symmetry_group_IT_number 12
_symmetry_cell_setting 'monoclinic'
loop_
_space_group_symop_operation_xyz
x,y,z
-x,y,-z
-x,-y,-z
x,-y,z
1/2+x,1/2+y,z
1/2-x,1/2+y,-z
1/2-x,1/2-y,-z
1/2+x,1/2-y,z
loop_
_atom_site_type_symbol
_atom_site_label
_atom_site_fract_x
_atom_site_fract_y
_atom_site_fract_z
Si Si1 0.360800 0.320770 0.852236
Si Si2 0.741600 0.087014 0.882863
Si Si3 0.341157 0.660314 0.178960
Si Si4 0.898215 0.915132 0.943732
Si Si5 0.247478 0.585327 0.582317
Si Si6 0.887751 0.413629 0.384875
Si Si7 0.210161 0.816575 0.335796
O O1 0.338418 0.382728 0.817798
O O2 0.323886 0.359493 0.985897
O O3 0.536210 0.293835 0.601128
O O4 0.250000 0.250000 0.000000
O O5 0.785630 0.135302 0.747135
O O6 0.784647 0.000000 0.806724
O O7 0.564920 0.096211 0.154115
O O8 0.205040 0.640273 0.428346
O O9 0.311908 0.742140 0.183669
O O10 0.500000 0.657235 0.000000
O O11 0.337436 0.601937 0.114223
O O12 0.079785 0.905659 0.689448
O O13 0.849966 0.000000 0.990059
O O14 0.210442 0.500000 0.658772
O O15 0.139117 0.611906 0.665270
O O16 0.212498 0.635959 0.704994
O O17 0.832125 0.500000 0.473583
#
# Coordination Sequence:
#
# PCOD8109457 Si02
#       7
#     8   8   8   8   8   8   8
#     4  11  23  44  66  90 126 164 207 260 312 365
#     4  11  24  42  66  92 124 168 212 256 307 368
#     4  12  24  38  62  94 128 165 204 254 317 380
#     4  10  21  39  64  93 119 157 211 258 306 364
#     4   9  19  38  61  87 121 159 203 256 308 363
#     4  10  22  40  62  90 125 164 207 257 311 370
#     4  11  25  39  61  95 124 164 206 255 310 373
#
# _framework density 20.758987999999999
#
# number of rings (size 3 to 8) (size 9 to 14) (size 15 to 20)
#    0.000    1.429    1.429    3.429    2.000    4.571 
#    0.000    4.286    0.000    5.143    0.000    0.000 
#    0.000    0.000    0.000    0.000    0.000    0.000 
#
# Total GULP energy -347362.495892 kJ/mol
# GULP energy per Si atom -12405.803425 kJ/mol
# Density = 2.071174 g / cm^3
# Si number density = 20.758988 Si / 1000 Ang^3
#
#
#
# Elastic Constant Matrix: (Units=GPa)
#
#
# Indices 1 2 3 4 5 6 
#
# 1 114.9061 36.4124 19.0046 -0.0001 4.1632 -0.0005
# 2 36.4124 99.6465 24.2340 0.0040 2.7960 -0.0006
# 3 19.0046 24.2340 52.3087 0.0016 7.9295 -0.0006
# 4 -0.0001 0.0040 0.0016 30.0388 0.0022 5.3495
# 5 4.1632 2.7960 7.9295 0.0022 23.0012 0.0002
# 6 -0.0005 -0.0006 -0.0006 5.3495 0.0002 35.0730
#
#
#
# Elastic Compliance Matrix: (Units=1/GPa)
#
#
# Indices 1 2 3 4 5 6 
#
# 1 0.010074 -0.003152 -0.002090 0.000001 -0.000719 0.000000
# 2 -0.003152 0.012301 -0.004657 -0.000001 0.000681 0.000000
# 3 -0.002090 -0.004657 0.023098 0.000000 -0.007018 0.000000
# 4 0.000001 -0.000001 0.000000 0.034220 -0.000003 -0.005219
# 5 -0.000719 0.000681 -0.007018 -0.000003 0.045943 0.000000
# 6 0.000000 0.000000 0.000000 -0.005219 0.000000 0.029308
#
#
# Mechanical properties :
#
#
# Convention : Reuss Voigt Hill
#
# Bulk Modulus (GPa) = 38.95065 47.35146 43.15106
# Shear Modulus (GPa) = 27.27769 30.10328 28.69049
#
# Velocity S-wave (km/s) = 3.62887 3.81219 3.72166
# Velocity P-wave (km/s) = 6.03011 6.49898 6.26893
#
# Compressibility (1/GPa) = 0.02567351
#
# Stress axis : x y z
#
# Youngs Moduli (GPa) = 99.27004 81.29523 43.29373
#
# Poissons Ratio (x) = 0.25628 0.09050
# Poissons Ratio (y) = 0.31295 0.20160
# Poissons Ratio (z) = 0.20750 0.37856
#
# Static dielectric constant tensor:
#      x y z
#    x 3.873950 0.000000 -0.067540 
#    y 0.000000 3.771670 0.000000 
#    z -0.067540 0.000000 3.603970 
# 
# 
# High freq. dielectric constant tensor:
#      x y z
#    x 1.825710 0.000000 -0.000630 
#    y 0.000000 1.818550 0.000000 
#    z -0.000630 0.000000 1.806270 
# 
# From -- ./inp_files/143748.got.cif
#   From: 2010.06.25/outbox.cif.g09.slc.cpg/sg12_72_cif.got.tgz:143748.got - 2010.06.28 00:19:55.
