data_PCOD8109017
_publ_section_title
;
Structure prediction by ZEFSAII (Michael W. Deem and Ramdas Pophale) SiO2 
 PCOD8109017
Probable space group: C 2/M
;
_chemical_formula_sum "Si O2"
_cell_formula_units_Z 48
_cell_length_a 18.610743
_cell_length_b 9.027112
_cell_length_c 29.214028
_cell_angle_alpha 90.000000
_cell_angle_beta 149.920890
_cell_angle_gamma 90.000000
_cell_volume 2459.863157
_symmetry_space_group_name_H-M "C 2/M"
_symmetry_group_IT_number 12
_symmetry_cell_setting 'monoclinic'
loop_
_space_group_symop_operation_xyz
x,y,z
-x,y,-z
-x,-y,-z
x,-y,z
1/2+x,1/2+y,z
1/2-x,1/2+y,-z
1/2-x,1/2-y,-z
1/2+x,1/2-y,z
loop_
_atom_site_type_symbol
_atom_site_label
_atom_site_fract_x
_atom_site_fract_y
_atom_site_fract_z
Si Si1 0.832072 0.673579 0.907126
Si Si2 0.357128 0.325746 0.744844
Si Si3 0.351428 0.335562 0.432334
Si Si4 0.186463 0.676513 0.740577
Si Si5 0.182328 0.825456 0.919143
Si Si6 0.886588 0.834379 0.557818
O O1 0.806315 0.500000 0.883952
O O2 0.756601 0.765872 0.825759
O O3 0.762945 0.723966 0.917227
O O4 0.000000 0.712490 0.000000
O O5 0.347724 0.500000 0.736798
O O6 0.278349 0.261941 0.657207
O O7 0.285992 0.270430 0.753081
O O8 0.519001 0.269918 0.828905
O O9 0.500000 0.257544 0.500000
O O10 0.340871 0.500000 0.404252
O O11 0.351275 0.347070 0.485762
O O12 0.173519 0.500000 0.735564
O O13 0.029525 0.744226 0.647933
O O14 0.193654 0.000000 0.931803
O O15 0.250000 0.750000 0.000000
O O16 0.750000 0.750000 0.500000
O O17 0.900492 0.000000 0.586703
#
# Coordination Sequence:
#
# PCOD8109017 Si02
#       6
#     8   8   8   8   8   8
#     4  10  22  40  62  88 120 158 200 246 301 360
#     4  10  22  38  59  87 120 156 198 247 297 350
#     4  10  21  39  61  87 117 155 202 245 290 346
#     4  11  23  39  60  88 120 158 202 246 301 358
#     4  10  22  40  61  89 118 151 195 243 298 355
#     4  11  24  41  61  87 122 159 200 248 297 355
#
# _framework density 19.513279000000001
#
# number of rings (size 3 to 8) (size 9 to 14) (size 15 to 20)
#    0.000    1.667    1.667    2.000    2.333    4.000 
#    0.000    0.000    0.000    0.000    0.000    0.000 
#    0.000    0.000    0.000    0.000    0.000    0.000 
#
# Total GULP energy -297604.932178 kJ/mol
# GULP energy per Si atom -12400.205507 kJ/mol
# Density = 1.946887 g / cm^3
# Si number density = 19.513279 Si / 1000 Ang^3
#
#
#
# Elastic Constant Matrix: (Units=GPa)
#
#
# Indices 1 2 3 4 5 6 
#
# 1 124.9701 47.6373 78.2491 0.0000 20.7616 -0.0001
# 2 47.6373 60.2939 56.2721 -0.0001 3.9511 0.0000
# 3 78.2491 56.2721 174.1814 0.0000 13.8135 0.0000
# 4 0.0000 -0.0001 0.0000 41.9308 0.0000 -6.3670
# 5 20.7616 3.9511 13.8135 0.0000 43.1590 0.0000
# 6 -0.0001 0.0000 0.0000 -6.3670 0.0000 27.9154
#
#
#
# Elastic Compliance Matrix: (Units=1/GPa)
#
#
# Indices 1 2 3 4 5 6 
#
# 1 0.013751 -0.007359 -0.003416 0.000000 -0.004848 0.000000
# 2 -0.007359 0.027687 -0.005867 0.000000 0.002883 0.000000
# 3 -0.003416 -0.005867 0.009233 0.000000 -0.000775 0.000000
# 4 0.000000 0.000000 0.000000 0.024704 0.000000 0.005635
# 5 -0.004848 0.002883 -0.000775 0.000000 0.025486 0.000000
# 6 0.000000 0.000000 0.000000 0.005635 0.000000 0.037108
#
#
# Mechanical properties :
#
#
# Convention : Reuss Voigt Hill
#
# Bulk Modulus (GPa) = 57.51625 80.41804 68.96715
# Shear Modulus (GPa) = 28.24085 34.42018 31.33051
#
# Velocity S-wave (km/s) = 3.80842 4.20448 4.01134
# Velocity P-wave (km/s) = 6.99129 8.05429 7.54154
#
# Compressibility (1/GPa) = 0.01738639
#
# Stress axis : x y z
#
# Youngs Moduli (GPa) = 72.72081 36.11835 108.31265
#
# Poissons Ratio (x) = 0.26580 0.36995
# Poissons Ratio (y) = 0.53516 0.63550
# Poissons Ratio (z) = 0.24839 0.21192
#
# Static dielectric constant tensor:
#      x y z
#    x 5.099270 -0.000010 1.848870 
#    y -0.000010 4.546450 -0.000010 
#    z 1.848870 -0.000010 5.766560 
# 
# 
# High freq. dielectric constant tensor:
#      x y z
#    x 1.772980 0.000000 0.004970 
#    y 0.000000 1.757620 0.000000 
#    z 0.004970 0.000000 1.773700 
# 
# From -- ./inp_files/244750.got.cif
#   From: 2010.06.25/outbox.cif.g09.slc.cpg/sg12_123_cif.got.tgz:244750.got - 2010.06.28 00:19:55.
