data_PCOD8109505
_publ_section_title
;
Structure prediction by ZEFSAII (Michael W. Deem and Ramdas Pophale) SiO2 
 PCOD8109505
Probable space group: C 2/M
;
_chemical_formula_sum "Si O2"
_cell_formula_units_Z 48
_cell_length_a 30.785384
_cell_length_b 14.050993
_cell_length_c 5.490044
_cell_angle_alpha 90.000000
_cell_angle_beta 119.198814
_cell_angle_gamma 90.000000
_cell_volume 2073.041132
_symmetry_space_group_name_H-M "C 2/M"
_symmetry_group_IT_number 12
_symmetry_cell_setting 'monoclinic'
loop_
_space_group_symop_operation_xyz
x,y,z
-x,y,-z
-x,-y,-z
x,-y,z
1/2+x,1/2+y,z
1/2-x,1/2+y,-z
1/2-x,1/2-y,-z
1/2+x,1/2-y,z
loop_
_atom_site_type_symbol
_atom_site_label
_atom_site_fract_x
_atom_site_fract_y
_atom_site_fract_z
Si Si1 0.626743 0.731129 0.193317
Si Si2 0.362814 0.891202 0.429785
Si Si3 0.211113 0.898007 0.302659
Si Si4 0.236878 0.645131 0.038790
Si Si5 0.445983 0.787820 0.395105
Si Si6 0.448148 0.610044 0.717030
O O1 0.654933 0.813839 0.419875
O O2 0.669288 0.682720 0.143768
O O3 0.600417 0.646154 0.270977
O O4 0.584496 0.787398 0.935246
O O5 0.322066 0.879902 0.102218
O O6 0.418006 0.857296 0.505203
O O7 0.365773 0.000000 0.532709
O O8 0.243060 0.912024 0.143290
O O9 0.185117 0.000000 0.274551
O O10 0.241250 0.877247 0.635348
O O11 0.250000 0.750000 0.000000
O O12 0.500000 0.833219 0.500000
O O13 0.451435 0.677750 0.491778
O O14 0.440045 0.500000 0.616708
O O15 0.500000 0.621932 0.000000
#
# Coordination Sequence:
#
# PCOD8109505 Si02
#       6
#     8   8   8   8   8   8
#     4  11  24  43  66  97 136 182 224 287 343 415
#     4  11  26  45  70  99 131 178 233 289 349 418
#     4  12  26  44  72 108 147 188 231 284 351 429
#     4  12  25  49  72 105 146 189 233 291 356 420
#     4  11  24  44  67  96 135 177 229 290 351 408
#     4  10  21  39  64  96 134 176 225 279 346 420
#
# _framework density 23.154387
#
# number of rings (size 3 to 8) (size 9 to 14) (size 15 to 20)
#    0.000    0.833    3.333    3.500    4.667    2.667 
#    0.000    0.833    0.000    0.000    0.000    0.000 
#    0.000    0.000    0.000    0.000    0.000    0.000 
#
# Total GULP energy -297390.007293 kJ/mol
# GULP energy per Si atom -12391.250304 kJ/mol
# Density = 2.310169 g / cm^3
# Si number density = 23.154387 Si / 1000 Ang^3
#
#
#
# Elastic Constant Matrix: (Units=GPa)
#
#
# Indices 1 2 3 4 5 6 
#
# 1 97.3815 20.4300 26.9736 0.0000 11.9488 0.0000
# 2 20.4300 148.8348 5.4357 0.0000 14.8316 0.0000
# 3 26.9736 5.4357 98.6648 0.0000 6.8483 0.0000
# 4 0.0000 0.0000 0.0000 -1.0489 0.0000 20.6591
# 5 11.9488 14.8316 6.8483 0.0000 37.6515 0.0000
# 6 0.0000 0.0000 0.0000 20.6591 0.0000 13.2406
#
#
#
# Elastic Compliance Matrix: (Units=1/GPa)
#
#
# Indices 1 2 3 4 5 6 
#
# 1 0.011669 -0.001227 -0.002936 0.000000 -0.002686 0.000000
# 2 -0.001227 0.007126 0.000112 0.000000 -0.002438 0.000000
# 3 -0.002936 0.000112 0.011009 0.000000 -0.001115 0.000000
# 4 0.000000 0.000000 0.000000 -0.030045 0.000000 0.046879
# 5 -0.002686 -0.002438 -0.001115 0.000000 0.028575 0.000000
# 6 0.000000 0.000000 0.000000 0.046879 0.000000 0.002380
#
#
# Mechanical properties :
#
#
# Convention : Reuss Voigt Hill
#
# Bulk Modulus (GPa) = 46.07767 50.06221 48.06994
# Shear Modulus (GPa) = 108.57714 29.43812 69.00763
#
# Velocity S-wave (km/s) = 6.85525 3.56952 5.46516
# Velocity P-wave (km/s) = 9.08860 6.21744 7.78650
#
# Compressibility (1/GPa) = 0.02170249
#
# Stress axis : x y z
#
# Youngs Moduli (GPa) = 85.69617 140.32840 90.83279
#
# Poissons Ratio (x) = 0.17217 0.26670
# Poissons Ratio (y) = 0.10514 -0.01018
# Poissons Ratio (z) = 0.25162 -0.01572
#
# Static dielectric constant tensor:
#      x y z
#    x 4.754060 0.000000 -0.183320 
#    y 0.000000 4.139090 0.000000 
#    z -0.183320 0.000000 4.380150 
# 
# 
# High freq. dielectric constant tensor:
#      x y z
#    x 1.918850 0.000000 0.007910 
#    y 0.000000 1.922530 0.000000 
#    z 0.007910 0.000000 1.910180 
# 
# From -- ./inp_files/31393.got.cif
#   From: 2010.06.25/outbox.cif.g09.slc.cpg/sg12_16_cif.got.tgz:31393.got - 2010.06.28 00:19:55.
