data_PCOD8109829
_publ_section_title
;
Structure prediction by ZEFSAII (Michael W. Deem and Ramdas Pophale) SiO2 
 PCOD8109829
Probable space group: C 2/M
;
_chemical_formula_sum "Si O2"
_cell_formula_units_Z 40
_cell_length_a 7.635359
_cell_length_b 19.117914
_cell_length_c 14.513502
_cell_angle_alpha 90.000000
_cell_angle_beta 60.563729
_cell_angle_gamma 90.000000
_cell_volume 1845.065994
_symmetry_space_group_name_H-M "C 2/M"
_symmetry_group_IT_number 12
_symmetry_cell_setting 'monoclinic'
loop_
_space_group_symop_operation_xyz
x,y,z
-x,y,-z
-x,-y,-z
x,-y,z
1/2+x,1/2+y,z
1/2-x,1/2+y,-z
1/2-x,1/2-y,-z
1/2+x,1/2-y,z
loop_
_atom_site_type_symbol
_atom_site_label
_atom_site_fract_x
_atom_site_fract_y
_atom_site_fract_z
Si Si1 0.215825 0.685936 0.197397
Si Si2 0.402418 0.166691 0.120956
Si Si3 0.010552 0.084301 0.757246
Si Si4 0.818432 0.927045 0.483203
Si Si5 0.413854 0.805152 0.428237
O O1 0.346763 0.751024 0.128529
O O2 0.357649 0.623235 0.197581
O O3 0.070645 0.655366 0.156296
O O4 0.078387 0.721123 0.313601
O O5 0.213270 0.116134 0.186650
O O6 0.500000 0.143600 0.000000
O O7 0.112906 0.103558 0.633516
O O8 0.003180 0.000000 0.776325
O O9 0.694599 0.874345 0.580701
O O10 0.000000 0.946511 0.500000
O O11 0.698624 0.000000 0.497519
O O12 0.500000 0.834605 0.500000
O O13 0.250000 0.750000 0.500000
#
# Coordination Sequence:
#
# PCOD8109829 Si02
#       5
#     8   8   8   8   8
#     4  12  24  43  71 100 136 180 226 286 341 407
#     4  12  26  46  74  97 131 182 239 288 350 410
#     4  11  25  45  69 105 141 176 230 288 341 413
#     4  10  21  40  63  90 133 179 212 257 325 403
#     4  12  22  36  60  95 131 165 211 261 321 391
#
# _framework density 21.679441000000001
#
# number of rings (size 3 to 8) (size 9 to 14) (size 15 to 20)
#    0.000    0.600    4.000    4.800    0.000    2.400 
#    0.000    1.000    0.000    0.000    0.000    0.000 
#    0.000    0.000    0.000    0.000    0.000    0.000 
#
# Total GULP energy -247790.373134 kJ/mol
# GULP energy per Si atom -12389.518657 kJ/mol
# Density = 2.163010 g / cm^3
# Si number density = 21.679441 Si / 1000 Ang^3
#
#
#
# Elastic Constant Matrix: (Units=GPa)
#
#
# Indices 1 2 3 4 5 6 
#
# 1 132.7220 43.4829 18.5011 0.0000 16.7890 0.0000
# 2 43.4829 123.0851 13.1823 0.0000 -8.1655 0.0000
# 3 18.5011 13.1823 77.3723 0.0000 5.5508 0.0000
# 4 0.0000 0.0000 0.0000 28.1176 0.0000 0.4379
# 5 16.7890 -8.1655 5.5508 0.0000 31.6051 0.0000
# 6 0.0000 0.0000 0.0000 0.4379 0.0000 33.0424
#
#
#
# Elastic Compliance Matrix: (Units=1/GPa)
#
#
# Indices 1 2 3 4 5 6 
#
# 1 0.009651 -0.003662 -0.001264 0.000000 -0.005851 0.000000
# 2 -0.003662 0.009851 -0.001139 0.000000 0.004691 0.000000
# 3 -0.001264 -0.001139 0.013565 0.000000 -0.002005 0.000000
# 4 0.000000 0.000000 0.000000 0.035572 0.000000 -0.000471
# 5 -0.005851 0.004691 -0.002005 0.000000 0.036312 0.000000
# 6 0.000000 0.000000 0.000000 -0.000471 0.000000 0.030270
#
#
# Mechanical properties :
#
#
# Convention : Reuss Voigt Hill
#
# Bulk Modulus (GPa) = 47.76446 53.72355 50.74400
# Shear Modulus (GPa) = 32.39787 35.75391 34.07589
#
# Velocity S-wave (km/s) = 3.86995 4.06545 3.96890
# Velocity P-wave (km/s) = 6.48449 6.84630 6.66785
#
# Compressibility (1/GPa) = 0.02093607
#
# Stress axis : x y z
#
# Youngs Moduli (GPa) = 103.62027 101.50866 73.72060
#
# Poissons Ratio (x) = 0.37173 0.09318
# Poissons Ratio (y) = 0.37947 0.08399
# Poissons Ratio (z) = 0.13097 0.11565
#
# Static dielectric constant tensor:
#      x y z
#    x 3.904970 0.000000 0.318710 
#    y 0.000000 3.881940 0.000000 
#    z 0.318710 0.000000 4.914790 
# 
# 
# High freq. dielectric constant tensor:
#      x y z
#    x 1.869880 0.000000 0.001270 
#    y 0.000000 1.858610 0.000000 
#    z 0.001270 0.000000 1.842100 
# 
# From -- ./inp_files/195312.got.cif
#   From: 2010.06.25/outbox.cif.g09.slc.cpg/sg12_98_cif.got.tgz:195312.got - 2010.06.28 00:19:55.
