data_PCOD8109574
_publ_section_title
;
Structure prediction by ZEFSAII (Michael W. Deem and Ramdas Pophale) SiO2 
 PCOD8109574
Probable space group: C 2/M
;
_chemical_formula_sum "Si O2"
_cell_formula_units_Z 64
_cell_length_a 15.183347
_cell_length_b 17.181669
_cell_length_c 15.031232
_cell_angle_alpha 90.000000
_cell_angle_beta 50.251223
_cell_angle_gamma 90.000000
_cell_volume 3014.894770
_symmetry_space_group_name_H-M "C 2/M"
_symmetry_group_IT_number 12
_symmetry_cell_setting 'monoclinic'
loop_
_space_group_symop_operation_xyz
x,y,z
-x,y,-z
-x,-y,-z
x,-y,z
1/2+x,1/2+y,z
1/2-x,1/2+y,-z
1/2-x,1/2-y,-z
1/2+x,1/2-y,z
loop_
_atom_site_type_symbol
_atom_site_label
_atom_site_fract_x
_atom_site_fract_y
_atom_site_fract_z
Si Si1 0.228336 0.694949 0.703177
Si Si2 0.765790 0.087840 0.528695
Si Si3 0.503405 0.912092 0.324595
Si Si4 0.446317 0.408000 0.941101
Si Si5 0.366343 0.085736 0.089967
Si Si6 0.418150 0.321419 0.300941
Si Si7 0.449616 0.757618 0.624407
Si Si8 0.308084 0.908340 0.937054
O O1 0.303069 0.642075 0.586865
O O2 0.156641 0.639645 0.812236
O O3 0.142010 0.747842 0.703762
O O4 0.312984 0.746209 0.708943
O O5 0.628391 0.089329 0.617228
O O6 0.820146 0.121672 0.403124
O O7 0.810815 0.000000 0.512821
O O8 0.523342 0.849883 0.389501
O O9 0.584802 0.881225 0.191994
O O10 0.538683 0.000000 0.332051
O O11 0.460742 0.500000 0.919436
O O12 0.509366 0.367220 0.818808
O O13 0.500000 0.380119 0.000000
O O14 0.312835 0.382885 0.027803
O O15 0.309662 0.000000 0.141190
O O16 0.500000 0.074347 0.000000
O O17 0.319639 0.125983 0.029318
O O18 0.500765 0.291256 0.325405
O O19 0.500000 0.725290 0.500000
O O20 0.316126 0.000000 0.941904
#
# Coordination Sequence:
#
# PCOD8109574 Si02
#       8
#     8   8   8   8   8   8   8   8
#     4  12  24  41  65  98 136 175 218 275 342 402
#     4  11  22  43  72  97 127 174 222 276 336 395
#     4  10  22  42  69  99 131 177 229 275 330 394
#     4  10  23  44  68  93 130 182 228 269 323 397
#     4  10  21  39  65  96 131 174 224 278 334 397
#     4  12  25  45  65 100 139 172 221 280 342 400
#     4  12  25  44  66  96 140 180 215 274 350 403
#     4   9  19  40  65  92 130 169 220 279 322 379
#
# _framework density 21.227938999999999
#
# number of rings (size 3 to 8) (size 9 to 14) (size 15 to 20)
#    0.000    1.250    2.500    3.375    1.750    2.750 
#    0.000    4.375    0.000    0.000    0.000    0.000 
#    0.000    0.000    0.000    0.000    0.000    0.000 
#
# Total GULP energy -396779.028992 kJ/mol
# GULP energy per Si atom -12399.344656 kJ/mol
# Density = 2.117962 g / cm^3
# Si number density = 21.227939 Si / 1000 Ang^3
#
#
#
# Elastic Constant Matrix: (Units=GPa)
#
#
# Indices 1 2 3 4 5 6 
#
# 1 126.3526 33.6866 43.2037 0.0000 16.1294 0.0000
# 2 33.6866 85.2318 36.5508 0.0000 5.9850 0.0000
# 3 43.2037 36.5508 128.6128 0.0000 6.8825 0.0000
# 4 0.0000 0.0000 0.0000 29.3532 0.0000 13.9642
# 5 16.1294 5.9850 6.8825 0.0000 29.7381 0.0000
# 6 0.0000 0.0000 0.0000 13.9642 0.0000 10.5325
#
#
#
# Elastic Compliance Matrix: (Units=1/GPa)
#
#
# Indices 1 2 3 4 5 6 
#
# 1 0.009979 -0.002621 -0.002375 0.000000 -0.004335 0.000000
# 2 -0.002621 0.014149 -0.003103 0.000000 -0.000708 0.000000
# 3 -0.002375 -0.003103 0.009470 0.000000 -0.000279 0.000000
# 4 0.000000 0.000000 0.000000 0.092256 0.000000 -0.122315
# 5 -0.004335 -0.000708 -0.000279 0.000000 0.036185 0.000000
# 6 0.000000 0.000000 0.000000 -0.122315 0.000000 0.257111
#
#
# Mechanical properties :
#
#
# Convention : Reuss Voigt Hill
#
# Bulk Modulus (GPa) = 57.47222 63.00884 60.24053
# Shear Modulus (GPa) = 11.33408 29.04185 20.18797
#
# Velocity S-wave (km/s) = 2.31318 3.70279 3.08719
# Velocity P-wave (km/s) = 5.85381 6.93018 6.41461
#
# Compressibility (1/GPa) = 0.01739971
#
# Stress axis : x y z
#
# Youngs Moduli (GPa) = 100.21386 70.67702 105.59832
#
# Poissons Ratio (x) = 0.18524 0.25082
# Poissons Ratio (y) = 0.26265 0.32764
# Poissons Ratio (z) = 0.23803 0.21929
#
# Static dielectric constant tensor:
#      x y z
#    x 3.902010 0.000000 0.050080 
#    y 0.000000 3.918990 0.000000 
#    z 0.050080 0.000000 3.906460 
# 
# 
# High freq. dielectric constant tensor:
#      x y z
#    x 1.833300 0.000000 0.001550 
#    y 0.000000 1.830610 0.000000 
#    z 0.001550 0.000000 1.838720 
# 
# From -- ./inp_files/216759.got.cif
#   From: 2010.06.25/outbox.cif.g09.slc.cpg/sg12_109_cif.got.tgz:216759.got - 2010.06.28 00:19:55.
