data_PCOD8109748
_publ_section_title
;
Structure prediction by ZEFSAII (Michael W. Deem and Ramdas Pophale) SiO2 
 PCOD8109748
Probable space group: C 2/M
;
_chemical_formula_sum "Si O2"
_cell_formula_units_Z 48
_cell_length_a 28.443905
_cell_length_b 8.701797
_cell_length_c 15.833108
_cell_angle_alpha 90.000000
_cell_angle_beta 142.239684
_cell_angle_gamma 90.000000
_cell_volume 2399.777046
_symmetry_space_group_name_H-M "C 2/M"
_symmetry_group_IT_number 12
_symmetry_cell_setting 'monoclinic'
loop_
_space_group_symop_operation_xyz
x,y,z
-x,y,-z
-x,-y,-z
x,-y,z
1/2+x,1/2+y,z
1/2-x,1/2+y,-z
1/2-x,1/2-y,-z
1/2+x,1/2-y,z
loop_
_atom_site_type_symbol
_atom_site_label
_atom_site_fract_x
_atom_site_fract_y
_atom_site_fract_z
Si Si1 0.050250 0.819354 0.686075
Si Si2 0.899825 0.679173 0.413784
Si Si3 0.607419 0.820169 0.934190
Si Si4 0.187306 0.819338 0.350235
Si Si5 0.972797 0.319698 0.869787
Si Si6 0.770407 0.820732 0.775786
O O1 0.096869 0.771677 0.668953
O O2 0.100789 0.771532 0.837799
O O3 0.967770 0.734649 0.572249
O O4 0.036217 0.000000 0.665544
O O5 0.910450 0.500000 0.408989
O O6 0.819951 0.713128 0.346443
O O7 0.537078 0.772409 0.894148
O O8 0.607718 0.000000 0.915255
O O9 0.686885 0.774050 0.090955
O O10 0.250000 0.750000 0.500000
O O11 0.104355 0.767780 0.265300
O O12 0.201012 0.759885 0.274333
O O13 0.195226 0.000000 0.364948
O O14 0.955924 0.500000 0.845980
O O15 0.000000 0.262613 0.000000
O O16 0.788803 0.000000 0.814192
#
# Coordination Sequence:
#
# PCOD8109748 Si02
#       6
#     8   8   8   8   8   8
#     4  11  23  40  62  91 122 153 197 247 297 356
#     4  10  21  41  65  88 119 158 198 243 299 355
#     4  11  23  39  63  89 119 159 201 243 296 356
#     4  11  24  40  60  89 123 160 200 245 296 350
#     4  10  21  40  62  87 119 158 200 245 293 349
#     4  10  23  41  61  88 121 155 197 248 296 350
#
# _framework density 20.001857999999999
#
# number of rings (size 3 to 8) (size 9 to 14) (size 15 to 20)
#    0.000    1.500    1.667    4.000    2.333    4.333 
#    0.000    0.000    0.000    0.000    0.000    0.000 
#    0.000    0.000    0.000    0.000    0.000    0.000 
#
# Total GULP energy -297758.925828 kJ/mol
# GULP energy per Si atom -12406.621909 kJ/mol
# Density = 1.995633 g / cm^3
# Si number density = 20.001858 Si / 1000 Ang^3
#
#
#
# Elastic Constant Matrix: (Units=GPa)
#
#
# Indices 1 2 3 4 5 6 
#
# 1 51.8243 19.7279 12.8625 0.0000 8.6072 0.0000
# 2 19.7279 67.6447 29.4690 0.0000 2.0418 0.0000
# 3 12.8625 29.4690 106.2550 0.0000 -4.2569 0.0000
# 4 0.0000 0.0000 0.0000 40.1799 0.0000 0.3649
# 5 8.6072 2.0418 -4.2569 0.0000 37.4912 0.0000
# 6 0.0000 0.0000 0.0000 0.3649 0.0000 20.7062
#
#
#
# Elastic Compliance Matrix: (Units=1/GPa)
#
#
# Indices 1 2 3 4 5 6 
#
# 1 0.022704 -0.005896 -0.001315 0.000000 -0.005041 0.000000
# 2 -0.005896 0.018425 -0.004402 0.000000 -0.000150 0.000000
# 3 -0.001315 -0.004402 0.010863 0.000000 0.001775 0.000000
# 4 0.000000 0.000000 0.000000 0.024892 0.000000 -0.000439
# 5 -0.005041 -0.000150 0.001775 0.000000 0.028040 0.000000
# 6 0.000000 0.000000 0.000000 -0.000439 0.000000 0.048302
#
#
# Mechanical properties :
#
#
# Convention : Reuss Voigt Hill
#
# Bulk Modulus (GPa) = 34.76528 38.87144 36.81836
# Shear Modulus (GPa) = 26.87571 30.58642 28.73106
#
# Velocity S-wave (km/s) = 3.66957 3.91471 3.79412
# Velocity P-wave (km/s) = 5.94753 6.31739 6.13525
#
# Compressibility (1/GPa) = 0.02876433
#
# Stress axis : x y z
#
# Youngs Moduli (GPa) = 44.04495 54.27380 92.05933
#
# Poissons Ratio (x) = 0.32002 0.12106
# Poissons Ratio (y) = 0.25971 0.40527
# Poissons Ratio (z) = 0.05792 0.23893
#
# Static dielectric constant tensor:
#      x y z
#    x 3.460540 0.000000 -0.059990 
#    y 0.000000 3.620300 0.000000 
#    z -0.059990 0.000000 3.637940 
# 
# 
# High freq. dielectric constant tensor:
#      x y z
#    x 1.782040 0.000000 0.001070 
#    y 0.000000 1.784250 0.000000 
#    z 0.001070 0.000000 1.789240 
# 
# From -- ./inp_files/244899.got.cif
#   From: 2010.06.25/outbox.cif.g09.slc.cpg/sg12_123_cif.got.tgz:244899.got - 2010.06.28 00:19:55.
