data_PCOD8109405
_publ_section_title
;
Structure prediction by ZEFSAII (Michael W. Deem and Ramdas Pophale) SiO2 
 PCOD8109405
Probable space group: C 2/M
;
_chemical_formula_sum "Si O2"
_cell_formula_units_Z 48
_cell_length_a 9.896241
_cell_length_b 26.951003
_cell_length_c 8.864630
_cell_angle_alpha 90.000000
_cell_angle_beta 101.295198
_cell_angle_gamma 90.000000
_cell_volume 2318.523281
_symmetry_space_group_name_H-M "C 2/M"
_symmetry_group_IT_number 12
_symmetry_cell_setting 'monoclinic'
loop_
_space_group_symop_operation_xyz
x,y,z
-x,y,-z
-x,-y,-z
x,-y,z
1/2+x,1/2+y,z
1/2-x,1/2+y,-z
1/2-x,1/2-y,-z
1/2+x,1/2-y,z
loop_
_atom_site_type_symbol
_atom_site_label
_atom_site_fract_x
_atom_site_fract_y
_atom_site_fract_z
Si Si1 0.534571 0.147741 0.177665
Si Si2 0.207402 0.000000 0.388015
Si Si3 0.103799 0.737430 0.393450
Si Si4 0.213905 0.906041 0.859494
Si Si5 0.515308 0.670896 0.176582
Si Si6 0.382061 0.500000 0.324209
Si Si7 0.738731 0.902574 0.788757
O O1 0.613658 0.191780 0.280319
O O2 0.638412 0.101452 0.186105
O O3 0.403650 0.128458 0.244242
O O4 0.500000 0.166407 0.000000
O O5 0.265782 0.950861 0.319671
O O6 0.240303 0.000000 0.574101
O O7 0.044760 0.000000 0.388138
O O8 0.250000 0.750000 0.500000
O O9 0.036481 0.782960 0.289692
O O10 0.000000 0.721125 0.500000
O O11 0.126745 0.856107 0.813157
O O12 0.133719 0.951307 0.775690
O O13 0.230178 0.920724 0.037001
O O14 0.641568 0.634148 0.237581
O O15 0.500000 0.688619 0.000000
#
# Coordination Sequence:
#
# PCOD8109405 Si02
#       7
#     8   4   8   8   8   4   8
#     4  10  23  43  63  89 124 164 205 253 305 361
#     4  11  23  38  59  92 126 162 194 246 313 367
#     4  12  25  40  61  92 125 163 200 252 311 366
#     4  10  21  39  64  90 117 159 207 255 296 353
#     4  10  21  39  64  89 116 161 211 254 297 357
#     4  11  23  38  59  92 126 158 198 249 307 367
#     4  10  21  39  65  89 119 158 209 253 298 354
#
# _framework density 20.702832999999998
#
# number of rings (size 3 to 8) (size 9 to 14) (size 15 to 20)
#    0.000    1.500    1.667    3.000    0.000    5.333 
#    0.000   10.000    0.000    0.000    0.000    0.000 
#    0.000    0.000    0.000    0.000    0.000    0.000 
#
# Total GULP energy -297488.934188 kJ/mol
# GULP energy per Si atom -12395.372258 kJ/mol
# Density = 2.065571 g / cm^3
# Si number density = 20.702833 Si / 1000 Ang^3
#
#
#
# Elastic Constant Matrix: (Units=GPa)
#
#
# Indices 1 2 3 4 5 6 
#
# 1 95.9439 6.7655 24.5283 0.0000 -3.6349 0.0000
# 2 6.7655 82.2082 48.6075 0.0000 -1.3396 0.0000
# 3 24.5283 48.6075 77.1296 0.0000 -3.2229 0.0000
# 4 0.0000 0.0000 0.0000 13.3157 0.0000 2.7577
# 5 -3.6349 -1.3396 -3.2229 0.0000 27.7736 0.0000
# 6 0.0000 0.0000 0.0000 2.7577 0.0000 17.9903
#
#
#
# Elastic Compliance Matrix: (Units=1/GPa)
#
#
# Indices 1 2 3 4 5 6 
#
# 1 0.011567 0.001935 -0.004855 0.000000 0.001044 0.000000
# 2 0.001935 0.019719 -0.013056 0.000000 -0.000311 0.000000
# 3 -0.004855 -0.013056 0.022794 0.000000 0.001380 0.000000
# 4 0.000000 0.000000 0.000000 0.077562 0.000000 -0.011889
# 5 0.001044 -0.000311 0.001380 0.000000 0.036287 0.000000
# 6 0.000000 0.000000 0.000000 -0.011889 0.000000 0.057408
#
#
# Mechanical properties :
#
#
# Convention : Reuss Voigt Hill
#
# Bulk Modulus (GPa) = 45.18532 46.12047 45.65290
# Shear Modulus (GPa) = 18.89186 23.50794 21.19990
#
# Velocity S-wave (km/s) = 3.02408 3.37336 3.20349
# Velocity P-wave (km/s) = 5.83665 6.12360 5.98185
#
# Compressibility (1/GPa) = 0.02213108
#
# Stress axis : x y z
#
# Youngs Moduli (GPa) = 86.45354 50.71147 43.87027
#
# Poissons Ratio (x) = -0.09815 0.21297
# Poissons Ratio (y) = -0.16733 0.57276
# Poissons Ratio (z) = 0.41969 0.66208
#
# Static dielectric constant tensor:
#      x y z
#    x 3.491640 0.000000 0.087670 
#    y 0.000000 3.532780 0.000000 
#    z 0.087670 0.000000 3.879260 
# 
# 
# High freq. dielectric constant tensor:
#      x y z
#    x 1.818500 0.000000 -0.004260 
#    y 0.000000 1.806340 0.000000 
#    z -0.004260 0.000000 1.816780 
# 
# From -- ./inp_files/42254.got.cif
#   From: 2010.06.25/outbox.cif.g09.slc.cpg/sg12_22_cif.got.tgz:42254.got - 2010.06.28 00:19:55.
