data_PCOD8109497
_publ_section_title
;
Structure prediction by ZEFSAII (Michael W. Deem and Ramdas Pophale) SiO2 
 PCOD8109497
Probable space group: C 2/M
;
_chemical_formula_sum "Si O2"
_cell_formula_units_Z 64
_cell_length_a 30.640540
_cell_length_b 13.952726
_cell_length_c 9.243015
_cell_angle_alpha 90.000000
_cell_angle_beta 48.342659
_cell_angle_gamma 90.000000
_cell_volume 2952.345721
_symmetry_space_group_name_H-M "C 2/M"
_symmetry_group_IT_number 12
_symmetry_cell_setting 'monoclinic'
loop_
_space_group_symop_operation_xyz
x,y,z
-x,y,-z
-x,-y,-z
x,-y,z
1/2+x,1/2+y,z
1/2-x,1/2+y,-z
1/2-x,1/2-y,-z
1/2+x,1/2-y,z
loop_
_atom_site_type_symbol
_atom_site_label
_atom_site_fract_x
_atom_site_fract_y
_atom_site_fract_z
Si Si1 0.562679 0.388620 0.919076
Si Si2 0.755639 0.606604 0.878869
Si Si3 0.121476 0.612827 0.890307
Si Si4 0.777556 0.692521 0.133517
Si Si5 0.921309 0.232897 0.545900
Si Si6 0.946041 0.242478 0.809182
Si Si7 0.344577 0.388892 0.531416
Si Si8 0.627997 0.894134 0.544040
O O1 0.556450 0.500000 0.963188
O O2 0.614996 0.365402 0.694359
O O3 0.500000 0.348373 0.000000
O O4 0.580766 0.339264 0.029067
O O5 0.725277 0.500000 0.951454
O O6 0.713278 0.694578 0.926888
O O7 0.804901 0.602385 0.648699
O O8 0.783368 0.629269 0.975141
O O9 0.123286 0.500000 0.909759
O O10 0.175324 0.662145 0.853134
O O11 0.123958 0.642693 0.717372
O O12 0.061690 0.655626 0.090887
O O13 0.713784 0.674688 0.345901
O O14 0.909403 0.250641 0.741399
O O15 0.881662 0.142048 0.590482
O O16 0.906994 0.326324 0.485438
O O17 0.988516 0.211344 0.368384
O O18 0.327904 0.500000 0.579527
O O19 0.599914 0.000000 0.594481
#
# Coordination Sequence:
#
# PCOD8109497 Si02
#       8
#     8   8   8   8   8   8   8   8
#     4  10  21  41  66  93 127 169 213 264 328 386
#     4  10  21  39  64  95 130 171 216 265 322 383
#     4  11  25  43  64  96 130 172 221 267 326 391
#     4  11  23  41  67  95 134 178 215 266 326 385
#     4  11  23  42  61  96 128 167 221 268 331 386
#     4  11  25  40  66  92 130 172 215 274 323 389
#     4  11  22  39  66  95 130 174 219 269 323 390
#     4  10  22  42  67  91 125 167 213 271 328 387
#
# _framework density 21.677678
#
# number of rings (size 3 to 8) (size 9 to 14) (size 15 to 20)
#    0.000    1.375    2.500    2.625    1.750    3.000 
#    0.000    4.375    0.000    0.000    0.000    0.000 
#    0.000    0.000    0.000    0.000    0.000    0.000 
#
# Total GULP energy -396743.950485 kJ/mol
# GULP energy per Si atom -12398.248453 kJ/mol
# Density = 2.162834 g / cm^3
# Si number density = 21.677678 Si / 1000 Ang^3
#
#
#
# Elastic Constant Matrix: (Units=GPa)
#
#
# Indices 1 2 3 4 5 6 
#
# 1 70.6986 30.4821 24.0627 0.0000 22.9858 0.0000
# 2 30.4821 127.6962 29.1953 0.0000 17.6661 0.0000
# 3 24.0627 29.1953 109.8518 0.0000 26.8823 0.0000
# 4 0.0000 0.0000 0.0000 26.6951 0.0000 3.0957
# 5 22.9858 17.6661 26.8823 0.0000 42.4116 0.0000
# 6 0.0000 0.0000 0.0000 3.0957 0.0000 25.4733
#
#
#
# Elastic Compliance Matrix: (Units=1/GPa)
#
#
# Indices 1 2 3 4 5 6 
#
# 1 0.018464 -0.003013 -0.001304 0.000000 -0.007925 0.000000
# 2 -0.003013 0.009050 -0.001447 0.000000 -0.001220 0.000000
# 3 -0.001304 -0.001447 0.011188 0.000000 -0.005782 0.000000
# 4 0.000000 0.000000 0.000000 0.037996 0.000000 -0.004617
# 5 -0.007925 -0.001220 -0.005782 0.000000 0.032047 0.000000
# 6 0.000000 0.000000 0.000000 -0.004617 0.000000 0.039818
#
#
# Mechanical properties :
#
#
# Convention : Reuss Voigt Hill
#
# Bulk Modulus (GPa) = 36.79931 52.85851 44.82891
# Shear Modulus (GPa) = 29.55978 33.88309 31.72143
#
# Velocity S-wave (km/s) = 3.69671 3.95782 3.82949
# Velocity P-wave (km/s) = 5.93577 6.73220 6.34649
#
# Compressibility (1/GPa) = 0.02717442
#
# Stress axis : x y z
#
# Youngs Moduli (GPa) = 54.15874 110.49975 89.37860
#
# Poissons Ratio (x) = 0.33293 0.11658
# Poissons Ratio (y) = 0.16318 0.12931
# Poissons Ratio (z) = 0.07064 0.15986
#
# Static dielectric constant tensor:
#      x y z
#    x 3.759090 0.000000 0.122940 
#    y 0.000000 4.149560 0.000000 
#    z 0.122940 0.000000 4.213060 
# 
# 
# High freq. dielectric constant tensor:
#      x y z
#    x 1.831290 0.000000 0.009080 
#    y 0.000000 1.860920 0.000000 
#    z 0.009080 0.000000 1.871960 
# 
# From -- ./inp_files/111974.got.cif
#   From: 2010.06.25/outbox.cif.g09.slc.cpg/sg12_56_cif.got.tgz:111974.got - 2010.06.28 00:19:55.
