data_PCOD8109893
_publ_section_title
;
Structure prediction by ZEFSAII (Michael W. Deem and Ramdas Pophale) SiO2 
 PCOD8109893
Probable space group: C 2/M
;
_chemical_formula_sum "Si O2"
_cell_formula_units_Z 64
_cell_length_a 15.115322
_cell_length_b 27.807393
_cell_length_c 11.106451
_cell_angle_alpha 90.000000
_cell_angle_beta 42.622763
_cell_angle_gamma 90.000000
_cell_volume 3161.183022
_symmetry_space_group_name_H-M "C 2/M"
_symmetry_group_IT_number 12
_symmetry_cell_setting 'monoclinic'
loop_
_space_group_symop_operation_xyz
x,y,z
-x,y,-z
-x,-y,-z
x,-y,z
1/2+x,1/2+y,z
1/2-x,1/2+y,-z
1/2-x,1/2-y,-z
1/2+x,1/2-y,z
loop_
_atom_site_type_symbol
_atom_site_label
_atom_site_fract_x
_atom_site_fract_y
_atom_site_fract_z
Si Si1 0.529349 0.893286 0.605444
Si Si2 0.728016 0.555683 0.520814
Si Si3 0.267035 0.106324 0.997653
Si Si4 0.682194 0.212586 0.984370
Si Si5 0.582369 0.209602 0.633255
Si Si6 0.296465 0.704063 0.614700
Si Si7 0.852295 0.097687 0.633844
Si Si8 0.040590 0.944603 0.095252
O O1 0.500000 0.910830 0.500000
O O2 0.663143 0.916583 0.514022
O O3 0.544783 0.835764 0.588887
O O4 0.411580 0.910124 0.811409
O O5 0.750581 0.500000 0.524275
O O6 0.734327 0.567962 0.373991
O O7 0.583295 0.572339 0.703562
O O8 0.262003 0.163079 0.019809
O O9 0.227571 0.084783 0.165952
O O10 0.163049 0.089414 0.001963
O O11 0.712614 0.221594 0.813406
O O12 0.750000 0.250000 0.000000
O O13 0.527565 0.218522 0.155970
O O14 0.597225 0.255197 0.527950
O O15 0.711219 0.197090 0.580049
O O16 0.362724 0.653605 0.583502
O O17 0.000000 0.078153 0.500000
O O18 0.078743 0.000000 0.083093
O O19 0.000000 0.936678 0.000000
#
# Coordination Sequence:
#
# PCOD8109893 Si02
#       8
#     8   8   8   8   8   8   8   8
#     4  11  24  42  64  92 130 166 210 258 312 379
#     4  11  24  42  66  96 128 162 208 264 316 370
#     4  10  23  40  63  92 122 170 205 254 311 374
#     4  10  23  37  58  89 125 159 207 254 306 363
#     4  10  22  39  61  87 121 166 208 252 308 365
#     4  10  22  39  62  86 122 166 205 253 307 371
#     4  11  22  40  66  92 126 163 210 259 314 375
#     4  10  21  40  64  91 125 163 208 259 310 367
#
# _framework density 20.245587
#
# number of rings (size 3 to 8) (size 9 to 14) (size 15 to 20)
#    0.000    1.625    2.500    1.125    7.000    2.000 
#    0.000    0.625    0.000    0.000    0.000    0.000 
#    0.000    0.000    0.000    0.000    0.000    0.000 
#
# Total GULP energy -396789.835491 kJ/mol
# GULP energy per Si atom -12399.682359 kJ/mol
# Density = 2.019951 g / cm^3
# Si number density = 20.245587 Si / 1000 Ang^3
#
#
#
# Elastic Constant Matrix: (Units=GPa)
#
#
# Indices 1 2 3 4 5 6 
#
# 1 100.4684 23.1636 28.0092 0.0000 0.1574 0.0000
# 2 23.1636 39.1637 38.7464 0.0000 -4.8301 0.0000
# 3 28.0092 38.7464 105.2223 0.0000 7.0514 0.0000
# 4 0.0000 0.0000 0.0000 19.8245 0.0000 -3.0298
# 5 0.1574 -4.8301 7.0514 0.0000 31.6827 0.0000
# 6 0.0000 0.0000 0.0000 -3.0298 0.0000 28.8072
#
#
#
# Elastic Compliance Matrix: (Units=1/GPa)
#
#
# Indices 1 2 3 4 5 6 
#
# 1 0.011597 -0.006238 -0.000733 0.000000 -0.000845 0.000000
# 2 -0.006238 0.046592 -0.016216 0.000000 0.010743 0.000000
# 3 -0.000733 -0.016216 0.016075 0.000000 -0.006046 0.000000
# 4 0.000000 0.000000 0.000000 0.051267 0.000000 0.005392
# 5 -0.000845 0.010743 -0.006046 0.000000 0.034551 0.000000
# 6 0.000000 0.000000 0.000000 0.005392 0.000000 0.035281
#
#
# Mechanical properties :
#
#
# Convention : Reuss Voigt Hill
#
# Bulk Modulus (GPa) = 35.85583 47.18808 41.52196
# Shear Modulus (GPa) = 19.91765 26.39191 23.15478
#
# Velocity S-wave (km/s) = 3.13996 3.61444 3.38553
# Velocity P-wave (km/s) = 5.55830 6.38571 5.98632
#
# Compressibility (1/GPa) = 0.02788947
#
# Stress axis : x y z
#
# Youngs Moduli (GPa) = 86.22636 21.46309 62.20689
#
# Poissons Ratio (x) = 0.13389 0.04562
# Poissons Ratio (y) = 0.53788 1.00875
# Poissons Ratio (z) = 0.06324 0.34805
#
# Static dielectric constant tensor:
#      x y z
#    x 2.913800 0.000000 0.575040 
#    y 0.000000 3.478000 0.000000 
#    z 0.575040 0.000000 3.594400 
# 
# 
# High freq. dielectric constant tensor:
#      x y z
#    x 1.798510 0.000000 0.004630 
#    y 0.000000 1.779960 0.000000 
#    z 0.004630 0.000000 1.800350 
# 
# From -- ./inp_files/150262.got.cif
#   From: 2010.06.25/outbox.cif.g09.slc.cpg/sg12_76_cif.got.tgz:150262.got - 2010.06.28 00:19:55.
