data_PCOD8109286
_publ_section_title
;
Structure prediction by ZEFSAII (Michael W. Deem and Ramdas Pophale) SiO2 
 PCOD8109286
Probable space group: C 2/M
;
_chemical_formula_sum "Si O2"
_cell_formula_units_Z 60
_cell_length_a 8.415199
_cell_length_b 20.116533
_cell_length_c 19.595494
_cell_angle_alpha 90.000000
_cell_angle_beta 58.710032
_cell_angle_gamma 90.000000
_cell_volume 2834.726136
_symmetry_space_group_name_H-M "C 2/M"
_symmetry_group_IT_number 12
_symmetry_cell_setting 'monoclinic'
loop_
_space_group_symop_operation_xyz
x,y,z
-x,y,-z
-x,-y,-z
x,-y,z
1/2+x,1/2+y,z
1/2-x,1/2+y,-z
1/2-x,1/2-y,-z
1/2+x,1/2-y,z
loop_
_atom_site_type_symbol
_atom_site_label
_atom_site_fract_x
_atom_site_fract_y
_atom_site_fract_z
Si Si1 0.942232 0.425519 0.658933
Si Si2 0.421578 0.691051 0.666173
Si Si3 0.660187 0.188763 0.409630
Si Si4 0.209658 0.077718 0.968372
Si Si5 0.643993 0.573883 0.412821
Si Si6 0.000000 0.351831 0.000000
Si Si7 0.354016 0.152965 0.814131
Si Si8 0.156052 0.721421 0.834341
O O1 0.855520 0.500000 0.683479
O O2 0.850044 0.385783 0.617672
O O3 0.919190 0.384627 0.732998
O O4 0.159172 0.430070 0.593451
O O5 0.340064 0.756631 0.649348
O O6 0.639111 0.693242 0.601589
O O7 0.340187 0.622838 0.654442
O O8 0.354396 0.693442 0.760409
O O9 0.500000 0.203303 0.500000
O O10 0.321961 0.094565 0.875322
O O11 0.201271 0.000000 0.983743
O O12 0.325987 0.107352 0.006633
O O13 0.000000 0.105335 0.000000
O O14 0.500000 0.602799 0.500000
O O15 0.583854 0.500000 0.401129
O O16 0.098732 0.307779 0.920227
O O17 0.172367 0.198577 0.839982
O O18 0.506139 0.204464 0.809584
#
# Coordination Sequence:
#
# PCOD8109286 Si02
#       8
#     8   8   8   8   8   4   8   8
#     4  11  23  41  62  88 125 168 211 262 324 386
#     4  12  22  41  63  91 127 165 215 263 326 385
#     4  12  25  39  63  94 128 169 215 269 323 387
#     4  10  23  42  66  94 131 174 218 269 333 402
#     4  10  21  39  63  89 121 162 208 257 313 381
#     4  10  25  42  66 100 129 172 224 280 338 388
#     4  11  23  41  64  93 125 166 217 264 328 387
#     4  11  24  40  66  95 126 166 212 275 329 388
#
# _framework density 21.166065
#
# number of rings (size 3 to 8) (size 9 to 14) (size 15 to 20)
#    0.000    1.067    2.667    3.800    2.800    1.867 
#    0.000    0.667    0.000    0.000    0.000    0.000 
#    0.000    0.000    0.000    0.000    0.000    0.000 
#
# Total GULP energy -371846.266010 kJ/mol
# GULP energy per Si atom -12394.875534 kJ/mol
# Density = 2.111789 g / cm^3
# Si number density = 21.166065 Si / 1000 Ang^3
#
#
#
# Elastic Constant Matrix: (Units=GPa)
#
#
# Indices 1 2 3 4 5 6 
#
# 1 87.9148 33.7353 10.0821 0.0000 -7.0670 0.0000
# 2 33.7353 123.5452 36.1548 0.0000 8.9240 0.0000
# 3 10.0821 36.1548 111.6241 0.0000 6.6002 0.0000
# 4 0.0000 0.0000 0.0000 23.5359 0.0000 -2.9241
# 5 -7.0670 8.9240 6.6002 0.0000 29.2914 0.0000
# 6 0.0000 0.0000 0.0000 -2.9241 0.0000 30.4020
#
#
#
# Elastic Compliance Matrix: (Units=1/GPa)
#
#
# Indices 1 2 3 4 5 6 
#
# 1 0.013240 -0.003876 -0.000202 0.000000 0.004421 0.000000
# 2 -0.003876 0.010205 -0.002753 0.000000 -0.003424 0.000000
# 3 -0.000202 -0.002753 0.009954 0.000000 -0.001453 0.000000
# 4 0.000000 0.000000 0.000000 0.043002 0.000000 0.004136
# 5 0.004421 -0.003424 -0.001453 0.000000 0.036577 0.000000
# 6 0.000000 0.000000 0.000000 0.004136 0.000000 0.033290
#
#
# Mechanical properties :
#
#
# Convention : Reuss Voigt Hill
#
# Bulk Modulus (GPa) = 50.66095 53.66982 52.16539
# Shear Modulus (GPa) = 30.02810 32.85330 31.44070
#
# Velocity S-wave (km/s) = 3.77064 3.94403 3.85831
# Velocity P-wave (km/s) = 6.55316 6.79353 6.67443
#
# Compressibility (1/GPa) = 0.01973907
#
# Stress axis : x y z
#
# Youngs Moduli (GPa) = 75.52668 97.98674 100.45711
#
# Poissons Ratio (x) = 0.37976 0.02029
# Poissons Ratio (y) = 0.29271 0.27656
# Poissons Ratio (z) = 0.01525 0.26976
#
# Static dielectric constant tensor:
#      x y z
#    x 3.876060 0.000000 -0.116650 
#    y 0.000000 3.958840 0.000000 
#    z -0.116650 0.000000 3.822150 
# 
# 
# High freq. dielectric constant tensor:
#      x y z
#    x 1.825510 0.000000 -0.005510 
#    y 0.000000 1.835890 0.000000 
#    z -0.005510 0.000000 1.836880 
# 
# From -- ./inp_files/301897.got.cif
#   From: 2010.06.25/outbox.cif.g09.slc.cpg/sg12_151_cif.got.tgz:301897.got - 2010.06.28 00:19:55.
