data_PCOD8109375
_publ_section_title
;
Structure prediction by ZEFSAII (Michael W. Deem and Ramdas Pophale) SiO2 
 PCOD8109375
Probable space group: C 2/M
;
_chemical_formula_sum "Si O2"
_cell_formula_units_Z 40
_cell_length_a 24.032862
_cell_length_b 8.475686
_cell_length_c 9.574628
_cell_angle_alpha 90.000000
_cell_angle_beta 102.895034
_cell_angle_gamma 90.000000
_cell_volume 1901.118166
_symmetry_space_group_name_H-M "C 2/M"
_symmetry_group_IT_number 12
_symmetry_cell_setting 'monoclinic'
loop_
_space_group_symop_operation_xyz
x,y,z
-x,y,-z
-x,-y,-z
x,-y,z
1/2+x,1/2+y,z
1/2-x,1/2+y,-z
1/2-x,1/2-y,-z
1/2+x,1/2-y,z
loop_
_atom_site_type_symbol
_atom_site_label
_atom_site_fract_x
_atom_site_fract_y
_atom_site_fract_z
Si Si1 0.645011 0.313544 0.791880
Si Si2 0.046243 0.316157 0.137639
Si Si3 0.519475 0.684281 0.656705
Si Si4 0.235837 0.684920 0.644774
Si Si5 0.829574 0.684813 0.900183
O O1 0.646347 0.500000 0.815360
O O2 0.580373 0.246009 0.742221
O O3 0.678643 0.268286 0.669840
O O4 0.676123 0.232211 0.941014
O O5 0.041489 0.500000 0.168493
O O6 0.107879 0.267964 0.117331
O O7 0.032314 0.219824 0.268503
O O8 0.000000 0.261529 0.000000
O O9 0.500000 0.761745 0.500000
O O10 0.528423 0.500000 0.642161
O O11 0.224770 0.500000 0.627059
O O12 0.250000 0.750000 0.500000
O O13 0.286515 0.717936 0.781137
O O14 0.816596 0.500000 0.876517
#
# Coordination Sequence:
#
# PCOD8109375 Si02
#       5
#     8   8   8   8   8
#     4  11  23  42  66  94 128 169 215 260 313 375
#     4  10  21  39  63  94 128 164 207 255 308 371
#     4  10  23  40  61  93 130 168 208 256 312 372
#     4  12  27  46  67  93 126 164 209 263 320 377
#     4  11  23  42  67  95 128 167 213 261 313 374
#
# _framework density 21.040248999999999
#
# number of rings (size 3 to 8) (size 9 to 14) (size 15 to 20)
#    0.000    1.200    2.000    3.600    2.800    3.200 
#    0.000    0.000    0.000    0.000    0.000    0.000 
#    0.000    0.000    0.000    0.000    0.000    0.000 
#
# Total GULP energy -248092.946940 kJ/mol
# GULP energy per Si atom -12404.647347 kJ/mol
# Density = 2.099236 g / cm^3
# Si number density = 21.040249 Si / 1000 Ang^3
#
#
#
# Elastic Constant Matrix: (Units=GPa)
#
#
# Indices 1 2 3 4 5 6 
#
# 1 86.1396 16.4714 27.7588 0.0000 -16.4411 0.0000
# 2 16.4714 44.6883 13.8936 0.0000 2.4778 0.0000
# 3 27.7588 13.8936 127.3480 0.0000 -11.2607 0.0000
# 4 0.0000 0.0000 0.0000 34.5566 0.0000 -3.9325
# 5 -16.4411 2.4778 -11.2607 0.0000 39.1772 0.0000
# 6 0.0000 0.0000 0.0000 -3.9325 0.0000 24.1871
#
#
#
# Elastic Compliance Matrix: (Units=1/GPa)
#
#
# Indices 1 2 3 4 5 6 
#
# 1 0.014317 -0.004949 -0.002074 0.000000 0.005725 0.000000
# 2 -0.004949 0.025069 -0.002032 0.000000 -0.004246 0.000000
# 3 -0.002074 -0.002032 0.008681 0.000000 0.001753 0.000000
# 4 0.000000 0.000000 0.000000 0.029484 0.000000 0.004794
# 5 0.005725 -0.004246 0.001753 0.000000 0.028700 0.000000
# 6 0.000000 0.000000 0.000000 0.004794 0.000000 0.042124
#
#
# Mechanical properties :
#
#
# Convention : Reuss Voigt Hill
#
# Bulk Modulus (GPa) = 33.38267 41.60260 37.49263
# Shear Modulus (GPa) = 28.33343 32.92098 30.62721
#
# Velocity S-wave (km/s) = 3.67363 3.95988 3.81944
# Velocity P-wave (km/s) = 5.82191 6.38148 6.10811
#
# Compressibility (1/GPa) = 0.02995566
#
# Stress axis : x y z
#
# Youngs Moduli (GPa) = 69.84868 39.89061 115.18929
#
# Poissons Ratio (x) = 0.19743 0.23896
# Poissons Ratio (y) = 0.34571 0.23402
# Poissons Ratio (z) = 0.14490 0.08104
#
# Static dielectric constant tensor:
#      x y z
#    x 4.025210 0.000000 0.018040 
#    y 0.000000 3.639660 0.000000 
#    z 0.018040 0.000000 3.948170 
# 
# 
# High freq. dielectric constant tensor:
#      x y z
#    x 1.838740 0.000000 -0.004310 
#    y 0.000000 1.817970 0.000000 
#    z -0.004310 0.000000 1.834680 
# 
# From -- ./inp_files/92765.got.cif
#   From: 2010.06.25/outbox.cif.g09.slc.cpg/sg12_47_cif.got.tgz:92765.got - 2010.06.28 00:19:55.
