data_PCOD8109673
_publ_section_title
;
Structure prediction by ZEFSAII (Michael W. Deem and Ramdas Pophale) SiO2 
 PCOD8109673
Probable space group: C 2/M
;
_chemical_formula_sum "Si O2"
_cell_formula_units_Z 48
_cell_length_a 13.446888
_cell_length_b 29.659262
_cell_length_c 11.079796
_cell_angle_alpha 90.000000
_cell_angle_beta 147.652591
_cell_angle_gamma 90.000000
_cell_volume 2364.337863
_symmetry_space_group_name_H-M "C 2/M"
_symmetry_group_IT_number 12
_symmetry_cell_setting 'monoclinic'
loop_
_space_group_symop_operation_xyz
x,y,z
-x,y,-z
-x,-y,-z
x,-y,z
1/2+x,1/2+y,z
1/2-x,1/2+y,-z
1/2-x,1/2-y,-z
1/2+x,1/2-y,z
loop_
_atom_site_type_symbol
_atom_site_label
_atom_site_fract_x
_atom_site_fract_y
_atom_site_fract_z
Si Si1 0.720179 0.303380 0.978573
Si Si2 0.272173 0.000000 0.162992
Si Si3 0.641013 0.500000 0.300518
Si Si4 0.419886 0.926675 0.576218
Si Si5 0.701028 0.698463 0.446726
Si Si6 0.495861 0.859288 0.860874
Si Si7 0.283770 0.352223 0.775772
O O1 0.781442 0.327313 0.168006
O O2 0.830293 0.326455 0.983136
O O3 0.750000 0.250000 0.000000
O O4 0.507827 0.313279 0.736389
O O5 0.183950 0.000000 0.203030
O O6 0.403454 0.043441 0.283926
O O7 0.078913 0.000000 0.885270
O O8 0.747561 0.455243 0.456403
O O9 0.500155 0.899393 0.770409
O O10 0.342837 0.895952 0.385423
O O11 0.750000 0.750000 0.500000
O O12 0.813112 0.670984 0.660966
O O13 0.752906 0.684083 0.365071
O O14 0.500000 0.879134 0.000000
O O15 0.500000 0.367303 0.000000
#
# Coordination Sequence:
#
# PCOD8109673 Si02
#       7
#     8   4   4   8   8   8   8
#     4  11  23  38  61  90 119 170 218 268 313 363
#     4  10  23  39  67 100 133 154 192 259 320 405
#     4  10  23  39  66 101 134 150 190 265 322 393
#     4  10  22  42  65  94 126 167 204 247 331 383
#     4  10  21  40  59  86 120 163 213 269 316 360
#     4  11  26  42  61  88 129 172 219 265 308 371
#     4   9  22  37  62  92 128 162 208 263 316 378
#
# _framework density 20.301666999999998
#
# number of rings (size 3 to 8) (size 9 to 14) (size 15 to 20)
#    0.000    1.833    1.667    1.000    9.333    5.333 
#    0.000    1.667    0.000    1.000    0.000    0.000 
#    0.000    0.000    0.000    0.000    0.000    0.000 
#
# Total GULP energy -297428.116325 kJ/mol
# GULP energy per Si atom -12392.838180 kJ/mol
# Density = 2.025546 g / cm^3
# Si number density = 20.301667 Si / 1000 Ang^3
#
#
#
# Elastic Constant Matrix: (Units=GPa)
#
#
# Indices 1 2 3 4 5 6 
#
# 1 92.8262 49.3161 58.1980 0.0000 4.8732 0.0000
# 2 49.3161 142.4287 59.8906 0.0000 6.2729 0.0000
# 3 58.1980 59.8906 119.4916 0.0000 15.9558 0.0000
# 4 0.0000 0.0000 0.0000 15.7136 0.0000 -21.6338
# 5 4.8732 6.2729 15.9558 0.0000 40.8716 0.0000
# 6 0.0000 0.0000 0.0000 -21.6338 0.0000 -26.5154
#
#
#
# Elastic Compliance Matrix: (Units=1/GPa)
#
#
# Indices 1 2 3 4 5 6 
#
# 1 0.016475 -0.002936 -0.006700 0.000000 0.001102 0.000000
# 2 -0.002936 0.009425 -0.003321 0.000000 0.000200 0.000000
# 3 -0.006700 -0.003321 0.013843 0.000000 -0.004096 0.000000
# 4 0.000000 0.000000 0.000000 0.029972 0.000000 -0.024454
# 5 0.001102 0.000200 -0.004096 0.000000 0.025904 0.000000
# 6 0.000000 0.000000 0.000000 -0.024454 0.000000 -0.017762
#
#
# Mechanical properties :
#
#
# Convention : Reuss Voigt Hill
#
# Bulk Modulus (GPa) = 72.30304 76.61732 74.46018
# Shear Modulus (GPa) = 46.13367 18.50339 32.31853
#
# Velocity S-wave (km/s) = 4.77215 3.02225 3.99421
# Velocity P-wave (km/s) = 8.12750 7.07107 7.61762
#
# Compressibility (1/GPa) = 0.01383068
#
# Stress axis : x y z
#
# Youngs Moduli (GPa) = 60.69719 106.09884 72.23721
#
# Poissons Ratio (x) = 0.31149 0.48398
# Poissons Ratio (y) = 0.17820 0.23989
# Poissons Ratio (z) = 0.40666 0.35234
#
# Static dielectric constant tensor:
#      x y z
#    x 3.750340 0.000000 0.412850 
#    y 0.000000 3.992030 0.000000 
#    z 0.412850 0.000000 3.988720 
# 
# 
# High freq. dielectric constant tensor:
#      x y z
#    x 1.773980 0.000000 0.026760 
#    y 0.000000 1.803960 0.000000 
#    z 0.026760 0.000000 1.803060 
# 
# From -- ./inp_files/150358.got.cif
#   From: 2010.06.25/outbox.cif.g09.slc.cpg/sg12_76_cif.got.tgz:150358.got - 2010.06.28 00:19:55.
