data_PCOD8109768
_publ_section_title
;
Structure prediction by ZEFSAII (Michael W. Deem and Ramdas Pophale) SiO2 
 PCOD8109768
Probable space group: C 2/M
;
_chemical_formula_sum "Si O2"
_cell_formula_units_Z 64
_cell_length_a 13.663233
_cell_length_b 15.036943
_cell_length_c 17.873626
_cell_angle_alpha 90.000000
_cell_angle_beta 53.919240
_cell_angle_gamma 90.000000
_cell_volume 2967.822520
_symmetry_space_group_name_H-M "C 2/M"
_symmetry_group_IT_number 12
_symmetry_cell_setting 'monoclinic'
loop_
_space_group_symop_operation_xyz
x,y,z
-x,y,-z
-x,-y,-z
x,-y,z
1/2+x,1/2+y,z
1/2-x,1/2+y,-z
1/2-x,1/2-y,-z
1/2+x,1/2-y,z
loop_
_atom_site_type_symbol
_atom_site_label
_atom_site_fract_x
_atom_site_fract_y
_atom_site_fract_z
Si Si1 0.480025 0.098166 0.728565
Si Si2 0.498371 0.601926 0.693901
Si Si3 0.360427 0.252165 0.006244
Si Si4 0.471391 0.896197 0.125221
Si Si5 0.725893 0.327106 0.288786
Si Si6 0.335054 0.767125 0.392103
Si Si7 0.985626 0.903573 0.866215
Si Si8 0.769888 0.843021 0.194414
O O1 0.488448 0.131282 0.809875
O O2 0.550616 0.167423 0.642757
O O3 0.336614 0.090871 0.780378
O O4 0.537056 0.000000 0.692712
O O5 0.544232 0.500000 0.661990
O O6 0.400951 0.623064 0.672167
O O7 0.611783 0.669030 0.647681
O O8 0.437225 0.612134 0.803644
O O9 0.441321 0.161388 0.969428
O O10 0.444865 0.331394 0.942580
O O11 0.250000 0.250000 0.000000
O O12 0.319393 0.277929 0.107059
O O13 0.328484 0.872663 0.189358
O O14 0.491938 0.000000 0.096482
O O15 0.761479 0.322003 0.360725
O O16 0.707749 0.224314 0.279551
O O17 0.250000 0.750000 0.500000
O O18 0.131176 0.900635 0.806191
O O19 0.939725 0.000000 0.914318
#
# Coordination Sequence:
#
# PCOD8109768 Si02
#       8
#     8   8   8   8   8   8   8   8
#     4  10  21  40  67  94 126 168 218 268 330 397
#     4  11  23  44  70 100 136 177 219 274 334 396
#     4  12  23  37  59  90 131 173 222 276 324 379
#     4  10  21  40  62  90 128 172 220 273 323 383
#     4  11  22  42  69  94 126 177 216 264 329 402
#     4  11  24  44  71 101 133 166 209 270 337 406
#     4  11  24  41  62  92 130 172 222 276 325 379
#     4  12  21  38  66  87 128 175 220 265 333 380
#
# _framework density 21.564632
#
# number of rings (size 3 to 8) (size 9 to 14) (size 15 to 20)
#    0.000    1.000    5.000    2.625    0.000    3.500 
#    0.000    2.500    0.000    0.750    0.000    0.000 
#    0.000    0.000    0.000    0.000    0.000    0.000 
#
# Total GULP energy -396452.952814 kJ/mol
# GULP energy per Si atom -12389.154775 kJ/mol
# Density = 2.151555 g / cm^3
# Si number density = 21.564632 Si / 1000 Ang^3
#
#
#
# Elastic Constant Matrix: (Units=GPa)
#
#
# Indices 1 2 3 4 5 6 
#
# 1 113.2005 12.1678 12.3434 0.0000 -0.7244 0.0000
# 2 12.1678 126.8334 25.8698 0.0000 -5.6281 0.0000
# 3 12.3434 25.8698 69.4150 0.0000 -3.3916 0.0000
# 4 0.0000 0.0000 0.0000 -16.3008 0.0000 -3.1350
# 5 -0.7244 -5.6281 -3.3916 0.0000 19.4275 0.0000
# 6 0.0000 0.0000 0.0000 -3.1350 0.0000 27.0282
#
#
#
# Elastic Compliance Matrix: (Units=1/GPa)
#
#
# Indices 1 2 3 4 5 6 
#
# 1 0.009048 -0.000587 -0.001394 0.000000 -0.000076 0.000000
# 2 -0.000587 0.008644 -0.003021 0.000000 0.001955 0.000000
# 3 -0.001394 -0.003021 0.015870 0.000000 0.001843 0.000000
# 4 0.000000 0.000000 0.000000 -0.060008 0.000000 -0.006960
# 5 -0.000076 0.001955 0.001843 0.000000 0.052359 0.000000
# 6 0.000000 0.000000 0.000000 -0.006960 0.000000 0.036191
#
#
# Mechanical properties :
#
#
# Convention : Reuss Voigt Hill
#
# Bulk Modulus (GPa) = 42.44969 45.57898 44.01434
# Shear Modulus (GPa) = 62.53028 23.30218 42.91623
#
# Velocity S-wave (km/s) = 5.39070 3.29077 4.46592
# Velocity P-wave (km/s) = 7.64681 5.96832 6.85910
#
# Compressibility (1/GPa) = 0.02355730
#
# Stress axis : x y z
#
# Youngs Moduli (GPa) = 110.51559 115.69116 63.01162
#
# Poissons Ratio (x) = 0.06793 0.08783
# Poissons Ratio (y) = 0.06489 0.19039
# Poissons Ratio (z) = 0.15405 0.34956
#
# Static dielectric constant tensor:
#      x y z
#    x 3.962320 0.000000 0.075480 
#    y 0.000000 4.452930 0.000000 
#    z 0.075480 0.000000 3.526980 
# 
# 
# High freq. dielectric constant tensor:
#      x y z
#    x 1.862320 0.000000 0.001550 
#    y 0.000000 1.859500 0.000000 
#    z 0.001550 0.000000 1.802610 
# 
# From -- ./inp_files/270666.got.cif
#   From: 2010.06.25/outbox.cif.g09.slc.cpg/sg12_136_cif.got.tgz:270666.got - 2010.06.28 00:19:55.
