data_PCOD8109000
_publ_section_title
;
Structure prediction by ZEFSAII (Michael W. Deem and Ramdas Pophale) SiO2 
 PCOD8109000
Probable space group: C 2/M
;
_chemical_formula_sum "Si O2"
_cell_formula_units_Z 48
_cell_length_a 19.943067
_cell_length_b 9.029452
_cell_length_c 13.747997
_cell_angle_alpha 90.000000
_cell_angle_beta 89.480476
_cell_angle_gamma 90.000000
_cell_volume 2475.568324
_symmetry_space_group_name_H-M "C 2/M"
_symmetry_group_IT_number 12
_symmetry_cell_setting 'monoclinic'
loop_
_space_group_symop_operation_xyz
x,y,z
-x,y,-z
-x,-y,-z
x,-y,z
1/2+x,1/2+y,z
1/2-x,1/2+y,-z
1/2-x,1/2-y,-z
1/2+x,1/2-y,z
loop_
_atom_site_type_symbol
_atom_site_label
_atom_site_fract_x
_atom_site_fract_y
_atom_site_fract_z
Si Si1 0.872357 0.329638 0.876647
Si Si2 0.389456 0.324282 0.078566
Si Si3 0.450755 0.328049 0.414168
Si Si4 0.233562 0.824421 0.790767
Si Si5 0.011217 0.330049 0.783257
Si Si6 0.702392 0.672915 0.577120
O O1 0.863385 0.500000 0.910013
O O2 0.805429 0.267236 0.826520
O O3 0.931455 0.314165 0.797368
O O4 0.888250 0.230438 0.968912
O O5 0.394800 0.500000 0.080163
O O6 0.323090 0.266365 0.134669
O O7 0.454280 0.258992 0.130295
O O8 0.500000 0.280687 0.500000
O O9 0.459229 0.500000 0.386296
O O10 0.468774 0.232911 0.320731
O O11 0.374896 0.294178 0.448281
O O12 0.218374 0.761093 0.683736
O O13 0.231659 0.000000 0.786471
O O14 0.034094 0.500000 0.789007
O O15 0.718063 0.500000 0.573634
O O16 0.750000 0.750000 0.500000
#
# Coordination Sequence:
#
# PCOD8109000 Si02
#       6
#     8   8   8   8   8   8
#     4  10  22  38  57  85 118 152 192 240 287 337
#     4  11  21  38  62  85 114 154 195 237 288 344
#     4  10  22  41  63  86 117 153 190 238 290 340
#     4   9  19  38  60  81 115 154 189 235 289 338
#     4  11  23  38  59  86 118 154 192 237 286 341
#     4  10  21  39  61  86 116 151 189 235 288 340
#
# _framework density 19.389486999999999
#
# number of rings (size 3 to 8) (size 9 to 14) (size 15 to 20)
#    0.000    1.833    1.667    2.000    2.333    4.333 
#    0.000    1.667    0.000    0.000    0.000    0.000 
#    0.000    0.000    0.000    0.000    0.000    0.000 
#
# Total GULP energy -297695.756724 kJ/mol
# GULP energy per Si atom -12403.989864 kJ/mol
# Density = 1.934536 g / cm^3
# Si number density = 19.389487 Si / 1000 Ang^3
#
#
#
# Elastic Constant Matrix: (Units=GPa)
#
#
# Indices 1 2 3 4 5 6 
#
# 1 125.0661 38.6204 47.2189 0.0000 7.7822 0.0000
# 2 38.6204 66.9890 40.7263 0.0000 -0.9960 0.0000
# 3 47.2189 40.7263 110.3445 0.0000 2.5861 0.0000
# 4 0.0000 0.0000 0.0000 36.5391 0.0000 -5.3028
# 5 7.7822 -0.9960 2.5861 0.0000 42.1913 0.0000
# 6 0.0000 0.0000 0.0000 -5.3028 0.0000 23.0925
#
#
#
# Elastic Compliance Matrix: (Units=1/GPa)
#
#
# Indices 1 2 3 4 5 6 
#
# 1 0.010539 -0.004369 -0.002853 0.000000 -0.001872 0.000000
# 2 -0.004369 0.021091 -0.005954 0.000000 0.001669 0.000000
# 3 -0.002853 -0.005954 0.012490 0.000000 -0.000380 0.000000
# 4 0.000000 0.000000 0.000000 0.028311 0.000000 0.006501
# 5 -0.001872 0.001669 -0.000380 0.000000 0.024110 0.000000
# 6 0.000000 0.000000 0.000000 0.006501 0.000000 0.044797
#
#
# Mechanical properties :
#
#
# Convention : Reuss Voigt Hill
#
# Bulk Modulus (GPa) = 56.28298 61.72564 59.00431
# Shear Modulus (GPa) = 28.79975 32.08684 30.44329
#
# Velocity S-wave (km/s) = 3.85818 4.07241 3.96674
# Velocity P-wave (km/s) = 6.99557 7.34958 7.17476
#
# Compressibility (1/GPa) = 0.01776736
#
# Stress axis : x y z
#
# Youngs Moduli (GPa) = 94.88875 47.41340 80.06426
#
# Poissons Ratio (x) = 0.20714 0.22846
# Poissons Ratio (y) = 0.41455 0.47670
# Poissons Ratio (z) = 0.27076 0.28230
#
# Static dielectric constant tensor:
#      x y z
#    x 3.917980 0.000000 0.186390 
#    y 0.000000 3.379780 0.000000 
#    z 0.186390 0.000000 3.672990 
# 
# 
# High freq. dielectric constant tensor:
#      x y z
#    x 1.772680 0.000000 0.000540 
#    y 0.000000 1.737650 0.000000 
#    z 0.000540 0.000000 1.760390 
# 
# From -- ./inp_files/221553.got.cif
#   From: 2010.06.25/outbox.cif.g09.slc.cpg/sg12_111_cif.got.tgz:221553.got - 2010.06.28 00:19:55.
