data_PCOD8109037
_publ_section_title
;
Structure prediction by ZEFSAII (Michael W. Deem and Ramdas Pophale) SiO2 
 PCOD8109037
Probable space group: C 2/M
;
_chemical_formula_sum "Si O2"
_cell_formula_units_Z 48
_cell_length_a 29.584514
_cell_length_b 8.976249
_cell_length_c 14.733309
_cell_angle_alpha 90.000000
_cell_angle_beta 39.108734
_cell_angle_gamma 90.000000
_cell_volume 2468.011900
_symmetry_space_group_name_H-M "C 2/M"
_symmetry_group_IT_number 12
_symmetry_cell_setting 'monoclinic'
loop_
_space_group_symop_operation_xyz
x,y,z
-x,y,-z
-x,-y,-z
x,-y,z
1/2+x,1/2+y,z
1/2-x,1/2+y,-z
1/2-x,1/2-y,-z
1/2+x,1/2-y,z
loop_
_atom_site_type_symbol
_atom_site_label
_atom_site_fract_x
_atom_site_fract_y
_atom_site_fract_z
Si Si1 0.975657 0.666500 0.935785
Si Si2 0.219149 0.328142 0.459011
Si Si3 0.528137 0.677070 0.359982
Si Si4 0.833973 0.169329 0.125107
Si Si5 0.071149 0.825144 0.649018
Si Si6 0.816426 0.173304 0.944231
O O1 0.984295 0.500000 0.881172
O O2 0.022263 0.787550 0.810799
O O3 0.893545 0.713467 0.060373
O O4 0.000000 0.667812 0.000000
O O5 0.208277 0.500000 0.500945
O O6 0.250000 0.250000 0.500000
O O7 0.269729 0.305794 0.294293
O O8 0.144840 0.260392 0.543023
O O9 0.500000 0.740041 0.500000
O O10 0.531546 0.500000 0.355326
O O11 0.470767 0.730642 0.374917
O O12 0.607560 0.738525 0.211507
O O13 0.863598 0.000000 0.084277
O O14 0.808289 0.204799 0.063579
O O15 0.086670 0.000000 0.622721
O O16 0.812431 0.000000 0.927797
O O17 0.750000 0.250000 0.000000
#
# Coordination Sequence:
#
# PCOD8109037 Si02
#       6
#     8   8   8   8   8   8
#     4  11  23  38  60  89 119 152 198 251 297 352
#     4  11  24  41  61  88 123 160 203 250 298 354
#     4   9  19  37  61  88 118 153 196 242 291 353
#     4  10  22  41  61  84 120 161 198 242 299 359
#     4  11  22  39  63  88 121 161 199 243 299 358
#     4  10  21  39  61  88 120 153 194 242 296 358
#
# _framework density 19.448851999999999
#
# number of rings (size 3 to 8) (size 9 to 14) (size 15 to 20)
#    0.000    1.667    1.667    2.500    2.333    6.000 
#    0.000    0.000    0.000    2.500    0.000    0.000 
#    0.000    0.000    0.000    0.000    0.000    0.000 
#
# Total GULP energy -297642.734229 kJ/mol
# GULP energy per Si atom -12401.780593 kJ/mol
# Density = 1.940459 g / cm^3
# Si number density = 19.448852 Si / 1000 Ang^3
#
#
#
# Elastic Constant Matrix: (Units=GPa)
#
#
# Indices 1 2 3 4 5 6 
#
# 1 167.6123 66.6981 87.1920 0.0001 -14.5071 0.0000
# 2 66.6981 76.4785 54.0488 0.0001 -5.7279 0.0000
# 3 87.1920 54.0488 139.2669 0.0002 -1.6496 0.0000
# 4 0.0001 0.0001 0.0002 50.2433 0.0000 -17.2609
# 5 -14.5071 -5.7279 -1.6496 0.0000 41.2287 0.0000
# 6 0.0000 0.0000 0.0000 -17.2609 0.0000 39.5040
#
#
#
# Elastic Compliance Matrix: (Units=1/GPa)
#
#
# Indices 1 2 3 4 5 6 
#
# 1 0.011003 -0.006255 -0.004428 0.000000 0.002825 0.000000
# 2 -0.006255 0.021780 -0.004529 0.000000 0.000644 0.000000
# 3 -0.004428 -0.004529 0.011690 0.000000 -0.001719 0.000000
# 4 0.000000 0.000000 0.000000 0.023418 0.000000 0.010232
# 5 0.002825 0.000644 -0.001719 0.000000 0.025270 0.000000
# 6 0.000000 0.000000 0.000000 0.010232 0.000000 0.029785
#
#
# Mechanical properties :
#
#
# Convention : Reuss Voigt Hill
#
# Bulk Modulus (GPa) = 71.17840 88.80395 79.99117
# Shear Modulus (GPa) = 31.63517 37.88979 34.76248
#
# Velocity S-wave (km/s) = 4.03747 4.41860 4.23233
# Velocity P-wave (km/s) = 7.64278 8.47298 8.06856
#
# Compressibility (1/GPa) = 0.01404921
#
# Stress axis : x y z
#
# Youngs Moduli (GPa) = 90.88283 45.91459 85.54501
#
# Poissons Ratio (x) = 0.28721 0.37877
# Poissons Ratio (y) = 0.56850 0.38740
# Poissons Ratio (z) = 0.40241 0.20793
#
# Static dielectric constant tensor:
#      x y z
#    x 3.675390 0.000000 0.057340 
#    y 0.000000 3.566050 0.000000 
#    z 0.057340 0.000000 3.822350 
# 
# 
# High freq. dielectric constant tensor:
#      x y z
#    x 1.770500 0.000000 0.000330 
#    y 0.000000 1.746010 0.000000 
#    z 0.000330 0.000000 1.770680 
# 
# From -- ./inp_files/244713.got.cif
#   From: 2010.06.25/outbox.cif.g09.slc.cpg/sg12_123_cif.got.tgz:244713.got - 2010.06.28 00:19:55.
