data_PCOD8109827
_publ_section_title
;
Structure prediction by ZEFSAII (Michael W. Deem and Ramdas Pophale) SiO2 
 PCOD8109827
Probable space group: C 2/M
;
_chemical_formula_sum "Si O2"
_cell_formula_units_Z 48
_cell_length_a 18.659301
_cell_length_b 8.820810
_cell_length_c 14.633790
_cell_angle_alpha 90.000000
_cell_angle_beta 98.111784
_cell_angle_gamma 90.000000
_cell_volume 2384.479030
_symmetry_space_group_name_H-M "C 2/M"
_symmetry_group_IT_number 12
_symmetry_cell_setting 'monoclinic'
loop_
_space_group_symop_operation_xyz
x,y,z
-x,y,-z
-x,-y,-z
x,-y,z
1/2+x,1/2+y,z
1/2-x,1/2+y,-z
1/2-x,1/2-y,-z
1/2+x,1/2-y,z
loop_
_atom_site_type_symbol
_atom_site_label
_atom_site_fract_x
_atom_site_fract_y
_atom_site_fract_z
Si Si1 0.053904 0.172048 0.593203
Si Si2 0.675972 0.319860 0.251007
Si Si3 0.186406 0.823568 0.044478
Si Si4 0.781037 0.821304 0.413737
Si Si5 0.474522 0.822431 0.739623
Si Si6 0.942857 0.666365 0.067753
O O1 0.134253 0.219368 0.576949
O O2 0.000000 0.189425 0.500000
O O3 0.026715 0.286649 0.665038
O O4 0.053538 0.000000 0.630823
O O5 0.680728 0.500000 0.258550
O O6 0.681586 0.260788 0.147353
O O7 0.742061 0.247859 0.318317
O O8 0.600549 0.267697 0.282059
O O9 0.199805 0.000000 0.050643
O O10 0.250000 0.750000 0.000000
O O11 0.114536 0.788819 0.975191
O O12 0.750000 0.750000 0.500000
O O13 0.767650 0.000000 0.414119
O O14 0.517345 0.767120 0.836653
O O15 0.456798 0.000000 0.740546
O O16 0.907451 0.500000 0.082359
O O17 0.000000 0.642365 0.000000
#
# Coordination Sequence:
#
# PCOD8109827 Si02
#       6
#     8   8   8   8   8   8
#     4  10  23  43  65  92 126 161 200 252 310 370
#     4  11  24  42  63  90 126 167 210 258 311 370
#     4  11  25  41  62  90 125 169 213 260 311 367
#     4  11  24  42  67  96 127 165 205 252 311 372
#     4  11  23  39  65  95 124 162 207 258 312 368
#     4  10  21  40  63  90 126 164 205 256 311 368
#
# _framework density 20.130185000000001
#
# number of rings (size 3 to 8) (size 9 to 14) (size 15 to 20)
#    0.000    1.333    1.667    3.000    2.333    6.667 
#    0.000    0.000    0.000    0.000    0.000    0.000 
#    0.000    0.000    0.000    0.000    0.000    0.000 
#
# Total GULP energy -297692.045084 kJ/mol
# GULP energy per Si atom -12403.835212 kJ/mol
# Density = 2.008437 g / cm^3
# Si number density = 20.130185 Si / 1000 Ang^3
#
#
#
# Elastic Constant Matrix: (Units=GPa)
#
#
# Indices 1 2 3 4 5 6 
#
# 1 151.6291 50.5596 65.9263 0.0000 5.7481 0.0000
# 2 50.5596 78.0077 40.4104 0.0000 0.7654 0.0000
# 3 65.9263 40.4104 104.6946 0.0000 4.5313 0.0000
# 4 0.0000 0.0000 0.0000 39.0405 0.0000 2.8619
# 5 5.7481 0.7654 4.5313 0.0000 40.6792 0.0000
# 6 0.0000 0.0000 0.0000 2.8619 0.0000 40.1032
#
#
#
# Elastic Compliance Matrix: (Units=1/GPa)
#
#
# Indices 1 2 3 4 5 6 
#
# 1 0.010026 -0.004047 -0.004716 0.000000 -0.000815 0.000000
# 2 -0.004047 0.017663 -0.004300 0.000000 0.000719 0.000000
# 3 -0.004716 -0.004300 0.014217 0.000000 -0.000836 0.000000
# 4 0.000000 0.000000 0.000000 0.025749 0.000000 -0.001838
# 5 -0.000815 0.000719 -0.000836 0.000000 0.024777 0.000000
# 6 0.000000 0.000000 0.000000 -0.001838 0.000000 0.025067
#
#
# Mechanical properties :
#
#
# Convention : Reuss Voigt Hill
#
# Bulk Modulus (GPa) = 63.37331 72.01379 67.69355
# Shear Modulus (GPa) = 33.58284 35.79359 34.68821
#
# Velocity S-wave (km/s) = 4.08889 4.22133 4.15564
# Velocity P-wave (km/s) = 7.33772 7.72083 7.53171
#
# Compressibility (1/GPa) = 0.01577951
#
# Stress axis : x y z
#
# Youngs Moduli (GPa) = 99.74245 56.61573 70.33735
#
# Poissons Ratio (x) = 0.22913 0.33170
# Poissons Ratio (y) = 0.40367 0.30247
# Poissons Ratio (z) = 0.47037 0.24346
#
# Static dielectric constant tensor:
#      x y z
#    x 3.535260 0.000000 0.024540 
#    y 0.000000 4.888600 0.000000 
#    z 0.024540 0.000000 3.929440 
# 
# 
# High freq. dielectric constant tensor:
#      x y z
#    x 1.795660 0.000000 0.003230 
#    y 0.000000 1.789050 0.000000 
#    z 0.003230 0.000000 1.798880 
# 
# From -- ./inp_files/221647.got.cif
#   From: 2010.06.25/outbox.cif.g09.slc.cpg/sg12_111_cif.got.tgz:221647.got - 2010.06.28 00:19:55.
