data_PCOD8109665
_publ_section_title
;
Structure prediction by ZEFSAII (Michael W. Deem and Ramdas Pophale) SiO2 
 PCOD8109665
Probable space group: C 2/M
;
_chemical_formula_sum "Si O2"
_cell_formula_units_Z 44
_cell_length_a 18.475327
_cell_length_b 21.756721
_cell_length_c 10.464105
_cell_angle_alpha 90.000000
_cell_angle_beta 33.027482
_cell_angle_gamma 90.000000
_cell_volume 2292.540574
_symmetry_space_group_name_H-M "C 2/M"
_symmetry_group_IT_number 12
_symmetry_cell_setting 'monoclinic'
loop_
_space_group_symop_operation_xyz
x,y,z
-x,y,-z
-x,-y,-z
x,-y,z
1/2+x,1/2+y,z
1/2-x,1/2+y,-z
1/2-x,1/2-y,-z
1/2+x,1/2-y,z
loop_
_atom_site_type_symbol
_atom_site_label
_atom_site_fract_x
_atom_site_fract_y
_atom_site_fract_z
Si Si1 0.611162 0.213672 0.060302
Si Si2 0.591029 0.154137 0.485162
Si Si3 0.808262 0.930325 0.078750
Si Si4 0.000000 0.885018 0.000000
Si Si5 0.315397 0.278697 0.280412
Si Si6 0.118354 0.828015 0.230505
O O1 0.590032 0.232973 0.942499
O O2 0.757474 0.188895 0.865849
O O3 0.504594 0.158979 0.248852
O O4 0.575762 0.272129 0.201886
O O5 0.500000 0.173018 0.500000
O O6 0.707977 0.203912 0.329674
O O7 0.665880 0.088991 0.353635
O O8 0.840665 0.887508 0.911426
O O9 0.793098 0.000000 0.053951
O O10 0.931191 0.927295 0.995772
O O11 0.888771 0.839495 0.224116
O O12 0.250000 0.250000 0.500000
O O13 0.000000 0.846276 0.500000
#
# Coordination Sequence:
#
# PCOD8109665 Si02
#       6
#     8   8   8   4   8   8
#     4  11  19  36  58  91 126 151 191 250 314 368
#     4  11  20  38  59  90 120 157 202 247 309 357
#     4  11  24  42  62  86 121 167 215 249 291 364
#     4  10  21  40  56  90 116 162 211 242 298 356
#     4  11  22  34  59  93 128 158 195 246 313 380
#     4  11  22  35  60  88 122 159 194 248 310 362
#
# _framework density 19.192681
#
# number of rings (size 3 to 8) (size 9 to 14) (size 15 to 20)
#    0.000    1.091    5.455    4.091    2.545    0.727 
#    0.000    0.000    0.000    0.000    0.000    2.545 
#    0.000    0.000    0.000    0.000    0.000    0.000 
#
# Total GULP energy -272664.250791 kJ/mol
# GULP energy per Si atom -12393.829581 kJ/mol
# Density = 1.914900 g / cm^3
# Si number density = 19.192681 Si / 1000 Ang^3
#
#
#
# Elastic Constant Matrix: (Units=GPa)
#
#
# Indices 1 2 3 4 5 6 
#
# 1 78.0527 28.4615 19.6579 -0.0011 -3.9172 -0.0001
# 2 28.4615 111.6140 50.1095 0.0019 6.5495 -0.0002
# 3 19.6579 50.1095 119.5093 0.0051 8.4453 -0.0006
# 4 -0.0011 0.0019 0.0051 20.8406 0.0001 1.3990
# 5 -3.9172 6.5495 8.4453 0.0001 32.5433 -0.0002
# 6 -0.0001 -0.0002 -0.0006 1.3990 -0.0002 19.3457
#
#
#
# Elastic Compliance Matrix: (Units=1/GPa)
#
#
# Indices 1 2 3 4 5 6 
#
# 1 0.014454 -0.003316 -0.001179 0.000001 0.002713 0.000000
# 2 -0.003316 0.011832 -0.004298 0.000000 -0.001665 0.000000
# 3 -0.001179 -0.004298 0.010505 -0.000002 -0.002003 0.000000
# 4 0.000001 0.000000 -0.000002 0.048217 0.000001 -0.003487
# 5 0.002713 -0.001665 -0.002003 0.000001 0.031910 0.000000
# 6 0.000000 0.000000 0.000000 -0.003487 0.000000 0.051943
#
#
# Mechanical properties :
#
#
# Convention : Reuss Voigt Hill
#
# Bulk Modulus (GPa) = 52.06734 56.18152 54.12443
# Shear Modulus (GPa) = 25.92698 28.60908 27.26803
#
# Velocity S-wave (km/s) = 3.67942 3.86505 3.77337
# Velocity P-wave (km/s) = 6.72595 7.01812 6.87359
#
# Compressibility (1/GPa) = 0.01920590
#
# Stress axis : x y z
#
# Youngs Moduli (GPa) = 69.18503 84.51428 95.19071
#
# Poissons Ratio (x) = 0.28022 0.11223
# Poissons Ratio (y) = 0.22939 0.40915
# Poissons Ratio (z) = 0.08157 0.36326
#
# Static dielectric constant tensor:
#      x y z
#    x 3.608370 0.000000 -0.225950 
#    y 0.000000 3.218210 0.000000 
#    z -0.225950 0.000000 3.884790 
# 
# 
# High freq. dielectric constant tensor:
#      x y z
#    x 1.754930 0.000000 -0.018330 
#    y 0.000000 1.703580 0.000000 
#    z -0.018330 0.000000 1.757920 
# 
# From -- ./inp_files/132368.got.cif
#   From: 2010.06.25/outbox.cif.g09.slc.cpg/sg12_67_cif.got.tgz:132368.got - 2010.06.28 00:19:55.
