data_PCOD8109725
_publ_section_title
;
Structure prediction by ZEFSAII (Michael W. Deem and Ramdas Pophale) SiO2 
 PCOD8109725
Probable space group: C 2/M
;
_chemical_formula_sum "Si O2"
_cell_formula_units_Z 56
_cell_length_a 19.439388
_cell_length_b 8.927163
_cell_length_c 18.495699
_cell_angle_alpha 90.000000
_cell_angle_beta 115.736326
_cell_angle_gamma 90.000000
_cell_volume 2891.319557
_symmetry_space_group_name_H-M "C 2/M"
_symmetry_group_IT_number 12
_symmetry_cell_setting 'monoclinic'
loop_
_space_group_symop_operation_xyz
x,y,z
-x,y,-z
-x,-y,-z
x,-y,z
1/2+x,1/2+y,z
1/2-x,1/2+y,-z
1/2-x,1/2-y,-z
1/2+x,1/2-y,z
loop_
_atom_site_type_symbol
_atom_site_label
_atom_site_fract_x
_atom_site_fract_y
_atom_site_fract_z
Si Si1 0.972826 0.675711 0.066476
Si Si2 0.892429 0.323110 0.765306
Si Si3 0.683326 0.675169 0.013936
Si Si4 0.731421 0.675888 0.195858
Si Si5 0.381331 0.321284 0.309512
Si Si6 0.052488 0.821230 0.353579
Si Si7 0.088146 0.162812 0.522800
O O1 0.955763 0.500000 0.061043
O O2 0.036400 0.725011 0.152775
O O3 0.896307 0.762708 0.052343
O O4 0.000000 0.727048 0.000000
O O5 0.882445 0.500000 0.758377
O O6 0.815359 0.252829 0.761380
O O7 0.904479 0.260270 0.691137
O O8 0.686830 0.500000 0.001575
O O9 0.691527 0.715759 0.101972
O O10 0.750000 0.750000 0.000000
O O11 0.734963 0.500000 0.211010
O O12 0.816858 0.741700 0.232630
O O13 0.370661 0.500000 0.304214
O O14 0.462919 0.277746 0.312219
O O15 0.374665 0.257176 0.389760
O O16 0.093002 0.758187 0.446172
O O17 0.061721 0.000000 0.352116
O O18 0.000000 0.138783 0.500000
O O19 0.127143 0.000000 0.533136
#
# Coordination Sequence:
#
# PCOD8109725 Si02
#       7
#     8   8   8   8   8   8   8
#     4  10  21  40  62  82 108 146 187 229 277 326
#     4  11  23  38  58  82 112 148 187 230 276 332
#     4  11  25  41  60  84 113 147 185 230 276 328
#     4  11  24  40  56  80 114 148 184 230 279 326
#     4   9  18  34  59  86 112 147 186 225 275 331
#     4   9  18  34  58  87 115 144 183 229 275 328
#     4   7  12  28  54  82 111 143 181 224 270 324
#
# _framework density 19.368319
#
# number of rings (size 3 to 8) (size 9 to 14) (size 15 to 20)
#    0.000    2.286    1.429    3.000    2.000    3.714 
#    0.000    1.429    0.000    2.571    0.000    0.000 
#    0.000    0.000    0.000    0.000    0.000    0.000 
#
# Total GULP energy -347090.892228 kJ/mol
# GULP energy per Si atom -12396.103294 kJ/mol
# Density = 1.932424 g / cm^3
# Si number density = 19.368319 Si / 1000 Ang^3
#
#
#
# Elastic Constant Matrix: (Units=GPa)
#
#
# Indices 1 2 3 4 5 6 
#
# 1 82.5659 27.6354 2.8496 0.0000 -12.1722 0.0000
# 2 27.6354 48.9730 16.8007 0.0000 -4.3662 0.0000
# 3 2.8496 16.8007 36.1623 0.0000 -12.8005 0.0000
# 4 0.0000 0.0000 0.0000 19.7494 0.0000 -2.9463
# 5 -12.1722 -4.3662 -12.8005 0.0000 35.5804 0.0000
# 6 0.0000 0.0000 0.0000 -2.9463 0.0000 28.6498
#
#
#
# Elastic Compliance Matrix: (Units=1/GPa)
#
#
# Indices 1 2 3 4 5 6 
#
# 1 0.016463 -0.010770 0.005996 0.000000 0.006467 0.000000
# 2 -0.010770 0.031385 -0.015669 0.000000 -0.005470 0.000000
# 3 0.005996 -0.015669 0.039541 0.000000 0.014354 0.000000
# 4 0.000000 0.000000 0.000000 0.051423 0.000000 0.005288
# 5 0.006467 -0.005470 0.014354 0.000000 0.034811 0.000000
# 6 0.000000 0.000000 0.000000 0.005288 0.000000 0.035448
#
#
# Mechanical properties :
#
#
# Convention : Reuss Voigt Hill
#
# Bulk Modulus (GPa) = 21.50431 29.14139 25.32285
# Shear Modulus (GPa) = 18.83537 24.82361 21.82949
#
# Velocity S-wave (km/s) = 3.12185 3.58391 3.36083
# Velocity P-wave (km/s) = 4.91137 5.67490 5.30688
#
# Compressibility (1/GPa) = 0.04650230
#
# Stress axis : x y z
#
# Youngs Moduli (GPa) = 60.74235 31.86263 25.29020
#
# Poissons Ratio (x) = 0.34317 -0.15164
# Poissons Ratio (y) = 0.65422 0.39626
# Poissons Ratio (z) = -0.36420 0.49924
#
# Static dielectric constant tensor:
#      x y z
#    x 3.175450 0.000000 0.077750 
#    y 0.000000 3.274850 0.000000 
#    z 0.077750 0.000000 3.871730 
# 
# 
# High freq. dielectric constant tensor:
#      x y z
#    x 1.744790 0.000000 -0.006230 
#    y 0.000000 1.733280 0.000000 
#    z -0.006230 0.000000 1.765540 
# 
# From -- ./inp_files/281597.got.cif
#   From: 2010.06.25/outbox.cif.g09.slc.cpg/sg12_141_cif.got.tgz:281597.got - 2010.06.28 00:19:55.
