data_PCOD8109108
_publ_section_title
;
Structure prediction by ZEFSAII (Michael W. Deem and Ramdas Pophale) SiO2 
 PCOD8109108
Probable space group: C 2/M
;
_chemical_formula_sum "Si O2"
_cell_formula_units_Z 56
_cell_length_a 25.119501
_cell_length_b 8.905294
_cell_length_c 14.607422
_cell_angle_alpha 90.000000
_cell_angle_beta 119.840830
_cell_angle_gamma 90.000000
_cell_volume 2834.378280
_symmetry_space_group_name_H-M "C 2/M"
_symmetry_group_IT_number 12
_symmetry_cell_setting 'monoclinic'
loop_
_space_group_symop_operation_xyz
x,y,z
-x,y,-z
-x,-y,-z
x,-y,z
1/2+x,1/2+y,z
1/2-x,1/2+y,-z
1/2-x,1/2-y,-z
1/2+x,1/2-y,z
loop_
_atom_site_type_symbol
_atom_site_label
_atom_site_fract_x
_atom_site_fract_y
_atom_site_fract_z
Si Si1 0.764828 0.176920 0.787064
Si Si2 0.978390 0.827090 0.383196
Si Si3 0.520241 0.172102 0.914817
Si Si4 0.433602 0.671383 0.706695
Si Si5 0.793662 0.175691 0.610470
Si Si6 0.645114 0.176509 0.788354
Si Si7 0.645860 0.322372 0.978673
O O1 0.780396 0.244080 0.700381
O O2 0.695153 0.219628 0.754102
O O3 0.774537 0.000000 0.792895
O O4 0.811776 0.242097 0.903240
O O5 0.921251 0.732439 0.298847
O O6 0.000000 0.766335 0.500000
O O7 0.036107 0.805299 0.366183
O O8 0.957509 0.000000 0.371043
O O9 0.462788 0.214609 0.803322
O O10 0.575805 0.280776 0.937946
O O11 0.539331 0.000000 0.913323
O O12 0.500000 0.200574 0.000000
O O13 0.442229 0.500000 0.748462
O O14 0.362471 0.713020 0.638474
O O15 0.750000 0.250000 0.500000
O O16 0.780088 0.000000 0.599296
O O17 0.667314 0.249941 0.901941
O O18 0.641787 0.000000 0.801051
O O19 0.651535 0.500000 0.973742
#
# Coordination Sequence:
#
# PCOD8109108 Si02
#       7
#     8   8   8   8   8   8   8
#     4   9  21  39  59  85 120 158 198 241 292 355
#     4  10  22  39  60  88 120 155 200 248 291 351
#     4  11  23  37  57  88 124 156 192 243 296 348
#     4  10  21  39  62  86 117 158 200 242 292 349
#     4  10  22  41  62  87 117 155 201 247 292 349
#     4  11  22  38  60  89 122 157 195 244 302 353
#     4  11  21  38  62  87 117 157 199 241 293 354
#
# _framework density 19.75742
#
# number of rings (size 3 to 8) (size 9 to 14) (size 15 to 20)
#    0.000    1.714    1.429    2.571    2.000    3.143 
#    0.000    4.286    0.000    0.000    0.000    0.000 
#    0.000    0.000    0.000    0.000    0.000    0.000 
#
# Total GULP energy -347306.995394 kJ/mol
# GULP energy per Si atom -12403.821264 kJ/mol
# Density = 1.971245 g / cm^3
# Si number density = 19.757420 Si / 1000 Ang^3
#
#
#
# Elastic Constant Matrix: (Units=GPa)
#
#
# Indices 1 2 3 4 5 6 
#
# 1 141.7959 39.7617 72.8707 0.0000 -1.1715 0.0000
# 2 39.7617 55.7813 39.9943 0.0000 -6.0358 0.0000
# 3 72.8707 39.9943 161.0061 0.0000 -11.7183 0.0000
# 4 0.0000 0.0000 0.0000 28.8310 0.0000 -9.8489
# 5 -1.1715 -6.0358 -11.7183 0.0000 33.2723 0.0000
# 6 0.0000 0.0000 0.0000 -9.8489 0.0000 628.3104
#
#
#
# Elastic Compliance Matrix: (Units=1/GPa)
#
#
# Indices 1 2 3 4 5 6 
#
# 1 0.010245 -0.004962 -0.003534 0.000000 -0.001784 0.000000
# 2 -0.004962 0.024359 -0.003588 0.000000 0.002981 0.000000
# 3 -0.003534 -0.003588 0.008873 0.000000 0.002350 0.000000
# 4 0.000000 0.000000 0.000000 0.034872 0.000000 0.000547
# 5 -0.001784 0.002981 0.002350 0.000000 0.031360 0.000000
# 6 0.000000 0.000000 0.000000 0.000547 0.000000 0.001600
#
#
# Mechanical properties :
#
#
# Convention : Reuss Voigt Hill
#
# Bulk Modulus (GPa) = 51.79059 73.75965 62.77512
# Shear Modulus (GPa) = 35.23229 151.81315 93.52272
#
# Velocity S-wave (km/s) = 4.22743 8.77527 6.88754
# Velocity P-wave (km/s) = 7.07802 11.83586 9.75156
#
# Compressibility (1/GPa) = 0.01930853
#
# Stress axis : x y z
#
# Youngs Moduli (GPa) = 97.60456 41.05194 112.70305
#
# Poissons Ratio (x) = 0.20370 0.39833
# Poissons Ratio (y) = 0.48432 0.40440
# Poissons Ratio (z) = 0.34496 0.14730
#
# Static dielectric constant tensor:
#      x y z
#    x 3.654320 0.000000 -0.108640 
#    y 0.000000 3.450470 0.000000 
#    z -0.108640 0.000000 3.729440 
# 
# 
# High freq. dielectric constant tensor:
#      x y z
#    x 1.785940 0.000000 -0.004570 
#    y 0.000000 1.754300 0.000000 
#    z -0.004570 0.000000 1.778670 
# 
# From -- ./inp_files/238887.got.cif
#   From: 2010.06.25/outbox.cif.g09.slc.cpg/sg12_120_cif.got.tgz:238887.got - 2010.06.28 00:19:55.
