data_PCOD8109056
_publ_section_title
;
Structure prediction by ZEFSAII (Michael W. Deem and Ramdas Pophale) SiO2 
 PCOD8109056
Probable space group: C 2/M
;
_chemical_formula_sum "Si O2"
_cell_formula_units_Z 64
_cell_length_a 27.283231
_cell_length_b 8.868946
_cell_length_c 16.355878
_cell_angle_alpha 90.000000
_cell_angle_beta 126.409204
_cell_angle_gamma 90.000000
_cell_volume 3185.142081
_symmetry_space_group_name_H-M "C 2/M"
_symmetry_group_IT_number 12
_symmetry_cell_setting 'monoclinic'
loop_
_space_group_symop_operation_xyz
x,y,z
-x,y,-z
-x,-y,-z
x,-y,z
1/2+x,1/2+y,z
1/2-x,1/2+y,-z
1/2-x,1/2-y,-z
1/2+x,1/2-y,z
loop_
_atom_site_type_symbol
_atom_site_label
_atom_site_fract_x
_atom_site_fract_y
_atom_site_fract_z
Si Si1 0.233384 0.828382 0.330305
Si Si2 0.646579 0.677991 0.796288
Si Si3 0.431430 0.822625 0.418028
Si Si4 0.881365 0.178359 0.048627
Si Si5 0.500175 0.822541 0.094333
Si Si6 0.108201 0.174293 0.293942
Si Si7 0.272999 0.176772 0.845693
Si Si8 0.865135 0.673688 0.516466
O O1 0.176195 0.794810 0.330705
O O2 0.234379 0.712908 0.256664
O O3 0.292720 0.801166 0.444452
O O4 0.232567 0.000000 0.295645
O O5 0.642266 0.500000 0.784460
O O6 0.594033 0.746571 0.688423
O O7 0.635839 0.734279 0.877768
O O8 0.713221 0.734553 0.834440
O O9 0.500000 0.766442 0.500000
O O10 0.391346 0.772256 0.455616
O O11 0.428536 0.000000 0.401362
O O12 0.947052 0.241040 0.090923
O O13 0.883408 0.000000 0.045295
O O14 0.831745 0.237425 0.936322
O O15 0.564265 0.774100 0.195171
O O16 0.491142 0.000000 0.094097
O O17 0.500000 0.771625 0.000000
O O18 0.103772 0.225202 0.383415
O O19 0.089350 0.000000 0.268381
O O20 0.283139 0.000000 0.867654
O O21 0.882344 0.500000 0.550304
#
# Coordination Sequence:
#
# PCOD8109056 Si02
#       8
#     8   8   8   8   8   8   8   8
#     4  10  21  39  62  89 122 163 205 251 306 360
#     4  10  23  41  61  91 124 159 202 250 302 358
#     4  10  22  39  62  91 123 162 203 246 303 363
#     4  11  24  41  63  91 124 160 202 250 303 361
#     4  11  25  45  66  90 121 159 203 250 304 361
#     4  11  24  39  61  91 123 160 203 252 307 362
#     4  11  22  38  62  92 124 160 203 249 303 360
#     4  10  21  39  61  89 125 161 204 252 301 360
#
# _framework density 20.093295000000001
#
# number of rings (size 3 to 8) (size 9 to 14) (size 15 to 20)
#    0.000    1.500    1.250    3.000    1.750    6.750 
#    0.000    0.000    0.000    0.000    0.000    0.000 
#    0.000    0.000    0.000    0.000    0.000    0.000 
#
# Total GULP energy -397019.821699 kJ/mol
# GULP energy per Si atom -12406.869428 kJ/mol
# Density = 2.004756 g / cm^3
# Si number density = 20.093295 Si / 1000 Ang^3
#
#
#
# Elastic Constant Matrix: (Units=GPa)
#
#
# Indices 1 2 3 4 5 6 
#
# 1 71.4634 22.8997 18.1589 0.0000 5.3776 0.0000
# 2 22.8997 45.5670 25.8357 0.0000 -5.4347 0.0000
# 3 18.1589 25.8357 100.1025 0.0000 -0.4309 0.0000
# 4 0.0000 0.0000 0.0000 36.1431 0.0000 1.2979
# 5 5.3776 -5.4347 -0.4309 0.0000 39.3783 0.0000
# 6 0.0000 0.0000 0.0000 1.2979 0.0000 28.7819
#
#
#
# Elastic Compliance Matrix: (Units=1/GPa)
#
#
# Indices 1 2 3 4 5 6 
#
# 1 0.017239 -0.008557 -0.000934 0.000000 -0.003545 0.000000
# 2 -0.008557 0.030440 -0.006281 0.000000 0.005301 0.000000
# 3 -0.000934 -0.006281 0.011778 0.000000 -0.000610 0.000000
# 4 0.000000 0.000000 0.000000 0.027713 0.000000 -0.001250
# 5 -0.003545 0.005301 -0.000610 0.000000 0.026604 0.000000
# 6 0.000000 0.000000 0.000000 -0.001250 0.000000 0.034800
#
#
# Mechanical properties :
#
#
# Convention : Reuss Voigt Hill
#
# Bulk Modulus (GPa) = 35.82647 38.99128 37.40887
# Shear Modulus (GPa) = 26.39614 30.87657 28.63635
#
# Velocity S-wave (km/s) = 3.62840 3.92428 3.77924
# Velocity P-wave (km/s) = 5.95168 6.32302 6.14016
#
# Compressibility (1/GPa) = 0.02791232
#
# Stress axis : x y z
#
# Youngs Moduli (GPa) = 58.00705 32.85204 84.90629
#
# Poissons Ratio (x) = 0.28111 0.07931
# Poissons Ratio (y) = 0.49636 0.53331
# Poissons Ratio (z) = 0.05418 0.20635
#
# Static dielectric constant tensor:
#      x y z
#    x 3.828310 0.000000 0.022320 
#    y 0.000000 3.577470 0.000000 
#    z 0.022320 0.000000 3.628490 
# 
# 
# High freq. dielectric constant tensor:
#      x y z
#    x 1.797280 0.000000 0.002240 
#    y 0.000000 1.781810 0.000000 
#    z 0.002240 0.000000 1.794480 
# 
# From -- ./inp_files/249968.got.cif
#   From: 2010.06.25/outbox.cif.g09.slc.cpg/sg12_125_cif.got.tgz:249968.got - 2010.06.28 00:19:55.
