data_PCOD8109225
_publ_section_title
;
Structure prediction by ZEFSAII (Michael W. Deem and Ramdas Pophale) SiO2 
 PCOD8109225
Probable space group: C 2/M
;
_chemical_formula_sum "Si O2"
_cell_formula_units_Z 64
_cell_length_a 30.768742
_cell_length_b 8.801124
_cell_length_c 14.164607
_cell_angle_alpha 90.000000
_cell_angle_beta 56.795048
_cell_angle_gamma 90.000000
_cell_volume 3209.452811
_symmetry_space_group_name_H-M "C 2/M"
_symmetry_group_IT_number 12
_symmetry_cell_setting 'monoclinic'
loop_
_space_group_symop_operation_xyz
x,y,z
-x,y,-z
-x,-y,-z
x,-y,z
1/2+x,1/2+y,z
1/2-x,1/2+y,-z
1/2-x,1/2-y,-z
1/2+x,1/2-y,z
loop_
_atom_site_type_symbol
_atom_site_label
_atom_site_fract_x
_atom_site_fract_y
_atom_site_fract_z
Si Si1 0.413333 0.177458 0.504304
Si Si2 0.350543 0.323825 0.071873
Si Si3 0.306423 0.820900 0.939092
Si Si4 0.028664 0.824474 0.060368
Si Si5 0.605615 0.321465 0.276100
Si Si6 0.516666 0.176230 0.266063
Si Si7 0.705439 0.678717 0.672979
Si Si8 0.680017 0.821038 0.514742
O O1 0.415624 0.270178 0.597856
O O2 0.466004 0.212184 0.386935
O O3 0.365481 0.238504 0.498903
O O4 0.407319 0.000000 0.535114
O O5 0.339023 0.500000 0.062373
O O6 0.317097 0.265942 0.200649
O O7 0.334561 0.223007 0.002419
O O8 0.410319 0.296649 0.025419
O O9 0.339831 0.759844 0.811033
O O10 0.301676 0.000000 0.936316
O O11 0.250000 0.750000 0.000000
O O12 0.005583 0.722004 0.171605
O O13 0.016315 0.000000 0.097008
O O14 0.000000 0.770336 0.000000
O O15 0.614525 0.500000 0.262931
O O16 0.564107 0.277712 0.245799
O O17 0.532169 0.000000 0.254890
O O18 0.699755 0.500000 0.669612
O O19 0.672391 0.751288 0.627481
O O20 0.765330 0.731649 0.595357
O O21 0.676795 0.000000 0.529512
#
# Coordination Sequence:
#
# PCOD8109225 Si02
#       8
#     8   8   8   8   8   8   8   8
#     4  10  23  40  61  89 121 159 205 255 310 370
#     4  10  21  39  62  92 126 164 208 256 312 373
#     4  12  26  44  67  95 128 166 208 257 312 372
#     4  10  22  39  61  90 126 166 209 259 315 375
#     4  12  25  43  65  92 122 158 205 255 311 373
#     4  11  23  41  63  89 122 162 206 257 315 372
#     4   9  19  35  58  85 118 158 199 245 300 357
#     4   9  19  37  57  84 119 158 198 246 302 358
#
# _framework density 19.941095000000001
#
# number of rings (size 3 to 8) (size 9 to 14) (size 15 to 20)
#    0.000    1.625    1.250    3.000    3.500    3.750 
#    0.000    0.000    0.000    0.000    0.000    0.000 
#    0.000    0.000    0.000    0.000    0.000    0.000 
#
# Total GULP energy -396997.301527 kJ/mol
# GULP energy per Si atom -12406.165673 kJ/mol
# Density = 1.989571 g / cm^3
# Si number density = 19.941095 Si / 1000 Ang^3
#
#
#
# Elastic Constant Matrix: (Units=GPa)
#
#
# Indices 1 2 3 4 5 6 
#
# 1 106.6820 39.6031 35.1602 0.0000 -4.5027 0.0000
# 2 39.6031 91.7974 53.9307 0.0000 -2.7961 0.0000
# 3 35.1602 53.9307 129.4497 0.0000 2.0591 0.0000
# 4 0.0000 0.0000 0.0000 30.0401 0.0000 6.7873
# 5 -4.5027 -2.7961 2.0591 0.0000 29.2215 0.0000
# 6 0.0000 0.0000 0.0000 6.7873 0.0000 32.9130
#
#
#
# Elastic Compliance Matrix: (Units=1/GPa)
#
#
# Indices 1 2 3 4 5 6 
#
# 1 0.011407 -0.004028 -0.001444 0.000000 0.001474 0.000000
# 2 -0.004028 0.015942 -0.005568 0.000000 0.001297 0.000000
# 3 -0.001444 -0.005568 0.010461 0.000000 -0.001492 0.000000
# 4 0.000000 0.000000 0.000000 0.034916 0.000000 -0.007200
# 5 0.001474 0.001297 -0.001492 0.000000 0.034678 0.000000
# 6 0.000000 0.000000 0.000000 -0.007200 0.000000 0.031868
#
#
# Mechanical properties :
#
#
# Convention : Reuss Voigt Hill
#
# Bulk Modulus (GPa) = 63.57345 65.03524 64.30435
# Shear Modulus (GPa) = 30.01297 31.71729 30.86513
#
# Velocity S-wave (km/s) = 3.88375 3.99250 3.93850
# Velocity P-wave (km/s) = 7.21534 7.34424 7.28007
#
# Compressibility (1/GPa) = 0.01572984
#
# Stress axis : x y z
#
# Youngs Moduli (GPa) = 87.66545 62.72631 95.59626
#
# Poissons Ratio (x) = 0.25268 0.13799
# Poissons Ratio (y) = 0.35314 0.53231
# Poissons Ratio (z) = 0.12655 0.34928
#
# Static dielectric constant tensor:
#      x y z
#    x 3.801540 0.000000 -0.068370 
#    y 0.000000 3.558660 0.000000 
#    z -0.068370 0.000000 3.823800 
# 
# 
# High freq. dielectric constant tensor:
#      x y z
#    x 1.784240 0.000000 -0.000520 
#    y 0.000000 1.770850 0.000000 
#    z -0.000520 0.000000 1.792250 
# 
# From -- ./inp_files/249712.got.cif
#   From: 2010.06.25/outbox.cif.g09.slc.cpg/sg12_125_cif.got.tgz:249712.got - 2010.06.28 00:19:55.
