data_PCOD8109925
_publ_section_title
;
Structure prediction by ZEFSAII (Michael W. Deem and Ramdas Pophale) SiO2 
 PCOD8109925
Probable space group: C 2/M
;
_chemical_formula_sum "Si O2"
_cell_formula_units_Z 48
_cell_length_a 17.130884
_cell_length_b 16.815993
_cell_length_c 14.375244
_cell_angle_alpha 90.000000
_cell_angle_beta 145.153458
_cell_angle_gamma 90.000000
_cell_volume 2366.153210
_symmetry_space_group_name_H-M "C 2/M"
_symmetry_group_IT_number 12
_symmetry_cell_setting 'monoclinic'
loop_
_space_group_symop_operation_xyz
x,y,z
-x,y,-z
-x,-y,-z
x,-y,z
1/2+x,1/2+y,z
1/2-x,1/2+y,-z
1/2-x,1/2-y,-z
1/2+x,1/2-y,z
loop_
_atom_site_type_symbol
_atom_site_label
_atom_site_fract_x
_atom_site_fract_y
_atom_site_fract_z
Si Si1 0.091844 0.500000 0.002766
Si Si2 0.611207 0.500000 0.686103
Si Si3 0.109149 0.330715 0.683643
Si Si4 0.381745 0.669005 0.223440
Si Si5 0.849675 0.092443 0.812213
Si Si6 0.083973 0.651707 0.871693
Si Si7 0.883152 0.783016 0.681655
O O1 0.234309 0.500000 0.197574
O O2 0.065884 0.572100 0.909643
O O3 0.000000 0.500000 0.000000
O O4 0.500000 0.500000 0.500000
O O5 0.593907 0.578927 0.727258
O O6 0.121916 0.233909 0.696355
O O7 0.249815 0.374784 0.795094
O O8 0.056988 0.358802 0.734665
O O9 0.000000 0.357283 0.500000
O O10 0.513847 0.679917 0.290649
O O11 0.239393 0.682769 0.030507
O O12 0.837185 0.150671 0.711164
O O13 0.814951 0.000000 0.752420
O O14 0.000000 0.097637 0.000000
O O15 0.971972 0.709870 0.810706
O O16 0.750000 0.750000 0.500000
#
# Coordination Sequence:
#
# PCOD8109925 Si02
#       7
#     4   4   8   8   8   8   8
#     4  10  24  42  65  96 124 166 217 272 333 388
#     4  10  22  38  62  96 122 162 212 270 326 382
#     4  11  22  40  62  93 127 171 216 260 319 385
#     4  10  21  40  65  87 126 174 216 261 319 392
#     4  11  24  39  62  95 127 164 211 267 325 379
#     4  10  22  42  65  91 127 174 220 261 323 402
#     4  11  23  41  61  94 125 167 214 265 328 375
#
# _framework density 20.286090999999999
#
# number of rings (size 3 to 8) (size 9 to 14) (size 15 to 20)
#    0.000    1.500    0.000    6.500    2.333    5.000 
#    4.500    0.000    0.000    0.000    0.000    0.000 
#    0.000    0.000    0.000    0.000    0.000    0.000 
#
# Total GULP energy -297335.472778 kJ/mol
# GULP energy per Si atom -12388.978032 kJ/mol
# Density = 2.023992 g / cm^3
# Si number density = 20.286091 Si / 1000 Ang^3
#
#
#
# Elastic Constant Matrix: (Units=GPa)
#
#
# Indices 1 2 3 4 5 6 
#
# 1 112.6213 70.6903 38.9430 0.0000 3.1979 0.0000
# 2 70.6903 176.2917 55.2367 0.0000 1.3291 0.0000
# 3 38.9430 55.2367 112.7218 0.0000 -7.8963 0.0000
# 4 0.0000 0.0000 0.0000 33.7510 0.0000 -5.0843
# 5 3.1979 1.3291 -7.8963 0.0000 30.5686 0.0000
# 6 0.0000 0.0000 0.0000 -5.0843 0.0000 5.4172
#
#
#
# Elastic Compliance Matrix: (Units=1/GPa)
#
#
# Indices 1 2 3 4 5 6 
#
# 1 0.012384 -0.004223 -0.002329 0.000000 -0.001714 0.000000
# 2 -0.004223 0.008182 -0.002591 0.000000 -0.000583 0.000000
# 3 -0.002329 -0.002591 0.011173 0.000000 0.003242 0.000000
# 4 0.000000 0.000000 0.000000 0.034507 0.000000 0.032386
# 5 -0.001714 -0.000583 0.003242 0.000000 0.033755 0.000000
# 6 0.000000 0.000000 0.000000 0.032386 0.000000 0.214991
#
#
# Mechanical properties :
#
#
# Convention : Reuss Voigt Hill
#
# Bulk Modulus (GPa) = 74.33710 81.26384 77.80047
# Shear Modulus (GPa) = 14.80321 29.73169 22.26745
#
# Velocity S-wave (km/s) = 2.70427 3.83249 3.31671
# Velocity P-wave (km/s) = 6.81723 7.72851 7.28713
#
# Compressibility (1/GPa) = 0.01345223
#
# Stress axis : x y z
#
# Youngs Moduli (GPa) = 80.74845 122.21681 89.50161
#
# Poissons Ratio (x) = 0.51615 0.20845
# Poissons Ratio (y) = 0.34102 0.23193
# Poissons Ratio (z) = 0.18806 0.31670
#
# Static dielectric constant tensor:
#      x y z
#    x 3.585150 0.000000 0.253090 
#    y 0.000000 4.301330 0.000000 
#    z 0.253090 0.000000 3.745240 
# 
# 
# High freq. dielectric constant tensor:
#      x y z
#    x 1.787610 0.000000 0.013980 
#    y 0.000000 1.810740 0.000000 
#    z 0.013980 0.000000 1.802800 
# 
# From -- ./inp_files/226969.got.cif
#   From: 2010.06.25/outbox.cif.g09.slc.cpg/sg12_114_cif.got.tgz:226969.got - 2010.06.28 00:19:55.
