data_PCOD8109018
_publ_section_title
;
Structure prediction by ZEFSAII (Michael W. Deem and Ramdas Pophale) SiO2 
 PCOD8109018
Probable space group: C 2/M
;
_chemical_formula_sum "Si O2"
_cell_formula_units_Z 48
_cell_length_a 18.693499
_cell_length_b 9.018359
_cell_length_c 14.784946
_cell_angle_alpha 90.000000
_cell_angle_beta 81.588231
_cell_angle_gamma 90.000000
_cell_volume 2465.701743
_symmetry_space_group_name_H-M "C 2/M"
_symmetry_group_IT_number 12
_symmetry_cell_setting 'monoclinic'
loop_
_space_group_symop_operation_xyz
x,y,z
-x,y,-z
-x,-y,-z
x,-y,z
1/2+x,1/2+y,z
1/2-x,1/2+y,-z
1/2-x,1/2-y,-z
1/2+x,1/2-y,z
loop_
_atom_site_type_symbol
_atom_site_label
_atom_site_fract_x
_atom_site_fract_y
_atom_site_fract_z
Si Si1 0.069558 0.664464 0.547114
Si Si2 0.197380 0.174612 0.079858
Si Si3 0.466432 0.676090 0.912390
Si Si4 0.075299 0.823751 0.735679
Si Si5 0.222481 0.330868 0.754106
Si Si6 0.696470 0.669078 0.444537
O O1 0.100964 0.500000 0.564584
O O2 0.056692 0.749601 0.643384
O O3 0.119901 0.754468 0.470003
O O4 0.000000 0.646155 0.500000
O O5 0.115425 0.236337 0.084778
O O6 0.228615 0.218420 0.171233
O O7 0.197896 0.000000 0.063071
O O8 0.250000 0.250000 0.000000
O O9 0.465903 0.500000 0.915254
O O10 0.515438 0.729824 0.819218
O O11 0.500000 0.738699 0.000000
O O12 0.153781 0.775441 0.757016
O O13 0.074739 0.000000 0.723758
O O14 0.194840 0.500000 0.768333
O O15 0.276873 0.312599 0.661559
O O16 0.689738 0.500000 0.475915
O O17 0.750000 0.750000 0.500000
#
# Coordination Sequence:
#
# PCOD8109018 Si02
#       6
#     8   8   8   8   8   8
#     4  11  25  42  59  84 123 164 200 250 302 351
#     4  10  21  39  61  87 118 153 193 241 296 354
#     4   9  19  36  59  87 118 150 189 239 292 349
#     4  11  22  37  63  90 114 155 202 246 296 357
#     4  10  22  38  59  85 121 158 191 244 304 353
#     4  11  22  38  62  89 119 159 203 248 298 356
#
# _framework density 19.467075000000001
#
# number of rings (size 3 to 8) (size 9 to 14) (size 15 to 20)
#    0.000    1.667    1.667    2.500    2.333    4.000 
#    0.000    1.667    0.000    4.500    0.000    0.000 
#    0.000    0.000    0.000    0.000    0.000    0.000 
#
# Total GULP energy -297600.156063 kJ/mol
# GULP energy per Si atom -12400.006503 kJ/mol
# Density = 1.942277 g / cm^3
# Si number density = 19.467075 Si / 1000 Ang^3
#
#
#
# Elastic Constant Matrix: (Units=GPa)
#
#
# Indices 1 2 3 4 5 6 
#
# 1 131.4808 51.3564 71.0949 0.0000 -4.8850 0.0000
# 2 51.3564 96.3881 57.3737 0.0000 -6.7202 0.0000
# 3 71.0949 57.3737 146.3672 0.0000 2.6261 0.0000
# 4 0.0000 0.0000 0.0000 24.0441 0.0000 -6.9596
# 5 -4.8850 -6.7202 2.6261 0.0000 41.4606 0.0000
# 6 0.0000 0.0000 0.0000 -6.9596 0.0000 22.1490
#
#
#
# Elastic Compliance Matrix: (Units=1/GPa)
#
#
# Indices 1 2 3 4 5 6 
#
# 1 0.011218 -0.003458 -0.004111 0.000000 0.001022 0.000000
# 2 -0.003458 0.014869 -0.004189 0.000000 0.002268 0.000000
# 3 -0.004111 -0.004189 0.010504 0.000000 -0.001829 0.000000
# 4 0.000000 0.000000 0.000000 0.045751 0.000000 0.014376
# 5 0.001022 0.002268 -0.001829 0.000000 0.024723 0.000000
# 6 0.000000 0.000000 0.000000 0.014376 0.000000 0.049666
#
#
# Mechanical properties :
#
#
# Convention : Reuss Voigt Hill
#
# Bulk Modulus (GPa) = 76.49561 81.54290 79.01926
# Shear Modulus (GPa) = 27.08456 30.49148 28.78802
#
# Velocity S-wave (km/s) = 3.73406 3.96196 3.84970
# Velocity P-wave (km/s) = 7.61388 7.93146 7.77429
#
# Compressibility (1/GPa) = 0.01307265
#
# Stress axis : x y z
#
# Youngs Moduli (GPa) = 89.14550 67.25338 95.20043
#
# Poissons Ratio (x) = 0.23259 0.39141
# Poissons Ratio (y) = 0.30830 0.39883
# Poissons Ratio (z) = 0.36652 0.28175
#
# Static dielectric constant tensor:
#      x y z
#    x 3.598670 0.000000 0.040320 
#    y 0.000000 4.920230 0.000000 
#    z 0.040320 0.000000 3.605550 
# 
# 
# High freq. dielectric constant tensor:
#      x y z
#    x 1.769350 0.000000 -0.000620 
#    y 0.000000 1.747910 0.000000 
#    z -0.000620 0.000000 1.773980 
# 
# From -- ./inp_files/221701.got.cif
#   From: 2010.06.25/outbox.cif.g09.slc.cpg/sg12_111_cif.got.tgz:221701.got - 2010.06.28 00:19:55.
