data_PCOD8109131
_publ_section_title
;
Structure prediction by ZEFSAII (Michael W. Deem and Ramdas Pophale) SiO2 
 PCOD8109131
Probable space group: C 2/M
;
_chemical_formula_sum "Si O2"
_cell_formula_units_Z 48
_cell_length_a 17.657131
_cell_length_b 15.157526
_cell_length_c 14.620240
_cell_angle_alpha 90.000000
_cell_angle_beta 141.699678
_cell_angle_gamma 90.000000
_cell_volume 2425.174162
_symmetry_space_group_name_H-M "C 2/M"
_symmetry_group_IT_number 12
_symmetry_cell_setting 'monoclinic'
loop_
_space_group_symop_operation_xyz
x,y,z
-x,y,-z
-x,-y,-z
x,-y,z
1/2+x,1/2+y,z
1/2-x,1/2+y,-z
1/2-x,1/2-y,-z
1/2+x,1/2-y,z
loop_
_atom_site_type_symbol
_atom_site_label
_atom_site_fract_x
_atom_site_fract_y
_atom_site_fract_z
Si Si1 0.341445 0.333774 0.090573
Si Si2 0.903274 0.596564 0.138757
Si Si3 0.981236 0.101444 0.589695
Si Si4 0.995448 0.741863 0.889789
Si Si5 0.062962 0.600246 0.462279
Si Si6 0.274592 0.260668 0.419517
O O1 0.408586 0.349573 0.251630
O O2 0.447455 0.324741 0.113448
O O3 0.250000 0.250000 0.000000
O O4 0.243255 0.411423 0.980424
O O5 0.952620 0.500000 0.161975
O O6 0.931802 0.656109 0.077210
O O7 0.970973 0.632066 0.294419
O O8 0.856274 0.152898 0.486449
O O9 0.000000 0.105071 0.500000
O O10 0.969966 0.000000 0.613257
O O11 0.853963 0.721873 0.747171
O O12 0.000000 0.762570 0.000000
O O13 0.109841 0.500000 0.488529
O O14 0.171979 0.669978 0.570581
O O15 0.000000 0.604604 0.500000
O O16 0.250000 0.250000 0.500000
#
# Coordination Sequence:
#
# PCOD8109131 Si02
#       6
#     8   8   8   8   8   8
#     4  10  21  41  62  86 123 167 209 255 304 371
#     4  10  21  39  62  87 120 160 204 256 313 374
#     4  11  25  42  66  99 130 168 215 264 321 384
#     4  11  25  39  58  90 122 160 209 255 315 382
#     4  10  22  40  65  93 120 162 218 265 310 377
#     4  12  22  41  63  89 125 168 204 260 325 376
#
# _framework density 19.792394000000002
#
# number of rings (size 3 to 8) (size 9 to 14) (size 15 to 20)
#    0.000    1.333    3.333    2.000    7.000    1.667 
#    0.000    0.000    0.000    2.500    0.000    0.000 
#    0.000    0.000    0.000    0.000    0.000    0.000 
#
# Total GULP energy -297334.342683 kJ/mol
# GULP energy per Si atom -12388.930945 kJ/mol
# Density = 1.974735 g / cm^3
# Si number density = 19.792394 Si / 1000 Ang^3
#
#
#
# Elastic Constant Matrix: (Units=GPa)
#
#
# Indices 1 2 3 4 5 6 
#
# 1 102.7649 49.8661 43.6530 0.0000 -1.1766 0.0000
# 2 49.8661 109.3923 28.8370 0.0000 8.2900 0.0000
# 3 43.6530 28.8370 120.9886 0.0000 10.7744 0.0000
# 4 0.0000 0.0000 0.0000 15.0396 0.0000 -9.6978
# 5 -1.1766 8.2900 10.7744 0.0000 44.4234 0.0000
# 6 0.0000 0.0000 0.0000 -9.6978 0.0000 19.2772
#
#
#
# Elastic Compliance Matrix: (Units=1/GPa)
#
#
# Indices 1 2 3 4 5 6 
#
# 1 0.014164 -0.005585 -0.003992 0.000000 0.002386 0.000000
# 2 -0.005585 0.012029 -0.000653 0.000000 -0.002234 0.000000
# 3 -0.003992 -0.000653 0.010077 0.000000 -0.002428 0.000000
# 4 0.000000 0.000000 0.000000 0.098416 0.000000 0.049511
# 5 0.002386 -0.002234 -0.002428 0.000000 0.023580 0.000000
# 6 0.000000 0.000000 0.000000 0.049511 0.000000 0.076782
#
#
# Mechanical properties :
#
#
# Convention : Reuss Voigt Hill
#
# Bulk Modulus (GPa) = 63.24835 64.20645 63.72740
# Shear Modulus (GPa) = 19.17340 29.80069 24.48705
#
# Velocity S-wave (km/s) = 3.11581 3.88450 3.52119
# Velocity P-wave (km/s) = 6.70594 7.25462 6.98567
#
# Compressibility (1/GPa) = 0.01581069
#
# Stress axis : x y z
#
# Youngs Moduli (GPa) = 70.60144 83.13375 99.23309
#
# Poissons Ratio (x) = 0.46431 0.39611
# Poissons Ratio (y) = 0.39432 0.06479
# Poissons Ratio (z) = 0.28182 0.05428
#
# Static dielectric constant tensor:
#      x y z
#    x -46.900850 0.000000 4.867170 
#    y 0.000000 3.768050 0.000000 
#    z 4.867170 0.000000 3.391360 
# 
# 
# High freq. dielectric constant tensor:
#      x y z
#    x 1.769530 0.000000 0.002360 
#    y 0.000000 1.774140 0.000000 
#    z 0.002360 0.000000 1.783210 
# 
# From -- ./inp_files/225444.got.cif
#   From: 2010.06.25/outbox.cif.g09.slc.cpg/sg12_113_cif.got.tgz:225444.got - 2010.06.28 00:19:55.
