data_PCOD8109989
_publ_section_title
;
Structure prediction by ZEFSAII (Michael W. Deem and Ramdas Pophale) SiO2 
 PCOD8109989
Probable space group: C 2/M
;
_chemical_formula_sum "Si O2"
_cell_formula_units_Z 48
_cell_length_a 28.879123
_cell_length_b 18.783236
_cell_length_c 12.616932
_cell_angle_alpha 90.000000
_cell_angle_beta 160.028962
_cell_angle_gamma 90.000000
_cell_volume 2337.524865
_symmetry_space_group_name_H-M "C 2/M"
_symmetry_group_IT_number 12
_symmetry_cell_setting 'monoclinic'
loop_
_space_group_symop_operation_xyz
x,y,z
-x,y,-z
-x,-y,-z
x,-y,z
1/2+x,1/2+y,z
1/2-x,1/2+y,-z
1/2-x,1/2-y,-z
1/2+x,1/2-y,z
loop_
_atom_site_type_symbol
_atom_site_label
_atom_site_fract_x
_atom_site_fract_y
_atom_site_fract_z
Si Si1 0.547764 0.918144 0.983649
Si Si2 0.658779 0.921336 0.645709
Si Si3 0.527878 0.419604 0.680921
Si Si4 0.273139 0.215808 0.662278
Si Si5 0.880417 0.289744 0.320045
Si Si6 0.469219 0.707078 0.702367
O O1 0.425565 0.900164 0.640484
O O2 0.597865 0.000000 0.078885
O O3 0.500000 0.903505 0.000000
O O4 0.669288 0.864285 0.219766
O O5 0.634856 0.874578 0.700435
O O6 0.617792 0.000000 0.594310
O O7 0.815307 0.916836 0.951514
O O8 0.500000 0.393694 0.500000
O O9 0.470342 0.500000 0.571115
O O10 0.455853 0.367541 0.610045
O O11 0.250000 0.250000 0.500000
O O12 0.126143 0.206932 0.399972
O O13 0.375746 0.270410 0.941262
O O14 0.907853 0.268077 0.498316
O O15 0.000000 0.268154 0.500000
O O16 0.750000 0.250000 0.000000
#
# Coordination Sequence:
#
# PCOD8109989 Si02
#       6
#     8   8   8   8   8   8
#     4  10  22  42  68  95 126 167 213 266 326 387
#     4  10  21  40  65  94 129 169 213 264 323 381
#     4  10  22  41  65  95 132 174 216 264 325 388
#     4  12  26  43  65  98 130 167 214 271 323 384
#     4  12  24  39  62  92 127 166 214 261 313 377
#     4  12  24  41  65  92 130 172 211 264 324 379
#
# _framework density 20.53454
#
# number of rings (size 3 to 8) (size 9 to 14) (size 15 to 20)
#    0.000    1.000    1.667    6.000    2.333    1.000 
#    0.000    0.000    0.000    2.000    0.000    0.000 
#    0.000    0.000    0.000    0.000    0.000    0.000 
#
# Total GULP energy -297536.640747 kJ/mol
# GULP energy per Si atom -12397.360031 kJ/mol
# Density = 2.048780 g / cm^3
# Si number density = 20.534540 Si / 1000 Ang^3
#
#
#
# Elastic Constant Matrix: (Units=GPa)
#
#
# Indices 1 2 3 4 5 6 
#
# 1 105.3538 58.4233 38.3036 0.0000 1.8871 0.0000
# 2 58.4233 128.9655 39.6340 0.0000 -3.5016 0.0000
# 3 38.3036 39.6340 102.4100 0.0000 -9.6468 0.0000
# 4 0.0000 0.0000 0.0000 27.8816 0.0000 0.1673
# 5 1.8871 -3.5016 -9.6468 0.0000 40.6926 0.0000
# 6 0.0000 0.0000 0.0000 0.1673 0.0000 41.8277
#
#
#
# Elastic Compliance Matrix: (Units=1/GPa)
#
#
# Indices 1 2 3 4 5 6 
#
# 1 0.013594 -0.005212 -0.003241 0.000000 -0.001847 0.000000
# 2 -0.005212 0.010799 -0.002168 0.000000 0.000657 0.000000
# 3 -0.003241 -0.002168 0.012082 0.000000 0.002828 0.000000
# 4 0.000000 0.000000 0.000000 0.035867 0.000000 -0.000143
# 5 -0.001847 0.000657 0.002828 0.000000 0.025387 0.000000
# 6 0.000000 0.000000 0.000000 -0.000143 0.000000 0.023908
#
#
# Mechanical properties :
#
#
# Convention : Reuss Voigt Hill
#
# Bulk Modulus (GPa) = 65.64911 67.71679 66.68295
# Shear Modulus (GPa) = 33.79333 35.43827 34.61580
#
# Velocity S-wave (km/s) = 4.06110 4.15877 4.11022
# Velocity P-wave (km/s) = 7.35048 7.49060 7.42087
#
# Compressibility (1/GPa) = 0.01523250
#
# Stress axis : x y z
#
# Youngs Moduli (GPa) = 73.56338 92.59789 82.76477
#
# Poissons Ratio (x) = 0.48264 0.26825
# Poissons Ratio (y) = 0.38343 0.17944
# Poissons Ratio (z) = 0.23843 0.20076
#
# Static dielectric constant tensor:
#      x y z
#    x 3.523390 0.000000 -0.176450 
#    y 0.000000 4.063390 0.000000 
#    z -0.176450 0.000000 3.852670 
# 
# 
# High freq. dielectric constant tensor:
#      x y z
#    x 1.791340 0.000000 -0.015960 
#    y 0.000000 1.825340 0.000000 
#    z -0.015960 0.000000 1.808100 
# 
# From -- ./inp_files/184819.got.cif
#   From: 2010.06.25/outbox.cif.g09.slc.cpg/sg12_93_cif.got.tgz:184819.got - 2010.06.28 00:19:55.
