data_PCOD8109910
_publ_section_title
;
Structure prediction by ZEFSAII (Michael W. Deem and Ramdas Pophale) SiO2 
 PCOD8109910
Probable space group: C 2/M
;
_chemical_formula_sum "Si O2"
_cell_formula_units_Z 36
_cell_length_a 8.996199
_cell_length_b 17.651022
_cell_length_c 13.608785
_cell_angle_alpha 90.000000
_cell_angle_beta 128.196015
_cell_angle_gamma 90.000000
_cell_volume 1698.304255
_symmetry_space_group_name_H-M "C 2/M"
_symmetry_group_IT_number 12
_symmetry_cell_setting 'monoclinic'
loop_
_space_group_symop_operation_xyz
x,y,z
-x,y,-z
-x,-y,-z
x,-y,z
1/2+x,1/2+y,z
1/2-x,1/2+y,-z
1/2-x,1/2-y,-z
1/2+x,1/2-y,z
loop_
_atom_site_type_symbol
_atom_site_label
_atom_site_fract_x
_atom_site_fract_y
_atom_site_fract_z
Si Si1 0.811532 0.693352 0.723450
Si Si2 0.000000 0.701341 0.500000
Si Si3 0.919271 0.914310 0.860902
Si Si4 0.974518 0.587634 0.654887
Si Si5 0.156524 0.787025 0.866273
O O1 0.647400 0.742309 0.609252
O O2 0.835305 0.607683 0.690569
O O3 0.805401 0.695024 0.839988
O O4 0.008228 0.727132 0.764558
O O5 0.094462 0.643810 0.460103
O O6 0.696305 0.897310 0.767774
O O7 0.037245 0.863091 0.835034
O O8 0.962303 0.000000 0.848087
O O9 0.000000 0.894659 0.000000
O O10 0.940407 0.500000 0.612427
O O11 0.250000 0.750000 0.000000
#
# Coordination Sequence:
#
# PCOD8109910 Si02
#       5
#     8   4   8   8   8
#     4  12  24  40  66  96 129 168 217 269 320 382
#     4  12  23  44  67  90 130 176 218 264 317 394
#     4  10  21  40  64  92 129 169 211 263 325 385
#     4  11  24  43  67  96 130 172 216 266 326 389
#     4  12  23  40  66  96 128 167 219 267 322 388
#
# _framework density 21.197616
#
# number of rings (size 3 to 8) (size 9 to 14) (size 15 to 20)
#    0.000    0.667    4.444    4.333    0.000    0.889 
#    0.000    0.556    0.000    6.667    0.000    0.000 
#    0.000    0.000    0.000    0.000    0.000    0.000 
#
# Total GULP energy -223073.637373 kJ/mol
# GULP energy per Si atom -12392.979854 kJ/mol
# Density = 2.114937 g / cm^3
# Si number density = 21.197616 Si / 1000 Ang^3
#
#
#
# Elastic Constant Matrix: (Units=GPa)
#
#
# Indices 1 2 3 4 5 6 
#
# 1 113.4492 48.1673 19.8878 0.0000 -23.3582 0.0000
# 2 48.1673 109.4107 26.6593 0.0000 -7.1632 0.0000
# 3 19.8878 26.6593 77.6938 0.0000 -13.9496 0.0000
# 4 0.0000 0.0000 0.0000 22.3468 0.0000 1.7614
# 5 -23.3582 -7.1632 -13.9496 0.0000 23.6599 0.0000
# 6 0.0000 0.0000 0.0000 1.7614 0.0000 38.8982
#
#
#
# Elastic Compliance Matrix: (Units=1/GPa)
#
#
# Indices 1 2 3 4 5 6 
#
# 1 0.013415 -0.005248 0.000514 0.000000 0.011958 0.000000
# 2 -0.005248 0.012054 -0.003431 0.000000 -0.003555 0.000000
# 3 0.000514 -0.003431 0.015458 0.000000 0.008582 0.000000
# 4 0.000000 0.000000 0.000000 0.044909 0.000000 -0.002034
# 5 0.011958 -0.003555 0.008582 0.000000 0.058054 0.000000
# 6 0.000000 0.000000 0.000000 -0.002034 0.000000 0.025800
#
#
# Mechanical properties :
#
#
# Convention : Reuss Voigt Hill
#
# Bulk Modulus (GPa) = 40.65728 54.44250 47.54989
# Shear Modulus (GPa) = 25.74426 30.70361 28.22394
#
# Velocity S-wave (km/s) = 3.48873 3.80998 3.65289
# Velocity P-wave (km/s) = 5.95400 6.71518 6.34601
#
# Compressibility (1/GPa) = 0.02459584
#
# Stress axis : x y z
#
# Youngs Moduli (GPa) = 74.54599 82.96345 64.69304
#
# Poissons Ratio (x) = 0.43539 -0.03324
# Poissons Ratio (y) = 0.39122 0.22195
# Poissons Ratio (z) = -0.03831 0.28463
#
# Static dielectric constant tensor:
#      x y z
#    x 3.810020 0.000000 -0.026230 
#    y 0.000000 4.009880 0.000000 
#    z -0.026230 0.000000 3.702580 
# 
# 
# High freq. dielectric constant tensor:
#      x y z
#    x 1.825210 0.000000 -0.005220 
#    y 0.000000 1.841310 0.000000 
#    z -0.005220 0.000000 1.835210 
# 
# From -- ./inp_files/118617.got.cif
#   From: 2010.06.25/outbox.cif.g09.slc.cpg/sg12_60_cif.got.tgz:118617.got - 2010.06.28 00:19:55.
