data_PCOD8109138
_publ_section_title
;
Structure prediction by ZEFSAII (Michael W. Deem and Ramdas Pophale) SiO2 
 PCOD8109138
Probable space group: C 2/M
;
_chemical_formula_sum "Si O2"
_cell_formula_units_Z 64
_cell_length_a 19.368881
_cell_length_b 8.876711
_cell_length_c 30.376397
_cell_angle_alpha 90.000000
_cell_angle_beta 38.653950
_cell_angle_gamma 90.000000
_cell_volume 3262.161237
_symmetry_space_group_name_H-M "C 2/M"
_symmetry_group_IT_number 12
_symmetry_cell_setting 'monoclinic'
loop_
_space_group_symop_operation_xyz
x,y,z
-x,y,-z
-x,-y,-z
x,-y,z
1/2+x,1/2+y,z
1/2-x,1/2+y,-z
1/2-x,1/2-y,-z
1/2+x,1/2-y,z
loop_
_atom_site_type_symbol
_atom_site_label
_atom_site_fract_x
_atom_site_fract_y
_atom_site_fract_z
Si Si1 0.768271 0.179970 0.943939
Si Si2 0.373871 0.678386 0.565218
Si Si3 0.777455 0.174317 0.290999
Si Si4 0.278609 0.177704 0.439506
Si Si5 0.505609 0.669384 0.307481
Si Si6 0.725007 0.172975 0.218080
Si Si7 0.492333 0.330966 0.795102
Si Si8 0.628531 0.676939 0.937983
O O1 0.888006 0.245980 0.870384
O O2 0.676572 0.234594 0.955472
O O3 0.766261 0.000000 0.946373
O O4 0.750000 0.250000 0.000000
O O5 0.500000 0.736627 0.500000
O O6 0.369652 0.500000 0.569254
O O7 0.323788 0.740504 0.635589
O O8 0.304751 0.737163 0.557119
O O9 0.783330 0.195285 0.235821
O O10 0.891195 0.249606 0.252505
O O11 0.766359 0.000000 0.310233
O O12 0.250000 0.250000 0.500000
O O13 0.402944 0.222223 0.366330
O O14 0.269459 0.000000 0.448441
O O15 0.478744 0.500000 0.337656
O O16 0.613907 0.730229 0.277599
O O17 0.535929 0.670102 0.241678
O O18 0.809045 0.227837 0.138037
O O19 0.691873 0.000000 0.226244
O O20 0.504350 0.500000 0.807581
O O21 0.643595 0.500000 0.938424
O O22 0.500000 0.720919 0.000000
#
# Coordination Sequence:
#
# PCOD8109138 Si02
#       8
#     8   8   8   8   8   8   8   8
#     4  11  23  40  62  90 122 160 204 252 305 364
#     4  10  23  42  60  84 120 156 190 238 295 347
#     4  10  21  39  62  88 116 154 198 241 290 351
#     4  11  24  41  62  90 122 158 200 247 298 357
#     4  11  21  39  64  87 117 158 200 249 302 352
#     4  10  22  38  60  91 122 155 200 248 295 355
#     4   9  19  37  62  86 115 153 198 246 295 351
#     4  10  22  40  62  87 122 165 204 249 305 361
#
# _framework density 19.618894999999998
#
# number of rings (size 3 to 8) (size 9 to 14) (size 15 to 20)
#    0.000    1.750    2.500    1.125    3.500    1.500 
#    0.000    1.250    0.000    0.000    0.000    0.000 
#    0.000    0.000    0.000    0.000    0.000    0.000 
#
# Total GULP energy -396803.621516 kJ/mol
# GULP energy per Si atom -12400.113172 kJ/mol
# Density = 1.957424 g / cm^3
# Si number density = 19.618895 Si / 1000 Ang^3
#
#
#
# Elastic Constant Matrix: (Units=GPa)
#
#
# Indices 1 2 3 4 5 6 
#
# 1 101.7742 30.7586 53.1735 0.0005 -3.6909 0.0016
# 2 30.7586 46.4138 31.1962 0.0018 0.3332 0.0024
# 3 53.1735 31.1962 136.6022 -0.0001 -7.9702 -0.0002
# 4 0.0005 0.0018 -0.0001 27.7961 -0.0001 3.9102
# 5 -3.6909 0.3332 -7.9702 -0.0001 41.0277 0.0007
# 6 0.0016 0.0024 -0.0002 3.9102 0.0007 26.8465
#
#
#
# Elastic Compliance Matrix: (Units=1/GPa)
#
#
# Indices 1 2 3 4 5 6 
#
# 1 0.013852 -0.006593 -0.003854 0.000000 0.000551 0.000000
# 2 -0.006593 0.028665 -0.004074 -0.000001 -0.001617 -0.000002
# 3 -0.003854 -0.004074 0.009844 0.000000 0.001599 0.000001
# 4 0.000000 -0.000001 0.000000 0.036729 0.000000 -0.005350
# 5 0.000551 -0.001617 0.001599 0.000000 0.024747 -0.000001
# 6 0.000000 -0.000002 0.000001 -0.005350 -0.000001 0.038028
#
#
# Mechanical properties :
#
#
# Convention : Reuss Voigt Hill
#
# Bulk Modulus (GPa) = 42.88510 57.22744 50.05627
# Shear Modulus (GPa) = 26.49981 30.44483 28.47232
#
# Velocity S-wave (km/s) = 3.67921 3.94358 3.81369
# Velocity P-wave (km/s) = 6.32102 7.06885 6.70537
#
# Compressibility (1/GPa) = 0.02331812
#
# Stress axis : x y z
#
# Youngs Moduli (GPa) = 72.19211 34.88619 101.57983
#
# Poissons Ratio (x) = 0.23001 0.39150
# Poissons Ratio (y) = 0.47598 0.41385
# Poissons Ratio (z) = 0.27824 0.14213
#
# Static dielectric constant tensor:
#      x y z
#    x 3.689870 -0.000030 -0.079330 
#    y -0.000030 3.117130 -0.000010 
#    z -0.079330 -0.000010 3.617760 
# 
# 
# High freq. dielectric constant tensor:
#      x y z
#    x 1.774450 0.000000 -0.003160 
#    y 0.000000 1.747270 0.000000 
#    z -0.003160 0.000000 1.777750 
# 
# From -- ./inp_files/378004.got.cif
#   From: 2010.06.25/outbox.cif.g09.slc.cpg/sg12_190_cif.got.tgz:378004.got - 2010.06.28 00:19:55.
