data_PCOD8109205
_publ_section_title
;
Structure prediction by ZEFSAII (Michael W. Deem and Ramdas Pophale) SiO2 
 PCOD8109205
Probable space group: C 2/M
;
_chemical_formula_sum "Si O2"
_cell_formula_units_Z 44
_cell_length_a 23.138397
_cell_length_b 13.261599
_cell_length_c 7.390157
_cell_angle_alpha 90.000000
_cell_angle_beta 71.087914
_cell_angle_gamma 90.000000
_cell_volume 2145.269066
_symmetry_space_group_name_H-M "C 2/M"
_symmetry_group_IT_number 12
_symmetry_cell_setting 'monoclinic'
loop_
_space_group_symop_operation_xyz
x,y,z
-x,y,-z
-x,-y,-z
x,-y,z
1/2+x,1/2+y,z
1/2-x,1/2+y,-z
1/2-x,1/2-y,-z
1/2+x,1/2-y,z
loop_
_atom_site_type_symbol
_atom_site_label
_atom_site_fract_x
_atom_site_fract_y
_atom_site_fract_z
Si Si1 0.876865 0.380388 0.640881
Si Si2 0.811757 0.720319 0.034912
Si Si3 0.022486 0.885735 0.777940
Si Si4 0.500000 0.765031 0.500000
Si Si5 0.342568 0.383957 0.259314
Si Si6 0.719353 0.881248 0.562853
O O1 0.881638 0.500000 0.647254
O O2 0.942522 0.336181 0.525341
O O3 0.831089 0.344555 0.529785
O O4 0.855595 0.339458 0.856031
O O5 0.845973 0.821573 0.068619
O O6 0.798008 0.649251 0.218495
O O7 0.750000 0.750000 0.000000
O O8 0.988851 0.807641 0.682026
O O9 0.095652 0.871986 0.688789
O O10 0.003940 0.000000 0.743684
O O11 0.000000 0.860198 0.000000
O O12 0.331631 0.500000 0.215653
O O13 0.285964 0.337969 0.434124
O O14 0.725027 0.000000 0.552788
#
# Coordination Sequence:
#
# PCOD8109205 Si02
#       6
#     8   8   8   4   8   8
#     4  11  25  44  63  92 128 167 215 264 308 371
#     4  12  23  36  66  93 126 162 206 257 318 375
#     4  10  22  41  63  91 128 163 207 262 313 374
#     4  12  24  40  68  90 122 176 216 254 308 370
#     4  10  21  39  62  90 127 163 201 257 320 380
#     4  10  22  41  62  90 129 162 201 259 318 372
#
# _framework density 20.510247
#
# number of rings (size 3 to 8) (size 9 to 14) (size 15 to 20)
#    0.000    1.273    1.818    3.818    2.545    0.727 
#    0.000    0.909    0.000    5.455    0.000    0.000 
#    0.000    0.000    0.000    0.000    0.000    0.000 
#
# Total GULP energy -272898.363555 kJ/mol
# GULP energy per Si atom -12404.471071 kJ/mol
# Density = 2.046356 g / cm^3
# Si number density = 20.510247 Si / 1000 Ang^3
#
#
#
# Elastic Constant Matrix: (Units=GPa)
#
#
# Indices 1 2 3 4 5 6 
#
# 1 92.5601 29.6164 36.5845 0.0000 -7.0050 0.0000
# 2 29.6164 65.6297 33.8223 0.0000 4.7839 0.0000
# 3 36.5845 33.8223 118.3686 0.0000 -0.4097 0.0000
# 4 0.0000 0.0000 0.0000 37.4420 0.0000 3.6207
# 5 -7.0050 4.7839 -0.4097 0.0000 32.6431 0.0000
# 6 0.0000 0.0000 0.0000 3.6207 0.0000 33.6639
#
#
#
# Elastic Compliance Matrix: (Units=1/GPa)
#
#
# Indices 1 2 3 4 5 6 
#
# 1 0.013809 -0.005049 -0.002812 0.000000 0.003668 0.000000
# 2 -0.005049 0.019953 -0.004155 0.000000 -0.004060 0.000000
# 3 -0.002812 -0.004155 0.010505 0.000000 0.000137 0.000000
# 4 0.000000 0.000000 0.000000 0.026989 0.000000 -0.002903
# 5 0.003668 -0.004060 0.000137 0.000000 0.032018 0.000000
# 6 0.000000 0.000000 0.000000 -0.002903 0.000000 0.030018
#
#
# Mechanical properties :
#
#
# Convention : Reuss Voigt Hill
#
# Bulk Modulus (GPa) = 49.42294 52.95609 51.18952
# Shear Modulus (GPa) = 30.47519 32.51882 31.49701
#
# Velocity S-wave (km/s) = 3.85886 3.98614 3.92302
# Velocity P-wave (km/s) = 6.63350 6.86011 6.74776
#
# Compressibility (1/GPa) = 0.02023352
#
# Stress axis : x y z
#
# Youngs Moduli (GPa) = 72.41859 50.11875 95.19249
#
# Poissons Ratio (x) = 0.25307 0.26772
# Poissons Ratio (y) = 0.36567 0.39549
# Poissons Ratio (z) = 0.20367 0.20823
#
# Static dielectric constant tensor:
#      x y z
#    x 3.824350 0.000000 0.000960 
#    y 0.000000 3.888900 0.000000 
#    z 0.000960 0.000000 3.674870 
# 
# 
# High freq. dielectric constant tensor:
#      x y z
#    x 1.806600 0.000000 -0.001440 
#    y 0.000000 1.822410 0.000000 
#    z -0.001440 0.000000 1.798830 
# 
# From -- ./inp_files/24260.got.cif
#   From: 2010.06.25/outbox.cif.g09.slc.cpg/sg12_13_cif.got.tgz:24260.got - 2010.06.28 00:19:55.
