data_PCOD8109969
_publ_section_title
;
Structure prediction by ZEFSAII (Michael W. Deem and Ramdas Pophale) SiO2 
 PCOD8109969
Probable space group: C 2/M
;
_chemical_formula_sum "Si O2"
_cell_formula_units_Z 44
_cell_length_a 8.154062
_cell_length_b 12.609248
_cell_length_c 20.170261
_cell_angle_alpha 90.000000
_cell_angle_beta 109.886614
_cell_angle_gamma 90.000000
_cell_volume 1950.169600
_symmetry_space_group_name_H-M "C 2/M"
_symmetry_group_IT_number 12
_symmetry_cell_setting 'monoclinic'
loop_
_space_group_symop_operation_xyz
x,y,z
-x,y,-z
-x,-y,-z
x,-y,z
1/2+x,1/2+y,z
1/2-x,1/2+y,-z
1/2-x,1/2-y,-z
1/2+x,1/2-y,z
loop_
_atom_site_type_symbol
_atom_site_label
_atom_site_fract_x
_atom_site_fract_y
_atom_site_fract_z
Si Si1 0.790529 0.500000 0.050674
Si Si2 0.500000 0.337847 0.000000
Si Si3 0.319768 0.000000 0.899243
Si Si4 0.296752 0.879018 0.204679
Si Si5 0.331937 0.701729 0.446944
Si Si6 0.424227 0.303631 0.134407
Si Si7 0.524032 0.881542 0.630512
O O1 0.665500 0.598689 0.052716
O O2 0.987748 0.500000 0.107868
O O3 0.821587 0.500000 0.977601
O O4 0.562312 0.274483 0.943012
O O5 0.220687 0.108782 0.865677
O O6 0.383089 0.808279 0.160476
O O7 0.099247 0.847051 0.191460
O O8 0.401992 0.865669 0.286434
O O9 0.302498 0.000000 0.177593
O O10 0.500000 0.638060 0.500000
O O11 0.250000 0.750000 0.500000
O O12 0.390804 0.795894 0.406033
O O13 0.187097 0.628589 0.392228
O O14 0.568149 0.000000 0.610426
#
# Coordination Sequence:
#
# PCOD8109969 Si02
#       7
#     4   4   4   8   8   8   8
#     4   8  16  34  66 102 128 156 204 271 348 434
#     4   9  20  38  69  96 132 168 211 291 358 404
#     4   9  18  38  70 100 122 162 213 271 349 408
#     4  11  25  45  67  93 134 181 230 275 326 404
#     4   9  19  36  63 100 134 163 212 267 316 379
#     4  11  23  44  68  95 131 172 225 285 346 407
#     4  10  21  40  65  92 131 181 218 261 323 379
#
# _framework density 22.562138999999998
#
# number of rings (size 3 to 8) (size 9 to 14) (size 15 to 20)
#    0.000    2.182    0.909    1.636    0.000    5.818 
#    1.636    5.000    2.000    0.000    0.000    0.000 
#    0.000    0.000    0.000    0.000    0.000    0.000 
#
# Total GULP energy -272609.371659 kJ/mol
# GULP energy per Si atom -12391.335075 kJ/mol
# Density = 2.251079 g / cm^3
# Si number density = 22.562139 Si / 1000 Ang^3
#
#
#
# Elastic Constant Matrix: (Units=GPa)
#
#
# Indices 1 2 3 4 5 6 
#
# 1 142.6031 59.4785 69.9925 0.0000 24.0217 0.0000
# 2 59.4785 125.6314 67.9212 0.0000 -4.9838 0.0000
# 3 69.9925 67.9212 123.8388 0.0000 28.6943 0.0000
# 4 0.0000 0.0000 0.0000 31.9993 0.0000 -0.6595
# 5 24.0217 -4.9838 28.6943 0.0000 45.8670 0.0000
# 6 0.0000 0.0000 0.0000 -0.6595 0.0000 45.6078
#
#
#
# Elastic Compliance Matrix: (Units=1/GPa)
#
#
# Indices 1 2 3 4 5 6 
#
# 1 0.010720 -0.003491 -0.003223 0.000000 -0.003978 0.000000
# 2 -0.003491 0.014052 -0.007615 0.000000 0.008119 0.000000
# 3 -0.003223 -0.007615 0.016226 0.000000 -0.009290 0.000000
# 4 0.000000 0.000000 0.000000 0.031260 0.000000 0.000452
# 5 -0.003978 0.008119 -0.009290 0.000000 0.030580 0.000000
# 6 0.000000 0.000000 0.000000 0.000452 0.000000 0.021933
#
#
# Mechanical properties :
#
#
# Convention : Reuss Voigt Hill
#
# Bulk Modulus (GPa) = 81.03520 87.42862 84.23191
# Shear Modulus (GPa) = 31.73793 37.67357 34.70575
#
# Velocity S-wave (km/s) = 3.75466 4.09071 3.92628
# Velocity P-wave (km/s) = 7.40209 7.81960 7.61371
#
# Compressibility (1/GPa) = 0.01234032
#
# Stress axis : x y z
#
# Youngs Moduli (GPa) = 93.28104 71.16675 61.63068
#
# Poissons Ratio (x) = 0.24843 0.19862
# Poissons Ratio (y) = 0.32563 0.46932
# Poissons Ratio (z) = 0.30062 0.54193
#
# Static dielectric constant tensor:
#      x y z
#    x 5.099340 0.000000 0.378000 
#    y 0.000000 3.975730 0.000000 
#    z 0.378000 0.000000 3.379180 
# 
# 
# High freq. dielectric constant tensor:
#      x y z
#    x 1.906380 0.000000 0.019570 
#    y 0.000000 1.881440 0.000000 
#    z 0.019570 0.000000 1.898030 
# 
# From -- ./inp_files/332333.got.cif
#   From: 2010.06.25/outbox.cif.g09.slc.cpg/sg12_167_cif.got.tgz:332333.got - 2010.06.28 00:19:55.
