data_PCOD8109689
_publ_section_title
;
Structure prediction by ZEFSAII (Michael W. Deem and Ramdas Pophale) SiO2 
 PCOD8109689
Probable space group: C 2/M
;
_chemical_formula_sum "Si O2"
_cell_formula_units_Z 64
_cell_length_a 31.032032
_cell_length_b 8.577047
_cell_length_c 14.228038
_cell_angle_alpha 90.000000
_cell_angle_beta 56.948492
_cell_angle_gamma 90.000000
_cell_volume 3174.173264
_symmetry_space_group_name_H-M "C 2/M"
_symmetry_group_IT_number 12
_symmetry_cell_setting 'monoclinic'
loop_
_space_group_symop_operation_xyz
x,y,z
-x,y,-z
-x,-y,-z
x,-y,z
1/2+x,1/2+y,z
1/2-x,1/2+y,-z
1/2-x,1/2-y,-z
1/2+x,1/2-y,z
loop_
_atom_site_type_symbol
_atom_site_label
_atom_site_fract_x
_atom_site_fract_y
_atom_site_fract_z
Si Si1 0.901325 0.817372 0.408551
Si Si2 0.441373 0.818964 0.550128
Si Si3 0.360529 0.318005 0.773933
Si Si4 0.715717 0.315592 0.457734
Si Si5 0.337164 0.316777 0.008423
Si Si6 0.034391 0.318147 0.833121
Si Si7 0.259477 0.319279 0.777974
Si Si8 0.430486 0.316036 0.021479
O O1 0.919163 0.786536 0.493146
O O2 0.842982 0.757659 0.463099
O O3 0.937637 0.720316 0.296755
O O4 0.906073 0.000000 0.380873
O O5 0.500000 0.773808 0.500000
O O6 0.409981 0.778657 0.681677
O O7 0.435574 0.000000 0.530772
O O8 0.374833 0.500000 0.761803
O O9 0.344215 0.250463 0.894954
O O10 0.314994 0.287035 0.755194
O O11 0.716536 0.500000 0.459863
O O12 0.750000 0.250000 0.500000
O O13 0.739477 0.258092 0.330516
O O14 0.342151 0.500000 0.997753
O O15 0.281790 0.274577 0.113604
O O16 0.381673 0.250284 0.022825
O O17 0.021633 0.500000 0.853271
O O18 0.070501 0.270363 0.877276
O O19 0.981439 0.222606 0.901660
O O20 0.244851 0.500000 0.800853
O O21 0.427546 0.500000 0.042684
#
# Coordination Sequence:
#
# PCOD8109689 Si02
#       8
#     8   8   8   8   8   8   8   8
#     4  11  23  43  67  91 123 165 207 251 306 370
#     4  11  25  42  62  95 129 159 203 256 308 365
#     4  10  21  42  64  87 120 160 204 247 299 366
#     4  10  23  41  62  91 123 161 206 253 305 367
#     4  10  23  38  61  92 118 153 204 250 298 360
#     4  11  23  39  61  89 122 159 201 251 307 359
#     4  10  21  40  62  87 121 157 199 250 305 361
#     4  10  21  40  60  88 122 159 205 249 297 366
#
# _framework density 20.162731000000001
#
# number of rings (size 3 to 8) (size 9 to 14) (size 15 to 20)
#    0.000    1.625    1.250    3.375    3.500    4.500 
#    0.000    0.000    0.000    0.000    0.000    0.000 
#    0.000    0.000    0.000    0.000    0.000    0.000 
#
# Total GULP energy -396952.303345 kJ/mol
# GULP energy per Si atom -12404.759480 kJ/mol
# Density = 2.011684 g / cm^3
# Si number density = 20.162731 Si / 1000 Ang^3
#
#
#
# Elastic Constant Matrix: (Units=GPa)
#
#
# Indices 1 2 3 4 5 6 
#
# 1 94.3770 21.1537 31.2398 0.0000 -3.9708 0.0000
# 2 21.1537 33.0487 11.8110 0.0000 -0.6949 0.0000
# 3 31.2398 11.8110 127.5686 0.0000 0.0062 0.0000
# 4 0.0000 0.0000 0.0000 33.2664 0.0000 3.4974
# 5 -3.9708 -0.6949 0.0062 0.0000 28.6019 0.0000
# 6 0.0000 0.0000 0.0000 3.4974 0.0000 18.0841
#
#
#
# Elastic Compliance Matrix: (Units=1/GPa)
#
#
# Indices 1 2 3 4 5 6 
#
# 1 0.013185 -0.007499 -0.002535 0.000000 0.001649 0.000000
# 2 -0.007499 0.035575 -0.001457 0.000000 -0.000176 0.000000
# 3 -0.002535 -0.001457 0.008595 0.000000 -0.000389 0.000000
# 4 0.000000 0.000000 0.000000 0.030684 0.000000 -0.005934
# 5 0.001649 -0.000176 -0.000389 0.000000 0.035187 0.000000
# 6 0.000000 0.000000 0.000000 -0.005934 0.000000 0.056445
#
#
# Mechanical properties :
#
#
# Convention : Reuss Voigt Hill
#
# Bulk Modulus (GPa) = 29.09249 42.60035 35.84642
# Shear Modulus (GPa) = 23.35240 28.70981 26.03110
#
# Velocity S-wave (km/s) = 3.40692 3.77756 3.59702
# Velocity P-wave (km/s) = 5.47141 6.34041 5.92187
#
# Compressibility (1/GPa) = 0.03437314
#
# Stress axis : x y z
#
# Youngs Moduli (GPa) = 75.84398 28.10936 116.35266
#
# Poissons Ratio (x) = 0.21079 0.29491
# Poissons Ratio (y) = 0.56874 0.16957
# Poissons Ratio (z) = 0.19223 0.04097
#
# Static dielectric constant tensor:
#      x y z
#    x 3.552130 0.000000 0.030300 
#    y 0.000000 3.529080 0.000000 
#    z 0.030300 0.000000 3.777500 
# 
# 
# High freq. dielectric constant tensor:
#      x y z
#    x 1.794570 0.000000 0.002140 
#    y 0.000000 1.779130 0.000000 
#    z 0.002140 0.000000 1.801070 
# 
# From -- ./inp_files/249650.got.cif
#   From: 2010.06.25/outbox.cif.g09.slc.cpg/sg12_125_cif.got.tgz:249650.got - 2010.06.28 00:19:55.
