data_PCOD8109545
_publ_section_title
;
Structure prediction by ZEFSAII (Michael W. Deem and Ramdas Pophale) SiO2 
 PCOD8109545
Probable space group: C 2/M
;
_chemical_formula_sum "Si O2"
_cell_formula_units_Z 64
_cell_length_a 9.265326
_cell_length_b 18.576771
_cell_length_c 30.576835
_cell_angle_alpha 90.000000
_cell_angle_beta 142.883195
_cell_angle_gamma 90.000000
_cell_volume 3175.842238
_symmetry_space_group_name_H-M "C 2/M"
_symmetry_group_IT_number 12
_symmetry_cell_setting 'monoclinic'
loop_
_space_group_symop_operation_xyz
x,y,z
-x,y,-z
-x,-y,-z
x,-y,z
1/2+x,1/2+y,z
1/2-x,1/2+y,-z
1/2-x,1/2-y,-z
1/2+x,1/2-y,z
loop_
_atom_site_type_symbol
_atom_site_label
_atom_site_fract_x
_atom_site_fract_y
_atom_site_fract_z
Si Si1 0.045833 0.584605 0.610728
Si Si2 0.289657 0.179929 0.482032
Si Si3 0.870008 0.421586 0.879108
Si Si4 0.094741 0.333433 0.707978
Si Si5 0.698050 0.688909 0.682840
Si Si6 0.015471 0.081259 0.141827
Si Si7 0.192465 0.674710 0.007827
Si Si8 0.908161 0.084251 0.272287
O O1 0.016964 0.500000 0.606359
O O2 0.984713 0.615778 0.643804
O O3 0.313459 0.607297 0.660835
O O4 0.857053 0.613396 0.529678
O O5 0.500000 0.197056 0.500000
O O6 0.250000 0.250000 0.500000
O O7 0.052238 0.164183 0.397984
O O8 0.970871 0.500000 0.889956
O O9 0.717997 0.429780 0.885983
O O10 0.700876 0.390947 0.800217
O O11 0.090003 0.369917 0.942102
O O12 0.204436 0.264123 0.710268
O O13 0.283507 0.378472 0.781634
O O14 0.890241 0.306123 0.691004
O O15 0.749389 0.625134 0.729485
O O16 0.933311 0.133045 0.082000
O O17 0.100002 0.000000 0.147412
O O18 0.250000 0.750000 0.000000
O O19 0.000000 0.685496 0.000000
O O20 0.882050 0.000000 0.274528
#
# Coordination Sequence:
#
# PCOD8109545 Si02
#       8
#     8   8   8   8   8   8   8   8
#     4  11  23  42  67  93 124 166 209 257 318 379
#     4  12  24  42  65  90 124 164 208 258 321 374
#     4   9  18  37  66  90 120 164 209 249 301 370
#     4  12  25  41  65  92 127 166 209 264 313 375
#     4  12  26  41  64  93 125 163 211 260 318 375
#     4  10  21  39  65  93 125 165 210 259 311 368
#     4  10  22  38  61  93 127 162 207 254 305 365
#     4  10  21  40  65  94 125 160 208 259 311 375
#
# _framework density 20.152135000000001
#
# number of rings (size 3 to 8) (size 9 to 14) (size 15 to 20)
#    0.000    1.250    3.750    2.250    1.750    4.250 
#    0.000    0.625    0.000    0.750    0.000    0.000 
#    0.000    0.000    0.000    0.000    0.000    0.000 
#
# Total GULP energy -396731.009811 kJ/mol
# GULP energy per Si atom -12397.844057 kJ/mol
# Density = 2.010627 g / cm^3
# Si number density = 20.152135 Si / 1000 Ang^3
#
#
#
# Elastic Constant Matrix: (Units=GPa)
#
#
# Indices 1 2 3 4 5 6 
#
# 1 93.7913 58.4443 11.4363 -0.0008 -3.0424 -0.0001
# 2 58.4443 139.9620 73.7109 -0.0052 -12.6608 -0.0004
# 3 11.4363 73.7109 110.8983 -0.0100 -7.3578 -0.0009
# 4 -0.0008 -0.0052 -0.0100 36.2549 0.0004 -3.8414
# 5 -3.0424 -12.6608 -7.3578 0.0004 21.9927 0.0010
# 6 -0.0001 -0.0004 -0.0009 -3.8414 0.0010 31.9476
#
#
#
# Elastic Compliance Matrix: (Units=1/GPa)
#
#
# Indices 1 2 3 4 5 6 
#
# 1 0.015627 -0.008866 0.004179 0.000000 -0.001544 0.000000
# 2 -0.008866 0.016373 -0.009638 -0.000001 0.004975 0.000000
# 3 0.004179 -0.009638 0.014996 0.000003 0.000046 0.000001
# 4 0.000000 -0.000001 0.000003 0.027938 0.000000 0.003359
# 5 -0.001544 0.004975 0.000046 0.000000 0.048135 -0.000001
# 6 0.000000 0.000000 0.000001 0.003359 -0.000001 0.031705
#
#
# Mechanical properties :
#
#
# Convention : Reuss Voigt Hill
#
# Bulk Modulus (GPa) = 54.51047 70.20386 62.35717
# Shear Modulus (GPa) = 26.37966 31.44306 28.91136
#
# Velocity S-wave (km/s) = 3.62197 3.95433 3.79179
# Velocity P-wave (km/s) = 6.67831 7.46736 7.08383
#
# Compressibility (1/GPa) = 0.01834510
#
# Stress axis : x y z
#
# Youngs Moduli (GPa) = 63.99200 61.07637 66.68587
#
# Poissons Ratio (x) = 0.54150 -0.27868
# Poissons Ratio (y) = 0.56735 0.64274
# Poissons Ratio (z) = -0.26742 0.58867
#
# Static dielectric constant tensor:
#      x y z
#    x 3.669320 0.000000 -0.381020 
#    y 0.000000 3.781850 0.000000 
#    z -0.381020 0.000000 4.993460 
# 
# 
# High freq. dielectric constant tensor:
#      x y z
#    x 1.766940 0.000000 -0.017280 
#    y 0.000000 1.800320 0.000000 
#    z -0.017280 0.000000 1.796850 
# 
# From -- ./inp_files/373020.got.cif
#   From: 2010.06.25/outbox.cif.g09.slc.cpg/sg12_187_cif.got.tgz:373020.got - 2010.06.28 00:19:55.
