data_PCOD8109891
_publ_section_title
;
Structure prediction by ZEFSAII (Michael W. Deem and Ramdas Pophale) SiO2 
 PCOD8109891
Probable space group: C 2/M
;
_chemical_formula_sum "Si O2"
_cell_formula_units_Z 48
_cell_length_a 29.599202
_cell_length_b 8.605160
_cell_length_c 18.722241
_cell_angle_alpha 90.000000
_cell_angle_beta 30.088981
_cell_angle_gamma 90.000000
_cell_volume 2390.743058
_symmetry_space_group_name_H-M "C 2/M"
_symmetry_group_IT_number 12
_symmetry_cell_setting 'monoclinic'
loop_
_space_group_symop_operation_xyz
x,y,z
-x,y,-z
-x,-y,-z
x,-y,z
1/2+x,1/2+y,z
1/2-x,1/2+y,-z
1/2-x,1/2-y,-z
1/2+x,1/2-y,z
loop_
_atom_site_type_symbol
_atom_site_label
_atom_site_fract_x
_atom_site_fract_y
_atom_site_fract_z
Si Si1 0.153135 0.318020 0.617224
Si Si2 0.511625 0.817458 0.407482
Si Si3 0.155335 0.317835 0.449566
Si Si4 0.714512 0.181830 0.120734
Si Si5 0.799448 0.316666 0.149064
Si Si6 0.989842 0.183851 0.931880
O O1 0.150063 0.500000 0.638343
O O2 0.250000 0.250000 0.500000
O O3 0.138842 0.280509 0.554178
O O4 0.077424 0.235361 0.768061
O O5 0.500000 0.738646 0.500000
O O6 0.435403 0.747218 0.460671
O O7 0.611073 0.777885 0.247601
O O8 0.493863 0.000000 0.436012
O O9 0.169656 0.500000 0.416165
O O10 0.242258 0.234892 0.296538
O O11 0.754503 0.258436 0.137152
O O12 0.732902 0.000000 0.102973
O O13 0.750000 0.250000 0.000000
O O14 0.803896 0.500000 0.139862
O O15 0.900947 0.254852 0.017434
O O16 0.981476 0.000000 0.940126
O O17 0.000000 0.240801 0.000000
#
# Coordination Sequence:
#
# PCOD8109891 Si02
#       6
#     8   8   8   8   8   8
#     4  11  24  41  66  96 129 164 205 258 315 380
#     4   9  17  35  63  88 116 160 208 250 304 366
#     4  10  21  40  64  91 123 164 208 257 314 372
#     4  11  23  40  63  91 127 169 213 265 318 374
#     4  12  25  41  63  93 128 168 212 260 316 379
#     4  11  25  45  68  93 125 165 210 263 322 380
#
# _framework density 20.077441
#
# number of rings (size 3 to 8) (size 9 to 14) (size 15 to 20)
#    0.000    1.333    1.667    4.000    2.333    6.667 
#    0.000    2.500    0.000    0.000    0.000    0.000 
#    0.000    0.000    0.000    0.000    0.000    0.000 
#
# Total GULP energy -297516.315521 kJ/mol
# GULP energy per Si atom -12396.513147 kJ/mol
# Density = 2.003174 g / cm^3
# Si number density = 20.077441 Si / 1000 Ang^3
#
#
#
# Elastic Constant Matrix: (Units=GPa)
#
#
# Indices 1 2 3 4 5 6 
#
# 1 121.1977 46.9712 63.0015 -0.0019 -12.0819 -0.0002
# 2 46.9712 90.2271 62.4782 0.0136 -2.2981 -0.0015
# 3 63.0015 62.4782 145.4702 0.0061 7.6178 -0.0011
# 4 -0.0019 0.0136 0.0061 34.5238 -0.0031 1.9108
# 5 -12.0819 -2.2981 7.6178 -0.0031 36.9236 -0.0001
# 6 -0.0002 -0.0015 -0.0011 1.9108 -0.0001 29.6762
#
#
#
# Elastic Compliance Matrix: (Units=1/GPa)
#
#
# Indices 1 2 3 4 5 6 
#
# 1 0.012121 -0.003405 -0.004027 0.000003 0.004585 0.000000
# 2 -0.003405 0.016945 -0.005864 -0.000006 0.001150 0.000001
# 3 -0.004027 -0.005864 0.011348 0.000000 -0.004024 0.000000
# 4 0.000003 -0.000006 0.000000 0.029069 0.000003 -0.001872
# 5 0.004585 0.001150 -0.004024 0.000003 0.029485 0.000000
# 6 0.000000 0.000001 0.000000 -0.001872 0.000000 0.033818
#
#
# Mechanical properties :
#
#
# Convention : Reuss Voigt Hill
#
# Bulk Modulus (GPa) = 72.34453 77.97742 75.16097
# Shear Modulus (GPa) = 30.49084 32.52100 31.50592
#
# Velocity S-wave (km/s) = 3.90123 4.02901 3.96564
# Velocity P-wave (km/s) = 7.51024 7.78245 7.64756
#
# Compressibility (1/GPa) = 0.01382275
#
# Stress axis : x y z
#
# Youngs Moduli (GPa) = 82.50107 59.01435 88.12491
#
# Poissons Ratio (x) = 0.20092 0.35491
# Poissons Ratio (y) = 0.28088 0.51672
# Poissons Ratio (z) = 0.33226 0.34603
#
# Static dielectric constant tensor:
#      x y z
#    x 3.852260 0.000000 0.001780 
#    y 0.000000 3.545560 0.000010 
#    z 0.001780 0.000010 3.757470 
# 
# 
# High freq. dielectric constant tensor:
#      x y z
#    x 1.804260 0.000000 -0.002690 
#    y 0.000000 1.774400 0.000000 
#    z -0.002690 0.000000 1.802220 
# 
# From -- ./inp_files/295360.got.cif
#   From: 2010.06.25/outbox.cif.g09.slc.cpg/sg12_148_cif.got.tgz:295360.got - 2010.06.28 00:19:55.
