data_PCOD8109766
_publ_section_title
;
Structure prediction by ZEFSAII (Michael W. Deem and Ramdas Pophale) SiO2 
 PCOD8109766
Probable space group: C 2/M
;
_chemical_formula_sum "Si O2"
_cell_formula_units_Z 56
_cell_length_a 11.800835
_cell_length_b 26.972584
_cell_length_c 9.154092
_cell_angle_alpha 90.000000
_cell_angle_beta 76.717789
_cell_angle_gamma 90.000000
_cell_volume 2835.796679
_symmetry_space_group_name_H-M "C 2/M"
_symmetry_group_IT_number 12
_symmetry_cell_setting 'monoclinic'
loop_
_space_group_symop_operation_xyz
x,y,z
-x,y,-z
-x,-y,-z
x,-y,z
1/2+x,1/2+y,z
1/2-x,1/2+y,-z
1/2-x,1/2-y,-z
1/2+x,1/2-y,z
loop_
_atom_site_type_symbol
_atom_site_label
_atom_site_fract_x
_atom_site_fract_y
_atom_site_fract_z
Si Si1 0.901343 0.361096 0.335234
Si Si2 0.446858 0.589080 0.874117
Si Si3 0.660972 0.123602 0.326804
Si Si4 0.881729 0.284577 0.104839
Si Si5 0.149958 0.943643 0.632390
Si Si6 0.315586 0.679377 0.048204
Si Si7 0.264578 0.555338 0.708291
O O1 0.850945 0.351167 0.510873
O O2 0.882677 0.307651 0.266523
O O3 0.835689 0.403716 0.263340
O O4 0.033475 0.381407 0.295686
O O5 0.550272 0.593054 0.724001
O O6 0.338314 0.560640 0.835291
O O7 0.500000 0.560100 0.000000
O O8 0.407869 0.642929 0.944493
O O9 0.724127 0.070582 0.335194
O O10 0.741792 0.155391 0.198749
O O11 0.883246 0.224933 0.104635
O O12 0.768258 0.302792 0.054878
O O13 0.000000 0.305328 0.000000
O O14 0.151829 0.937534 0.456768
O O15 0.120586 0.000000 0.685225
O O16 0.209897 0.500000 0.721728
#
# Coordination Sequence:
#
# PCOD8109766 Si02
#       7
#     8   8   8   8   8   8   8
#     4  10  21  40  66  87 118 159 200 251 298 355
#     4  12  22  37  60  87 123 157 201 246 302 353
#     4  10  21  40  62  90 120 155 201 249 299 354
#     4  11  22  39  65  83 117 158 200 247 308 363
#     4  10  22  39  60  87 125 165 201 245 298 361
#     4  11  23  39  60  89 118 156 200 249 303 365
#     4  10  22  40  61  87 120 164 207 245 301 357
#
# _framework density 19.747536
#
# number of rings (size 3 to 8) (size 9 to 14) (size 15 to 20)
#    0.000    1.429    4.286    1.286    0.000    3.429 
#    0.000    2.857    0.000    1.286    0.000    0.000 
#    0.000    0.000    0.000    0.000    0.000    0.000 
#
# Total GULP energy -347058.817316 kJ/mol
# GULP energy per Si atom -12394.957761 kJ/mol
# Density = 1.970259 g / cm^3
# Si number density = 19.747536 Si / 1000 Ang^3
#
#
#
# Elastic Constant Matrix: (Units=GPa)
#
#
# Indices 1 2 3 4 5 6 
#
# 1 108.6212 48.3137 48.3827 0.0000 8.8143 0.0000
# 2 48.3137 106.7987 65.5023 0.0000 -7.9553 0.0000
# 3 48.3827 65.5023 94.4366 0.0000 2.6344 0.0000
# 4 0.0000 0.0000 0.0000 28.2849 0.0000 -2.1970
# 5 8.8143 -7.9553 2.6344 0.0000 34.6943 0.0000
# 6 0.0000 0.0000 0.0000 -2.1970 0.0000 22.3567
#
#
#
# Elastic Compliance Matrix: (Units=1/GPa)
#
#
# Indices 1 2 3 4 5 6 
#
# 1 0.012925 -0.003719 -0.003935 0.000000 -0.003838 0.000000
# 2 -0.003719 0.018135 -0.010838 0.000000 0.005926 0.000000
# 3 -0.003935 -0.010838 0.020207 0.000000 -0.003020 0.000000
# 4 0.000000 0.000000 0.000000 0.035626 0.000000 0.003501
# 5 -0.003838 0.005926 -0.003020 0.000000 0.031386 0.000000
# 6 0.000000 0.000000 0.000000 0.003501 0.000000 0.045073
#
#
# Mechanical properties :
#
#
# Convention : Reuss Voigt Hill
#
# Bulk Modulus (GPa) = 70.02143 70.47267 70.24705
# Shear Modulus (GPa) = 24.37855 26.91102 25.64479
#
# Velocity S-wave (km/s) = 3.51737 3.69555 3.60756
# Velocity P-wave (km/s) = 7.21326 7.34669 7.28028
#
# Compressibility (1/GPa) = 0.01428134
#
# Stress axis : x y z
#
# Youngs Moduli (GPa) = 77.37074 55.14245 49.48814
#
# Poissons Ratio (x) = 0.20510 0.19473
# Poissons Ratio (y) = 0.28778 0.53637
# Poissons Ratio (z) = 0.30444 0.59765
#
# Static dielectric constant tensor:
#      x y z
#    x 3.820430 0.000000 0.078270 
#    y 0.000000 3.532570 0.000000 
#    z 0.078270 0.000000 3.681290 
# 
# 
# High freq. dielectric constant tensor:
#      x y z
#    x 1.784540 0.000000 0.004150 
#    y 0.000000 1.754620 0.000000 
#    z 0.004150 0.000000 1.771700 
# 
# From -- ./inp_files/53171.got.cif
#   From: 2010.06.25/outbox.cif.g09.slc.cpg/sg12_27_cif.got.tgz:53171.got - 2010.06.28 00:19:55.
