data_PCOD8109103
_publ_section_title
;
Structure prediction by ZEFSAII (Michael W. Deem and Ramdas Pophale) SiO2 
 PCOD8109103
Probable space group: C 2/M
;
_chemical_formula_sum "Si O2"
_cell_formula_units_Z 44
_cell_length_a 9.249193
_cell_length_b 31.893702
_cell_length_c 8.355139
_cell_angle_alpha 90.000000
_cell_angle_beta 111.313235
_cell_angle_gamma 90.000000
_cell_volume 2296.123975
_symmetry_space_group_name_H-M "C 2/M"
_symmetry_group_IT_number 12
_symmetry_cell_setting 'monoclinic'
loop_
_space_group_symop_operation_xyz
x,y,z
-x,y,-z
-x,-y,-z
x,-y,z
1/2+x,1/2+y,z
1/2-x,1/2+y,-z
1/2-x,1/2-y,-z
1/2+x,1/2-y,z
loop_
_atom_site_type_symbol
_atom_site_label
_atom_site_fract_x
_atom_site_fract_y
_atom_site_fract_z
Si Si1 0.002605 0.000000 0.253283
Si Si2 0.597301 0.087590 0.283819
Si Si3 0.000000 0.758199 0.000000
Si Si4 0.500000 0.848686 0.500000
Si Si5 0.239165 0.500000 0.377770
Si Si6 0.207477 0.387780 0.004812
Si Si7 0.677610 0.198042 0.844145
Si Si8 0.000000 0.069811 0.000000
O O1 0.035482 0.958454 0.166848
O O2 0.121808 0.000000 0.443598
O O3 0.822117 0.000000 0.236832
O O4 0.605375 0.121064 0.431151
O O5 0.633720 0.040967 0.360919
O O6 0.429473 0.086184 0.134250
O O7 0.721631 0.101447 0.198589
O O8 0.059128 0.732147 0.869426
O O9 0.851866 0.785258 0.881919
O O10 0.387460 0.819280 0.350286
O O11 0.180181 0.338317 0.978252
O O12 0.359722 0.399163 0.971001
#
# Coordination Sequence:
#
# PCOD8109103 Si02
#       8
#     4   8   4   4   4   8   8   4
#     4  10  24  36  54  82 121 151 196 265 297 343
#     4  10  22  38  60  84 118 158 203 249 289 340
#     4  10  21  40  65  90 120 156 188 238 297 372
#     4  10  22  39  60  94 122 154 200 250 294 349
#     4  11  22  40  54  84 123 161 196 259 298 330
#     4  10  21  39  62  86 115 157 201 243 288 362
#     4  10  21  39  63  90 122 152 196 240 298 357
#     4  11  21  40  59  82 112 160 204 240 301 356
#
# _framework density 19.162728000000001
#
# number of rings (size 3 to 8) (size 9 to 14) (size 15 to 20)
#    0.000    1.818    1.818    2.727    5.091    4.000 
#    0.000    0.000    0.000    4.364    0.000    0.000 
#    0.000    0.000    0.000    0.000    0.000    0.000 
#
# Total GULP energy -272793.320415 kJ/mol
# GULP energy per Si atom -12399.696382 kJ/mol
# Density = 1.911911 g / cm^3
# Si number density = 19.162728 Si / 1000 Ang^3
#
#
#
# Elastic Constant Matrix: (Units=GPa)
#
#
# Indices 1 2 3 4 5 6 
#
# 1 129.5956 54.8703 38.7617 0.0000 -1.2846 0.0000
# 2 54.8703 121.6351 55.5110 0.0000 11.9524 0.0000
# 3 38.7617 55.5110 100.1186 0.0000 -6.4677 0.0000
# 4 0.0000 0.0000 0.0000 39.7777 0.0000 1.4120
# 5 -1.2846 11.9524 -6.4677 0.0000 20.9955 0.0000
# 6 0.0000 0.0000 0.0000 1.4120 0.0000 37.3445
#
#
#
# Elastic Compliance Matrix: (Units=1/GPa)
#
#
# Indices 1 2 3 4 5 6 
#
# 1 0.009881 -0.004053 -0.001418 0.000000 0.002475 0.000000
# 2 -0.004053 0.014301 -0.007042 0.000000 -0.010559 0.000000
# 3 -0.001418 -0.007042 0.014994 0.000000 0.008541 0.000000
# 4 0.000000 0.000000 0.000000 0.025174 0.000000 -0.000952
# 5 0.002475 -0.010559 0.008541 0.000000 0.056423 0.000000
# 6 0.000000 0.000000 0.000000 -0.000952 0.000000 0.026814
#
#
# Mechanical properties :
#
#
# Convention : Reuss Voigt Hill
#
# Bulk Modulus (GPa) = 70.67974 72.18169 71.43071
# Shear Modulus (GPa) = 28.19604 33.10395 30.64999
#
# Velocity S-wave (km/s) = 3.84004 4.16085 4.00366
# Velocity P-wave (km/s) = 7.52498 7.79956 7.66350
#
# Compressibility (1/GPa) = 0.01414833
#
# Stress axis : x y z
#
# Youngs Moduli (GPa) = 101.20159 69.92395 66.69545
#
# Poissons Ratio (x) = 0.28343 0.09459
# Poissons Ratio (y) = 0.41022 0.46968
# Poissons Ratio (z) = 0.14353 0.49241
#
# Static dielectric constant tensor:
#      x y z
#    x 3.595170 0.000000 -0.188610 
#    y 0.000000 3.556480 0.000000 
#    z -0.188610 0.000000 3.469580 
# 
# 
# High freq. dielectric constant tensor:
#      x y z
#    x 1.749910 0.000000 -0.011460 
#    y 0.000000 1.752750 0.000000 
#    z -0.011460 0.000000 1.739060 
# 
# From -- ./inp_files/41768.got.cif
#   From: 2010.06.25/outbox.cif.g09.slc.cpg/sg12_21_cif.got.tgz:41768.got - 2010.06.28 00:19:55.
