data_PCOD8109452
_publ_section_title
;
Structure prediction by ZEFSAII (Michael W. Deem and Ramdas Pophale) SiO2 
 PCOD8109452
Probable space group: C 2/M
;
_chemical_formula_sum "Si O2"
_cell_formula_units_Z 40
_cell_length_a 26.582780
_cell_length_b 9.095223
_cell_length_c 21.608060
_cell_angle_alpha 90.000000
_cell_angle_beta 158.916201
_cell_angle_gamma 90.000000
_cell_volume 1879.359201
_symmetry_space_group_name_H-M "C 2/M"
_symmetry_group_IT_number 12
_symmetry_cell_setting 'monoclinic'
loop_
_space_group_symop_operation_xyz
x,y,z
-x,y,-z
-x,-y,-z
x,-y,z
1/2+x,1/2+y,z
1/2-x,1/2+y,-z
1/2-x,1/2-y,-z
1/2+x,1/2-y,z
loop_
_atom_site_type_symbol
_atom_site_label
_atom_site_fract_x
_atom_site_fract_y
_atom_site_fract_z
Si Si1 0.722262 0.827211 0.063179
Si Si2 0.645415 0.673193 0.199749
Si Si3 0.838892 0.826638 0.326621
Si Si4 0.444394 0.334389 0.219727
Si Si5 0.758553 0.331771 0.574511
O O1 0.749237 0.776566 0.164044
O O2 0.851804 0.771502 0.169743
O O3 0.707025 0.000000 0.043259
O O4 0.580728 0.757047 0.872684
O O5 0.666120 0.500000 0.231305
O O6 0.776270 0.737961 0.312138
O O7 0.640184 0.748057 0.261482
O O8 0.500000 0.713042 0.000000
O O9 0.000000 0.784031 0.500000
O O10 0.825488 0.000000 0.324789
O O11 0.399767 0.500000 0.152909
O O12 0.603069 0.326229 0.424437
O O13 0.809962 0.500000 0.624915
O O14 0.750000 0.250000 0.500000
#
# Coordination Sequence:
#
# PCOD8109452 Si02
#       5
#     8   8   8   8   8
#     4   9  18  33  57  88 118 154 198 245 301 367
#     4  11  26  45  64  92 131 170 215 268 319 376
#     4  10  21  39  64  92 125 164 211 262 318 382
#     4   9  19  36  57  84 120 156 194 248 305 358
#     4  11  24  42  65  90 122 164 211 259 313 374
#
# _framework density 21.283850999999999
#
# number of rings (size 3 to 8) (size 9 to 14) (size 15 to 20)
#    0.000    2.000    0.000    2.400    2.800    7.600 
#    0.000    4.000    0.000    0.000    0.000    0.000 
#    0.000    0.000    0.000    0.000    0.000    0.000 
#
# Total GULP energy -248031.281557 kJ/mol
# GULP energy per Si atom -12401.564078 kJ/mol
# Density = 2.123541 g / cm^3
# Si number density = 21.283851 Si / 1000 Ang^3
#
#
#
# Elastic Constant Matrix: (Units=GPa)
#
#
# Indices 1 2 3 4 5 6 
#
# 1 101.0644 55.4364 34.6690 0.0002 -26.6887 0.0002
# 2 55.4364 96.5017 48.6989 0.0003 -20.1024 0.0003
# 3 34.6690 48.6989 96.5136 0.0003 -23.1959 0.0002
# 4 0.0002 0.0003 0.0003 35.4207 0.0003 -4.0575
# 5 -26.6887 -20.1024 -23.1959 0.0003 40.6026 0.0002
# 6 0.0002 0.0003 0.0002 -4.0575 0.0002 36.4471
#
#
#
# Elastic Compliance Matrix: (Units=1/GPa)
#
#
# Indices 1 2 3 4 5 6 
#
# 1 0.015898 -0.007627 -0.000299 0.000000 0.006503 0.000000
# 2 -0.007627 0.017962 -0.006249 0.000000 0.000309 0.000000
# 3 -0.000299 -0.006249 0.014873 0.000000 0.005206 0.000000
# 4 0.000000 0.000000 0.000000 0.028597 0.000000 0.003184
# 5 0.006503 0.000309 0.005206 0.000000 0.032031 0.000000
# 6 0.000000 0.000000 0.000000 0.003184 0.000000 0.027791
#
#
# Mechanical properties :
#
#
# Convention : Reuss Voigt Hill
#
# Bulk Modulus (GPa) = 49.06278 63.52093 56.29185
# Shear Modulus (GPa) = 29.01940 32.84578 30.93259
#
# Velocity S-wave (km/s) = 3.69649 3.93265 3.81640
# Velocity P-wave (km/s) = 6.42810 7.10848 6.77683
#
# Compressibility (1/GPa) = 0.02038205
#
# Stress axis : x y z
#
# Youngs Moduli (GPa) = 62.89934 55.67271 67.23491
#
# Poissons Ratio (x) = 0.42463 0.02013
# Poissons Ratio (y) = 0.47975 0.42016
# Poissons Ratio (z) = 0.01884 0.34791
#
# Static dielectric constant tensor:
#      x y z
#    x 3.885730 0.000000 -0.095790 
#    y 0.000000 3.751240 0.000000 
#    z -0.095790 0.000000 3.999130 
# 
# 
# High freq. dielectric constant tensor:
#      x y z
#    x 1.838240 0.000000 -0.006600 
#    y 0.000000 1.824620 0.000000 
#    z -0.006600 0.000000 1.841760 
# 
# From -- ./inp_files/353129.got.cif
#   From: 2010.06.25/outbox.cif.g09.slc.cpg/sg12_177_cif.got.tgz:353129.got - 2010.06.28 00:19:55.
