data_PCOD8109535
_publ_section_title
;
Structure prediction by ZEFSAII (Michael W. Deem and Ramdas Pophale) SiO2 
 PCOD8109535
Probable space group: C 2/M
;
_chemical_formula_sum "Si O2"
_cell_formula_units_Z 40
_cell_length_a 9.029472
_cell_length_b 10.140216
_cell_length_c 20.474459
_cell_angle_alpha 90.000000
_cell_angle_beta 85.998736
_cell_angle_gamma 90.000000
_cell_volume 1870.088315
_symmetry_space_group_name_H-M "C 2/M"
_symmetry_group_IT_number 12
_symmetry_cell_setting 'monoclinic'
loop_
_space_group_symop_operation_xyz
x,y,z
-x,y,-z
-x,-y,-z
x,-y,z
1/2+x,1/2+y,z
1/2-x,1/2+y,-z
1/2-x,1/2-y,-z
1/2+x,1/2-y,z
loop_
_atom_site_type_symbol
_atom_site_label
_atom_site_fract_x
_atom_site_fract_y
_atom_site_fract_z
Si Si1 0.656678 0.351791 0.961700
Si Si2 0.221505 0.000000 0.449336
Si Si3 0.111146 0.000000 0.592830
Si Si4 0.153756 0.291256 0.643815
Si Si5 0.883384 0.144057 0.180156
Si Si6 0.385240 0.776634 0.732512
O O1 0.728740 0.500000 0.957136
O O2 0.644425 0.287976 0.889160
O O3 0.500000 0.362900 0.000000
O O4 0.750000 0.250000 0.000000
O O5 0.310496 0.130682 0.423620
O O6 0.221420 0.000000 0.527428
O O7 0.056973 0.000000 0.425912
O O8 0.142791 0.867685 0.633623
O O9 0.285141 0.322858 0.691669
O O10 0.999223 0.347705 0.678608
O O11 0.731311 0.130935 0.226484
O O12 0.015614 0.208744 0.215901
O O13 0.942643 0.000000 0.161708
#
# Coordination Sequence:
#
# PCOD8109535 Si02
#       6
#     8   4   4   8   8   8
#     4  10  21  39  65  92 126 165 209 254 309 364
#     4  11  24  43  67  93 123 165 209 255 314 373
#     4  11  24  45  63  93 131 157 205 266 312 370
#     4  11  23  41  67  92 121 169 205 257 315 370
#     4  10  22  40  61  89 124 165 206 257 306 362
#     4  10  23  37  61  87 124 159 207 254 302 368
#
# _framework density 21.389365000000002
#
# number of rings (size 3 to 8) (size 9 to 14) (size 15 to 20)
#    0.000    1.600    2.000    1.800    8.400    0.400 
#    0.000    2.000    0.000    0.000    0.000    0.000 
#    0.000    0.000    0.000    0.000    0.000    0.000 
#
# Total GULP energy -247807.305191 kJ/mol
# GULP energy per Si atom -12390.365260 kJ/mol
# Density = 2.134068 g / cm^3
# Si number density = 21.389365 Si / 1000 Ang^3
#
#
#
# Elastic Constant Matrix: (Units=GPa)
#
#
# Indices 1 2 3 4 5 6 
#
# 1 95.9291 15.2488 28.5625 0.0000 2.6904 0.0000
# 2 15.2488 91.2130 20.9325 0.0000 9.5518 0.0000
# 3 28.5625 20.9325 121.2844 0.0000 -4.3406 0.0000
# 4 0.0000 0.0000 0.0000 6.7198 0.0000 -16.5857
# 5 2.6904 9.5518 -4.3406 0.0000 39.9949 0.0000
# 6 0.0000 0.0000 0.0000 -16.5857 0.0000 8.6721
#
#
#
# Elastic Compliance Matrix: (Units=1/GPa)
#
#
# Indices 1 2 3 4 5 6 
#
# 1 0.011386 -0.001255 -0.002491 0.000000 -0.000737 0.000000
# 2 -0.001255 0.011912 -0.001866 0.000000 -0.002963 0.000000
# 3 -0.002491 -0.001866 0.009212 0.000000 0.001613 0.000000
# 4 0.000000 0.000000 0.000000 -0.039998 0.000000 -0.076498
# 5 -0.000737 -0.002963 0.001613 0.000000 0.025935 0.000000
# 6 0.000000 0.000000 0.000000 -0.076498 0.000000 -0.030994
#
#
# Mechanical properties :
#
#
# Convention : Reuss Voigt Hill
#
# Bulk Modulus (GPa) = 46.98172 48.65711 47.81941
# Shear Modulus (GPa) = 866.15443 27.32286 446.73864
#
# Velocity S-wave (km/s) = 20.14511 3.57796 14.46767
# Velocity P-wave (km/s) = 23.73001 6.31401 17.36347
#
# Compressibility (1/GPa) = 0.02128487
#
# Stress axis : x y z
#
# Youngs Moduli (GPa) = 87.82536 83.95099 108.55838
#
# Poissons Ratio (x) = 0.10533 0.27045
# Poissons Ratio (y) = 0.11019 0.20261
# Poissons Ratio (z) = 0.21880 0.15669
#
# Static dielectric constant tensor:
#      x y z
#    x 3.995210 0.000000 -0.189760 
#    y 0.000000 3.643170 0.000000 
#    z -0.189760 0.000000 4.187560 
# 
# 
# High freq. dielectric constant tensor:
#      x y z
#    x 1.845130 0.000000 -0.009250 
#    y 0.000000 1.812800 0.000000 
#    z -0.009250 0.000000 1.860190 
# 
# From -- ./inp_files/254706.got.cif
#   From: 2010.06.25/outbox.cif.g09.slc.cpg/sg12_128_cif.got.tgz:254706.got - 2010.06.28 00:19:55.
