data_PCOD8109341
_publ_section_title
;
Structure prediction by ZEFSAII (Michael W. Deem and Ramdas Pophale) SiO2 
 PCOD8109341
Probable space group: C 2/M
;
_chemical_formula_sum "Si O2"
_cell_formula_units_Z 48
_cell_length_a 27.288900
_cell_length_b 8.493294
_cell_length_c 16.981785
_cell_angle_alpha 90.000000
_cell_angle_beta 143.911889
_cell_angle_gamma 90.000000
_cell_volume 2318.365848
_symmetry_space_group_name_H-M "C 2/M"
_symmetry_group_IT_number 12
_symmetry_cell_setting 'monoclinic'
loop_
_space_group_symop_operation_xyz
x,y,z
-x,y,-z
-x,-y,-z
x,-y,z
1/2+x,1/2+y,z
1/2-x,1/2+y,-z
1/2-x,1/2-y,-z
1/2+x,1/2-y,z
loop_
_atom_site_type_symbol
_atom_site_label
_atom_site_fract_x
_atom_site_fract_y
_atom_site_fract_z
Si Si1 0.117385 0.683659 0.519951
Si Si2 0.839950 0.815158 0.967517
Si Si3 0.841014 0.183236 0.262718
Si Si4 0.738042 0.184867 0.397839
Si Si5 0.096010 0.814168 0.116373
Si Si6 0.948378 0.186368 0.252690
O O1 0.119034 0.500000 0.541014
O O2 0.113508 0.777642 0.596741
O O3 0.200034 0.727374 0.580543
O O4 0.037529 0.729702 0.364768
O O5 0.744468 0.775784 0.857902
O O6 0.871532 0.747940 0.925218
O O7 0.851244 0.000000 0.981744
O O8 0.895902 0.746622 0.110912
O O9 0.901575 0.236301 0.271479
O O10 0.820472 0.000000 0.231407
O O11 0.750000 0.250000 0.500000
O O12 0.644702 0.223564 0.248605
O O13 0.755566 0.000000 0.419016
O O14 0.111251 0.000000 0.145191
O O15 0.000000 0.770261 0.000000
O O16 0.961725 0.000000 0.265377
#
# Coordination Sequence:
#
# PCOD8109341 Si02
#       6
#     8   8   8   8   8   8
#     4  12  25  42  64  93 127 166 213 262 317 373
#     4  10  21  39  63  91 128 167 207 259 318 378
#     4  11  22  39  63  91 127 169 214 263 316 374
#     4  12  26  45  69  96 128 164 207 258 313 373
#     4  10  22  41  66  97 129 164 205 255 317 378
#     4  10  23  40  61  93 129 170 214 260 317 374
#
# _framework density 20.704238
#
# number of rings (size 3 to 8) (size 9 to 14) (size 15 to 20)
#    0.000    1.167    1.667    4.500    2.333    4.333 
#    0.000    0.000    0.000    0.000    0.000    0.000 
#    0.000    0.000    0.000    0.000    0.000    0.000 
#
# Total GULP energy -297767.540390 kJ/mol
# GULP energy per Si atom -12406.980850 kJ/mol
# Density = 2.065711 g / cm^3
# Si number density = 20.704238 Si / 1000 Ang^3
#
#
#
# Elastic Constant Matrix: (Units=GPa)
#
#
# Indices 1 2 3 4 5 6 
#
# 1 91.0203 23.8860 41.3977 0.0000 -7.7009 0.0000
# 2 23.8860 20.5221 10.2695 0.0000 -3.4365 0.0000
# 3 41.3977 10.2695 144.2230 0.0000 -7.1597 0.0000
# 4 0.0000 0.0000 0.0000 37.8536 0.0000 4.0476
# 5 -7.7009 -3.4365 -7.1597 0.0000 43.8604 0.0000
# 6 0.0000 0.0000 0.0000 4.0476 0.0000 27.2676
#
#
#
# Elastic Compliance Matrix: (Units=1/GPa)
#
#
# Indices 1 2 3 4 5 6 
#
# 1 0.017595 -0.018461 -0.003684 0.000000 0.001041 0.000000
# 2 -0.018461 0.070406 0.000402 0.000000 0.002341 0.000000
# 3 -0.003684 0.000402 0.007997 0.000000 0.000690 0.000000
# 4 0.000000 0.000000 0.000000 0.026844 0.000000 -0.003985
# 5 0.001041 0.002341 0.000690 0.000000 0.023279 0.000000
# 6 0.000000 0.000000 0.000000 -0.003985 0.000000 0.037265
#
#
# Mechanical properties :
#
#
# Convention : Reuss Voigt Hill
#
# Bulk Modulus (GPa) = 19.04357 45.20797 32.12577
# Shear Modulus (GPa) = 20.46032 33.81045 27.13538
#
# Velocity S-wave (km/s) = 3.14700 4.04545 3.62418
# Velocity P-wave (km/s) = 4.73526 6.61086 5.75005
#
# Compressibility (1/GPa) = 0.05251117
#
# Stress axis : x y z
#
# Youngs Moduli (GPa) = 56.83444 14.20333 125.04908
#
# Poissons Ratio (x) = 0.26221 0.46071
# Poissons Ratio (y) = 1.04922 -0.05026
# Poissons Ratio (z) = 0.20939 -0.00571
#
# Static dielectric constant tensor:
#      x y z
#    x 3.885040 0.000000 -0.133100 
#    y 0.000000 3.687120 0.000000 
#    z -0.133100 0.000000 3.921510 
# 
# 
# High freq. dielectric constant tensor:
#      x y z
#    x 1.817600 0.000000 -0.001890 
#    y 0.000000 1.801370 0.000000 
#    z -0.001890 0.000000 1.829190 
# 
# From -- ./inp_files/274107.got.cif
#   From: 2010.06.25/outbox.cif.g09.slc.cpg/sg12_138_cif.got.tgz:274107.got - 2010.06.28 00:19:55.
