data_PCOD8109413
_publ_section_title
;
Structure prediction by ZEFSAII (Michael W. Deem and Ramdas Pophale) SiO2 
 PCOD8109413
Probable space group: C 2/M
;
_chemical_formula_sum "Si O2"
_cell_formula_units_Z 64
_cell_length_a 33.192964
_cell_length_b 17.678586
_cell_length_c 8.912598
_cell_angle_alpha 90.000000
_cell_angle_beta 144.473828
_cell_angle_gamma 90.000000
_cell_volume 3038.994401
_symmetry_space_group_name_H-M "C 2/M"
_symmetry_group_IT_number 12
_symmetry_cell_setting 'monoclinic'
loop_
_space_group_symop_operation_xyz
x,y,z
-x,y,-z
-x,-y,-z
x,-y,z
1/2+x,1/2+y,z
1/2-x,1/2+y,-z
1/2-x,1/2-y,-z
1/2+x,1/2-y,z
loop_
_atom_site_type_symbol
_atom_site_label
_atom_site_fract_x
_atom_site_fract_y
_atom_site_fract_z
Si Si1 0.519920 0.415879 0.896518
Si Si2 0.740936 0.329855 0.896081
Si Si3 0.698408 0.205338 0.236722
Si Si4 0.511556 0.911401 0.371334
Si Si5 0.871712 0.587998 0.784086
Si Si6 0.625118 0.583699 0.693378
Si Si7 0.359834 0.911072 0.414384
Si Si8 0.424416 0.680258 0.193839
O O1 0.554911 0.500000 0.020000
O O2 0.451863 0.427020 0.594501
O O3 0.567570 0.357526 0.947146
O O4 0.500000 0.382637 0.000000
O O5 0.788174 0.391906 0.120143
O O6 0.750000 0.250000 0.000000
O O7 0.758042 0.319980 0.775125
O O8 0.664366 0.363153 0.691356
O O9 0.750000 0.250000 0.500000
O O10 0.681843 0.127119 0.267900
O O11 0.625367 0.246841 0.977614
O O12 0.500000 0.873903 0.500000
O O13 0.579316 0.873920 0.501823
O O14 0.523998 0.000000 0.431606
O O15 0.449471 0.894482 0.070821
O O16 0.854178 0.500000 0.737076
O O17 0.862868 0.622605 0.591081
O O18 0.659625 0.500000 0.814469
O O19 0.621017 0.623102 0.843242
O O20 0.371413 0.000000 0.460497
O O21 0.500000 0.700245 0.500000
#
# Coordination Sequence:
#
# PCOD8109413 Si02
#       8
#     8   8   8   8   8   8   8   8
#     4   9  19  38  66  99 127 157 210 273 325 381
#     4  12  24  41  61  87 128 169 210 259 317 390
#     4  12  27  44  63  93 137 174 212 263 332 393
#     4   9  17  33  59  89 119 155 206 269 320 365
#     4  10  22  41  62  90 125 166 219 268 318 383
#     4  10  21  40  67  95 123 167 216 266 324 386
#     4  10  21  39  64  90 120 163 216 268 315 373
#     4  10  22  43  67  94 127 171 217 269 324 393
#
# _framework density 21.059598000000001
#
# number of rings (size 3 to 8) (size 9 to 14) (size 15 to 20)
#    0.000    1.750    1.250    2.625    1.750    6.500 
#    0.000    0.625    0.000    0.000    0.000    0.000 
#    0.000    0.000    0.000    0.000    0.000    0.000 
#
# Total GULP energy -396697.378225 kJ/mol
# GULP energy per Si atom -12396.793070 kJ/mol
# Density = 2.101167 g / cm^3
# Si number density = 21.059598 Si / 1000 Ang^3
#
#
#
# Elastic Constant Matrix: (Units=GPa)
#
#
# Indices 1 2 3 4 5 6 
#
# 1 172.2137 41.8739 25.6367 0.0000 -18.1509 0.0000
# 2 41.8739 60.7070 17.1014 0.0000 3.0351 0.0000
# 3 25.6367 17.1014 62.4760 0.0000 -10.6352 0.0000
# 4 0.0000 0.0000 0.0000 26.1073 0.0000 -0.0536
# 5 -18.1509 3.0351 -10.6352 0.0000 39.5485 0.0000
# 6 0.0000 0.0000 0.0000 -0.0536 0.0000 31.5327
#
#
#
# Elastic Compliance Matrix: (Units=1/GPa)
#
#
# Indices 1 2 3 4 5 6 
#
# 1 0.007589 -0.005101 -0.001109 0.000000 0.003576 0.000000
# 2 -0.005101 0.021581 -0.004710 0.000000 -0.005264 0.000000
# 3 -0.001109 -0.004710 0.018576 0.000000 0.004848 0.000000
# 4 0.000000 0.000000 0.000000 0.038304 0.000000 0.000065
# 5 0.003576 -0.005264 0.004848 0.000000 0.028634 0.000000
# 6 0.000000 0.000000 0.000000 0.000065 0.000000 0.031713
#
#
# Mechanical properties :
#
#
# Convention : Reuss Voigt Hill
#
# Bulk Modulus (GPa) = 38.60212 51.62452 45.11332
# Shear Modulus (GPa) = 28.26881 33.49000 30.87941
#
# Velocity S-wave (km/s) = 3.66775 3.99212 3.83337
# Velocity P-wave (km/s) = 6.02547 6.76876 6.40790
#
# Compressibility (1/GPa) = 0.02590531
#
# Stress axis : x y z
#
# Youngs Moduli (GPa) = 131.76775 46.33651 53.83347
#
# Poissons Ratio (x) = 0.23637 0.05970
# Poissons Ratio (y) = 0.67216 0.25357
# Poissons Ratio (z) = 0.14614 0.21826
#
# Static dielectric constant tensor:
#      x y z
#    x 5.173970 0.000000 -0.060860 
#    y 0.000000 3.837880 0.000000 
#    z -0.060860 0.000000 3.647370 
# 
# 
# High freq. dielectric constant tensor:
#      x y z
#    x 1.843310 0.000000 -0.005160 
#    y 0.000000 1.815390 0.000000 
#    z -0.005160 0.000000 1.815850 
# 
# From -- ./inp_files/112912.got.cif
#   From: 2010.06.25/outbox.cif.g09.slc.cpg/sg12_57_cif.got.tgz:112912.got - 2010.06.28 00:19:55.
