data_PCOD8109431
_publ_section_title
;
Structure prediction by ZEFSAII (Michael W. Deem and Ramdas Pophale) SiO2 
 PCOD8109431
Probable space group: C 2/M
;
_chemical_formula_sum "Si O2"
_cell_formula_units_Z 40
_cell_length_a 14.404483
_cell_length_b 13.782073
_cell_length_c 16.102637
_cell_angle_alpha 90.000000
_cell_angle_beta 36.363183
_cell_angle_gamma 90.000000
_cell_volume 1895.360454
_symmetry_space_group_name_H-M "C 2/M"
_symmetry_group_IT_number 12
_symmetry_cell_setting 'monoclinic'
loop_
_space_group_symop_operation_xyz
x,y,z
-x,y,-z
-x,-y,-z
x,-y,z
1/2+x,1/2+y,z
1/2-x,1/2+y,-z
1/2-x,1/2-y,-z
1/2+x,1/2-y,z
loop_
_atom_site_type_symbol
_atom_site_label
_atom_site_fract_x
_atom_site_fract_y
_atom_site_fract_z
Si Si1 0.384177 0.112022 0.409876
Si Si2 0.310254 0.268648 0.338348
Si Si3 0.383296 0.610748 0.835115
Si Si4 0.168228 0.286890 0.865534
Si Si5 0.241482 0.392810 0.108584
O O1 0.292228 0.170182 0.404509
O O2 0.331085 0.157592 0.536551
O O3 0.567420 0.126688 0.265434
O O4 0.335029 0.000000 0.440344
O O5 0.472928 0.322269 0.241392
O O6 0.291114 0.235376 0.258239
O O7 0.440438 0.500000 0.781691
O O8 0.306061 0.647994 0.805372
O O9 0.250686 0.618031 0.002208
O O10 0.147348 0.185014 0.928647
O O11 0.000000 0.339924 0.000000
O O12 0.298247 0.500000 0.094392
#
# Coordination Sequence:
#
# PCOD8109431 Si02
#       5
#     8   8   8   8   8
#     4  10  22  42  64  89 125 166 207 258 316 372
#     4  11  23  41  67  91 127 167 209 258 317 372
#     4  11  23  42  66  95 128 166 210 258 313 375
#     4  12  23  38  66  96 129 162 212 260 314 368
#     4  10  21  39  64  91 126 165 206 257 316 372
#
# _framework density 21.104164999999998
#
# number of rings (size 3 to 8) (size 9 to 14) (size 15 to 20)
#    0.000    1.200    4.000    2.400    0.000    4.000 
#    0.000    2.000    0.000    3.600    0.000    0.000 
#    0.000    0.000    0.000    0.000    0.000    0.000 
#
# Total GULP energy -247992.990725 kJ/mol
# GULP energy per Si atom -12399.649536 kJ/mol
# Density = 2.105613 g / cm^3
# Si number density = 21.104165 Si / 1000 Ang^3
#
#
#
# Elastic Constant Matrix: (Units=GPa)
#
#
# Indices 1 2 3 4 5 6 
#
# 1 83.3491 8.5519 40.9835 -0.0003 19.2917 0.0003
# 2 8.5519 80.5259 29.4490 0.0000 12.6029 0.0000
# 3 40.9835 29.4490 126.9869 -0.0005 12.4086 0.0007
# 4 -0.0003 0.0000 -0.0005 29.3900 0.0003 -1.7033
# 5 19.2917 12.6029 12.4086 0.0003 37.1485 -0.0004
# 6 0.0003 0.0000 0.0007 -1.7033 -0.0004 11.7727
#
#
#
# Elastic Compliance Matrix: (Units=1/GPa)
#
#
# Indices 1 2 3 4 5 6 
#
# 1 0.015809 0.001132 -0.004678 0.000000 -0.007032 0.000000
# 2 0.001132 0.014153 -0.003226 0.000000 -0.004312 0.000000
# 3 -0.004678 -0.003226 0.010119 0.000000 0.000144 0.000000
# 4 0.000000 0.000000 0.000000 0.034313 0.000000 0.004964
# 5 -0.007032 -0.004312 0.000144 0.000000 0.031985 0.000001
# 6 0.000000 0.000000 0.000000 0.004964 0.000001 0.085661
#
#
# Mechanical properties :
#
#
# Convention : Reuss Voigt Hill
#
# Bulk Modulus (GPa) = 37.68292 49.87006 43.77649
# Shear Modulus (GPa) = 23.31779 29.78741 26.55260
#
# Velocity S-wave (km/s) = 3.32760 3.76100 3.55092
# Velocity P-wave (km/s) = 5.71474 6.52241 6.13189
#
# Compressibility (1/GPa) = 0.02653722
#
# Stress axis : x y z
#
# Youngs Moduli (GPa) = 63.25468 70.65738 98.82774
#
# Poissons Ratio (x) = -0.08000 0.46228
# Poissons Ratio (y) = -0.07162 0.31884
# Poissons Ratio (z) = 0.29589 0.22795
#
# Static dielectric constant tensor:
#      x y z
#    x 3.503930 0.000000 0.087710 
#    y 0.000000 4.087210 0.000000 
#    z 0.087710 0.000000 3.986880 
# 
# 
# High freq. dielectric constant tensor:
#      x y z
#    x 1.804300 0.000000 0.001000 
#    y 0.000000 1.837670 0.000000 
#    z 0.001000 0.000000 1.840400 
# 
# From -- ./inp_files/58938.got.cif
#   From: 2010.06.25/outbox.cif.g09.slc.cpg/sg12_30_cif.got.tgz:58938.got - 2010.06.28 00:19:55.
