data_PCOD8109167
_publ_section_title
;
Structure prediction by ZEFSAII (Michael W. Deem and Ramdas Pophale) SiO2 
 PCOD8109167
Probable space group: C 2/M
;
_chemical_formula_sum "Si O2"
_cell_formula_units_Z 40
_cell_length_a 8.130017
_cell_length_b 26.704563
_cell_length_c 8.820847
_cell_angle_alpha 90.000000
_cell_angle_beta 99.324783
_cell_angle_gamma 90.000000
_cell_volume 1889.774898
_symmetry_space_group_name_H-M "C 2/M"
_symmetry_group_IT_number 12
_symmetry_cell_setting 'monoclinic'
loop_
_space_group_symop_operation_xyz
x,y,z
-x,y,-z
-x,-y,-z
x,-y,z
1/2+x,1/2+y,z
1/2-x,1/2+y,-z
1/2-x,1/2-y,-z
1/2+x,1/2-y,z
loop_
_atom_site_type_symbol
_atom_site_label
_atom_site_fract_x
_atom_site_fract_y
_atom_site_fract_z
Si Si1 0.424981 0.213943 0.652466
Si Si2 0.755512 0.214229 0.854704
Si Si3 0.419019 0.611367 0.845068
Si Si4 0.189034 0.558855 0.572337
Si Si5 0.649930 0.369095 0.614965
O O1 0.500000 0.229060 0.500000
O O2 0.568276 0.198186 0.790125
O O3 0.326947 0.260173 0.712319
O O4 0.307820 0.166144 0.624665
O O5 0.857824 0.164372 0.903433
O O6 0.750000 0.250000 0.000000
O O7 0.264209 0.583932 0.737877
O O8 0.584656 0.620425 0.771524
O O9 0.500000 0.581089 0.000000
O O10 0.203812 0.500000 0.595149
O O11 0.304520 0.577300 0.452437
O O12 0.000000 0.574807 0.500000
O O13 0.500000 0.342997 0.500000
#
# Coordination Sequence:
#
# PCOD8109167 Si02
#       5
#     8   8   8   8   8
#     4  12  23  37  59  86 118 157 210 256 297 359
#     4  12  25  40  58  85 126 170 205 247 310 370
#     4  11  23  40  62  91 125 160 206 253 304 365
#     4  10  22  43  68  92 121 159 203 254 315 374
#     4  10  21  39  62  89 121 157 201 252 309 367
#
# _framework density 21.166543000000001
#
# number of rings (size 3 to 8) (size 9 to 14) (size 15 to 20)
#    0.000    1.000    0.000    9.000    0.000    7.200 
#    0.000    3.000    0.000    2.400    0.000    0.000 
#    0.000    0.000    0.000    0.000    0.000    0.000 
#
# Total GULP energy -247864.715819 kJ/mol
# GULP energy per Si atom -12393.235791 kJ/mol
# Density = 2.111837 g / cm^3
# Si number density = 21.166543 Si / 1000 Ang^3
#
#
#
# Elastic Constant Matrix: (Units=GPa)
#
#
# Indices 1 2 3 4 5 6 
#
# 1 139.6919 52.4970 79.1990 0.0000 14.4304 0.0000
# 2 52.4970 93.9450 50.8356 0.0000 9.5387 0.0000
# 3 79.1990 50.8356 162.8061 0.0000 15.2542 0.0000
# 4 0.0000 0.0000 0.0000 21.8748 0.0000 0.9243
# 5 14.4304 9.5387 15.2542 0.0000 35.8285 0.0000
# 6 0.0000 0.0000 0.0000 0.9243 0.0000 32.8914
#
#
#
# Elastic Compliance Matrix: (Units=1/GPa)
#
#
# Indices 1 2 3 4 5 6 
#
# 1 0.011054 -0.003826 -0.004021 0.000000 -0.001721 0.000000
# 2 -0.003826 0.014243 -0.002474 0.000000 -0.001198 0.000000
# 3 -0.004021 -0.002474 0.009017 0.000000 -0.001561 0.000000
# 4 0.000000 0.000000 0.000000 0.045769 0.000000 -0.001286
# 5 -0.001721 -0.001198 -0.001561 0.000000 0.029587 0.000000
# 6 0.000000 0.000000 0.000000 -0.001286 0.000000 0.030439
#
#
# Mechanical properties :
#
#
# Convention : Reuss Voigt Hill
#
# Bulk Modulus (GPa) = 73.14535 84.61181 78.87858
# Shear Modulus (GPa) = 30.24613 32.37971 31.31292
#
# Velocity S-wave (km/s) = 3.78426 3.91546 3.85042
# Velocity P-wave (km/s) = 7.32982 7.77831 7.55739
#
# Compressibility (1/GPa) = 0.01367141
#
# Stress axis : x y z
#
# Youngs Moduli (GPa) = 90.46160 70.21048 110.89888
#
# Poissons Ratio (x) = 0.26865 0.44598
# Poissons Ratio (y) = 0.34614 0.27433
# Poissons Ratio (z) = 0.36379 0.17368
#
# Static dielectric constant tensor:
#      x y z
#    x 4.397590 0.000000 0.191390 
#    y 0.000000 3.574190 0.000000 
#    z 0.191390 0.000000 4.221760 
# 
# 
# High freq. dielectric constant tensor:
#      x y z
#    x 1.855340 0.000000 0.013080 
#    y 0.000000 1.805290 0.000000 
#    z 0.013080 0.000000 1.840450 
# 
# From -- ./inp_files/39222.got.cif
#   From: 2010.06.25/outbox.cif.g09.slc.cpg/sg12_20_cif.got.tgz:39222.got - 2010.06.28 00:19:55.
