data_PCOD8109679
_publ_section_title
;
Structure prediction by ZEFSAII (Michael W. Deem and Ramdas Pophale) SiO2 
 PCOD8109679
Probable space group: C 2/M
;
_chemical_formula_sum "Si O2"
_cell_formula_units_Z 48
_cell_length_a 29.887556
_cell_length_b 10.356736
_cell_length_c 25.180105
_cell_angle_alpha 90.000000
_cell_angle_beta 19.174283
_cell_angle_gamma 90.000000
_cell_volume 2559.944229
_symmetry_space_group_name_H-M "C 2/M"
_symmetry_group_IT_number 12
_symmetry_cell_setting 'monoclinic'
loop_
_space_group_symop_operation_xyz
x,y,z
-x,y,-z
-x,-y,-z
x,-y,z
1/2+x,1/2+y,z
1/2-x,1/2+y,-z
1/2-x,1/2-y,-z
1/2+x,1/2-y,z
loop_
_atom_site_type_symbol
_atom_site_label
_atom_site_fract_x
_atom_site_fract_y
_atom_site_fract_z
Si Si1 0.366578 0.500000 0.933627
Si Si2 0.052899 0.500000 0.542620
Si Si3 0.926413 0.500000 0.791023
Si Si4 0.034486 0.253159 0.723014
Si Si5 0.291503 0.845246 0.376058
Si Si6 0.144304 0.711035 0.364518
Si Si7 0.862526 0.649438 0.178788
Si Si8 0.764033 0.500000 0.813920
O O1 0.443525 0.626932 0.829137
O O2 0.220333 0.500000 0.070618
O O3 0.359495 0.500000 0.005938
O O4 0.124155 0.627528 0.440245
O O5 0.049765 0.500000 0.609734
O O6 0.900796 0.500000 0.693194
O O7 0.940623 0.371536 0.809877
O O8 0.150475 0.222973 0.549841
O O9 0.092936 0.292531 0.714478
O O10 0.330829 0.796455 0.273058
O O11 0.277376 0.000000 0.396508
O O12 0.234512 0.831735 0.282267
O O13 0.236991 0.629125 0.220160
O O14 0.000000 0.754248 0.500000
O O15 0.889500 0.500000 0.154982
O O16 0.000000 0.714126 0.000000
#
# Coordination Sequence:
#
# PCOD8109679 Si02
#       8
#     4   4   4   8   8   8   8   4
#     4  11  23  37  57  91 123 151 187 247 295 343
#     4   8  16  33  57  84 111 148 178 230 285 333
#     4  11  21  37  60  89 121 151 194 238 293 352
#     4  11  22  38  62  85 114 160 198 236 290 354
#     4  10  21  40  60  81 114 156 203 243 285 345
#     4   9  17  35  59  84 111 150 190 228 284 344
#     4  10  22  37  56  81 116 152 186 243 290 337
#     4   8  18  33  56  81 118 143 178 233 286 336
#
# _framework density 18.750408
#
# number of rings (size 3 to 8) (size 9 to 14) (size 15 to 20)
#    0.000    2.167    1.667    2.500    2.333    0.333 
#    0.000    3.333    0.000    0.000    0.000    0.000 
#    0.000    0.000    0.000    0.000    0.000    0.000 
#
# Total GULP energy -297489.516257 kJ/mol
# GULP energy per Si atom -12395.396511 kJ/mol
# Density = 1.870773 g / cm^3
# Si number density = 18.750408 Si / 1000 Ang^3
#
#
#
# Elastic Constant Matrix: (Units=GPa)
#
#
# Indices 1 2 3 4 5 6 
#
# 1 117.9141 40.4806 65.1474 -0.0004 9.7720 0.0003
# 2 40.4806 68.6867 14.1906 0.0032 -3.0651 -0.0008
# 3 65.1474 14.1906 67.9780 0.0068 0.2835 -0.0008
# 4 -0.0004 0.0032 0.0068 -73.6176 0.0005 15.7640
# 5 9.7720 -3.0651 0.2835 0.0005 31.8264 -0.0002
# 6 0.0003 -0.0008 -0.0008 15.7640 -0.0002 22.9683
#
#
#
# Elastic Compliance Matrix: (Units=1/GPa)
#
#
# Indices 1 2 3 4 5 6 
#
# 1 0.024499 -0.010416 -0.021270 -0.000003 -0.008336 0.000000
# 2 -0.010416 0.019715 0.005846 0.000001 0.005045 0.000000
# 3 -0.021270 0.005846 0.033846 0.000003 0.006792 -0.000001
# 4 -0.000003 0.000001 0.000003 -0.011843 0.000001 0.008128
# 5 -0.008336 0.005045 0.006792 0.000001 0.034405 0.000000
# 6 0.000000 0.000000 -0.000001 0.008128 0.000000 0.037959
#
#
# Mechanical properties :
#
#
# Convention : Reuss Voigt Hill
#
# Bulk Modulus (GPa) = 37.90756 54.91290 46.41023
# Shear Modulus (GPa) = 25.11869 5.21944 15.16906
#
# Velocity S-wave (km/s) = 3.66407 1.67023 2.84738
# Velocity P-wave (km/s) = 6.17749 5.75060 5.96786
#
# Compressibility (1/GPa) = 0.02637996
#
# Stress axis : x y z
#
# Youngs Moduli (GPa) = 40.81800 50.72280 29.54555
#
# Poissons Ratio (x) = 0.52834 0.62843
# Poissons Ratio (y) = 0.42517 -0.17272
# Poissons Ratio (z) = 0.86819 -0.29652
#
# Static dielectric constant tensor:
#      x y z
#    x 3.787830 0.000000 0.499580 
#    y 0.000000 3.280940 0.000000 
#    z 0.499580 0.000000 3.729630 
# 
# 
# High freq. dielectric constant tensor:
#      x y z
#    x 1.734600 0.000000 0.008330 
#    y 0.000000 1.718310 0.000000 
#    z 0.008330 0.000000 1.726830 
# 
# From -- ./inp_files/351912.got.cif
#   From: 2010.06.25/outbox.cif.g09.slc.cpg/sg12_176_cif.got.tgz:351912.got - 2010.06.28 00:19:55.
