data_PCOD8109726
_publ_section_title
;
Structure prediction by ZEFSAII (Michael W. Deem and Ramdas Pophale) SiO2 
 PCOD8109726
Probable space group: C 2/M
;
_chemical_formula_sum "Si O2"
_cell_formula_units_Z 64
_cell_length_a 30.770759
_cell_length_b 16.656726
_cell_length_c 13.153867
_cell_angle_alpha 90.000000
_cell_angle_beta 31.073499
_cell_angle_gamma 90.000000
_cell_volume 3479.737466
_symmetry_space_group_name_H-M "C 2/M"
_symmetry_group_IT_number 12
_symmetry_cell_setting 'monoclinic'
loop_
_space_group_symop_operation_xyz
x,y,z
-x,y,-z
-x,-y,-z
x,-y,z
1/2+x,1/2+y,z
1/2-x,1/2+y,-z
1/2-x,1/2-y,-z
1/2+x,1/2-y,z
loop_
_atom_site_type_symbol
_atom_site_label
_atom_site_fract_x
_atom_site_fract_y
_atom_site_fract_z
Si Si1 0.173521 0.593669 0.268481
Si Si2 0.175668 0.188745 0.938734
Si Si3 0.271000 0.201522 0.356727
Si Si4 0.412853 0.202208 0.725016
Si Si5 0.562943 0.406853 0.020264
Si Si6 0.379657 0.593445 0.316520
Si Si7 0.001575 0.411068 0.291778
Si Si8 0.069914 0.407094 0.937542
O O1 0.186128 0.500000 0.208721
O O2 0.255405 0.624570 0.163344
O O3 0.149345 0.653031 0.224524
O O4 0.098034 0.601013 0.499827
O O5 0.212887 0.248024 0.778153
O O6 0.141819 0.229827 0.109733
O O7 0.097402 0.142504 0.046082
O O8 0.250000 0.250000 0.500000
O O9 0.193009 0.144357 0.484637
O O10 0.348553 0.146887 0.234450
O O11 0.500000 0.236528 0.500000
O O12 0.441280 0.141626 0.752660
O O13 0.570481 0.500000 0.030920
O O14 0.466411 0.382209 0.196931
O O15 0.615843 0.386632 0.812685
O O16 0.360770 0.500000 0.370730
O O17 0.027300 0.500000 0.272255
O O18 0.024519 0.390226 0.132912
O O19 0.095028 0.500000 0.869711
O O20 0.000000 0.376886 0.000000
#
# Coordination Sequence:
#
# PCOD8109726 Si02
#       8
#     8   8   8   8   8   8   8   8
#     4  10  22  39  62  87 113 148 195 244 291 349
#     4  12  23  37  58  90 121 149 188 241 298 347
#     4  12  24  36  53  88 127 158 187 232 289 345
#     4  10  21  40  62  82 111 149 191 244 298 348
#     4   9  19  37  59  79 109 157 205 236 267 330
#     4   9  19  37  57  78 113 163 204 230 265 327
#     4   9  18  36  60  84 110 151 194 231 283 348
#     4  10  22  38  57  82 120 159 193 233 280 341
#
# _framework density 18.392192000000001
#
# number of rings (size 3 to 8) (size 9 to 14) (size 15 to 20)
#    0.000    1.875    2.500    2.250    1.750    4.500 
#    0.000    0.000    0.000    3.000    0.000    0.000 
#    0.000    0.000    0.000    0.000    0.000    0.000 
#
# Total GULP energy -396672.553816 kJ/mol
# GULP energy per Si atom -12396.017307 kJ/mol
# Density = 1.835033 g / cm^3
# Si number density = 18.392192 Si / 1000 Ang^3
#
#
#
# Elastic Constant Matrix: (Units=GPa)
#
#
# Indices 1 2 3 4 5 6 
#
# 1 101.1381 49.5388 49.9952 0.0000 -10.9838 0.0000
# 2 49.5388 84.8695 53.5393 0.0000 -9.8634 0.0000
# 3 49.9952 53.5393 110.6867 0.0000 2.6756 0.0000
# 4 0.0000 0.0000 0.0000 33.1998 0.0000 -0.8885
# 5 -10.9838 -9.8634 2.6756 0.0000 29.2400 0.0000
# 6 0.0000 0.0000 0.0000 -0.8885 0.0000 20.9399
#
#
#
# Elastic Compliance Matrix: (Units=1/GPa)
#
#
# Indices 1 2 3 4 5 6 
#
# 1 0.015236 -0.005763 -0.004195 0.000000 0.004163 0.000000
# 2 -0.005763 0.020460 -0.007424 0.000000 0.005416 0.000000
# 3 -0.004195 -0.007424 0.014651 0.000000 -0.005421 0.000000
# 4 0.000000 0.000000 0.000000 0.030155 0.000000 0.001280
# 5 0.004163 0.005416 -0.005421 0.000000 0.038087 0.000000
# 6 0.000000 0.000000 0.000000 0.001280 0.000000 0.047810
#
#
# Mechanical properties :
#
#
# Convention : Reuss Voigt Hill
#
# Bulk Modulus (GPa) = 64.17372 66.98231 65.57802
# Shear Modulus (GPa) = 24.22979 26.25066 25.24023
#
# Velocity S-wave (km/s) = 3.63353 3.78202 3.70852
# Velocity P-wave (km/s) = 7.25058 7.45450 7.35325
#
# Compressibility (1/GPa) = 0.01558270
#
# Stress axis : x y z
#
# Youngs Moduli (GPa) = 65.63344 48.87639 68.25322
#
# Poissons Ratio (x) = 0.28169 0.28631
# Poissons Ratio (y) = 0.37827 0.50672
# Poissons Ratio (z) = 0.27532 0.36287
#
# Static dielectric constant tensor:
#      x y z
#    x 3.223340 0.000000 -0.095820 
#    y 0.000000 3.379680 0.000000 
#    z -0.095820 0.000000 3.448660 
# 
# 
# High freq. dielectric constant tensor:
#      x y z
#    x 1.717130 0.000000 -0.008530 
#    y 0.000000 1.717230 0.000000 
#    z -0.008530 0.000000 1.712790 
# 
# From -- ./inp_files/190044.got.cif
#   From: 2010.06.25/outbox.cif.g09.slc.cpg/sg12_96_cif.got.tgz:190044.got - 2010.06.28 00:19:55.
