data_PCOD8109267
_publ_section_title
;
Structure prediction by ZEFSAII (Michael W. Deem and Ramdas Pophale) SiO2 
 PCOD8109267
Probable space group: C 2/M
;
_chemical_formula_sum "Si O2"
_cell_formula_units_Z 32
_cell_length_a 8.996688
_cell_length_b 5.287686
_cell_length_c 26.739313
_cell_angle_alpha 90.000000
_cell_angle_beta 101.563518
_cell_angle_gamma 90.000000
_cell_volume 1246.215180
_symmetry_space_group_name_H-M "C 2/M"
_symmetry_group_IT_number 12
_symmetry_cell_setting 'monoclinic'
loop_
_space_group_symop_operation_xyz
x,y,z
-x,y,-z
-x,-y,-z
x,-y,z
1/2+x,1/2+y,z
1/2-x,1/2+y,-z
1/2-x,1/2-y,-z
1/2+x,1/2-y,z
loop_
_atom_site_type_symbol
_atom_site_label
_atom_site_fract_x
_atom_site_fract_y
_atom_site_fract_z
Si Si1 0.938850 0.000000 0.887756
Si Si2 0.237219 0.500000 0.786750
Si Si3 0.319725 0.500000 0.981448
Si Si4 0.719670 0.500000 0.360886
Si Si5 0.179191 0.500000 0.519279
Si Si6 0.030256 0.500000 0.324399
Si Si7 0.167631 0.500000 0.231550
Si Si8 0.534754 0.000000 0.869530
O O1 0.795592 0.000000 0.918242
O O2 0.041305 0.749680 0.905217
O O3 0.903135 0.000000 0.825845
O O4 0.229971 0.750217 0.751159
O O5 0.136530 0.500000 0.828283
O O6 0.500000 0.500000 0.000000
O O7 0.250000 0.750000 0.000000
O O8 0.789468 0.500000 0.420216
O O9 0.618265 0.750472 0.348124
O O10 0.859094 0.500000 0.331702
O O11 0.250000 0.250000 0.500000
O O12 0.000000 0.500000 0.500000
O O13 0.025607 0.500000 0.262160
O O14 0.130782 0.500000 0.169685
#
# Coordination Sequence:
#
# PCOD8109267 Si02
#       8
#     4   4   4   4   4   4   4   4
#     4  10  23  39  63  94 124 172 217 282 334 395
#     4  10  21  39  63  88 125 163 230 273 330 395
#     4  12  28  47  73 105 142 182 229 282 352 429
#     4  12  26  48  69 108 138 189 231 283 354 411
#     4  12  25  45  76 103 140 180 234 296 345 409
#     4  12  27  45  71  98 148 183 229 284 341 427
#     4  10  23  38  59  94 120 178 219 273 332 393
#     4  10  21  39  64  89 125 164 227 273 330 395
#
# _framework density 25.677745999999999
#
# number of rings (size 3 to 8) (size 9 to 14) (size 15 to 20)
#    0.000    1.000    0.000    6.000    7.000    0.000 
#    0.000    0.000    0.000    0.000    0.000    0.000 
#    0.000    0.000    0.000    0.000    0.000    0.000 
#
# Total GULP energy -198292.224776 kJ/mol
# GULP energy per Si atom -12393.264048 kJ/mol
# Density = 2.561930 g / cm^3
# Si number density = 25.677746 Si / 1000 Ang^3
#
#
#
# Elastic Constant Matrix: (Units=GPa)
#
#
# Indices 1 2 3 4 5 6 
#
# 1 117.3945 70.2751 8.4460 0.0000 -21.0249 0.0000
# 2 70.2751 295.2957 28.3300 0.0000 -29.6499 0.0000
# 3 8.4460 28.3300 132.5088 0.0000 2.9193 0.0000
# 4 0.0000 0.0000 0.0000 29.5250 0.0000 -23.9779
# 5 -21.0249 -29.6499 2.9193 0.0000 53.5162 0.0000
# 6 0.0000 0.0000 0.0000 -23.9779 0.0000 33.6451
#
#
#
# Elastic Compliance Matrix: (Units=1/GPa)
#
#
# Indices 1 2 3 4 5 6 
#
# 1 0.010339 -0.002145 -0.000264 0.000000 0.002888 0.000000
# 2 -0.002145 0.004120 -0.000777 0.000000 0.001482 0.000000
# 3 -0.000264 -0.000777 0.007751 0.000000 -0.000957 0.000000
# 4 0.000000 0.000000 0.000000 0.080408 0.000000 0.057304
# 5 0.002888 0.001482 -0.000957 0.000000 0.020694 0.000000
# 6 0.000000 0.000000 0.000000 0.057304 0.000000 0.070561
#
#
# Mechanical properties :
#
#
# Convention : Reuss Voigt Hill
#
# Bulk Modulus (GPa) = 63.14060 84.36680 73.75370
# Shear Modulus (GPa) = 24.32809 52.54713 38.43761
#
# Velocity S-wave (km/s) = 3.08139 4.52863 3.87321
# Velocity P-wave (km/s) = 6.10761 7.76350 6.98480
#
# Compressibility (1/GPa) = 0.01583767
#
# Stress axis : x y z
#
# Youngs Moduli (GPa) = 96.72523 242.70008 129.02127
#
# Poissons Ratio (x) = 0.52062 0.03406
# Poissons Ratio (y) = 0.20749 0.10023
# Poissons Ratio (z) = 0.02553 0.18854
#
# Static dielectric constant tensor:
#      x y z
#    x 5.099300 0.000000 1.332190 
#    y 0.000000 2.269630 0.000000 
#    z 1.332190 0.000000 7.939910 
# 
# 
# High freq. dielectric constant tensor:
#      x y z
#    x 2.039090 0.000000 0.002850 
#    y 0.000000 2.058640 0.000000 
#    z 0.002850 0.000000 2.037460 
# 
# From -- ./inp_files/371759.got.cif
#   From: 2010.06.25/outbox.cif.g09.slc.cpg/sg12_186_cif.got.tgz:371759.got - 2010.06.28 00:19:55.
