data_PCOD8109270
_publ_section_title
;
Structure prediction by ZEFSAII (Michael W. Deem and Ramdas Pophale) SiO2 
 PCOD8109270
Probable space group: C 2/M
;
_chemical_formula_sum "Si O2"
_cell_formula_units_Z 48
_cell_length_a 30.008077
_cell_length_b 8.592466
_cell_length_c 17.846096
_cell_angle_alpha 90.000000
_cell_angle_beta 148.901952
_cell_angle_gamma 90.000000
_cell_volume 2376.692707
_symmetry_space_group_name_H-M "C 2/M"
_symmetry_group_IT_number 12
_symmetry_cell_setting 'monoclinic'
loop_
_space_group_symop_operation_xyz
x,y,z
-x,y,-z
-x,-y,-z
x,-y,z
1/2+x,1/2+y,z
1/2-x,1/2+y,-z
1/2-x,1/2-y,-z
1/2+x,1/2-y,z
loop_
_atom_site_type_symbol
_atom_site_label
_atom_site_fract_x
_atom_site_fract_y
_atom_site_fract_z
Si Si1 0.299323 0.320234 0.674870
Si Si2 0.957113 0.320506 0.322497
Si Si3 0.195903 0.679003 0.159211
Si Si4 0.943711 0.179115 0.146750
Si Si5 0.617699 0.820260 0.344076
Si Si6 0.866292 0.679517 0.344700
O O1 0.318701 0.500000 0.686378
O O2 0.318421 0.283023 0.788180
O O3 0.362488 0.218795 0.713862
O O4 0.200179 0.279763 0.513942
O O5 0.956080 0.500000 0.295906
O O6 0.929616 0.213450 0.214004
O O7 0.889269 0.291270 0.291178
O O8 0.052864 0.274916 0.487201
O O9 0.192366 0.500000 0.177936
O O10 0.286936 0.712303 0.251403
O O11 0.119906 0.713994 0.992231
O O12 0.041447 0.213990 0.264644
O O13 0.921917 0.000000 0.099861
O O14 0.591228 0.000000 0.312934
O O15 0.840966 0.500000 0.321403
#
# Coordination Sequence:
#
# PCOD8109270 Si02
#       6
#     8   8   8   8   8   8
#     4  10  21  39  63  89 117 149 188 234 283 337
#     4   9  19  38  63  88 115 149 189 234 285 340
#     4  12  25  39  57  83 117 155 194 236 285 340
#     4  12  25  39  57  83 117 155 194 236 285 340
#     4  10  21  39  63  89 117 149 188 234 283 337
#     4   9  19  38  63  88 115 149 189 234 285 340
#
# _framework density 20.196131000000001
#
# number of rings (size 3 to 8) (size 9 to 14) (size 15 to 20)
#    0.000    1.667    0.000    6.000    0.000    8.667 
#    0.000    5.000    0.000    0.000    0.000    0.000 
#    0.000    0.000    0.000    0.000    0.000    0.000 
#
# Total GULP energy -297757.394741 kJ/mol
# GULP energy per Si atom -12406.558114 kJ/mol
# Density = 2.015016 g / cm^3
# Si number density = 20.196131 Si / 1000 Ang^3
#
#
#
# Elastic Constant Matrix: (Units=GPa)
#
#
# Indices 1 2 3 4 5 6 
#
# 1 84.7134 17.2577 30.3602 0.0000 -22.6298 0.0000
# 2 17.2577 65.9828 16.4235 0.0000 0.1951 0.0000
# 3 30.3602 16.4235 60.9055 0.0000 -25.4105 0.0000
# 4 0.0000 0.0000 0.0000 30.8920 0.0000 -1.0098
# 5 -22.6298 0.1951 -25.4105 0.0000 18.1223 0.0000
# 6 0.0000 0.0000 0.0000 -1.0098 0.0000 36.0959
#
#
#
# Elastic Compliance Matrix: (Units=1/GPa)
#
#
# Indices 1 2 3 4 5 6 
#
# 1 0.019914 -0.006671 0.005487 0.000000 0.032633 0.000000
# 2 -0.006671 0.020433 -0.013860 0.000000 -0.027983 0.000000
# 3 0.005487 -0.013860 0.049017 0.000000 0.075730 0.000000
# 4 0.000000 0.000000 0.000000 0.032400 0.000000 0.000906
# 5 0.032633 -0.027983 0.075730 0.000000 0.202418 0.000000
# 6 0.000000 0.000000 0.000000 0.000906 0.000000 0.027729
#
#
# Mechanical properties :
#
#
# Convention : Reuss Voigt Hill
#
# Bulk Modulus (GPa) = 16.87011 37.74273 27.30642
# Shear Modulus (GPa) = 12.44532 26.85940 19.65236
#
# Velocity S-wave (km/s) = 2.48508 3.65077 3.12280
# Velocity P-wave (km/s) = 4.07497 6.04148 5.15291
#
# Compressibility (1/GPa) = 0.05927643
#
# Stress axis : x y z
#
# Youngs Moduli (GPa) = 50.21472 48.94122 20.40122
#
# Poissons Ratio (x) = 0.32648 -0.11193
# Poissons Ratio (y) = 0.33497 0.28275
# Poissons Ratio (z) = -0.27551 0.67830
#
# Static dielectric constant tensor:
#      x y z
#    x 3.697810 0.000000 -0.030740 
#    y 0.000000 3.567600 0.000000 
#    z -0.030740 0.000000 3.557740 
# 
# 
# High freq. dielectric constant tensor:
#      x y z
#    x 1.800360 0.000000 -0.003530 
#    y 0.000000 1.788280 0.000000 
#    z -0.003530 0.000000 1.783100 
# 
# From -- ./inp_files/295901.got.cif
#   From: 2010.06.25/outbox.cif.g09.slc.cpg/sg12_148_cif.got.tgz:295901.got - 2010.06.28 00:19:55.
