data_PCOD8109361
_publ_section_title
;
Structure prediction by ZEFSAII (Michael W. Deem and Ramdas Pophale) SiO2 
 PCOD8109361
Probable space group: C 2/M
;
_chemical_formula_sum "Si O2"
_cell_formula_units_Z 40
_cell_length_a 17.194187
_cell_length_b 11.810234
_cell_length_c 11.702406
_cell_angle_alpha 90.000000
_cell_angle_beta 119.245576
_cell_angle_gamma 90.000000
_cell_volume 2073.468947
_symmetry_space_group_name_H-M "C 2/M"
_symmetry_group_IT_number 12
_symmetry_cell_setting 'monoclinic'
loop_
_space_group_symop_operation_xyz
x,y,z
-x,y,-z
-x,-y,-z
x,-y,z
1/2+x,1/2+y,z
1/2-x,1/2+y,-z
1/2-x,1/2-y,-z
1/2+x,1/2-y,z
loop_
_atom_site_type_symbol
_atom_site_label
_atom_site_fract_x
_atom_site_fract_y
_atom_site_fract_z
Si Si1 0.236012 0.717774 0.805747
Si Si2 0.680975 0.786364 0.353827
Si Si3 0.116891 0.500000 0.674637
Si Si4 0.350103 0.624341 0.072068
Si Si5 0.039432 0.126087 0.143587
Si Si6 0.077021 0.500000 0.380188
O O1 0.258495 0.801588 0.716161
O O2 0.172099 0.613830 0.730943
O O3 0.187977 0.792739 0.863118
O O4 0.327036 0.667894 0.926365
O O5 0.750000 0.750000 0.500000
O O6 0.615314 0.685786 0.271367
O O7 0.621475 0.893038 0.348107
O O8 0.094008 0.500000 0.525651
O O9 0.031648 0.500000 0.701620
O O10 0.307064 0.500000 0.057180
O O11 0.455343 0.619230 0.168035
O O12 0.074523 0.000000 0.136822
O O13 0.000000 0.185958 0.000000
#
# Coordination Sequence:
#
# PCOD8109361 Si02
#       6
#     8   8   4   8   8   4
#     4  11  22  38  66  91 128 164 217 265 320 385
#     4  12  25  41  65  96 131 169 220 271 325 387
#     4  11  22  44  65  88 129 178 218 258 324 408
#     4  10  21  39  63  93 123 165 210 266 325 387
#     4  10  21  39  66  92 125 161 215 266 322 380
#     4  11  26  42  62  92 134 177 214 265 334 396
#
# _framework density 19.291343999999999
#
# number of rings (size 3 to 8) (size 9 to 14) (size 15 to 20)
#    0.000    1.200    5.000    1.200    4.200    0.000 
#    0.000    0.500    0.000    2.400    0.000    0.000 
#    0.000    0.000    0.000    0.000    0.000    0.000 
#
# Total GULP energy -247790.573160 kJ/mol
# GULP energy per Si atom -12389.528658 kJ/mol
# Density = 1.924744 g / cm^3
# Si number density = 19.291344 Si / 1000 Ang^3
#
#
#
# Elastic Constant Matrix: (Units=GPa)
#
#
# Indices 1 2 3 4 5 6 
#
# 1 95.3862 39.9151 48.0241 0.0000 4.2419 0.0000
# 2 39.9151 90.0585 41.2478 0.0000 -4.9493 0.0000
# 3 48.0241 41.2478 112.4746 0.0000 3.2646 0.0000
# 4 0.0000 0.0000 0.0000 32.5266 0.0000 -2.7691
# 5 4.2419 -4.9493 3.2646 0.0000 31.9365 0.0000
# 6 0.0000 0.0000 0.0000 -2.7691 0.0000 62.0189
#
#
#
# Elastic Compliance Matrix: (Units=1/GPa)
#
#
# Indices 1 2 3 4 5 6 
#
# 1 0.014805 -0.004588 -0.004575 0.000000 -0.002210 0.000000
# 2 -0.004588 0.014982 -0.003631 0.000000 0.003302 0.000000
# 3 -0.004575 -0.003631 0.012211 0.000000 -0.001203 0.000000
# 4 0.000000 0.000000 0.000000 0.030861 0.000000 0.001378
# 5 -0.002210 0.003302 -0.001203 0.000000 0.032240 0.000000
# 6 0.000000 0.000000 0.000000 0.001378 0.000000 0.016186
#
#
# Mechanical properties :
#
#
# Convention : Reuss Voigt Hill
#
# Bulk Modulus (GPa) = 60.93852 61.81036 61.37444
# Shear Modulus (GPa) = 32.82062 36.54521 34.68291
#
# Velocity S-wave (km/s) = 4.12917 4.35717 4.24470
# Velocity P-wave (km/s) = 7.37499 7.57782 7.47709
#
# Compressibility (1/GPa) = 0.01640998
#
# Stress axis : x y z
#
# Youngs Moduli (GPa) = 67.54433 66.74696 81.89462
#
# Poissons Ratio (x) = 0.30623 0.37465
# Poissons Ratio (y) = 0.30989 0.29738
# Poissons Ratio (z) = 0.30900 0.24237
#
# Static dielectric constant tensor:
#      x y z
#    x 3.946380 0.000000 0.110490 
#    y 0.000000 3.520180 0.000000 
#    z 0.110490 0.000000 3.709090 
# 
# 
# High freq. dielectric constant tensor:
#      x y z
#    x 1.774140 0.000000 0.004000 
#    y 0.000000 1.743710 0.000000 
#    z 0.004000 0.000000 1.750410 
# 
# From -- ./inp_files/153319.got.cif
#   From: 2010.06.25/outbox.cif.g09.slc.cpg/sg12_77_cif.got.tgz:153319.got - 2010.06.28 00:19:55.
