data_PCOD8109115
_publ_section_title
;
Structure prediction by ZEFSAII (Michael W. Deem and Ramdas Pophale) SiO2 
 PCOD8109115
Probable space group: C 2/M
;
_chemical_formula_sum "Si O2"
_cell_formula_units_Z 64
_cell_length_a 15.415436
_cell_length_b 8.653240
_cell_length_c 33.476342
_cell_angle_alpha 90.000000
_cell_angle_beta 134.215445
_cell_angle_gamma 90.000000
_cell_volume 3200.543150
_symmetry_space_group_name_H-M "C 2/M"
_symmetry_group_IT_number 12
_symmetry_cell_setting 'monoclinic'
loop_
_space_group_symop_operation_xyz
x,y,z
-x,y,-z
-x,-y,-z
x,-y,z
1/2+x,1/2+y,z
1/2-x,1/2+y,-z
1/2-x,1/2-y,-z
1/2+x,1/2-y,z
loop_
_atom_site_type_symbol
_atom_site_label
_atom_site_fract_x
_atom_site_fract_y
_atom_site_fract_z
Si Si1 0.348515 0.323594 0.132387
Si Si2 0.091696 0.182024 0.061943
Si Si3 0.660196 0.682758 0.438869
Si Si4 0.798918 0.317153 0.633623
Si Si5 0.610014 0.682836 0.637168
Si Si6 0.539046 0.180758 0.756984
Si Si7 0.549637 0.321254 0.137367
Si Si8 0.223070 0.818822 0.755835
O O1 0.311471 0.500000 0.128401
O O2 0.228524 0.222053 0.094630
O O3 0.445065 0.271508 0.196694
O O4 0.413404 0.303037 0.110313
O O5 0.055496 0.244472 0.094142
O O6 0.077660 0.000000 0.057175
O O7 0.000000 0.255887 0.000000
O O8 0.660460 0.500000 0.441954
O O9 0.750000 0.750000 0.500000
O O10 0.703957 0.731507 0.409286
O O11 0.526092 0.750116 0.405077
O O12 0.800189 0.500000 0.626605
O O13 0.679770 0.262472 0.619689
O O14 0.915995 0.264351 0.696238
O O15 0.605241 0.500000 0.636101
O O16 0.683715 0.739594 0.699506
O O17 0.651911 0.219018 0.765332
O O18 0.535303 0.000000 0.765276
O O19 0.591144 0.500000 0.152554
O O20 0.636170 0.217807 0.193027
O O21 0.196329 0.000000 0.753124
#
# Coordination Sequence:
#
# PCOD8109115 Si02
#       8
#     8   8   8   8   8   8   8   8
#     4  11  23  38  59  88 120 155 196 243 292 348
#     4  10  22  41  62  83 114 158 202 246 298 351
#     4  11  23  41  61  84 116 153 197 246 292 342
#     4  10  21  39  62  87 115 153 194 234 286 347
#     4   9  20  38  60  85 117 153 190 233 286 349
#     4  11  21  35  59  89 122 154 189 237 295 355
#     4  10  22  39  58  86 122 155 191 241 297 346
#     4  11  20  35  61  90 119 155 196 234 288 356
#
# _framework density 19.996607000000001
#
# number of rings (size 3 to 8) (size 9 to 14) (size 15 to 20)
#    0.000    1.625    2.500    2.250    0.000    3.750 
#    0.000    5.000    0.000    0.000    0.000    0.000 
#    0.000    0.000    0.000    0.000    0.000    0.000 
#
# Total GULP energy -396884.893915 kJ/mol
# GULP energy per Si atom -12402.652935 kJ/mol
# Density = 1.995109 g / cm^3
# Si number density = 19.996607 Si / 1000 Ang^3
#
#
#
# Elastic Constant Matrix: (Units=GPa)
#
#
# Indices 1 2 3 4 5 6 
#
# 1 141.0164 13.8803 63.4459 0.0000 -9.7514 0.0000
# 2 13.8803 22.0239 20.5226 0.0000 -4.2794 0.0000
# 3 63.4459 20.5226 152.7349 0.0000 -1.9278 0.0000
# 4 0.0000 0.0000 0.0000 25.3195 0.0000 0.4378
# 5 -9.7514 -4.2794 -1.9278 0.0000 15.1840 0.0000
# 6 0.0000 0.0000 0.0000 0.4378 0.0000 27.2775
#
#
#
# Elastic Compliance Matrix: (Units=1/GPa)
#
#
# Indices 1 2 3 4 5 6 
#
# 1 0.009184 -0.001504 -0.003549 0.000000 0.005023 0.000000
# 2 -0.001504 0.055191 -0.006617 0.000000 0.013748 0.000000
# 3 -0.003549 -0.006617 0.008873 0.000000 -0.003018 0.000000
# 4 0.000000 0.000000 0.000000 0.039506 0.000000 -0.000634
# 5 0.005023 0.013748 -0.003018 0.000000 0.072577 0.000000
# 6 0.000000 0.000000 0.000000 -0.000634 0.000000 0.036670
#
#
# Mechanical properties :
#
#
# Convention : Reuss Voigt Hill
#
# Bulk Modulus (GPa) = 20.03804 56.83032 38.43418
# Shear Modulus (GPa) = 19.08555 28.08461 23.58508
#
# Velocity S-wave (km/s) = 3.09275 3.75169 3.43804
# Velocity P-wave (km/s) = 4.77451 6.87376 5.91796
#
# Compressibility (1/GPa) = 0.04990508
#
# Stress axis : x y z
#
# Youngs Moduli (GPa) = 108.88787 18.11888 112.70444
#
# Poissons Ratio (x) = 0.02726 0.40003
# Poissons Ratio (y) = 0.16382 0.74581
# Poissons Ratio (z) = 0.38648 0.11990
#
# Static dielectric constant tensor:
#      x y z
#    x 3.758890 0.000000 -0.021600 
#    y 0.000000 3.429210 0.000000 
#    z -0.021600 0.000000 3.795680 
# 
# 
# High freq. dielectric constant tensor:
#      x y z
#    x 1.793940 0.000000 -0.003310 
#    y 0.000000 1.763880 0.000000 
#    z -0.003310 0.000000 1.779290 
# 
# From -- ./inp_files/375617.got.cif
#   From: 2010.06.25/outbox.cif.g09.slc.cpg/sg12_188_cif.got.tgz:375617.got - 2010.06.28 00:19:55.
