data_PCOD8109109
_publ_section_title
;
Structure prediction by ZEFSAII (Michael W. Deem and Ramdas Pophale) SiO2 
 PCOD8109109
Probable space group: C 2/M
;
_chemical_formula_sum "Si O2"
_cell_formula_units_Z 56
_cell_length_a 15.068428
_cell_length_b 8.713005
_cell_length_c 24.536529
_cell_angle_alpha 90.000000
_cell_angle_beta 117.940702
_cell_angle_gamma 90.000000
_cell_volume 2845.919776
_symmetry_space_group_name_H-M "C 2/M"
_symmetry_group_IT_number 12
_symmetry_cell_setting 'monoclinic'
loop_
_space_group_symop_operation_xyz
x,y,z
-x,y,-z
-x,-y,-z
x,-y,z
1/2+x,1/2+y,z
1/2-x,1/2+y,-z
1/2-x,1/2-y,-z
1/2+x,1/2-y,z
loop_
_atom_site_type_symbol
_atom_site_label
_atom_site_fract_x
_atom_site_fract_y
_atom_site_fract_z
Si Si1 0.895723 0.320197 0.206830
Si Si2 0.484567 0.180281 0.650692
Si Si3 0.725246 0.680919 0.434530
Si Si4 0.422414 0.818180 0.433606
Si Si5 0.509838 0.681722 0.871344
Si Si6 0.609949 0.331543 0.007302
Si Si7 0.183192 0.678816 0.129694
O O1 0.871525 0.500000 0.196929
O O2 0.957532 0.275519 0.278068
O O3 0.792812 0.226615 0.180918
O O4 0.963487 0.271758 0.175382
O O5 0.378202 0.263194 0.620565
O O6 0.549746 0.242220 0.618460
O O7 0.465047 0.000000 0.640412
O O8 0.724302 0.500000 0.441063
O O9 0.750000 0.750000 0.500000
O O10 0.810531 0.735506 0.416533
O O11 0.500000 0.748146 0.500000
O O12 0.430357 0.000000 0.437096
O O13 0.510179 0.500000 0.861059
O O14 0.399063 0.729224 0.859232
O O15 0.595303 0.726341 0.940898
O O16 0.661676 0.500000 0.023544
O O17 0.675056 0.215010 0.062439
O O18 0.500000 0.346644 0.000000
O O19 0.166064 0.500000 0.134197
#
# Coordination Sequence:
#
# PCOD8109109 Si02
#       7
#     8   8   8   8   8   8   8
#     4  11  24  40  59  84 118 160 203 248 298 357
#     4  10  22  41  60  83 115 151 194 240 287 345
#     4  11  21  35  60  89 116 149 187 232 285 342
#     4   9  17  34  60  84 112 149 183 220 277 345
#     4  10  21  39  62  86 118 157 200 249 300 358
#     4   8  16  33  57  85 115 151 196 247 300 353
#     4  11  22  37  60  88 120 156 198 248 302 359
#
# _framework density 19.677292000000001
#
# number of rings (size 3 to 8) (size 9 to 14) (size 15 to 20)
#    0.000    2.000    1.429    3.429    0.000    6.000 
#    0.000    3.571    0.000    0.000    0.000    0.000 
#    0.000    0.000    0.000    0.000    0.000    0.000 
#
# Total GULP energy -347194.034122 kJ/mol
# GULP energy per Si atom -12399.786933 kJ/mol
# Density = 1.963251 g / cm^3
# Si number density = 19.677292 Si / 1000 Ang^3
#
#
#
# Elastic Constant Matrix: (Units=GPa)
#
#
# Indices 1 2 3 4 5 6 
#
# 1 86.7797 -3.2073 31.6603 0.0000 2.8030 0.0000
# 2 -3.2073 42.2200 15.4111 0.0000 7.7450 0.0000
# 3 31.6603 15.4111 110.8072 0.0000 -3.7393 0.0000
# 4 0.0000 0.0000 0.0000 27.9034 0.0000 3.2417
# 5 2.8030 7.7450 -3.7393 0.0000 36.0611 0.0000
# 6 0.0000 0.0000 0.0000 3.2417 0.0000 31.4592
#
#
#
# Elastic Compliance Matrix: (Units=1/GPa)
#
#
# Indices 1 2 3 4 5 6 
#
# 1 0.013258 0.002952 -0.004270 0.000000 -0.002107 0.000000
# 2 0.002952 0.026852 -0.004797 0.000000 -0.006494 0.000000
# 3 -0.004270 -0.004797 0.010996 0.000000 0.002503 0.000000
# 4 0.000000 0.000000 0.000000 0.036272 0.000000 -0.003738
# 5 -0.002107 -0.006494 0.002503 0.000000 0.029549 0.000000
# 6 0.000000 0.000000 0.000000 -0.003738 0.000000 0.032172
#
#
# Mechanical properties :
#
#
# Convention : Reuss Voigt Hill
#
# Bulk Modulus (GPa) = 25.72203 36.39281 31.05742
# Shear Modulus (GPa) = 28.68794 32.14758 30.41776
#
# Velocity S-wave (km/s) = 3.82242 4.04634 3.93597
# Velocity P-wave (km/s) = 5.70802 6.35338 6.03933
#
# Compressibility (1/GPa) = 0.03887718
#
# Stress axis : x y z
#
# Youngs Moduli (GPa) = 75.42345 37.24097 90.93886
#
# Poissons Ratio (x) = -0.10995 0.38831
# Poissons Ratio (y) = -0.22268 0.43627
# Poissons Ratio (z) = 0.32206 0.17866
#
# Static dielectric constant tensor:
#      x y z
#    x 3.681920 0.000000 -0.088720 
#    y 0.000000 3.458040 0.000000 
#    z -0.088720 0.000000 3.839350 
# 
# 
# High freq. dielectric constant tensor:
#      x y z
#    x 1.771080 0.000000 -0.002160 
#    y 0.000000 1.756040 0.000000 
#    z -0.002160 0.000000 1.768840 
# 
# From -- ./inp_files/338999.got.cif
#   From: 2010.06.25/outbox.cif.g09.slc.cpg/sg12_170_cif.got.tgz:338999.got - 2010.06.28 00:19:55.
