data_PCOD8109210
_publ_section_title
;
Structure prediction by ZEFSAII (Michael W. Deem and Ramdas Pophale) SiO2 
 PCOD8109210
Probable space group: C 2/M
;
_chemical_formula_sum "Si O2"
_cell_formula_units_Z 48
_cell_length_a 22.090847
_cell_length_b 8.813312
_cell_length_c 28.437572
_cell_angle_alpha 90.000000
_cell_angle_beta 24.208213
_cell_angle_gamma 90.000000
_cell_volume 2270.308328
_symmetry_space_group_name_H-M "C 2/M"
_symmetry_group_IT_number 12
_symmetry_cell_setting 'monoclinic'
loop_
_space_group_symop_operation_xyz
x,y,z
-x,y,-z
-x,-y,-z
x,-y,z
1/2+x,1/2+y,z
1/2-x,1/2+y,-z
1/2-x,1/2-y,-z
1/2+x,1/2-y,z
loop_
_atom_site_type_symbol
_atom_site_label
_atom_site_fract_x
_atom_site_fract_y
_atom_site_fract_z
Si Si1 0.945237 0.677188 0.648272
Si Si2 0.082766 0.323180 0.171024
Si Si3 0.368220 0.665968 0.557111
Si Si4 0.805062 0.676872 0.233710
Si Si5 0.096339 0.820907 0.624620
Si Si6 0.379181 0.175885 0.963462
O O1 0.943872 0.500000 0.659624
O O2 0.789652 0.724723 0.735555
O O3 0.086532 0.714637 0.514982
O O4 0.965868 0.767178 0.682121
O O5 0.059994 0.500000 0.195633
O O6 0.078986 0.277040 0.119219
O O7 0.948233 0.236595 0.291883
O O8 0.241569 0.272985 0.079860
O O9 0.500000 0.648213 0.500000
O O10 0.335944 0.500000 0.556755
O O11 0.230164 0.720684 0.686636
O O12 0.766113 0.500000 0.253274
O O13 0.979218 0.708576 0.103436
O O14 0.250000 0.750000 0.500000
O O15 0.111038 0.000000 0.614232
O O16 0.334245 0.000000 0.997067
#
# Coordination Sequence:
#
# PCOD8109210 Si02
#       6
#     8   8   8   8   8   8
#     4  11  22  36  54  84 120 155 195 245 297 352
#     4  10  21  39  62  91 123 157 199 247 294 348
#     4   8  15  29  50  76 110 153 192 234 285 339
#     4   9  18  34  57  85 116 157 200 241 295 352
#     4  12  26  44  64  86 117 158 200 244 296 360
#     4   9  19  37  63  91 121 159 199 242 296 352
#
# _framework density 21.142503000000001
#
# number of rings (size 3 to 8) (size 9 to 14) (size 15 to 20)
#    0.000    2.167    0.000    4.500    2.333    4.333 
#    0.000    0.833    0.000    5.000    0.000    0.000 
#    0.000    0.000    0.000    0.000    0.000    0.000 
#
# Total GULP energy -297559.284736 kJ/mol
# GULP energy per Si atom -12398.303531 kJ/mol
# Density = 2.109438 g / cm^3
# Si number density = 21.142503 Si / 1000 Ang^3
#
#
#
# Elastic Constant Matrix: (Units=GPa)
#
#
# Indices 1 2 3 4 5 6 
#
# 1 46.5395 28.6305 18.6608 -0.0011 -2.0765 0.0015
# 2 28.6305 126.1355 44.2532 -0.0134 1.8406 0.0198
# 3 18.6608 44.2532 103.5713 0.0035 -9.4005 0.0030
# 4 -0.0011 -0.0134 0.0035 32.9498 0.0030 -0.3724
# 5 -2.0765 1.8406 -9.4005 0.0030 29.5829 -0.0015
# 6 0.0015 0.0198 0.0030 -0.3724 -0.0015 30.4233
#
#
#
# Elastic Compliance Matrix: (Units=1/GPa)
#
#
# Indices 1 2 3 4 5 6 
#
# 1 0.025564 -0.004999 -0.002347 -0.000001 0.001360 0.000002
# 2 -0.004999 0.010409 -0.003745 0.000005 -0.002189 -0.000006
# 3 -0.002347 -0.003745 0.012031 -0.000003 0.003892 0.000002
# 4 -0.000001 0.000005 -0.000003 0.030353 -0.000004 0.000372
# 5 0.001360 -0.002189 0.003892 -0.000004 0.035272 0.000003
# 6 0.000002 -0.000006 0.000002 0.000372 0.000003 0.032874
#
#
# Mechanical properties :
#
#
# Convention : Reuss Voigt Hill
#
# Bulk Modulus (GPa) = 38.72632 51.03724 44.88178
# Shear Modulus (GPa) = 28.20197 30.90464 29.55331
#
# Velocity S-wave (km/s) = 3.65622 3.82741 3.74279
# Velocity P-wave (km/s) = 6.01502 6.61242 6.32078
#
# Compressibility (1/GPa) = 0.02582223
#
# Stress axis : x y z
#
# Youngs Moduli (GPa) = 39.11731 96.07410 83.11566
#
# Poissons Ratio (x) = 0.48029 0.19503
# Poissons Ratio (y) = 0.19555 0.31129
# Poissons Ratio (z) = 0.09179 0.35982
#
# Static dielectric constant tensor:
#      x y z
#    x 3.769510 -0.000010 0.020460 
#    y -0.000010 3.681030 0.000010 
#    z 0.020460 0.000010 4.420230 
# 
# 
# High freq. dielectric constant tensor:
#      x y z
#    x 1.816750 0.000000 -0.013370 
#    y 0.000000 1.817740 0.000000 
#    z -0.013370 0.000000 1.826100 
# 
# From -- ./inp_files/365359.got.cif
#   From: 2010.06.25/outbox.cif.g09.slc.cpg/sg12_183_cif.got.tgz:365359.got - 2010.06.28 00:19:55.
