data_PCOD8109175
_publ_section_title
;
Structure prediction by ZEFSAII (Michael W. Deem and Ramdas Pophale) SiO2 
 PCOD8109175
Probable space group: C 2/M
;
_chemical_formula_sum "Si O2"
_cell_formula_units_Z 52
_cell_length_a 26.826605
_cell_length_b 13.072200
_cell_length_c 21.067497
_cell_angle_alpha 90.000000
_cell_angle_beta 18.672030
_cell_angle_gamma 90.000000
_cell_volume 2365.274758
_symmetry_space_group_name_H-M "C 2/M"
_symmetry_group_IT_number 12
_symmetry_cell_setting 'monoclinic'
loop_
_space_group_symop_operation_xyz
x,y,z
-x,y,-z
-x,-y,-z
x,-y,z
1/2+x,1/2+y,z
1/2-x,1/2+y,-z
1/2-x,1/2-y,-z
1/2+x,1/2-y,z
loop_
_atom_site_type_symbol
_atom_site_label
_atom_site_fract_x
_atom_site_fract_y
_atom_site_fract_z
Si Si1 0.496661 0.379210 0.756341
Si Si2 0.569290 0.881544 0.093292
Si Si3 0.217871 0.884379 0.875493
Si Si4 0.262809 0.879621 0.531318
Si Si5 0.500000 0.255221 0.500000
Si Si6 0.524931 0.276471 0.897582
Si Si7 0.078105 0.118570 0.291737
O O1 0.476482 0.500000 0.778413
O O2 0.662119 0.351586 0.589321
O O3 0.476397 0.334844 0.710119
O O4 0.353981 0.337879 0.972240
O O5 0.442052 0.848726 0.300535
O O6 0.541468 0.818758 0.062655
O O7 0.543327 0.000000 0.106889
O O8 0.739339 0.862314 0.916831
O O9 0.354594 0.815845 0.685770
O O10 0.276338 0.000000 0.812656
O O11 0.079132 0.877354 0.991394
O O12 0.200761 0.810589 0.665416
O O13 0.248887 0.000000 0.564558
O O14 0.526888 0.325753 0.528911
O O15 0.500000 0.244240 0.000000
O O16 0.036027 0.000000 0.346681
#
# Coordination Sequence:
#
# PCOD8109175 Si02
#       7
#     8   8   8   8   4   8   8
#     4   8  17  37  63  86 113 156 199 238 292 353
#     4  10  21  40  60  87 123 156 198 251 295 348
#     4  10  22  41  60  84 120 156 198 247 293 355
#     4   9  19  38  63  88 117 156 201 246 294 352
#     4  12  22  38  58  88 122 160 196 234 306 358
#     4  11  22  39  61  89 120 157 198 242 303 360
#     4  10  21  39  62  89 123 157 197 249 299 351
#
# _framework density 21.984760000000001
#
# number of rings (size 3 to 8) (size 9 to 14) (size 15 to 20)
#    0.000    2.154    1.538    2.308    0.000    3.385 
#    2.769    0.000    0.000    0.000    0.000    0.000 
#    0.000    0.000    0.000    0.000    0.000    0.000 
#
# Total GULP energy -322303.254143 kJ/mol
# GULP energy per Si atom -12396.279006 kJ/mol
# Density = 2.193472 g / cm^3
# Si number density = 21.984760 Si / 1000 Ang^3
#
#
#
# Elastic Constant Matrix: (Units=GPa)
#
#
# Indices 1 2 3 4 5 6 
#
# 1 111.8121 12.3100 40.9218 0.0086 28.5678 -0.0031
# 2 12.3100 30.0254 14.4287 0.0141 5.5076 -0.0060
# 3 40.9218 14.4287 112.1873 0.0161 18.7189 -0.0074
# 4 0.0086 0.0141 0.0161 16.8416 0.0003 13.9559
# 5 28.5678 5.5076 18.7189 0.0003 24.7536 0.0008
# 6 -0.0031 -0.0060 -0.0074 13.9559 0.0008 20.2738
#
#
#
# Elastic Compliance Matrix: (Units=1/GPa)
#
#
# Indices 1 2 3 4 5 6 
#
# 1 0.013427 -0.001904 -0.002447 -0.000008 -0.013222 0.000007
# 2 -0.001904 0.036338 -0.003429 -0.000079 -0.003295 0.000063
# 3 -0.002447 -0.003429 0.011042 -0.000020 -0.004763 0.000017
# 4 -0.000008 -0.000079 -0.000020 0.138223 0.000044 -0.095149
# 5 -0.013222 -0.003295 -0.004763 0.000044 0.059993 -0.000037
# 6 0.000007 0.000063 0.000017 -0.095149 -0.000037 0.114823
#
#
# Mechanical properties :
#
#
# Convention : Reuss Voigt Hill
#
# Bulk Modulus (GPa) = 22.10078 43.26063 32.68071
# Shear Modulus (GPa) = 12.36135 24.79808 18.57972
#
# Velocity S-wave (km/s) = 2.37379 3.36217 2.91025
# Velocity P-wave (km/s) = 4.19378 5.89852 5.11763
#
# Compressibility (1/GPa) = 0.04524727
#
# Stress axis : x y z
#
# Youngs Moduli (GPa) = 74.47804 27.51941 90.56363
#
# Poissons Ratio (x) = 0.05239 0.22157
# Poissons Ratio (y) = 0.14179 0.31057
# Poissons Ratio (z) = 0.18222 0.09437
#
# Static dielectric constant tensor:
#      x y z
#    x 3.955200 0.000000 0.149430 
#    y 0.000000 4.188960 0.000000 
#    z 0.149430 0.000000 4.178830 
# 
# 
# High freq. dielectric constant tensor:
#      x y z
#    x 1.834200 0.000000 0.007340 
#    y 0.000000 1.884920 0.000000 
#    z 0.007340 0.000000 1.870210 
# 
# From -- ./inp_files/328303.got.cif
#   From: 2010.06.25/outbox.cif.g09.slc.cpg/sg12_165_cif.got.tgz:328303.got - 2010.06.28 00:19:55.
