data_PCOD8109418
_publ_section_title
;
Structure prediction by ZEFSAII (Michael W. Deem and Ramdas Pophale) SiO2 
 PCOD8109418
Probable space group: C 2/M
;
_chemical_formula_sum "Si O2"
_cell_formula_units_Z 56
_cell_length_a 29.448248
_cell_length_b 8.577445
_cell_length_c 11.733090
_cell_angle_alpha 90.000000
_cell_angle_beta 108.439442
_cell_angle_gamma 90.000000
_cell_volume 2811.510479
_symmetry_space_group_name_H-M "C 2/M"
_symmetry_group_IT_number 12
_symmetry_cell_setting 'monoclinic'
loop_
_space_group_symop_operation_xyz
x,y,z
-x,y,-z
-x,-y,-z
x,-y,z
1/2+x,1/2+y,z
1/2-x,1/2+y,-z
1/2-x,1/2-y,-z
1/2+x,1/2-y,z
loop_
_atom_site_type_symbol
_atom_site_label
_atom_site_fract_x
_atom_site_fract_y
_atom_site_fract_z
Si Si1 0.336415 0.181826 0.392292
Si Si2 0.771933 0.820134 0.730434
Si Si3 0.202878 0.317474 0.018664
Si Si4 0.558116 0.181011 0.147699
Si Si5 0.376013 0.319845 0.199243
Si Si6 0.959106 0.819751 0.103958
Si Si7 0.641597 0.321811 0.356140
O O1 0.281760 0.239761 0.335210
O O2 0.366378 0.216291 0.302456
O O3 0.361401 0.272093 0.515185
O O4 0.337819 0.000000 0.420877
O O5 0.803829 0.797912 0.642898
O O6 0.771088 0.000000 0.770349
O O7 0.795850 0.713789 0.845993
O O8 0.198169 0.500000 0.989129
O O9 0.158380 0.226902 0.931050
O O10 0.250000 0.250000 0.000000
O O11 0.513873 0.272421 0.169979
O O12 0.606515 0.218960 0.252200
O O13 0.547001 0.000000 0.149351
O O14 0.563421 0.224050 0.019024
O O15 0.367901 0.500000 0.224595
O O16 0.429686 0.287593 0.196616
O O17 0.956019 0.000000 0.067149
O O18 0.625362 0.500000 0.331515
#
# Coordination Sequence:
#
# PCOD8109418 Si02
#       7
#     8   8   8   8   8   8   8
#     4  11  23  39  59  84 118 157 199 244 289 344
#     4  10  22  39  59  85 116 156 199 242 293 347
#     4  12  23  35  56  84 118 155 193 239 288 341
#     4  11  22  38  62  92 121 149 192 243 294 347
#     4  11  23  39  60  87 119 157 197 237 292 352
#     4  10  21  39  64  91 120 153 190 236 294 355
#     4  11  23  40  61  84 117 157 199 243 290 347
#
# _framework density 19.918118
#
# number of rings (size 3 to 8) (size 9 to 14) (size 15 to 20)
#    0.000    1.143    1.429    6.429    0.000    7.429 
#    0.000    0.714    0.000    4.286    0.000    0.000 
#    0.000    0.000    0.000    0.000    0.000    0.000 
#
# Total GULP energy -347366.095835 kJ/mol
# GULP energy per Si atom -12405.931994 kJ/mol
# Density = 1.987278 g / cm^3
# Si number density = 19.918118 Si / 1000 Ang^3
#
#
#
# Elastic Constant Matrix: (Units=GPa)
#
#
# Indices 1 2 3 4 5 6 
#
# 1 105.5460 25.4807 34.1997 0.0000 -9.7672 0.0000
# 2 25.4807 53.9375 15.9677 0.0000 -4.8806 0.0000
# 3 34.1997 15.9677 87.8815 0.0000 -5.8407 0.0000
# 4 0.0000 0.0000 0.0000 33.9398 0.0000 -0.4533
# 5 -9.7672 -4.8806 -5.8407 0.0000 23.1583 0.0000
# 6 0.0000 0.0000 0.0000 -0.4533 0.0000 28.7619
#
#
#
# Elastic Compliance Matrix: (Units=1/GPa)
#
#
# Indices 1 2 3 4 5 6 
#
# 1 0.012000 -0.004288 -0.003676 0.000000 0.003230 0.000000
# 2 -0.004288 0.021375 -0.002071 0.000000 0.002174 0.000000
# 3 -0.003676 -0.002071 0.013276 0.000000 0.001362 0.000000
# 4 0.000000 0.000000 0.000000 0.029470 0.000000 0.000465
# 5 0.003230 0.002174 0.001362 0.000000 0.045345 0.000000
# 6 0.000000 0.000000 0.000000 0.000465 0.000000 0.034775
#
#
# Mechanical properties :
#
#
# Convention : Reuss Voigt Hill
#
# Bulk Modulus (GPa) = 37.61961 44.29569 40.95765
# Shear Modulus (GPa) = 27.00185 28.61980 27.81083
#
# Velocity S-wave (km/s) = 3.68590 3.79472 3.74071
# Velocity P-wave (km/s) = 6.08626 6.44105 6.26617
#
# Compressibility (1/GPa) = 0.02658188
#
# Stress axis : x y z
#
# Youngs Moduli (GPa) = 83.33437 46.78255 75.32287
#
# Poissons Ratio (x) = 0.20062 0.27688
# Poissons Ratio (y) = 0.35737 0.15596
# Poissons Ratio (z) = 0.30633 0.09686
#
# Static dielectric constant tensor:
#      x y z
#    x 3.655590 0.000000 -0.034570 
#    y 0.000000 3.749690 0.000000 
#    z -0.034570 0.000000 3.487550 
# 
# 
# High freq. dielectric constant tensor:
#      x y z
#    x 1.780860 0.000000 -0.006650 
#    y 0.000000 1.787390 0.000000 
#    z -0.006650 0.000000 1.765180 
# 
# From -- ./inp_files/186872.got.cif
#   From: 2010.06.25/outbox.cif.g09.slc.cpg/sg12_94_cif.got.tgz:186872.got - 2010.06.28 00:19:55.
