data_PCOD8109745
_publ_section_title
;
Structure prediction by ZEFSAII (Michael W. Deem and Ramdas Pophale) SiO2 
 PCOD8109745
Probable space group: C 2/M
;
_chemical_formula_sum "Si O2"
_cell_formula_units_Z 56
_cell_length_a 17.009494
_cell_length_b 15.120115
_cell_length_c 11.284094
_cell_angle_alpha 90.000000
_cell_angle_beta 66.017625
_cell_angle_gamma 90.000000
_cell_volume 2651.568202
_symmetry_space_group_name_H-M "C 2/M"
_symmetry_group_IT_number 12
_symmetry_cell_setting 'monoclinic'
loop_
_space_group_symop_operation_xyz
x,y,z
-x,y,-z
-x,-y,-z
x,-y,z
1/2+x,1/2+y,z
1/2-x,1/2+y,-z
1/2-x,1/2-y,-z
1/2+x,1/2-y,z
loop_
_atom_site_type_symbol
_atom_site_label
_atom_site_fract_x
_atom_site_fract_y
_atom_site_fract_z
Si Si1 0.000924 0.747071 0.678374
Si Si2 0.128643 0.401132 0.258021
Si Si3 0.630724 0.599390 0.245227
Si Si4 0.161662 0.827213 0.468174
Si Si5 0.079297 0.258895 0.876450
Si Si6 0.183963 0.602792 0.960148
Si Si7 0.726688 0.666102 0.675733
O O1 0.943841 0.668382 0.658602
O O2 0.943403 0.832547 0.746838
O O3 0.073030 0.772797 0.538513
O O4 0.046440 0.709588 0.768024
O O5 0.090061 0.500000 0.280475
O O6 0.205131 0.399443 0.307503
O O7 0.165568 0.373820 0.107692
O O8 0.603534 0.500000 0.225151
O O9 0.645790 0.599329 0.378050
O O10 0.717550 0.629398 0.125444
O O11 0.234956 0.762625 0.374211
O O12 0.191431 0.873670 0.572776
O O13 0.118818 0.343620 0.917602
O O14 0.148503 0.180380 0.816239
O O15 0.000000 0.219761 0.000000
O O16 0.168719 0.500000 0.941183
#
# Coordination Sequence:
#
# PCOD8109745 Si02
#       7
#     8   8   8   8   8   8   8
#     4  11  23  37  61  95 125 156 207 257 306 364
#     4  11  23  40  63  92 130 166 202 253 312 372
#     4  11  23  41  67  93 121 162 209 261 311 363
#     4  10  21  40  62  86 124 163 206 255 297 365
#     4  11  21  36  62  90 118 165 203 250 317 359
#     4  10  22  39  61  93 125 160 211 256 305 376
#     4  10  22  39  61  87 123 164 206 246 305 373
#
# _framework density 21.119575999999999
#
# number of rings (size 3 to 8) (size 9 to 14) (size 15 to 20)
#    0.000    1.429    4.286    0.429    2.000    3.714 
#    0.000    3.571    0.000    0.857    0.000    0.000 
#    0.000    0.000    0.000    0.000    0.000    0.000 
#
# Total GULP energy -347256.953655 kJ/mol
# GULP energy per Si atom -12402.034059 kJ/mol
# Density = 2.107151 g / cm^3
# Si number density = 21.119576 Si / 1000 Ang^3
#
#
#
# Elastic Constant Matrix: (Units=GPa)
#
#
# Indices 1 2 3 4 5 6 
#
# 1 105.2695 33.6716 22.5374 0.0000 -1.6632 0.0000
# 2 33.6716 71.8384 18.4067 0.0000 -1.8247 0.0000
# 3 22.5374 18.4067 69.8994 0.0000 -12.1882 0.0000
# 4 0.0000 0.0000 0.0000 23.3535 0.0000 5.3989
# 5 -1.6632 -1.8247 -12.1882 0.0000 44.7020 0.0000
# 6 0.0000 0.0000 0.0000 5.3989 0.0000 17.8186
#
#
#
# Elastic Compliance Matrix: (Units=1/GPa)
#
#
# Indices 1 2 3 4 5 6 
#
# 1 0.011567 -0.004780 -0.002551 0.000000 -0.000460 0.000000
# 2 -0.004780 0.016912 -0.002964 0.000000 -0.000296 0.000000
# 3 -0.002551 -0.002964 0.016664 0.000000 0.004328 0.000000
# 4 0.000000 0.000000 0.000000 0.046045 0.000000 -0.013951
# 5 -0.000460 -0.000296 0.004328 0.000000 0.023521 0.000000
# 6 0.000000 0.000000 0.000000 -0.013951 0.000000 0.060348
#
#
# Mechanical properties :
#
#
# Convention : Reuss Voigt Hill
#
# Bulk Modulus (GPa) = 40.72703 44.02654 42.37679
# Shear Modulus (GPa) = 24.52993 28.66759 26.59876
#
# Velocity S-wave (km/s) = 3.41174 3.68828 3.55270
# Velocity P-wave (km/s) = 5.90304 6.24736 6.07764
#
# Compressibility (1/GPa) = 0.02455371
#
# Stress axis : x y z
#
# Youngs Moduli (GPa) = 86.45146 59.12825 60.00971
#
# Poissons Ratio (x) = 0.28262 0.15310
# Poissons Ratio (y) = 0.41321 0.17787
# Poissons Ratio (z) = 0.22055 0.17526
#
# Static dielectric constant tensor:
#      x y z
#    x 4.008180 0.000000 -0.066500 
#    y 0.000000 3.362380 0.000000 
#    z -0.066500 0.000000 4.042530 
# 
# 
# High freq. dielectric constant tensor:
#      x y z
#    x 1.838940 0.000000 -0.001790 
#    y 0.000000 1.793580 0.000000 
#    z -0.001790 0.000000 1.842240 
# 
# From -- ./inp_files/156000.got.cif
#   From: 2010.06.25/outbox.cif.g09.slc.cpg/sg12_78_cif.got.tgz:156000.got - 2010.06.28 00:19:55.
