data_PCOD8109193
_publ_section_title
;
Structure prediction by ZEFSAII (Michael W. Deem and Ramdas Pophale) SiO2 
 PCOD8109193
Probable space group: C 2/M
;
_chemical_formula_sum "Si O2"
_cell_formula_units_Z 64
_cell_length_a 11.563891
_cell_length_b 14.063985
_cell_length_c 27.081811
_cell_angle_alpha 90.000000
_cell_angle_beta 138.880372
_cell_angle_gamma 90.000000
_cell_volume 2896.502590
_symmetry_space_group_name_H-M "C 2/M"
_symmetry_group_IT_number 12
_symmetry_cell_setting 'monoclinic'
loop_
_space_group_symop_operation_xyz
x,y,z
-x,y,-z
-x,-y,-z
x,-y,z
1/2+x,1/2+y,z
1/2-x,1/2+y,-z
1/2-x,1/2-y,-z
1/2+x,1/2-y,z
loop_
_atom_site_type_symbol
_atom_site_label
_atom_site_fract_x
_atom_site_fract_y
_atom_site_fract_z
Si Si1 0.207216 0.894467 0.037952
Si Si2 0.811738 0.212962 0.125247
Si Si3 0.931645 0.606761 0.886100
Si Si4 0.056845 0.107257 0.128897
Si Si5 0.375504 0.112218 0.507110
Si Si6 0.286139 0.107360 0.734347
Si Si7 0.551425 0.818289 0.748614
Si Si8 0.962895 0.239601 0.617842
O O1 0.237512 0.817333 0.089508
O O2 0.357348 0.881939 0.043927
O O3 0.229918 0.000000 0.069165
O O4 0.014499 0.885599 0.950736
O O5 0.641038 0.155982 0.088322
O O6 0.939187 0.224044 0.213817
O O7 0.917841 0.167327 0.115250
O O8 0.866482 0.500000 0.868215
O O9 0.861553 0.647751 0.810819
O O10 0.252019 0.145028 0.198715
O O11 0.049428 0.000000 0.145933
O O12 0.500000 0.120212 0.500000
O O13 0.190512 0.162107 0.436452
O O14 0.461944 0.173348 0.578908
O O15 0.350624 0.000000 0.513616
O O16 0.439175 0.103395 0.742284
O O17 0.140307 0.180074 0.668281
O O18 0.212645 0.000000 0.716514
O O19 0.450555 0.790081 0.666730
#
# Coordination Sequence:
#
# PCOD8109193 Si02
#       8
#     8   8   8   8   8   8   8   8
#     4  10  23  43  63  87 125 175 230 282 338 400
#     4  12  22  41  64  90 125 167 221 280 342 400
#     4  10  21  39  62  90 123 167 219 275 334 398
#     4  11  26  43  61  94 130 172 228 284 342 392
#     4  10  23  45  73 103 137 175 211 257 318 385
#     4  11  22  40  64  94 131 175 218 261 324 391
#     4  12  24  40  64  95 134 175 216 276 328 389
#     4  11  23  44  69 103 137 170 218 265 315 389
#
# _framework density 22.095614000000001
#
# number of rings (size 3 to 8) (size 9 to 14) (size 15 to 20)
#    0.000    1.125    2.500    3.750    0.000    3.500 
#    0.000    4.375    0.000    4.125    0.000    0.000 
#    0.000    0.000    0.000    0.000    0.000    0.000 
#
# Total GULP energy -396719.117153 kJ/mol
# GULP energy per Si atom -12397.472411 kJ/mol
# Density = 2.204532 g / cm^3
# Si number density = 22.095614 Si / 1000 Ang^3
#
#
#
# Elastic Constant Matrix: (Units=GPa)
#
#
# Indices 1 2 3 4 5 6 
#
# 1 90.8974 47.5244 26.9688 0.0000 8.8397 0.0000
# 2 47.5244 139.8576 47.3684 0.0000 2.0998 0.0000
# 3 26.9688 47.3684 94.0295 0.0000 2.4900 0.0000
# 4 0.0000 0.0000 0.0000 24.7705 0.0000 -1.6319
# 5 8.8397 2.0998 2.4900 0.0000 34.5734 0.0000
# 6 0.0000 0.0000 0.0000 -1.6319 0.0000 39.3107
#
#
#
# Elastic Compliance Matrix: (Units=1/GPa)
#
#
# Indices 1 2 3 4 5 6 
#
# 1 0.013999 -0.004073 -0.001879 0.000000 -0.003197 0.000000
# 2 -0.004073 0.009807 -0.003792 0.000000 0.000719 0.000000
# 3 -0.001879 -0.003792 0.013090 0.000000 -0.000232 0.000000
# 4 0.000000 0.000000 0.000000 0.040481 0.000000 0.001680
# 5 -0.003197 0.000719 -0.000232 0.000000 0.029714 0.000000
# 6 0.000000 0.000000 0.000000 0.001680 0.000000 0.025508
#
#
# Mechanical properties :
#
#
# Convention : Reuss Voigt Hill
#
# Bulk Modulus (GPa) = 57.43670 63.16753 60.30212
# Shear Modulus (GPa) = 31.66770 33.25912 32.46341
#
# Velocity S-wave (km/s) = 3.78989 3.88395 3.83720
# Velocity P-wave (km/s) = 6.72325 6.98310 6.85441
#
# Compressibility (1/GPa) = 0.01741047
#
# Stress axis : x y z
#
# Youngs Moduli (GPa) = 71.43356 101.96395 76.39419
#
# Poissons Ratio (x) = 0.41526 0.14353
# Poissons Ratio (y) = 0.29092 0.28965
# Poissons Ratio (z) = 0.13421 0.38660
#
# Static dielectric constant tensor:
#      x y z
#    x 4.015420 0.000000 0.079400 
#    y 0.000000 4.142120 0.000000 
#    z 0.079400 0.000000 3.968670 
# 
# 
# High freq. dielectric constant tensor:
#      x y z
#    x 1.884890 0.000000 0.006730 
#    y 0.000000 1.882460 0.000000 
#    z 0.006730 0.000000 1.857220 
# 
# From -- ./inp_files/358469.got.cif
#   From: 2010.06.25/outbox.cif.g09.slc.cpg/sg12_180_cif.got.tgz:358469.got - 2010.06.28 00:19:55.
