data_PCOD8109112
_publ_section_title
;
Structure prediction by ZEFSAII (Michael W. Deem and Ramdas Pophale) SiO2 
 PCOD8109112
Probable space group: C 2/M
;
_chemical_formula_sum "Si O2"
_cell_formula_units_Z 56
_cell_length_a 18.857601
_cell_length_b 9.076073
_cell_length_c 18.696923
_cell_angle_alpha 90.000000
_cell_angle_beta 119.631093
_cell_angle_gamma 90.000000
_cell_volume 2781.554963
_symmetry_space_group_name_H-M "C 2/M"
_symmetry_group_IT_number 12
_symmetry_cell_setting 'monoclinic'
loop_
_space_group_symop_operation_xyz
x,y,z
-x,y,-z
-x,-y,-z
x,-y,z
1/2+x,1/2+y,z
1/2-x,1/2+y,-z
1/2-x,1/2-y,-z
1/2+x,1/2-y,z
loop_
_atom_site_type_symbol
_atom_site_label
_atom_site_fract_x
_atom_site_fract_y
_atom_site_fract_z
Si Si1 0.471508 0.668345 0.912916
Si Si2 0.089675 0.330459 0.338052
Si Si3 0.916916 0.330376 0.497145
Si Si4 0.296762 0.330852 0.804787
Si Si5 0.282952 0.169340 0.086673
Si Si6 0.238488 0.826528 0.643741
Si Si7 0.555439 0.331480 0.812314
O O1 0.448915 0.500000 0.920910
O O2 0.388001 0.735089 0.839357
O O3 0.543054 0.679365 0.891334
O O4 0.500000 0.749627 0.000000
O O5 0.075974 0.500000 0.309018
O O6 0.075893 0.307886 0.414895
O O7 0.180185 0.278162 0.359374
O O8 0.022656 0.230332 0.267004
O O9 0.900497 0.500000 0.468955
O O10 0.840790 0.235393 0.434149
O O11 0.000000 0.275586 0.500000
O O12 0.286885 0.500000 0.775187
O O13 0.280913 0.313550 0.881177
O O14 0.239079 0.234658 0.725054
O O15 0.364563 0.236777 0.161949
O O16 0.298301 0.000000 0.073753
O O17 0.250000 0.250000 0.000000
O O18 0.230145 0.000000 0.642336
O O19 0.569095 0.500000 0.795128
#
# Coordination Sequence:
#
# PCOD8109112 Si02
#       7
#     8   8   8   8   8   8   8
#     4   9  17  33  58  86 114 150 202 248 283 341
#     4  10  22  41  62  89 125 161 199 247 303 359
#     4  10  23  42  65  90 119 160 205 243 292 367
#     4  10  21  39  62  86 118 164 207 244 294 363
#     4  11  24  41  62  87 122 164 206 254 305 361
#     4  11  23  39  62  92 126 157 195 255 308 350
#     4  11  22  37  62  91 122 161 202 249 301 358
#
# _framework density 20.132625000000001
#
# number of rings (size 3 to 8) (size 9 to 14) (size 15 to 20)
#    0.000    1.714    1.429    2.571    2.000    4.857 
#    0.000    0.000    0.000    2.143    0.000    0.000 
#    0.000    0.000    0.000    0.000    0.000    0.000 
#
# Total GULP energy -347209.195623 kJ/mol
# GULP energy per Si atom -12400.328415 kJ/mol
# Density = 2.008680 g / cm^3
# Si number density = 20.132625 Si / 1000 Ang^3
#
#
#
# Elastic Constant Matrix: (Units=GPa)
#
#
# Indices 1 2 3 4 5 6 
#
# 1 93.3911 43.0082 29.9792 0.0000 7.8959 0.0000
# 2 43.0082 98.2789 48.7327 0.0000 9.0521 0.0000
# 3 29.9792 48.7327 93.4246 0.0000 2.2659 0.0000
# 4 0.0000 0.0000 0.0000 34.4981 0.0000 5.4066
# 5 7.8959 9.0521 2.2659 0.0000 35.8588 0.0000
# 6 0.0000 0.0000 0.0000 5.4066 0.0000 29.7866
#
#
#
# Elastic Compliance Matrix: (Units=1/GPa)
#
#
# Indices 1 2 3 4 5 6 
#
# 1 0.013702 -0.004969 -0.001765 0.000000 -0.001651 0.000000
# 2 -0.004969 0.015861 -0.006619 0.000000 -0.002492 0.000000
# 3 -0.001765 -0.006619 0.014695 0.000000 0.001131 0.000000
# 4 0.000000 0.000000 0.000000 0.029836 0.000000 -0.005416
# 5 -0.001651 -0.002492 0.001131 0.000000 0.028808 0.000000
# 6 0.000000 0.000000 0.000000 -0.005416 0.000000 0.034555
#
#
# Mechanical properties :
#
#
# Convention : Reuss Voigt Hill
#
# Bulk Modulus (GPa) = 56.96920 58.72610 57.84765
# Shear Modulus (GPa) = 29.40939 30.92031 30.16485
#
# Velocity S-wave (km/s) = 3.82617 3.92322 3.87500
# Velocity P-wave (km/s) = 6.91938 7.05373 6.98688
#
# Compressibility (1/GPa) = 0.01755335
#
# Stress axis : x y z
#
# Youngs Moduli (GPa) = 72.98136 63.04765 68.04962
#
# Poissons Ratio (x) = 0.31328 0.12010
# Poissons Ratio (y) = 0.36264 0.45039
# Poissons Ratio (z) = 0.12880 0.41729
#
# Static dielectric constant tensor:
#      x y z
#    x 3.819260 0.000000 -0.044380 
#    y 0.000000 3.554180 0.000000 
#    z -0.044380 0.000000 3.659630 
# 
# 
# High freq. dielectric constant tensor:
#      x y z
#    x 1.795960 0.000000 0.001270 
#    y 0.000000 1.770270 0.000000 
#    z 0.001270 0.000000 1.796690 
# 
# From -- ./inp_files/281728.got.cif
#   From: 2010.06.25/outbox.cif.g09.slc.cpg/sg12_141_cif.got.tgz:281728.got - 2010.06.28 00:19:55.
