data_PCOD8109653
_publ_section_title
;
Structure prediction by ZEFSAII (Michael W. Deem and Ramdas Pophale) SiO2 
 PCOD8109653
Probable space group: C 2/M
;
_chemical_formula_sum "Si O2"
_cell_formula_units_Z 56
_cell_length_a 12.141966
_cell_length_b 18.288684
_cell_length_c 14.129806
_cell_angle_alpha 90.000000
_cell_angle_beta 61.850832
_cell_angle_gamma 90.000000
_cell_volume 2766.556314
_symmetry_space_group_name_H-M "C 2/M"
_symmetry_group_IT_number 12
_symmetry_cell_setting 'monoclinic'
loop_
_space_group_symop_operation_xyz
x,y,z
-x,y,-z
-x,-y,-z
x,-y,z
1/2+x,1/2+y,z
1/2-x,1/2+y,-z
1/2-x,1/2-y,-z
1/2+x,1/2-y,z
loop_
_atom_site_type_symbol
_atom_site_label
_atom_site_fract_x
_atom_site_fract_y
_atom_site_fract_z
Si Si1 0.718133 0.669039 0.981369
Si Si2 0.079750 0.135681 0.381967
Si Si3 0.964571 0.915939 0.804117
Si Si4 0.820860 0.820209 0.216465
Si Si5 0.964838 0.584694 0.911243
Si Si6 0.462660 0.801791 0.618801
Si Si7 0.639926 0.835370 0.712513
O O1 0.652049 0.671380 0.906166
O O2 0.846478 0.626021 0.917303
O O3 0.750000 0.750000 0.000000
O O4 0.630889 0.630967 0.094266
O O5 0.075353 0.086575 0.289754
O O6 0.025386 0.214709 0.376886
O O7 0.218365 0.144198 0.366645
O O8 0.000000 0.100127 0.500000
O O9 0.103511 0.883777 0.760264
O O10 0.961562 0.000000 0.838794
O O11 0.675146 0.829831 0.299163
O O12 0.872249 0.741723 0.228432
O O13 0.931695 0.500000 0.926976
O O14 0.084574 0.600045 0.798527
O O15 0.000000 0.614502 0.000000
O O16 0.500000 0.829331 0.500000
O O17 0.565613 0.835702 0.645157
#
# Coordination Sequence:
#
# PCOD8109653 Si02
#       7
#     8   8   8   8   8   8   8
#     4  12  23  41  66  95 127 165 214 267 315 379
#     4  10  23  40  67  97 128 168 214 268 320 374
#     4  12  26  43  62  93 137 174 212 259 320 388
#     4  11  23  40  65  94 127 166 215 259 323 377
#     4  11  23  39  61  91 128 168 208 256 319 383
#     4  10  21  39  69 100 124 162 216 274 322 372
#     4  11  21  41  66  97 128 161 213 270 319 370
#
# _framework density 20.241772000000001
#
# number of rings (size 3 to 8) (size 9 to 14) (size 15 to 20)
#    0.000    1.000    2.857    5.143    2.000    5.429 
#    0.000    0.000    0.000    0.857    0.000    0.000 
#    0.000    0.000    0.000    0.000    0.000    0.000 
#
# Total GULP energy -347348.984952 kJ/mol
# GULP energy per Si atom -12405.320891 kJ/mol
# Density = 2.019570 g / cm^3
# Si number density = 20.241772 Si / 1000 Ang^3
#
#
#
# Elastic Constant Matrix: (Units=GPa)
#
#
# Indices 1 2 3 4 5 6 
#
# 1 115.2429 39.9446 46.5964 0.0000 8.4315 0.0000
# 2 39.9446 83.6155 32.0531 0.0000 -0.1243 0.0000
# 3 46.5964 32.0531 139.9555 0.0000 7.8141 0.0000
# 4 0.0000 0.0000 0.0000 528.1515 0.0000 234.4730
# 5 8.4315 -0.1243 7.8141 0.0000 34.9859 0.0000
# 6 0.0000 0.0000 0.0000 234.4730 0.0000 121.2469
#
#
#
# Elastic Compliance Matrix: (Units=1/GPa)
#
#
# Indices 1 2 3 4 5 6 
#
# 1 0.011462 -0.004454 -0.002674 0.000000 -0.002181 0.000000
# 2 -0.004454 0.014859 -0.002008 0.000000 0.001575 0.000000
# 3 -0.002674 -0.002008 0.008567 0.000000 -0.001276 0.000000
# 4 0.000000 0.000000 0.000000 0.013384 0.000000 -0.025882
# 5 -0.002181 0.001575 -0.001276 0.000000 0.029399 0.000000
# 6 0.000000 0.000000 0.000000 -0.025882 0.000000 0.058300
#
#
# Mechanical properties :
#
#
# Convention : Reuss Voigt Hill
#
# Bulk Modulus (GPa) = 60.18509 64.00022 62.09266
# Shear Modulus (GPa) = 31.29263 151.55818 91.42541
#
# Velocity S-wave (km/s) = 3.93611 8.66236 6.72791
# Velocity P-wave (km/s) = 7.10317 11.47760 9.54438
#
# Compressibility (1/GPa) = 0.01661541
#
# Stress axis : x y z
#
# Youngs Moduli (GPa) = 87.24579 67.29807 116.73102
#
# Poissons Ratio (x) = 0.29972 0.31218
# Poissons Ratio (y) = 0.38856 0.23443
# Poissons Ratio (z) = 0.23333 0.13515
#
# Static dielectric constant tensor:
#      x y z
#    x 3.803250 0.000000 0.026640 
#    y 0.000000 3.650480 0.000000 
#    z 0.026640 0.000000 3.806570 
# 
# 
# High freq. dielectric constant tensor:
#      x y z
#    x 1.806940 0.000000 0.000810 
#    y 0.000000 1.770240 0.000000 
#    z 0.000810 0.000000 1.799790 
# 
# From -- ./inp_files/206588.got.cif
#   From: 2010.06.25/outbox.cif.g09.slc.cpg/sg12_104_cif.got.tgz:206588.got - 2010.06.28 00:19:55.
