data_PCOD8109451
_publ_section_title
;
Structure prediction by ZEFSAII (Michael W. Deem and Ramdas Pophale) SiO2 
 PCOD8109451
Probable space group: C 2/M
;
_chemical_formula_sum "Si O2"
_cell_formula_units_Z 64
_cell_length_a 14.880174
_cell_length_b 9.530383
_cell_length_c 27.005440
_cell_angle_alpha 90.000000
_cell_angle_beta 128.316912
_cell_angle_gamma 90.000000
_cell_volume 3004.791000
_symmetry_space_group_name_H-M "C 2/M"
_symmetry_group_IT_number 12
_symmetry_cell_setting 'monoclinic'
loop_
_space_group_symop_operation_xyz
x,y,z
-x,y,-z
-x,-y,-z
x,-y,z
1/2+x,1/2+y,z
1/2-x,1/2+y,-z
1/2-x,1/2-y,-z
1/2+x,1/2-y,z
loop_
_atom_site_type_symbol
_atom_site_label
_atom_site_fract_x
_atom_site_fract_y
_atom_site_fract_z
Si Si1 0.798302 0.159234 0.158588
Si Si2 0.825071 0.659427 0.728599
Si Si3 0.847105 0.166067 0.061545
Si Si4 0.068937 0.339196 0.130915
Si Si5 0.342786 0.845678 0.386279
Si Si6 0.808956 0.146338 0.464624
Si Si7 0.529410 0.163700 0.721889
Si Si8 0.435152 0.217019 0.588567
O O1 0.830956 0.196164 0.113914
O O2 0.661441 0.175012 0.118474
O O3 0.858905 0.267462 0.216088
O O4 0.835991 0.000000 0.184550
O O5 0.780406 0.500000 0.714706
O O6 0.870636 0.705746 0.797455
O O7 0.720062 0.758247 0.678028
O O8 0.924941 0.678782 0.723383
O O9 0.967254 0.231284 0.084830
O O10 0.842568 0.000000 0.047839
O O11 0.750000 0.250000 0.000000
O O12 0.022703 0.500000 0.118549
O O13 0.329676 0.775163 0.435343
O O14 0.475344 0.863005 0.416424
O O15 0.287557 0.000000 0.371501
O O16 0.677638 0.128163 0.437047
O O17 0.889412 0.151630 0.540931
O O18 0.839251 0.000000 0.447315
O O19 0.498379 0.251793 0.661937
O O20 0.553974 0.000000 0.717509
#
# Coordination Sequence:
#
# PCOD8109451 Si02
#       8
#     8   8   8   8   8   8   8   8
#     4  10  23  41  65  97 129 163 207 258 309 363
#     4  10  21  39  64  92 125 164 205 253 309 370
#     4  11  24  42  65  95 132 172 212 257 305 360
#     4  10  21  41  66  93 128 168 209 257 310 363
#     4  12  25  40  63  92 123 160 203 257 315 372
#     4  11  25  46  66  86 118 161 209 258 313 378
#     4  11  21  39  66  92 123 163 203 253 311 370
#     4  11  25  42  63  89 122 160 203 253 313 374
#
# _framework density 21.299318
#
# number of rings (size 3 to 8) (size 9 to 14) (size 15 to 20)
#    0.000    1.250    2.500    3.000    0.000    8.000 
#    0.000    2.500    0.000    0.000    0.000    0.000 
#    0.000    0.000    0.000    0.000    0.000    0.000 
#
# Total GULP energy -396688.083282 kJ/mol
# GULP energy per Si atom -12396.502603 kJ/mol
# Density = 2.125084 g / cm^3
# Si number density = 21.299318 Si / 1000 Ang^3
#
#
#
# Elastic Constant Matrix: (Units=GPa)
#
#
# Indices 1 2 3 4 5 6 
#
# 1 89.9130 34.3407 23.7687 0.0000 17.6989 0.0000
# 2 34.3407 118.2204 59.7340 0.0000 14.9952 0.0000
# 3 23.7687 59.7340 106.4811 0.0000 18.3824 0.0000
# 4 0.0000 0.0000 0.0000 -87.0590 0.0000 -55.1901
# 5 17.6989 14.9952 18.3824 0.0000 21.2321 0.0000
# 6 0.0000 0.0000 0.0000 -55.1901 0.0000 -3.5386
#
#
#
# Elastic Compliance Matrix: (Units=1/GPa)
#
#
# Indices 1 2 3 4 5 6 
#
# 1 0.014142 -0.002961 0.000210 0.000000 -0.009879 0.000000
# 2 -0.002961 0.012596 -0.006226 0.000000 -0.001037 0.000000
# 3 0.000210 -0.006226 0.014236 0.000000 -0.008103 0.000000
# 4 0.000000 0.000000 0.000000 0.001292 0.000000 -0.020158
# 5 -0.009879 -0.001037 -0.008103 0.000000 0.063082 0.000000
# 6 0.000000 0.000000 0.000000 -0.020158 0.000000 0.031798
#
#
# Mechanical properties :
#
#
# Convention : Reuss Voigt Hill
#
# Bulk Modulus (GPa) = 43.44122 61.14460 52.29291
# Shear Modulus (GPa) = 30.71723 -0.75503 14.98110
#
# Velocity S-wave (km/s) = 3.80171 -0.59603 2.65497
# Velocity P-wave (km/s) = 6.30163 5.31939 5.83123
#
# Compressibility (1/GPa) = 0.02301961
#
# Stress axis : x y z
#
# Youngs Moduli (GPa) = 70.71177 79.38734 70.24315
#
# Poissons Ratio (x) = 0.23505 -0.01473
# Poissons Ratio (y) = 0.20936 0.43736
# Poissons Ratio (z) = -0.01483 0.49430
#
# Static dielectric constant tensor:
#      x y z
#    x 3.998290 0.000000 -0.017860 
#    y 0.000000 3.790110 0.000000 
#    z -0.017860 0.000000 3.825100 
# 
# 
# High freq. dielectric constant tensor:
#      x y z
#    x 1.846910 0.000000 -0.000740 
#    y 0.000000 1.828010 0.000000 
#    z -0.000740 0.000000 1.832310 
# 
# From -- ./inp_files/375544.got.cif
#   From: 2010.06.25/outbox.cif.g09.slc.cpg/sg12_188_cif.got.tgz:375544.got - 2010.06.28 00:19:55.
