data_PCOD8109927
_publ_section_title
;
Structure prediction by ZEFSAII (Michael W. Deem and Ramdas Pophale) SiO2 
 PCOD8109927
Probable space group: C 2/M
;
_chemical_formula_sum "Si O2"
_cell_formula_units_Z 64
_cell_length_a 30.672334
_cell_length_b 8.793757
_cell_length_c 19.512201
_cell_angle_alpha 90.000000
_cell_angle_beta 142.432416
_cell_angle_gamma 90.000000
_cell_volume 3208.791313
_symmetry_space_group_name_H-M "C 2/M"
_symmetry_group_IT_number 12
_symmetry_cell_setting 'monoclinic'
loop_
_space_group_symop_operation_xyz
x,y,z
-x,y,-z
-x,-y,-z
x,-y,z
1/2+x,1/2+y,z
1/2-x,1/2+y,-z
1/2-x,1/2-y,-z
1/2+x,1/2-y,z
loop_
_atom_site_type_symbol
_atom_site_label
_atom_site_fract_x
_atom_site_fract_y
_atom_site_fract_z
Si Si1 0.920693 0.177422 0.595279
Si Si2 0.646654 0.675773 0.200306
Si Si3 0.176029 0.179945 0.004457
Si Si4 0.077938 0.822359 0.760626
Si Si5 0.196232 0.320936 0.644807
Si Si6 0.317205 0.677721 0.224948
Si Si7 0.936826 0.826730 0.771792
Si Si8 0.420605 0.822611 0.005274
O O1 0.861079 0.271674 0.482258
O O2 0.909225 0.208284 0.661391
O O3 0.997938 0.243217 0.667818
O O4 0.912889 0.000000 0.567083
O O5 0.638358 0.500000 0.169107
O O6 0.726446 0.735988 0.284769
O O7 0.629213 0.699710 0.258847
O O8 0.589041 0.774130 0.085859
O O9 0.129649 0.246949 0.883638
O O10 0.138692 0.225872 0.028596
O O11 0.185396 0.000000 0.012657
O O12 0.254026 0.254459 0.099885
O O13 0.109150 0.788320 0.724162
O O14 0.073555 0.000000 0.770765
O O15 0.195301 0.500000 0.651751
O O16 0.176372 0.251004 0.692969
O O17 0.303955 0.500000 0.217183
O O18 0.000688 0.714403 0.870255
O O19 0.965759 0.000000 0.812230
O O20 0.405740 0.000000 0.996348
#
# Coordination Sequence:
#
# PCOD8109927 Si02
#       8
#     8   8   8   8   8   8   8   8
#     4  10  21  41  64  85 113 154 202 247 292 346
#     4  10  22  40  62  86 118 159 198 238 293 357
#     4  11  20  37  62  88 121 159 193 235 292 356
#     4   9  20  38  62  89 119 154 193 239 296 354
#     4  11  24  41  59  84 119 158 200 246 293 342
#     4  11  22  38  61  91 120 152 196 243 293 350
#     4  10  21  40  65  88 115 157 199 237 295 361
#     4  12  23  35  58  92 125 156 192 241 293 345
#
# _framework density 19.945205999999999
#
# number of rings (size 3 to 8) (size 9 to 14) (size 15 to 20)
#    0.000    1.500    2.500    3.000    0.000    4.000 
#    0.000    5.625    0.000    0.000    0.000    0.000 
#    0.000    0.000    0.000    0.000    0.000    0.000 
#
# Total GULP energy -396916.598813 kJ/mol
# GULP energy per Si atom -12403.643713 kJ/mol
# Density = 1.989981 g / cm^3
# Si number density = 19.945206 Si / 1000 Ang^3
#
#
#
# Elastic Constant Matrix: (Units=GPa)
#
#
# Indices 1 2 3 4 5 6 
#
# 1 109.7307 32.6985 35.5822 0.0000 -10.6680 0.0000
# 2 32.6985 67.8593 39.0950 0.0000 -4.0781 0.0000
# 3 35.5822 39.0950 105.4165 0.0000 -4.9312 0.0000
# 4 0.0000 0.0000 0.0000 35.4361 0.0000 0.6465
# 5 -10.6680 -4.0781 -4.9312 0.0000 21.1063 0.0000
# 6 0.0000 0.0000 0.0000 0.6465 0.0000 21.5228
#
#
#
# Elastic Compliance Matrix: (Units=1/GPa)
#
#
# Indices 1 2 3 4 5 6 
#
# 1 0.011445 -0.003993 -0.002172 0.000000 0.004506 0.000000
# 2 -0.003993 0.020219 -0.006129 0.000000 0.000456 0.000000
# 3 -0.002172 -0.006129 0.012522 0.000000 0.000644 0.000000
# 4 0.000000 0.000000 0.000000 0.028235 0.000000 -0.000848
# 5 0.004506 0.000456 0.000644 0.000000 0.049895 0.000000
# 6 0.000000 0.000000 0.000000 -0.000848 0.000000 0.046488
#
#
# Mechanical properties :
#
#
# Convention : Reuss Voigt Hill
#
# Bulk Modulus (GPa) = 51.02341 55.30643 53.16492
# Shear Modulus (GPa) = 25.00921 27.32177 26.16549
#
# Velocity S-wave (km/s) = 3.54488 3.70515 3.62590
# Velocity P-wave (km/s) = 6.51093 6.78923 6.65153
#
# Compressibility (1/GPa) = 0.01959885
#
# Stress axis : x y z
#
# Youngs Moduli (GPa) = 87.37146 49.45804 79.85674
#
# Poissons Ratio (x) = 0.19749 0.17341
# Poissons Ratio (y) = 0.34889 0.48947
# Poissons Ratio (z) = 0.18973 0.30314
#
# Static dielectric constant tensor:
#      x y z
#    x 3.835580 0.000000 0.036930 
#    y 0.000000 3.456140 0.000000 
#    z 0.036930 0.000000 3.588650 
# 
# 
# High freq. dielectric constant tensor:
#      x y z
#    x 1.792530 0.000000 -0.003780 
#    y 0.000000 1.763070 0.000000 
#    z -0.003780 0.000000 1.773970 
# 
# From -- ./inp_files/295814.got.cif
#   From: 2010.06.25/outbox.cif.g09.slc.cpg/sg12_148_cif.got.tgz:295814.got - 2010.06.28 00:19:55.
