data_PCOD8109181
_publ_section_title
;
Structure prediction by ZEFSAII (Michael W. Deem and Ramdas Pophale) SiO2 
 PCOD8109181
Probable space group: C 2/M
;
_chemical_formula_sum "Si O2"
_cell_formula_units_Z 40
_cell_length_a 16.682335
_cell_length_b 10.301966
_cell_length_c 12.654025
_cell_angle_alpha 90.000000
_cell_angle_beta 112.660488
_cell_angle_gamma 90.000000
_cell_volume 2006.850889
_symmetry_space_group_name_H-M "C 2/M"
_symmetry_group_IT_number 12
_symmetry_cell_setting 'monoclinic'
loop_
_space_group_symop_operation_xyz
x,y,z
-x,y,-z
-x,-y,-z
x,-y,z
1/2+x,1/2+y,z
1/2-x,1/2+y,-z
1/2-x,1/2-y,-z
1/2+x,1/2-y,z
loop_
_atom_site_type_symbol
_atom_site_label
_atom_site_fract_x
_atom_site_fract_y
_atom_site_fract_z
Si Si1 0.611150 0.500000 0.585529
Si Si2 0.684788 0.000000 0.054763
Si Si3 0.315081 0.000000 0.702785
Si Si4 0.552421 0.500000 0.317305
Si Si5 0.114298 0.000000 0.894040
Si Si6 0.562976 0.777694 0.933646
Si Si7 0.000000 0.221623 0.500000
Si Si8 0.433809 0.782908 0.685838
O O1 0.713051 0.500000 0.636396
O O2 0.566108 0.500000 0.447429
O O3 0.571896 0.637610 0.605126
O O4 0.657145 0.000000 0.162246
O O5 0.788338 0.000000 0.098986
O O6 0.646777 0.129656 0.982440
O O7 0.351177 0.128291 0.665438
O O8 0.447910 0.500000 0.240620
O O9 0.593714 0.634291 0.295087
O O10 0.094867 0.871799 0.953234
O O11 0.514855 0.820293 0.801292
O O12 0.500000 0.802926 0.000000
O O13 0.043620 0.304448 0.427312
#
# Coordination Sequence:
#
# PCOD8109181 Si02
#       8
#     4   4   4   4   4   8   4   8
#     4   9  20  37  63  86 114 160 201 243 286 364
#     4  12  24  39  57  92 124 159 194 244 297 363
#     4  12  24  35  60  91 126 154 196 245 308 340
#     4   8  19  39  63  83 111 155 204 238 285 348
#     4  10  23  38  64  88 119 152 205 249 291 345
#     4  11  21  41  63  87 121 160 197 242 296 354
#     4   9  20  39  64  86 114 160 208 236 294 352
#     4  10  21  39  62  90 118 161 196 248 290 361
#
# _framework density 19.931725
#
# number of rings (size 3 to 8) (size 9 to 14) (size 15 to 20)
#    0.000    1.800    2.000    2.400    8.400    3.600 
#    0.000    0.000    0.000    3.600    0.000    0.000 
#    0.000    0.000    0.000    0.000    0.000    0.000 
#
# Total GULP energy -247811.397729 kJ/mol
# GULP energy per Si atom -12390.569886 kJ/mol
# Density = 1.988636 g / cm^3
# Si number density = 19.931725 Si / 1000 Ang^3
#
#
#
# Elastic Constant Matrix: (Units=GPa)
#
#
# Indices 1 2 3 4 5 6 
#
# 1 83.8927 42.2049 18.4889 0.0000 12.1646 0.0000
# 2 42.2049 109.0366 20.0597 0.0000 16.6464 0.0000
# 3 18.4889 20.0597 81.2539 0.0000 -4.1766 0.0000
# 4 0.0000 0.0000 0.0000 28.3846 0.0000 -3.6875
# 5 12.1646 16.6464 -4.1766 0.0000 28.3813 0.0000
# 6 0.0000 0.0000 0.0000 -3.6875 0.0000 23.5272
#
#
#
# Elastic Compliance Matrix: (Units=1/GPa)
#
#
# Indices 1 2 3 4 5 6 
#
# 1 0.015557 -0.004920 -0.002539 0.000000 -0.004156 0.000000
# 2 -0.004920 0.012310 -0.002199 0.000000 -0.005435 0.000000
# 3 -0.002539 -0.002199 0.013653 0.000000 0.004387 0.000000
# 4 0.000000 0.000000 0.000000 0.035963 0.000000 0.005637
# 5 -0.004156 -0.005435 0.004387 0.000000 0.040849 0.000000
# 6 0.000000 0.000000 0.000000 0.005637 0.000000 0.043387
#
#
# Mechanical properties :
#
#
# Convention : Reuss Voigt Hill
#
# Bulk Modulus (GPa) = 45.03588 48.41003 46.72296
# Shear Modulus (GPa) = 26.53401 28.95392 27.74396
#
# Velocity S-wave (km/s) = 3.65258 3.81551 3.73493
# Velocity P-wave (km/s) = 6.35866 6.61449 6.48784
#
# Compressibility (1/GPa) = 0.02220452
#
# Stress axis : x y z
#
# Youngs Moduli (GPa) = 64.27790 81.23499 73.24308
#
# Poissons Ratio (x) = 0.39970 0.18596
# Poissons Ratio (y) = 0.31626 0.16105
# Poissons Ratio (z) = 0.16320 0.17862
#
# Static dielectric constant tensor:
#      x y z
#    x 3.396450 0.000000 -0.024260 
#    y 0.000000 3.909270 0.000000 
#    z -0.024260 0.000000 3.713150 
# 
# 
# High freq. dielectric constant tensor:
#      x y z
#    x 1.759930 0.000000 -0.001180 
#    y 0.000000 1.781490 0.000000 
#    z -0.001180 0.000000 1.784150 
# 
# From -- ./inp_files/140911.got.cif
#   From: 2010.06.25/outbox.cif.g09.slc.cpg/sg12_71_cif.got.tgz:140911.got - 2010.06.28 00:19:55.
