data_PCOD8109481
_publ_section_title
;
Structure prediction by ZEFSAII (Michael W. Deem and Ramdas Pophale) SiO2 
 PCOD8109481
Probable space group: C 2/M
;
_chemical_formula_sum "Si O2"
_cell_formula_units_Z 56
_cell_length_a 14.898667
_cell_length_b 28.324659
_cell_length_c 8.677017
_cell_angle_alpha 90.000000
_cell_angle_beta 46.757404
_cell_angle_gamma 90.000000
_cell_volume 2667.398894
_symmetry_space_group_name_H-M "C 2/M"
_symmetry_group_IT_number 12
_symmetry_cell_setting 'monoclinic'
loop_
_space_group_symop_operation_xyz
x,y,z
-x,y,-z
-x,-y,-z
x,-y,z
1/2+x,1/2+y,z
1/2-x,1/2+y,-z
1/2-x,1/2-y,-z
1/2+x,1/2-y,z
loop_
_atom_site_type_symbol
_atom_site_label
_atom_site_fract_x
_atom_site_fract_y
_atom_site_fract_z
Si Si1 0.039875 0.640452 0.280724
Si Si2 0.814305 0.825792 0.613499
Si Si3 0.289640 0.401179 0.086193
Si Si4 0.070877 0.820992 0.199686
Si Si5 0.795840 0.404770 0.469355
Si Si6 0.602537 0.229441 0.998080
Si Si7 0.832726 0.000000 0.379043
Si Si8 0.608158 0.500000 0.050346
O O1 0.171109 0.614955 0.128469
O O2 0.051501 0.686649 0.161733
O O3 0.000000 0.655935 0.500000
O O4 0.942564 0.603495 0.320242
O O5 0.873312 0.839886 0.706280
O O6 0.748103 0.869609 0.611542
O O7 0.926145 0.808142 0.374042
O O8 0.718822 0.783785 0.755394
O O9 0.267894 0.397914 0.292518
O O10 0.404872 0.365552 0.937937
O O11 0.323407 0.452322 0.976571
O O12 0.140923 0.773868 0.059633
O O13 0.754507 0.456836 0.465319
O O14 0.500000 0.246979 0.000000
O O15 0.970767 0.000000 0.289392
O O16 0.875680 0.000000 0.152102
#
# Coordination Sequence:
#
# PCOD8109481 Si02
#       8
#     8   8   8   8   8   8   4   4
#     4  10  22  39  63  93 127 166 209 259 313 370
#     4  11  24  42  62  90 126 163 208 255 314 372
#     4  10  21  39  64  93 129 162 212 264 310 369
#     4  11  26  40  62  92 126 166 207 263 309 371
#     4  10  21  39  65  93 125 169 210 258 313 373
#     4  12  25  43  65  88 126 168 209 258 313 374
#     4   9  18  35  62  93 128 159 215 257 306 373
#     4   9  18  35  62  94 125 167 202 264 317 360
#
# _framework density 20.994236000000001
#
# number of rings (size 3 to 8) (size 9 to 14) (size 15 to 20)
#    0.000    1.571    2.857    1.286    4.000    3.429 
#    0.000    3.571    0.000    3.429    0.000    0.000 
#    0.000    0.000    0.000    0.000    0.000    0.000 
#
# Total GULP energy -347015.637969 kJ/mol
# GULP energy per Si atom -12393.415642 kJ/mol
# Density = 2.094645 g / cm^3
# Si number density = 20.994236 Si / 1000 Ang^3
#
#
#
# Elastic Constant Matrix: (Units=GPa)
#
#
# Indices 1 2 3 4 5 6 
#
# 1 89.6839 39.5817 38.6421 0.0000 -6.4265 0.0000
# 2 39.5817 156.2521 68.6932 0.0000 -8.3060 0.0000
# 3 38.6421 68.6932 99.0473 0.0000 -27.7617 0.0000
# 4 0.0000 0.0000 0.0000 31.7158 0.0000 -5.1794
# 5 -6.4265 -8.3060 -27.7617 0.0000 27.2570 0.0000
# 6 0.0000 0.0000 0.0000 -5.1794 0.0000 17.8805
#
#
#
# Elastic Compliance Matrix: (Units=1/GPa)
#
#
# Indices 1 2 3 4 5 6 
#
# 1 0.013779 -0.001386 -0.005069 0.000000 -0.002337 0.000000
# 2 -0.001386 0.009900 -0.007797 0.000000 -0.005251 0.000000
# 3 -0.005069 -0.007797 0.023065 0.000000 0.019921 0.000000
# 4 0.000000 0.000000 0.000000 0.033096 0.000000 0.009587
# 5 -0.002337 -0.005251 0.019921 0.000000 0.054826 0.000000
# 6 0.000000 0.000000 0.000000 0.009587 0.000000 0.058704
#
#
# Mechanical properties :
#
#
# Convention : Reuss Voigt Hill
#
# Bulk Modulus (GPa) = 54.82834 70.97971 62.90402
# Shear Modulus (GPa) = 21.93432 28.57507 25.25470
#
# Velocity S-wave (km/s) = 3.23581 3.69330 3.47210
# Velocity P-wave (km/s) = 6.33508 7.21594 6.78981
#
# Compressibility (1/GPa) = 0.01823874
#
# Stress axis : x y z
#
# Youngs Moduli (GPa) = 72.57545 101.01375 43.35582
#
# Poissons Ratio (x) = 0.14001 0.21979
# Poissons Ratio (y) = 0.10059 0.33804
# Poissons Ratio (z) = 0.36791 0.78760
#
# Static dielectric constant tensor:
#      x y z
#    x 3.857180 0.000000 -0.230180 
#    y 0.000000 3.788580 0.000000 
#    z -0.230180 0.000000 4.022180 
# 
# 
# High freq. dielectric constant tensor:
#      x y z
#    x 1.824430 0.000000 -0.011990 
#    y 0.000000 1.813850 0.000000 
#    z -0.011990 0.000000 1.825430 
# 
# From -- ./inp_files/68184.got.cif
#   From: 2010.06.25/outbox.cif.g09.slc.cpg/sg12_35_cif.got.tgz:68184.got - 2010.06.28 00:19:55.
