data_PCOD8109450
_publ_section_title
;
Structure prediction by ZEFSAII (Michael W. Deem and Ramdas Pophale) SiO2 
 PCOD8109450
Probable space group: C 2/M
;
_chemical_formula_sum "Si O2"
_cell_formula_units_Z 64
_cell_length_a 24.031312
_cell_length_b 8.677603
_cell_length_c 15.390082
_cell_angle_alpha 90.000000
_cell_angle_beta 90.063243
_cell_angle_gamma 90.000000
_cell_volume 3209.356253
_symmetry_space_group_name_H-M "C 2/M"
_symmetry_group_IT_number 12
_symmetry_cell_setting 'monoclinic'
loop_
_space_group_symop_operation_xyz
x,y,z
-x,y,-z
-x,-y,-z
x,-y,z
1/2+x,1/2+y,z
1/2-x,1/2+y,-z
1/2-x,1/2-y,-z
1/2+x,1/2-y,z
loop_
_atom_site_type_symbol
_atom_site_label
_atom_site_fract_x
_atom_site_fract_y
_atom_site_fract_z
Si Si1 0.878620 0.823016 0.846654
Si Si2 0.990045 0.676293 0.595869
Si Si3 0.127254 0.673406 0.328476
Si Si4 0.753880 0.320716 0.594495
Si Si5 0.181606 0.682633 0.747523
Si Si6 0.487990 0.178586 0.902031
Si Si7 0.242477 0.181462 0.094418
Si Si8 0.559270 0.680596 0.750355
O O1 0.882598 0.801800 0.743929
O O2 0.923068 0.712693 0.891405
O O3 0.818344 0.766738 0.875972
O O4 0.890549 0.000000 0.870856
O O5 0.010950 0.500000 0.603895
O O6 0.923935 0.687358 0.606247
O O7 0.000000 0.743582 0.500000
O O8 0.023479 0.774876 0.666231
O O9 0.129728 0.500000 0.288671
O O10 0.183495 0.714130 0.377374
O O11 0.740073 0.500000 0.590343
O O12 0.750000 0.250000 0.500000
O O13 0.710464 0.245539 0.660879
O O14 0.185120 0.500000 0.744062
O O15 0.213207 0.744813 0.834436
O O16 0.117912 0.733263 0.751057
O O17 0.525351 0.277803 0.836988
O O18 0.500382 0.000000 0.883388
O O19 0.500000 0.226788 0.000000
O O20 0.248126 0.000000 0.087961
O O21 0.250000 0.250000 0.000000
O O22 0.570694 0.500000 0.749308
#
# Coordination Sequence:
#
# PCOD8109450 Si02
#       8
#     8   8   8   8   8   8   8   8
#     4  11  22  40  65  95 126 160 205 263 319 365
#     4  10  22  41  66  94 126 168 212 255 308 373
#     4  10  21  39  64  92 124 165 211 256 311 372
#     4  11  24  41  64  97 130 168 213 262 317 374
#     4  11  24  45  66  89 127 172 214 259 313 377
#     4  11  25  44  66  93 125 168 214 256 310 377
#     4  10  24  42  64  94 126 165 209 257 316 372
#     4  12  26  43  64  95 130 165 207 262 320 374
#
# _framework density 19.941693999999998
#
# number of rings (size 3 to 8) (size 9 to 14) (size 15 to 20)
#    0.000    1.250    2.500    2.625    3.500    3.750 
#    0.000    0.000    0.000    0.000    0.000    0.000 
#    0.000    0.000    0.000    0.000    0.000    0.000 
#
# Total GULP energy -396883.790797 kJ/mol
# GULP energy per Si atom -12402.618462 kJ/mol
# Density = 1.989631 g / cm^3
# Si number density = 19.941694 Si / 1000 Ang^3
#
#
#
# Elastic Constant Matrix: (Units=GPa)
#
#
# Indices 1 2 3 4 5 6 
#
# 1 103.4673 13.3201 19.2371 0.0000 20.5521 0.0000
# 2 13.3201 56.8274 25.2257 0.0000 10.3146 0.0000
# 3 19.2371 25.2257 106.5002 0.0000 24.2240 0.0000
# 4 0.0000 0.0000 0.0000 28.4352 0.0000 -1.0528
# 5 20.5521 10.3146 24.2240 0.0000 21.6749 0.0000
# 6 0.0000 0.0000 0.0000 -1.0528 0.0000 28.0252
#
#
#
# Elastic Compliance Matrix: (Units=1/GPa)
#
#
# Indices 1 2 3 4 5 6 
#
# 1 0.011983 -0.001012 0.000738 0.000000 -0.011705 0.000000
# 2 -0.001012 0.020264 -0.003542 0.000000 -0.004725 0.000000
# 3 0.000738 -0.003542 0.013236 0.000000 -0.013806 0.000000
# 4 0.000000 0.000000 0.000000 0.035217 0.000000 0.001323
# 5 -0.011705 -0.004725 -0.013806 0.000000 0.074913 0.000000
# 6 0.000000 0.000000 0.000000 0.001323 0.000000 0.035732
#
#
# Mechanical properties :
#
#
# Convention : Reuss Voigt Hill
#
# Bulk Modulus (GPa) = 26.41989 42.48451 34.45220
# Shear Modulus (GPa) = 23.63011 29.56121 26.59566
#
# Velocity S-wave (km/s) = 3.44606 3.85435 3.65591
# Velocity P-wave (km/s) = 5.39547 6.41550 5.92747
#
# Compressibility (1/GPa) = 0.03785027
#
# Stress axis : x y z
#
# Youngs Moduli (GPa) = 83.45133 49.34772 75.55316
#
# Poissons Ratio (x) = 0.04992 -0.05572
# Poissons Ratio (y) = 0.08442 0.26764
# Poissons Ratio (z) = -0.06155 0.17481
#
# Static dielectric constant tensor:
#      x y z
#    x 3.720270 0.000000 -0.009200 
#    y 0.000000 3.979690 0.000000 
#    z -0.009200 0.000000 3.744280 
# 
# 
# High freq. dielectric constant tensor:
#      x y z
#    x 1.795130 0.000000 -0.000190 
#    y 0.000000 1.778620 0.000000 
#    z -0.000190 0.000000 1.786500 
# 
# From -- ./inp_files/238633.got.cif
#   From: 2010.06.25/outbox.cif.g09.slc.cpg/sg12_120_cif.got.tgz:238633.got - 2010.06.28 00:19:55.
