data_PCOD8109549
_publ_section_title
;
Structure prediction by ZEFSAII (Michael W. Deem and Ramdas Pophale) SiO2 
 PCOD8109549
Probable space group: C 2/M
;
_chemical_formula_sum "Si O2"
_cell_formula_units_Z 40
_cell_length_a 15.575087
_cell_length_b 12.089892
_cell_length_c 11.794275
_cell_angle_alpha 90.000000
_cell_angle_beta 48.113521
_cell_angle_gamma 90.000000
_cell_volume 1653.373008
_symmetry_space_group_name_H-M "C 2/M"
_symmetry_group_IT_number 12
_symmetry_cell_setting 'monoclinic'
loop_
_space_group_symop_operation_xyz
x,y,z
-x,y,-z
-x,-y,-z
x,-y,z
1/2+x,1/2+y,z
1/2-x,1/2+y,-z
1/2-x,1/2-y,-z
1/2+x,1/2-y,z
loop_
_atom_site_type_symbol
_atom_site_label
_atom_site_fract_x
_atom_site_fract_y
_atom_site_fract_z
Si Si1 0.353045 0.683002 0.785724
Si Si2 0.682639 0.210396 0.397415
Si Si3 0.959551 0.000000 0.843840
Si Si4 0.873570 0.377838 0.927623
Si Si5 0.182023 0.000000 0.800468
Si Si6 0.375327 0.872152 0.318594
O O1 0.394039 0.715844 0.622719
O O2 0.441940 0.606096 0.777002
O O3 0.333967 0.798381 0.863989
O O4 0.224069 0.628222 0.887916
O O5 0.602750 0.163972 0.568903
O O6 0.779354 0.293361 0.355821
O O7 0.742800 0.109375 0.279274
O O8 0.087096 0.000000 0.782707
O O9 0.870240 0.000000 0.026696
O O10 0.874546 0.500000 0.873293
O O11 0.004186 0.352345 0.855352
O O12 0.335208 0.000000 0.348482
#
# Coordination Sequence:
#
# PCOD8109549 Si02
#       6
#     8   8   4   8   4   8
#     4  11  23  39  65  98 136 166 221 278 335 382
#     4  11  24  40  68  96 133 175 224 274 333 390
#     4  11  24  42  64  99 136 176 218 277 335 402
#     4  10  21  39  65  93 129 166 214 274 329 393
#     4  11  22  42  68  94 132 181 222 262 337 411
#     4  10  23  44  66  94 133 176 224 269 328 408
#
# _framework density 24.192969000000002
#
# number of rings (size 3 to 8) (size 9 to 14) (size 15 to 20)
#    0.000    1.400    2.000    3.600    2.800    3.200 
#    0.000    4.000    0.000    3.600    0.000    0.000 
#    0.000    0.000    0.000    0.000    0.000    0.000 
#
# Total GULP energy -247821.164967 kJ/mol
# GULP energy per Si atom -12391.058248 kJ/mol
# Density = 2.413790 g / cm^3
# Si number density = 24.192969 Si / 1000 Ang^3
#
#
#
# Elastic Constant Matrix: (Units=GPa)
#
#
# Indices 1 2 3 4 5 6 
#
# 1 64.3547 31.5940 19.7137 0.0000 7.1873 0.0000
# 2 31.5940 132.7768 24.8852 0.0000 8.3830 0.0000
# 3 19.7137 24.8852 42.2676 0.0000 9.4446 0.0000
# 4 0.0000 0.0000 0.0000 -102.0094 0.0000 28.6080
# 5 7.1873 8.3830 9.4446 0.0000 42.3296 0.0000
# 6 0.0000 0.0000 0.0000 28.6080 0.0000 40.6700
#
#
#
# Elastic Compliance Matrix: (Units=1/GPa)
#
#
# Indices 1 2 3 4 5 6 
#
# 1 0.019363 -0.003250 -0.006869 0.000000 -0.001111 0.000000
# 2 -0.003250 0.009025 -0.003707 0.000000 -0.000409 0.000000
# 3 -0.006869 -0.003707 0.030122 0.000000 -0.004820 0.000000
# 4 0.000000 0.000000 0.000000 -0.008188 0.000000 0.005759
# 5 -0.001111 -0.000409 -0.004820 0.000000 0.024969 0.000000
# 6 0.000000 0.000000 0.000000 0.005759 0.000000 0.020537
#
#
# Mechanical properties :
#
#
# Convention : Reuss Voigt Hill
#
# Bulk Modulus (GPa) = 32.40566 43.53166 37.96866
# Shear Modulus (GPa) = 37.37887 7.07844 22.22865
#
# Velocity S-wave (km/s) = 3.93495 1.71236 3.03447
# Velocity P-wave (km/s) = 5.83685 4.68424 5.29202
#
# Compressibility (1/GPa) = 0.03085881
#
# Stress axis : x y z
#
# Youngs Moduli (GPa) = 51.64596 110.80080 33.19832
#
# Poissons Ratio (x) = 0.36007 0.22804
# Poissons Ratio (y) = 0.16783 0.12306
# Poissons Ratio (z) = 0.35476 0.41070
#
# Static dielectric constant tensor:
#      x y z
#    x 4.166710 0.000000 0.019930 
#    y 0.000000 4.687770 0.000000 
#    z 0.019930 0.000000 4.713480 
# 
# 
# High freq. dielectric constant tensor:
#      x y z
#    x 1.951460 0.000000 -0.004010 
#    y 0.000000 1.980710 0.000000 
#    z -0.004010 0.000000 1.949890 
# 
# From -- ./inp_files/155135.got.cif
#   From: 2010.06.25/outbox.cif.g09.slc.cpg/sg12_78_cif.got.tgz:155135.got - 2010.06.28 00:19:55.
