data_PCOD8109983
_publ_section_title
;
Structure prediction by ZEFSAII (Michael W. Deem and Ramdas Pophale) SiO2 
 PCOD8109983
Probable space group: C 2/M
;
_chemical_formula_sum "Si O2"
_cell_formula_units_Z 64
_cell_length_a 8.779788
_cell_length_b 27.814804
_cell_length_c 18.348687
_cell_angle_alpha 90.000000
_cell_angle_beta 42.971986
_cell_angle_gamma 90.000000
_cell_volume 3054.362191
_symmetry_space_group_name_H-M "C 2/M"
_symmetry_group_IT_number 12
_symmetry_cell_setting 'monoclinic'
loop_
_space_group_symop_operation_xyz
x,y,z
-x,y,-z
-x,-y,-z
x,-y,z
1/2+x,1/2+y,z
1/2-x,1/2+y,-z
1/2-x,1/2-y,-z
1/2+x,1/2-y,z
loop_
_atom_site_type_symbol
_atom_site_label
_atom_site_fract_x
_atom_site_fract_y
_atom_site_fract_z
Si Si1 0.401756 0.412823 0.609547
Si Si2 0.619159 0.556343 0.807125
Si Si3 0.328092 0.301810 0.622511
Si Si4 0.112356 0.788930 0.093057
Si Si5 0.557999 0.945225 0.179689
Si Si6 0.754608 0.056444 0.394406
Si Si7 0.868437 0.250197 0.757716
Si Si8 0.812567 0.609352 0.005697
O O1 0.500000 0.433551 0.500000
O O2 0.317433 0.358895 0.628745
O O3 0.592388 0.414279 0.603743
O O4 0.194183 0.446262 0.703136
O O5 0.648762 0.500000 0.793245
O O6 0.774075 0.575742 0.818076
O O7 0.698093 0.577681 0.702355
O O8 0.362164 0.568954 0.909156
O O9 0.500000 0.283814 0.500000
O O10 0.404922 0.282246 0.673837
O O11 0.079871 0.284582 0.691426
O O12 0.161902 0.784445 0.161827
O O13 0.848968 0.783641 0.172110
O O14 0.250000 0.750000 0.000000
O O15 0.185263 0.840687 0.037833
O O16 0.570319 0.908496 0.108609
O O17 0.622607 0.000000 0.134599
O O18 0.500000 0.068135 0.500000
O O19 0.808773 0.000000 0.382345
O O20 0.000000 0.616346 0.000000
#
# Coordination Sequence:
#
# PCOD8109983 Si02
#       8
#     8   8   8   8   8   8   8   8
#     4  11  24  40  66 100 133 169 219 274 334 398
#     4  10  23  42  63  91 127 170 220 268 325 392
#     4  10  23  43  68  99 133 171 219 273 331 408
#     4  11  25  42  66  98 130 172 221 275 329 397
#     4  11  25  43  66  93 131 174 220 272 334 402
#     4  10  21  40  65  93 130 172 217 271 329 391
#     4  10  23  43  69  93 133 175 217 269 341 394
#     4  12  26  40  65  95 131 170 218 271 332 394
#
# _framework density 20.953638000000002
#
# number of rings (size 3 to 8) (size 9 to 14) (size 15 to 20)
#    0.000    1.375    0.000    4.125    8.750    6.000 
#    0.000    0.625    0.000    0.000    0.000    0.000 
#    0.000    0.000    0.000    0.000    0.000    0.000 
#
# Total GULP energy -396984.217229 kJ/mol
# GULP energy per Si atom -12405.756788 kJ/mol
# Density = 2.090595 g / cm^3
# Si number density = 20.953638 Si / 1000 Ang^3
#
#
#
# Elastic Constant Matrix: (Units=GPa)
#
#
# Indices 1 2 3 4 5 6 
#
# 1 108.7413 33.3180 49.2275 0.0000 2.7754 0.0000
# 2 33.3180 56.1638 33.7327 0.0000 12.6592 0.0000
# 3 49.2275 33.7327 142.5739 0.0001 12.2298 0.0002
# 4 0.0000 0.0000 0.0001 9.7027 -0.0001 -22.9115
# 5 2.7754 12.6592 12.2298 -0.0001 40.2836 -0.0002
# 6 0.0000 0.0000 0.0002 -22.9115 -0.0002 7.6045
#
#
#
# Elastic Compliance Matrix: (Units=1/GPa)
#
#
# Indices 1 2 3 4 5 6 
#
# 1 0.012333 -0.005939 -0.003019 0.000000 0.001933 0.000000
# 2 -0.005939 0.024717 -0.003251 0.000000 -0.006371 0.000000
# 3 -0.003019 -0.003251 0.008953 0.000000 -0.001489 0.000000
# 4 0.000000 0.000000 0.000000 -0.016856 0.000000 -0.050784
# 5 0.001933 -0.006371 -0.001489 0.000000 0.027145 0.000000
# 6 0.000000 0.000000 0.000000 -0.050784 0.000000 -0.021507
#
#
# Mechanical properties :
#
#
# Convention : Reuss Voigt Hill
#
# Bulk Modulus (GPa) = 46.32743 60.00394 53.16568
# Shear Modulus (GPa) = 75.30317 24.26489 49.78403
#
# Velocity S-wave (km/s) = 6.00133 3.40667 4.87962
# Velocity P-wave (km/s) = 8.37728 6.64625 7.56146
#
# Compressibility (1/GPa) = 0.02158549
#
# Stress axis : x y z
#
# Youngs Moduli (GPa) = 81.08215 40.45852 111.69238
#
# Poissons Ratio (x) = 0.24028 0.33721
# Poissons Ratio (y) = 0.48153 0.36310
# Poissons Ratio (z) = 0.24479 0.13153
#
# Static dielectric constant tensor:
#      x y z
#    x 4.315250 0.000000 0.028640 
#    y 0.000000 3.556320 0.000000 
#    z 0.028640 0.000000 4.110680 
# 
# 
# High freq. dielectric constant tensor:
#      x y z
#    x 1.835870 0.000000 0.001150 
#    y 0.000000 1.810040 0.000000 
#    z 0.001150 0.000000 1.840300 
# 
# From -- ./inp_files/260341.got.cif
#   From: 2010.06.25/outbox.cif.g09.slc.cpg/sg12_131_cif.got.tgz:260341.got - 2010.06.28 00:19:55.
