data_PCOD8109415
_publ_section_title
;
Structure prediction by ZEFSAII (Michael W. Deem and Ramdas Pophale) SiO2 
 PCOD8109415
Probable space group: C 2/M
;
_chemical_formula_sum "Si O2"
_cell_formula_units_Z 64
_cell_length_a 20.792043
_cell_length_b 29.896211
_cell_length_c 14.773810
_cell_angle_alpha 90.000000
_cell_angle_beta 160.430389
_cell_angle_gamma 90.000000
_cell_volume 3076.013423
_symmetry_space_group_name_H-M "C 2/M"
_symmetry_group_IT_number 12
_symmetry_cell_setting 'monoclinic'
loop_
_space_group_symop_operation_xyz
x,y,z
-x,y,-z
-x,-y,-z
x,-y,z
1/2+x,1/2+y,z
1/2-x,1/2+y,-z
1/2-x,1/2-y,-z
1/2+x,1/2-y,z
loop_
_atom_site_type_symbol
_atom_site_label
_atom_site_fract_x
_atom_site_fract_y
_atom_site_fract_z
Si Si1 0.829059 0.585600 0.031975
Si Si2 0.810914 0.792011 0.808409
Si Si3 0.446371 0.373119 0.552901
Si Si4 0.129409 0.657539 0.418075
Si Si5 0.530634 0.633780 0.865809
Si Si6 0.126706 0.306122 0.079285
Si Si7 0.672338 0.949032 0.165842
Si Si8 0.206427 0.448823 0.817563
O O1 0.795860 0.555277 0.076165
O O2 0.010457 0.615753 0.295977
O O3 0.647582 0.618223 0.768128
O O4 0.873586 0.556637 0.001581
O O5 0.642316 0.807040 0.517185
O O6 0.776899 0.742702 0.804199
O O7 0.825044 0.828051 0.907349
O O8 0.000000 0.789578 0.000000
O O9 0.487360 0.352962 0.705569
O O10 0.302391 0.340806 0.308437
O O11 0.356543 0.422308 0.443247
O O12 0.334179 0.636267 0.661916
O O13 0.023158 0.684174 0.198478
O O14 0.633531 0.585217 0.010788
O O15 0.000000 0.311950 0.000000
O O16 0.717519 0.000000 0.247556
O O17 0.500000 0.931111 0.000000
O O18 0.264399 0.500000 0.870482
O O19 0.000000 0.437422 0.500000
#
# Coordination Sequence:
#
# PCOD8109415 Si02
#       8
#     8   8   8   8   8   8   8   8
#     4  11  23  39  63  88 131 169 208 259 321 384
#     4   9  22  36  61  95 120 163 210 269 315 379
#     4  11  22  37  60  86 124 169 204 253 313 381
#     4  11  21  38  63  89 126 168 208 267 320 371
#     4  10  21  39  64  90 125 162 213 256 317 369
#     4  11  21  36  63  91 127 162 218 258 317 384
#     4  11  23  39  60  90 123 159 207 262 322 381
#     4  10  22  42  68  93 125 171 216 260 316 382
#
# _framework density 20.806152000000001
#
# number of rings (size 3 to 8) (size 9 to 14) (size 15 to 20)
#    0.000    1.500    2.500    2.625    1.750    4.500 
#    0.000    1.875    8.250    4.875    0.000    0.000 
#    0.000    0.000    0.000    0.000    0.000    0.000 
#
# Total GULP energy -396753.998143 kJ/mol
# GULP energy per Si atom -12398.562442 kJ/mol
# Density = 2.075880 g / cm^3
# Si number density = 20.806152 Si / 1000 Ang^3
#
#
#
# Elastic Constant Matrix: (Units=GPa)
#
#
# Indices 1 2 3 4 5 6 
#
# 1 74.6493 38.2093 44.0103 -0.0012 -5.6077 0.0003
# 2 38.2093 126.4775 57.7654 -0.0001 -0.7287 -0.0001
# 3 44.0103 57.7654 124.7147 -0.0005 -12.6644 0.0010
# 4 -0.0012 -0.0001 -0.0005 20.2485 -0.0007 -5.1046
# 5 -5.6077 -0.7287 -12.6644 -0.0007 38.0505 0.0004
# 6 0.0003 -0.0001 0.0010 -5.1046 0.0004 25.5516
#
#
#
# Elastic Compliance Matrix: (Units=1/GPa)
#
#
# Indices 1 2 3 4 5 6 
#
# 1 0.017916 -0.003254 -0.004712 0.000001 0.001010 0.000000
# 2 -0.003254 0.010692 -0.003966 0.000000 -0.001595 0.000000
# 3 -0.004712 -0.003966 0.011840 0.000000 0.003170 0.000000
# 4 0.000001 0.000000 0.000000 0.052005 0.000001 0.010389
# 5 0.001010 -0.001595 0.003170 0.000001 0.027454 0.000000
# 6 0.000000 0.000000 0.000000 0.010389 0.000000 0.041212
#
#
# Mechanical properties :
#
#
# Convention : Reuss Voigt Hill
#
# Bulk Modulus (GPa) = 60.30405 67.31237 63.80821
# Shear Modulus (GPa) = 26.24510 29.16056 27.70283
#
# Velocity S-wave (km/s) = 3.55549 3.74777 3.65289
# Velocity P-wave (km/s) = 6.77510 7.15193 6.96606
#
# Compressibility (1/GPa) = 0.01658263
#
# Stress axis : x y z
#
# Youngs Moduli (GPa) = 55.81667 93.53004 84.45920
#
# Poissons Ratio (x) = 0.30438 0.39801
# Poissons Ratio (y) = 0.18165 0.33494
# Poissons Ratio (z) = 0.26303 0.37092
#
# Static dielectric constant tensor:
#      x y z
#    x 3.732310 0.000000 -0.095130 
#    y 0.000000 3.864550 0.000000 
#    z -0.095130 0.000000 3.920240 
# 
# 
# High freq. dielectric constant tensor:
#      x y z
#    x 1.811860 0.000000 -0.013430 
#    y 0.000000 1.814390 0.000000 
#    z -0.013430 0.000000 1.822330 
# 
# From -- ./inp_files/236011.got.cif
#   From: 2010.06.25/outbox.cif.g09.slc.cpg/sg12_119_cif.got.tgz:236011.got - 2010.06.28 00:19:55.
