data_PCOD8109215
_publ_section_title
;
Structure prediction by ZEFSAII (Michael W. Deem and Ramdas Pophale) SiO2 
 PCOD8109215
Probable space group: C 2/M
;
_chemical_formula_sum "Si O2"
_cell_formula_units_Z 48
_cell_length_a 24.720470
_cell_length_b 14.468755
_cell_length_c 10.597578
_cell_angle_alpha 90.000000
_cell_angle_beta 37.669060
_cell_angle_gamma 90.000000
_cell_volume 2316.362732
_symmetry_space_group_name_H-M "C 2/M"
_symmetry_group_IT_number 12
_symmetry_cell_setting 'monoclinic'
loop_
_space_group_symop_operation_xyz
x,y,z
-x,y,-z
-x,-y,-z
x,-y,z
1/2+x,1/2+y,z
1/2-x,1/2+y,-z
1/2-x,1/2-y,-z
1/2+x,1/2-y,z
loop_
_atom_site_type_symbol
_atom_site_label
_atom_site_fract_x
_atom_site_fract_y
_atom_site_fract_z
Si Si1 0.336473 0.000000 0.092342
Si Si2 0.612239 0.192206 0.493182
Si Si3 0.901587 0.179519 0.706702
Si Si4 0.211592 0.810644 0.678840
Si Si5 0.715139 0.500000 0.069248
Si Si6 0.748482 0.000000 0.471662
Si Si7 0.077948 0.299272 0.086985
Si Si8 0.145337 0.500000 0.405868
O O1 0.264564 0.000000 0.112645
O O2 0.290802 0.000000 0.314065
O O3 0.395444 0.092787 0.971229
O O4 0.631553 0.270714 0.357157
O O5 0.708020 0.177711 0.374302
O O6 0.528096 0.215121 0.738420
O O7 0.587385 0.091263 0.480998
O O8 0.842568 0.091377 0.840990
O O9 0.895675 0.256503 0.826880
O O10 0.000000 0.143323 0.500000
O O11 0.250000 0.750000 0.500000
O O12 0.187788 0.911238 0.666067
O O13 0.125131 0.762083 0.893819
O O14 0.772509 0.500000 0.839020
O O15 0.670978 0.000000 0.508797
#
# Coordination Sequence:
#
# PCOD8109215 Si02
#       8
#     4   8   8   8   4   4   8   4
#     4  12  23  37  62  97 124 159 207 260 313 374
#     4  10  22  40  62  92 125 160 205 256 313 370
#     4  10  22  39  60  92 125 161 210 260 305 375
#     4  11  22  40  62  87 125 162 209 254 302 371
#     4  12  23  38  67  90 124 171 212 253 321 366
#     4  10  22  40  59  91 127 160 205 260 304 364
#     4  11  23  40  64  92 125 164 204 256 319 370
#     4  10  21  39  62  91 125 162 202 255 311 385
#
# _framework density 20.722144
#
# number of rings (size 3 to 8) (size 9 to 14) (size 15 to 20)
#    0.000    1.333    1.667    4.750    0.000    2.667 
#    0.000    5.833    0.000    1.000    0.000    0.000 
#    0.000    0.000    0.000    0.000    0.000    0.000 
#
# Total GULP energy -297373.869762 kJ/mol
# GULP energy per Si atom -12390.577907 kJ/mol
# Density = 2.067498 g / cm^3
# Si number density = 20.722144 Si / 1000 Ang^3
#
#
#
# Elastic Constant Matrix: (Units=GPa)
#
#
# Indices 1 2 3 4 5 6 
#
# 1 35.8900 5.9047 16.1532 0.0000 16.0633 0.0000
# 2 5.9047 153.5409 58.0184 0.0000 4.0519 0.0000
# 3 16.1532 58.0184 143.8063 0.0000 17.3921 0.0000
# 4 0.0000 0.0000 0.0000 48.4918 0.0000 5.5536
# 5 16.0633 4.0519 17.3921 0.0000 24.1217 0.0000
# 6 0.0000 0.0000 0.0000 5.5536 0.0000 20.3206
#
#
#
# Elastic Compliance Matrix: (Units=1/GPa)
#
#
# Indices 1 2 3 4 5 6 
#
# 1 0.039966 -0.000397 -0.001225 0.000000 -0.025665 0.000000
# 2 -0.000397 0.007712 -0.003223 0.000000 0.001293 0.000000
# 3 -0.001225 -0.003223 0.009014 0.000000 -0.005142 0.000000
# 4 0.000000 0.000000 0.000000 0.021288 0.000000 -0.005818
# 5 -0.025665 0.001293 -0.005142 0.000000 0.062037 0.000000
# 6 0.000000 0.000000 0.000000 -0.005818 0.000000 0.050801
#
#
# Mechanical properties :
#
#
# Convention : Reuss Voigt Hill
#
# Bulk Modulus (GPa) = 21.27585 54.82107 38.04846
# Shear Modulus (GPa) = 23.12925 35.46420 29.29673
#
# Velocity S-wave (km/s) = 3.34452 4.14141 3.76412
# Velocity P-wave (km/s) = 5.02035 7.02717 6.10676
#
# Compressibility (1/GPa) = 0.04700164
#
# Stress axis : x y z
#
# Youngs Moduli (GPa) = 25.02106 129.66799 110.94283
#
# Poissons Ratio (x) = 0.05144 0.13594
# Poissons Ratio (y) = 0.00993 0.35759
# Poissons Ratio (z) = 0.03066 0.41794
#
# Static dielectric constant tensor:
#      x y z
#    x 3.473390 0.000000 0.128440 
#    y 0.000000 4.257360 0.000000 
#    z 0.128440 0.000000 3.687240 
# 
# 
# High freq. dielectric constant tensor:
#      x y z
#    x 1.786080 0.000000 0.012150 
#    y 0.000000 1.840590 0.000000 
#    z 0.012150 0.000000 1.822720 
# 
# From -- ./inp_files/189406.got.cif
#   From: 2010.06.25/outbox.cif.g09.slc.cpg/sg12_95_cif.got.tgz:189406.got - 2010.06.28 00:19:55.
