data_PCOD8109809
_publ_section_title
;
Structure prediction by ZEFSAII (Michael W. Deem and Ramdas Pophale) SiO2 
 PCOD8109809
Probable space group: C 2/M
;
_chemical_formula_sum "Si O2"
_cell_formula_units_Z 56
_cell_length_a 24.657589
_cell_length_b 9.157294
_cell_length_c 14.397891
_cell_angle_alpha 90.000000
_cell_angle_beta 119.195835
_cell_angle_gamma 90.000000
_cell_volume 2837.982861
_symmetry_space_group_name_H-M "C 2/M"
_symmetry_group_IT_number 12
_symmetry_cell_setting 'monoclinic'
loop_
_space_group_symop_operation_xyz
x,y,z
-x,y,-z
-x,-y,-z
x,-y,z
1/2+x,1/2+y,z
1/2-x,1/2+y,-z
1/2-x,1/2-y,-z
1/2+x,1/2-y,z
loop_
_atom_site_type_symbol
_atom_site_label
_atom_site_fract_x
_atom_site_fract_y
_atom_site_fract_z
Si Si1 0.397216 0.169450 0.479549
Si Si2 0.527563 0.668128 0.302137
Si Si3 0.228178 0.831807 0.891191
Si Si4 0.178314 0.331270 0.196709
Si Si5 0.901935 0.169335 0.297315
Si Si6 0.743303 0.830890 0.589947
Si Si7 0.943360 0.167677 0.884116
O O1 0.428269 0.234884 0.597072
O O2 0.422079 0.246245 0.407314
O O3 0.323809 0.196410 0.422097
O O4 0.414412 0.000000 0.489008
O O5 0.545555 0.500000 0.334088
O O6 0.455418 0.694888 0.266151
O O7 0.537213 0.714115 0.203671
O O8 0.281338 0.806852 0.860669
O O9 0.162590 0.768795 0.798560
O O10 0.219134 0.000000 0.909698
O O11 0.250000 0.750000 0.000000
O O12 0.177647 0.500000 0.226379
O O13 0.204575 0.234124 0.300908
O O14 0.109320 0.274158 0.120258
O O15 0.894153 0.000000 0.317765
O O16 0.750000 0.750000 0.500000
O O17 0.757263 0.000000 0.585719
O O18 0.920587 0.000000 0.867211
O O19 0.000000 0.191663 0.000000
#
# Coordination Sequence:
#
# PCOD8109809 Si02
#       7
#     8   8   8   8   8   8   8
#     4  11  23  38  58  89 123 156 196 247 303 358
#     4  10  22  39  61  88 119 160 204 245 296 357
#     4  10  23  40  63  92 122 158 202 251 304 359
#     4  11  23  41  63  91 124 159 201 250 306 363
#     4  10  21  40  63  88 120 160 200 244 297 359
#     4  11  23  38  60  89 122 162 204 249 303 361
#     4  10  23  42  65  91 120 160 207 252 300 358
#
# _framework density 19.732326
#
# number of rings (size 3 to 8) (size 9 to 14) (size 15 to 20)
#    0.000    1.571    1.429    2.571    2.000    8.857 
#    0.000    0.000    0.000    0.000    0.000    0.000 
#    0.000    0.000    0.000    0.000    0.000    0.000 
#
# Total GULP energy -347358.848089 kJ/mol
# GULP energy per Si atom -12405.673146 kJ/mol
# Density = 1.968741 g / cm^3
# Si number density = 19.732326 Si / 1000 Ang^3
#
#
#
# Elastic Constant Matrix: (Units=GPa)
#
#
# Indices 1 2 3 4 5 6 
#
# 1 86.4040 49.7902 34.4564 0.0000 11.7250 0.0000
# 2 49.7902 92.1986 53.8005 0.0000 1.6670 0.0000
# 3 34.4564 53.8005 130.6942 0.0000 0.5214 0.0000
# 4 0.0000 0.0000 0.0000 38.0571 0.0000 1.6318
# 5 11.7250 1.6670 0.5214 0.0000 25.0981 0.0000
# 6 0.0000 0.0000 0.0000 1.6318 0.0000 33.2510
#
#
#
# Elastic Compliance Matrix: (Units=1/GPa)
#
#
# Indices 1 2 3 4 5 6 
#
# 1 0.018340 -0.009157 -0.001034 0.000000 -0.007938 0.000000
# 2 -0.009157 0.018865 -0.005364 0.000000 0.003136 0.000000
# 3 -0.001034 -0.005364 0.010130 0.000000 0.000629 0.000000
# 4 0.000000 0.000000 0.000000 0.026332 0.000000 -0.001292
# 5 -0.007938 0.003136 0.000629 0.000000 0.043331 0.000000
# 6 0.000000 0.000000 0.000000 -0.001292 0.000000 0.030138
#
#
# Mechanical properties :
#
#
# Convention : Reuss Voigt Hill
#
# Bulk Modulus (GPa) = 61.63734 65.04344 63.34039
# Shear Modulus (GPa) = 27.22534 30.69789 28.96161
#
# Velocity S-wave (km/s) = 3.71851 3.94854 3.83525
# Velocity P-wave (km/s) = 7.05272 7.33637 7.19595
#
# Compressibility (1/GPa) = 0.01622393
#
# Stress axis : x y z
#
# Youngs Moduli (GPa) = 54.52590 53.00908 98.72064
#
# Poissons Ratio (x) = 0.48542 0.10206
# Poissons Ratio (y) = 0.49931 0.52953
# Poissons Ratio (z) = 0.05637 0.28434
#
# Static dielectric constant tensor:
#      x y z
#    x 3.849330 0.000000 0.014800 
#    y 0.000000 3.630800 0.000000 
#    z 0.014800 0.000000 3.498560 
# 
# 
# High freq. dielectric constant tensor:
#      x y z
#    x 1.783130 0.000000 0.001860 
#    y 0.000000 1.767830 0.000000 
#    z 0.001860 0.000000 1.775730 
# 
# From -- ./inp_files/239032.got.cif
#   From: 2010.06.25/outbox.cif.g09.slc.cpg/sg12_120_cif.got.tgz:239032.got - 2010.06.28 00:19:55.
