data_PCOD8109669
_publ_section_title
;
Structure prediction by ZEFSAII (Michael W. Deem and Ramdas Pophale) SiO2 
 PCOD8109669
Probable space group: C 2/M
;
_chemical_formula_sum "Si O2"
_cell_formula_units_Z 48
_cell_length_a 9.200783
_cell_length_b 26.262166
_cell_length_c 8.609288
_cell_angle_alpha 90.000000
_cell_angle_beta 90.440318
_cell_angle_gamma 90.000000
_cell_volume 2080.222271
_symmetry_space_group_name_H-M "C 2/M"
_symmetry_group_IT_number 12
_symmetry_cell_setting 'monoclinic'
loop_
_space_group_symop_operation_xyz
x,y,z
-x,y,-z
-x,-y,-z
x,-y,z
1/2+x,1/2+y,z
1/2-x,1/2+y,-z
1/2-x,1/2-y,-z
1/2+x,1/2-y,z
loop_
_atom_site_type_symbol
_atom_site_label
_atom_site_fract_x
_atom_site_fract_y
_atom_site_fract_z
Si Si1 0.631012 0.277584 0.103800
Si Si2 0.929484 0.056537 0.160232
Si Si3 0.207141 0.634495 0.713989
Si Si4 0.155244 0.583708 0.009722
Si Si5 0.635717 0.363661 0.583734
Si Si6 0.101566 0.326587 0.229388
O O1 0.697454 0.318136 0.222971
O O2 0.558528 0.231685 0.200626
O O3 0.500000 0.302643 0.000000
O O4 0.750000 0.250000 0.000000
O O5 0.757167 0.051708 0.123812
O O6 0.943733 0.094575 0.305893
O O7 0.988850 0.000000 0.202206
O O8 0.000000 0.077735 0.000000
O O9 0.267829 0.611811 0.553629
O O10 0.037331 0.648606 0.686481
O O11 0.222774 0.588558 0.837841
O O12 0.134281 0.641969 0.071691
O O13 0.000000 0.555539 0.000000
O O14 0.500000 0.334109 0.500000
O O15 0.746280 0.326728 0.673598
#
# Coordination Sequence:
#
# PCOD8109669 Si02
#       6
#     8   8   8   8   8   8
#     4  12  22  37  62  93 126 171 217 260 297 351
#     4  10  22  42  66  91 121 153 193 252 318 383
#     4  11  22  38  61  89 129 166 204 256 313 354
#     4   9  18  36  63  89 120 160 208 248 299 366
#     4  11  25  39  61  91 121 159 206 252 310 376
#     4  10  21  40  58  87 125 172 208 254 305 354
#
# _framework density 23.074456999999999
#
# number of rings (size 3 to 8) (size 9 to 14) (size 15 to 20)
#    0.000    1.500    3.333    2.000    2.333    2.000 
#    0.000    0.833    0.000   13.000    0.000    0.000 
#    0.000    0.000    0.000    0.000    0.000    0.000 
#
# Total GULP energy -297350.609090 kJ/mol
# GULP energy per Si atom -12389.608712 kJ/mol
# Density = 2.302194 g / cm^3
# Si number density = 23.074457 Si / 1000 Ang^3
#
#
#
# Elastic Constant Matrix: (Units=GPa)
#
#
# Indices 1 2 3 4 5 6 
#
# 1 95.2924 1.0679 32.0980 0.0000 22.8157 0.0000
# 2 1.0679 57.3085 19.0164 0.0000 -2.3861 0.0000
# 3 32.0980 19.0164 118.0184 0.0000 -19.9714 0.0000
# 4 0.0000 0.0000 0.0000 15.5651 0.0000 -4.2225
# 5 22.8157 -2.3861 -19.9714 0.0000 58.3163 0.0000
# 6 0.0000 0.0000 0.0000 -4.2225 0.0000 14.6840
#
#
#
# Elastic Compliance Matrix: (Units=1/GPa)
#
#
# Indices 1 2 3 4 5 6 
#
# 1 0.013955 0.001166 -0.005200 0.000000 -0.007193 0.000000
# 2 0.001166 0.018537 -0.003453 0.000000 -0.000880 0.000000
# 3 -0.005200 -0.003453 0.011427 0.000000 0.005807 0.000000
# 4 0.000000 0.000000 0.000000 0.069682 0.000000 0.020038
# 5 -0.007193 -0.000880 0.005807 0.000000 0.021915 0.000000
# 6 0.000000 0.000000 0.000000 0.020038 0.000000 0.073863
#
#
# Mechanical properties :
#
#
# Convention : Reuss Voigt Hill
#
# Bulk Modulus (GPa) = 34.54989 41.66488 38.10739
# Shear Modulus (GPa) = 21.36745 32.27554 26.82150
#
# Velocity S-wave (km/s) = 3.04636 3.74405 3.41308
# Velocity P-wave (km/s) = 5.23254 6.06519 5.66418
#
# Compressibility (1/GPa) = 0.02894365
#
# Stress axis : x y z
#
# Youngs Moduli (GPa) = 71.65956 53.94671 87.51479
#
# Poissons Ratio (x) = -0.06291 0.45512
# Poissons Ratio (y) = -0.08356 0.30219
# Poissons Ratio (z) = 0.37266 0.18628
#
# Static dielectric constant tensor:
#      x y z
#    x 4.613480 0.000000 0.011520 
#    y 0.000000 3.624990 0.000000 
#    z 0.011520 0.000000 4.276540 
# 
# 
# High freq. dielectric constant tensor:
#      x y z
#    x 1.945210 0.000000 0.002990 
#    y 0.000000 1.858190 0.000000 
#    z 0.002990 0.000000 1.907200 
# 
# From -- ./inp_files/42159.got.cif
#   From: 2010.06.25/outbox.cif.g09.slc.cpg/sg12_22_cif.got.tgz:42159.got - 2010.06.28 00:19:55.
