data_PCOD8109136
_publ_section_title
;
Structure prediction by ZEFSAII (Michael W. Deem and Ramdas Pophale) SiO2 
 PCOD8109136
Probable space group: C 2/M
;
_chemical_formula_sum "Si O2"
_cell_formula_units_Z 48
_cell_length_a 18.659451
_cell_length_b 8.609433
_cell_length_c 15.048479
_cell_angle_alpha 90.000000
_cell_angle_beta 90.585938
_cell_angle_gamma 90.000000
_cell_volume 2417.371006
_symmetry_space_group_name_H-M "C 2/M"
_symmetry_group_IT_number 12
_symmetry_cell_setting 'monoclinic'
loop_
_space_group_symop_operation_xyz
x,y,z
-x,y,-z
-x,-y,-z
x,-y,z
1/2+x,1/2+y,z
1/2-x,1/2+y,-z
1/2-x,1/2-y,-z
1/2+x,1/2-y,z
loop_
_atom_site_type_symbol
_atom_site_label
_atom_site_fract_x
_atom_site_fract_y
_atom_site_fract_z
Si Si1 0.331348 0.678961 0.739050
Si Si2 0.423272 0.818994 0.591024
Si Si3 0.178444 0.180185 0.757045
Si Si4 0.586494 0.178936 0.904030
Si Si5 0.078358 0.678979 0.107894
Si Si6 0.924740 0.182087 0.403836
O O1 0.339804 0.500000 0.713804
O O2 0.359660 0.781117 0.657682
O O3 0.248986 0.717123 0.754337
O O4 0.375227 0.711784 0.828944
O O5 0.399254 0.770382 0.492021
O O6 0.494657 0.728466 0.621856
O O7 0.440552 0.000000 0.592999
O O8 0.138200 0.210744 0.848904
O O9 0.127516 0.232151 0.675788
O O10 0.199104 0.000000 0.751533
O O11 0.504691 0.222269 0.880980
O O12 0.601150 0.000000 0.879806
O O13 0.602825 0.209236 0.007477
O O14 0.091393 0.500000 0.134210
O O15 0.921900 0.000000 0.422429
#
# Coordination Sequence:
#
# PCOD8109136 Si02
#       6
#     8   8   8   8   8   8
#     4  12  25  39  57  82 115 154 192 234 284 337
#     4  11  22  38  62  88 115 149 188 232 283 337
#     4  11  24  39  57  83 116 153 190 233 283 336
#     4   9  19  37  62  88 114 148 187 232 283 335
#     4   9  19  38  62  87 115 147 188 234 281 336
#     4  10  21  39  62  88 116 147 189 236 280 331
#
# _framework density 19.856282
#
# number of rings (size 3 to 8) (size 9 to 14) (size 15 to 20)
#    0.000    1.667    0.000    7.000    0.000    8.000 
#    0.000    1.667    0.000    0.000    0.000    0.000 
#    0.000    0.000    0.000    0.000    0.000    0.000 
#
# Total GULP energy -297741.208885 kJ/mol
# GULP energy per Si atom -12405.883704 kJ/mol
# Density = 1.981109 g / cm^3
# Si number density = 19.856282 Si / 1000 Ang^3
#
#
#
# Elastic Constant Matrix: (Units=GPa)
#
#
# Indices 1 2 3 4 5 6 
#
# 1 83.5019 20.4328 48.4527 0.0000 -15.7460 0.0000
# 2 20.4328 65.0675 29.9908 0.0000 1.3618 0.0000
# 3 48.4527 29.9908 98.8220 0.0000 -15.8264 0.0000
# 4 0.0000 0.0000 0.0000 26.8572 0.0000 -20.1536
# 5 -15.7460 1.3618 -15.8264 0.0000 11.9527 0.0000
# 6 0.0000 0.0000 0.0000 -20.1536 0.0000 0.9127
#
#
#
# Elastic Compliance Matrix: (Units=1/GPa)
#
#
# Indices 1 2 3 4 5 6 
#
# 1 0.019739 -0.004164 -0.005297 0.000000 0.019464 0.000000
# 2 -0.004164 0.020135 -0.006745 0.000000 -0.016711 0.000000
# 3 -0.005297 -0.006745 0.017474 0.000000 0.016928 0.000000
# 4 0.000000 0.000000 0.000000 -0.002391 0.000000 -0.052806
# 5 0.019464 -0.016711 0.016928 0.000000 0.133621 0.000000
# 6 0.000000 0.000000 0.000000 -0.052806 0.000000 -0.070370
#
#
# Mechanical properties :
#
#
# Convention : Reuss Voigt Hill
#
# Bulk Modulus (GPa) = 40.10395 49.46045 44.78220
# Shear Modulus (GPa) = 31.45988 17.84553 24.65271
#
# Velocity S-wave (km/s) = 3.98474 3.00114 3.52740
# Velocity P-wave (km/s) = 6.43521 6.08050 6.26036
#
# Compressibility (1/GPa) = 0.02493520
#
# Stress axis : x y z
#
# Youngs Moduli (GPa) = 50.66200 49.66464 57.22639
#
# Poissons Ratio (x) = 0.20682 0.30313
# Poissons Ratio (y) = 0.21097 0.38600
# Poissons Ratio (z) = 0.26836 0.33500
#
# Static dielectric constant tensor:
#      x y z
#    x 3.504520 0.000000 0.026400 
#    y 0.000000 3.545290 0.000000 
#    z 0.026400 0.000000 3.671000 
# 
# 
# High freq. dielectric constant tensor:
#      x y z
#    x 1.769430 0.000000 -0.001990 
#    y 0.000000 1.777860 0.000000 
#    z -0.001990 0.000000 1.786070 
# 
# From -- ./inp_files/221656.got.cif
#   From: 2010.06.25/outbox.cif.g09.slc.cpg/sg12_111_cif.got.tgz:221656.got - 2010.06.28 00:19:55.
