data_PCOD8109261
_publ_section_title
;
Structure prediction by ZEFSAII (Michael W. Deem and Ramdas Pophale) SiO2 
 PCOD8109261
Probable space group: C 2/M
;
_chemical_formula_sum "Si O2"
_cell_formula_units_Z 64
_cell_length_a 13.976844
_cell_length_b 13.433614
_cell_length_c 31.642562
_cell_angle_alpha 90.000000
_cell_angle_beta 148.749508
_cell_angle_gamma 90.000000
_cell_volume 3082.175396
_symmetry_space_group_name_H-M "C 2/M"
_symmetry_group_IT_number 12
_symmetry_cell_setting 'monoclinic'
loop_
_space_group_symop_operation_xyz
x,y,z
-x,y,-z
-x,-y,-z
x,-y,z
1/2+x,1/2+y,z
1/2-x,1/2+y,-z
1/2-x,1/2-y,-z
1/2+x,1/2-y,z
loop_
_atom_site_type_symbol
_atom_site_label
_atom_site_fract_x
_atom_site_fract_y
_atom_site_fract_z
Si Si1 0.115088 0.614144 0.939321
Si Si2 0.994316 0.762544 0.296445
Si Si3 0.758785 0.613606 0.250366
Si Si4 0.636977 0.695626 0.896353
Si Si5 0.248062 0.116313 0.853658
Si Si6 0.983311 0.389888 0.572256
Si Si7 0.064141 0.887269 0.406190
Si Si8 0.884631 0.200604 0.417897
O O1 0.121667 0.500000 0.925996
O O2 0.124853 0.686423 0.902217
O O3 0.928822 0.636981 0.894428
O O4 0.288190 0.635819 0.034888
O O5 0.830244 0.682013 0.239007
O O6 0.931790 0.845176 0.239132
O O7 0.037288 0.815796 0.356627
O O8 0.168391 0.700296 0.345647
O O9 0.746171 0.500000 0.230287
O O10 0.561230 0.652020 0.191047
O O11 0.903896 0.627023 0.342664
O O12 0.767452 0.676196 0.905143
O O13 0.222821 0.000000 0.854183
O O14 0.016463 0.500000 0.566312
O O15 0.768721 0.372484 0.502244
O O16 0.048695 0.314574 0.561101
O O17 0.919615 0.860294 0.388282
O O18 0.027301 0.000000 0.377638
O O19 0.000000 0.151600 0.500000
#
# Coordination Sequence:
#
# PCOD8109261 Si02
#       8
#     8   8   8   8   8   8   8   8
#     4  10  22  42  70  99 131 169 209 257 316 380
#     4  12  24  40  62  90 127 167 212 266 318 373
#     4  11  22  39  62  89 125 167 209 256 317 379
#     4  11  22  41  69  97 132 167 211 259 317 375
#     4  11  23  40  65  98 128 165 215 265 313 376
#     4  10  21  39  63  88 120 162 209 262 316 369
#     4  11  24  43  63  88 124 168 214 265 319 376
#     4  12  23  37  62  87 122 160 214 263 320 371
#
# _framework density 20.764555000000001
#
# number of rings (size 3 to 8) (size 9 to 14) (size 15 to 20)
#    0.000    1.000    3.750    3.750    0.000    4.000 
#    0.000    0.625    0.000    1.500    0.000    0.000 
#    0.000    0.000    0.000    0.000    0.000    0.000 
#
# Total GULP energy -396936.306803 kJ/mol
# GULP energy per Si atom -12404.259588 kJ/mol
# Density = 2.071729 g / cm^3
# Si number density = 20.764555 Si / 1000 Ang^3
#
#
#
# Elastic Constant Matrix: (Units=GPa)
#
#
# Indices 1 2 3 4 5 6 
#
# 1 71.5805 29.6871 17.0354 0.0000 -4.5638 0.0000
# 2 29.6871 120.5042 31.2914 0.0000 -5.6946 0.0000
# 3 17.0354 31.2914 78.1764 -0.0001 -3.1348 0.0000
# 4 0.0000 0.0000 -0.0001 25.3779 0.0000 -0.7993
# 5 -4.5638 -5.6946 -3.1348 0.0000 30.5587 0.0000
# 6 0.0000 0.0000 0.0000 -0.7993 0.0000 26.7485
#
#
#
# Elastic Compliance Matrix: (Units=1/GPa)
#
#
# Indices 1 2 3 4 5 6 
#
# 1 0.015939 -0.003312 -0.002085 0.000000 0.001549 0.000000
# 2 -0.003312 0.010005 -0.003241 0.000000 0.001037 0.000000
# 3 -0.002085 -0.003241 0.014567 0.000000 0.000579 0.000000
# 4 0.000000 0.000000 0.000000 0.039441 0.000000 0.001179
# 5 0.001549 0.001037 0.000579 0.000000 0.033208 0.000000
# 6 0.000000 0.000000 0.000000 0.001179 0.000000 0.037421
#
#
# Mechanical properties :
#
#
# Convention : Reuss Voigt Hill
#
# Bulk Modulus (GPa) = 43.04203 47.36543 45.20373
# Shear Modulus (GPa) = 28.47336 29.35350 28.91343
#
# Velocity S-wave (km/s) = 3.70705 3.76391 3.73559
# Velocity P-wave (km/s) = 6.25273 6.46139 6.35792
#
# Compressibility (1/GPa) = 0.02323310
#
# Stress axis : x y z
#
# Youngs Moduli (GPa) = 62.73930 99.94901 68.64988
#
# Poissons Ratio (x) = 0.33102 0.14317
# Poissons Ratio (y) = 0.20779 0.22252
# Poissons Ratio (z) = 0.13084 0.32398
#
# Static dielectric constant tensor:
#      x y z
#    x 3.658510 0.000000 0.105190 
#    y 0.000000 3.928110 0.000000 
#    z 0.105190 0.000000 3.736180 
# 
# 
# High freq. dielectric constant tensor:
#      x y z
#    x 1.805000 0.000000 0.008700 
#    y 0.000000 1.817790 0.000000 
#    z 0.008700 0.000000 1.815110 
# 
# From -- ./inp_files/358454.got.cif
#   From: 2010.06.25/outbox.cif.g09.slc.cpg/sg12_180_cif.got.tgz:358454.got - 2010.06.28 00:19:55.
