data_PCOD8109169
_publ_section_title
;
Structure prediction by ZEFSAII (Michael W. Deem and Ramdas Pophale) SiO2 
 PCOD8109169
Probable space group: C 2/M
;
_chemical_formula_sum "Si O2"
_cell_formula_units_Z 56
_cell_length_a 27.160011
_cell_length_b 13.704172
_cell_length_c 8.965464
_cell_angle_alpha 90.000000
_cell_angle_beta 121.487112
_cell_angle_gamma 90.000000
_cell_volume 2845.647810
_symmetry_space_group_name_H-M "C 2/M"
_symmetry_group_IT_number 12
_symmetry_cell_setting 'monoclinic'
loop_
_space_group_symop_operation_xyz
x,y,z
-x,y,-z
-x,-y,-z
x,-y,z
1/2+x,1/2+y,z
1/2-x,1/2+y,-z
1/2-x,1/2-y,-z
1/2+x,1/2-y,z
loop_
_atom_site_type_symbol
_atom_site_label
_atom_site_fract_x
_atom_site_fract_y
_atom_site_fract_z
Si Si1 0.275970 0.229455 0.383205
Si Si2 0.695460 0.273916 0.012349
Si Si3 0.115520 0.387000 0.351990
Si Si4 0.470355 0.604956 0.610158
Si Si5 0.112656 0.613904 0.005423
Si Si6 0.501864 0.186754 0.323539
Si Si7 0.659000 0.611995 0.689416
O O1 0.250000 0.250000 0.500000
O O2 0.331272 0.160986 0.477664
O O3 0.293584 0.331444 0.333441
O O4 0.223188 0.179848 0.206489
O O5 0.660112 0.175958 0.992743
O O6 0.655639 0.348708 0.855636
O O7 0.750000 0.250000 0.000000
O O8 0.128644 0.500000 0.370960
O O9 0.058629 0.366816 0.356429
O O10 0.109310 0.349920 0.171772
O O11 0.500000 0.591151 0.500000
O O12 0.478537 0.500000 0.709626
O O13 0.497810 0.699808 0.734030
O O14 0.402853 0.627242 0.483473
O O15 0.128969 0.500000 0.019476
O O16 0.051207 0.630380 0.831512
O O17 0.500000 0.182836 0.500000
O O18 0.677957 0.500000 0.723128
#
# Coordination Sequence:
#
# PCOD8109169 Si02
#       7
#     8   8   8   8   8   8   8
#     4  11  22  41  63  89 125 166 213 266 317 369
#     4  10  22  38  61  90 123 161 208 264 312 366
#     4  11  24  42  62  90 127 171 213 254 316 387
#     4   9  17  32  59  87 117 154 193 244 307 366
#     4  11  24  42  64  90 127 173 209 254 319 381
#     4  11  22  39  64  95 130 161 207 264 316 373
#     4  10  21  39  62  89 121 161 207 257 319 378
#
# _framework density 19.679174
#
# number of rings (size 3 to 8) (size 9 to 14) (size 15 to 20)
#    0.000    1.571    2.857    2.571    2.000    5.714 
#    0.000    0.000    0.000    3.429    0.000    0.000 
#    0.000    0.000    0.000    0.000    0.000    0.000 
#
# Total GULP energy -347041.419604 kJ/mol
# GULP energy per Si atom -12394.336414 kJ/mol
# Density = 1.963438 g / cm^3
# Si number density = 19.679174 Si / 1000 Ang^3
#
#
#
# Elastic Constant Matrix: (Units=GPa)
#
#
# Indices 1 2 3 4 5 6 
#
# 1 109.1820 36.1597 32.6356 0.0000 -0.3284 0.0000
# 2 36.1597 108.4605 42.3046 0.0000 -4.6274 0.0000
# 3 32.6356 42.3046 85.1964 0.0000 -6.6858 0.0000
# 4 0.0000 0.0000 0.0000 26.9068 0.0000 -1.7856
# 5 -0.3284 -4.6274 -6.6858 0.0000 31.5173 0.0000
# 6 0.0000 0.0000 0.0000 -1.7856 0.0000 27.3263
#
#
#
# Elastic Compliance Matrix: (Units=1/GPa)
#
#
# Indices 1 2 3 4 5 6 
#
# 1 0.010879 -0.002496 -0.002998 0.000000 -0.000889 0.000000
# 2 -0.002496 0.012014 -0.004956 0.000000 0.000687 0.000000
# 3 -0.002998 -0.004956 0.015546 0.000000 0.002539 0.000000
# 4 0.000000 0.000000 0.000000 0.037327 0.000000 0.002439
# 5 -0.000889 0.000687 0.002539 0.000000 0.032359 0.000000
# 6 0.000000 0.000000 0.000000 0.002439 0.000000 0.036754
#
#
# Mechanical properties :
#
#
# Convention : Reuss Voigt Hill
#
# Bulk Modulus (GPa) = 57.01062 58.33764 57.67413
# Shear Modulus (GPa) = 29.13328 29.93267 29.53298
#
# Velocity S-wave (km/s) = 3.85179 3.90427 3.87812
# Velocity P-wave (km/s) = 6.98674 7.07341 7.03021
#
# Compressibility (1/GPa) = 0.01754059
#
# Stress axis : x y z
#
# Youngs Moduli (GPa) = 91.92069 83.23437 64.32484
#
# Poissons Ratio (x) = 0.20772 0.19284
# Poissons Ratio (y) = 0.22939 0.31879
# Poissons Ratio (z) = 0.27557 0.41250
#
# Static dielectric constant tensor:
#      x y z
#    x 3.748360 0.000000 0.155030 
#    y 0.000000 3.895790 0.000000 
#    z 0.155030 0.000000 4.473190 
# 
# 
# High freq. dielectric constant tensor:
#      x y z
#    x 1.775840 0.000000 0.011170 
#    y 0.000000 1.767170 0.000000 
#    z 0.011170 0.000000 1.763420 
# 
# From -- ./inp_files/111728.got.cif
#   From: 2010.06.25/outbox.cif.g09.slc.cpg/sg12_56_cif.got.tgz:111728.got - 2010.06.28 00:19:55.
