data_PCOD8109808
_publ_section_title
;
Structure prediction by ZEFSAII (Michael W. Deem and Ramdas Pophale) SiO2 
 PCOD8109808
Probable space group: C 2/M
;
_chemical_formula_sum "Si O2"
_cell_formula_units_Z 64
_cell_length_a 29.700756
_cell_length_b 8.372849
_cell_length_c 14.594824
_cell_angle_alpha 90.000000
_cell_angle_beta 61.022152
_cell_angle_gamma 90.000000
_cell_volume 3175.059842
_symmetry_space_group_name_H-M "C 2/M"
_symmetry_group_IT_number 12
_symmetry_cell_setting 'monoclinic'
loop_
_space_group_symop_operation_xyz
x,y,z
-x,y,-z
-x,-y,-z
x,-y,z
1/2+x,1/2+y,z
1/2-x,1/2+y,-z
1/2-x,1/2-y,-z
1/2+x,1/2-y,z
loop_
_atom_site_type_symbol
_atom_site_label
_atom_site_fract_x
_atom_site_fract_y
_atom_site_fract_z
Si Si1 0.140886 0.684760 0.433360
Si Si2 0.880302 0.814865 0.737478
Si Si3 0.251430 0.688736 0.395537
Si Si4 0.357668 0.183975 0.235108
Si Si5 0.965461 0.187998 0.791226
Si Si6 0.919824 0.186187 0.338444
Si Si7 0.115518 0.186474 0.982969
Si Si8 0.806758 0.314628 0.952055
O O1 0.139295 0.500000 0.408737
O O2 0.117708 0.785246 0.372524
O O3 0.199046 0.740515 0.396721
O O4 0.106008 0.714195 0.555683
O O5 0.934651 0.762671 0.729460
O O6 0.834632 0.712108 0.827240
O O7 0.869780 0.000000 0.769100
O O8 0.258491 0.500000 0.389377
O O9 0.250000 0.750000 0.500000
O O10 0.297717 0.768613 0.293834
O O11 0.387808 0.292582 0.277496
O O12 0.381711 0.211881 0.111950
O O13 0.363640 0.000000 0.257206
O O14 0.022896 0.258963 0.731835
O O15 0.969867 0.000000 0.794518
O O16 0.934514 0.248449 0.911507
O O17 0.920776 0.000000 0.364048
O O18 0.112083 0.000000 0.961732
O O19 0.165645 0.215252 0.995266
O O20 0.806985 0.500000 0.977845
O O21 0.750000 0.250000 0.000000
#
# Coordination Sequence:
#
# PCOD8109808 Si02
#       8
#     8   8   8   8   8   8   8   8
#     4  11  24  40  59  90 125 157 199 249 302 360
#     4  10  21  40  63  88 120 159 202 247 298 356
#     4  11  23  40  62  85 120 161 200 246 300 356
#     4  12  25  40  59  90 126 159 202 248 301 362
#     4   8  19  40  65  90 117 155 203 252 297 355
#     4  11  22  40  65  89 117 158 206 251 301 357
#     4  10  21  41  64  88 120 158 202 248 298 355
#     4  11  22  38  59  87 121 158 199 246 299 356
#
# _framework density 20.1571
#
# number of rings (size 3 to 8) (size 9 to 14) (size 15 to 20)
#    0.000    1.500    1.250    4.875    1.750    2.500 
#    0.000   12.500    0.000    0.000    0.000    0.000 
#    0.000    0.000    0.000    0.000    0.000    0.000 
#
# Total GULP energy -396943.924139 kJ/mol
# GULP energy per Si atom -12404.497629 kJ/mol
# Density = 2.011122 g / cm^3
# Si number density = 20.157100 Si / 1000 Ang^3
#
#
#
# Elastic Constant Matrix: (Units=GPa)
#
#
# Indices 1 2 3 4 5 6 
#
# 1 99.8252 13.3210 78.7069 0.0000 -22.8085 0.0000
# 2 13.3210 61.6335 12.9337 0.0000 -7.4495 0.0000
# 3 78.7069 12.9337 113.8430 0.0000 3.0935 0.0000
# 4 0.0000 0.0000 0.0000 34.6574 0.0000 3.6662
# 5 -22.8085 -7.4495 3.0935 0.0000 38.3066 0.0000
# 6 0.0000 0.0000 0.0000 3.6662 0.0000 25.8191
#
#
#
# Elastic Compliance Matrix: (Units=1/GPa)
#
#
# Indices 1 2 3 4 5 6 
#
# 1 0.034342 0.000418 -0.024402 0.000000 0.022500 0.000000
# 2 0.000418 0.017078 -0.002331 0.000000 0.003758 0.000000
# 3 -0.024402 -0.002331 0.026384 0.000000 -0.017113 0.000000
# 4 0.000000 0.000000 0.000000 0.029294 0.000000 -0.004160
# 5 0.022500 0.003758 -0.017113 0.000000 0.041615 0.000000
# 6 0.000000 0.000000 0.000000 -0.004160 0.000000 0.039322
#
#
# Mechanical properties :
#
#
# Convention : Reuss Voigt Hill
#
# Bulk Modulus (GPa) = 39.72321 53.91390 46.81855
# Shear Modulus (GPa) = 20.07575 31.11262 25.59419
#
# Velocity S-wave (km/s) = 3.15931 3.93301 3.56720
# Velocity P-wave (km/s) = 5.74960 6.88692 6.34380
#
# Compressibility (1/GPa) = 0.02517420
#
# Stress axis : x y z
#
# Youngs Moduli (GPa) = 29.11879 58.55456 37.90127
#
# Poissons Ratio (x) = -0.02446 0.92486
# Poissons Ratio (y) = -0.01216 0.08835
# Poissons Ratio (z) = 0.71055 0.13650
#
# Static dielectric constant tensor:
#      x y z
#    x 3.920740 0.000000 -0.120140 
#    y 0.000000 3.579230 0.000000 
#    z -0.120140 0.000000 3.778840 
# 
# 
# High freq. dielectric constant tensor:
#      x y z
#    x 1.790970 0.000000 -0.001950 
#    y 0.000000 1.785140 0.000000 
#    z -0.001950 0.000000 1.791730 
# 
# From -- ./inp_files/249056.got.cif
#   From: 2010.06.25/outbox.cif.g09.slc.cpg/sg12_125_cif.got.tgz:249056.got - 2010.06.28 00:19:55.
