data_PCOD8109395
_publ_section_title
;
Structure prediction by ZEFSAII (Michael W. Deem and Ramdas Pophale) SiO2 
 PCOD8109395
Probable space group: C 2/M
;
_chemical_formula_sum "Si O2"
_cell_formula_units_Z 36
_cell_length_a 29.163937
_cell_length_b 11.740563
_cell_length_c 4.923408
_cell_angle_alpha 90.000000
_cell_angle_beta 98.073462
_cell_angle_gamma 90.000000
_cell_volume 1669.071938
_symmetry_space_group_name_H-M "C 2/M"
_symmetry_group_IT_number 12
_symmetry_cell_setting 'monoclinic'
loop_
_space_group_symop_operation_xyz
x,y,z
-x,y,-z
-x,-y,-z
x,-y,z
1/2+x,1/2+y,z
1/2-x,1/2+y,-z
1/2-x,1/2-y,-z
1/2+x,1/2-y,z
loop_
_atom_site_type_symbol
_atom_site_label
_atom_site_fract_x
_atom_site_fract_y
_atom_site_fract_z
Si Si1 0.950892 0.132908 0.317102
Si Si2 0.034031 0.500000 0.273947
Si Si3 0.417454 0.760560 0.777473
Si Si4 0.730799 0.875374 0.694636
Si Si5 0.687683 0.777320 0.172260
O O1 0.914543 0.184762 0.502000
O O2 0.000000 0.152648 0.500000
O O3 0.940617 0.000000 0.251586
O O4 0.950169 0.201318 0.032018
O O5 0.066040 0.387605 0.288832
O O6 0.000000 0.500000 0.500000
O O7 0.000000 0.500000 0.000000
O O8 0.366823 0.760818 0.863517
O O9 0.704262 0.878874 0.384002
O O10 0.783630 0.832983 0.700912
O O11 0.732837 0.000000 0.821100
O O12 0.700886 0.797807 0.871752
#
# Coordination Sequence:
#
# PCOD8109395 Si02
#       5
#     8   4   8   8   8
#     4  11  24  43  67  93 126 169 212 269 330 383
#     4  12  26  42  64  94 132 178 212 266 326 374
#     4  12  24  42  66  96 131 167 220 270 311 400
#     4  10  21  39  64  85 130 163 200 264 316 385
#     4  10  23  40  59  98 118 164 217 250 322 373
#
# _framework density 21.568871999999999
#
# number of rings (size 3 to 8) (size 9 to 14) (size 15 to 20)
#    0.000    1.111    0.000    6.667    3.111    3.556 
#    0.000    0.000    0.000    0.000    0.000    0.000 
#    0.000    0.000    0.000    0.000    0.000    0.000 
#
# Total GULP energy -223186.459596 kJ/mol
# GULP energy per Si atom -12399.247755 kJ/mol
# Density = 2.151978 g / cm^3
# Si number density = 21.568872 Si / 1000 Ang^3
#
#
#
# Elastic Constant Matrix: (Units=GPa)
#
#
# Indices 1 2 3 4 5 6 
#
# 1 120.0259 34.8337 16.1484 0.0000 -9.0022 0.0000
# 2 34.8337 128.3606 33.7697 0.0000 -2.3887 0.0000
# 3 16.1484 33.7697 109.5553 0.0000 -12.3107 0.0000
# 4 0.0000 0.0000 0.0000 26.5043 0.0000 -8.5214
# 5 -9.0022 -2.3887 -12.3107 0.0000 32.8128 0.0000
# 6 0.0000 0.0000 0.0000 -8.5214 0.0000 10.2998
#
#
#
# Elastic Compliance Matrix: (Units=1/GPa)
#
#
# Indices 1 2 3 4 5 6 
#
# 1 0.009236 -0.002364 -0.000383 0.000000 0.002218 0.000000
# 2 -0.002364 0.009088 -0.002559 0.000000 -0.000947 0.000000
# 3 -0.000383 -0.002559 0.010378 0.000000 0.003602 0.000000
# 4 0.000000 0.000000 0.000000 0.051403 0.000000 0.042528
# 5 0.002218 -0.000947 0.003602 0.000000 0.032367 0.000000
# 6 0.000000 0.000000 0.000000 0.042528 0.000000 0.132274
#
#
# Mechanical properties :
#
#
# Convention : Reuss Voigt Hill
#
# Bulk Modulus (GPa) = 55.28577 58.60504 56.94541
# Shear Modulus (GPa) = 19.12864 32.13605 25.63235
#
# Velocity S-wave (km/s) = 2.98126 3.86415 3.45105
# Velocity P-wave (km/s) = 6.12686 6.86578 6.50682
#
# Compressibility (1/GPa) = 0.01808784
#
# Stress axis : x y z
#
# Youngs Moduli (GPa) = 108.27694 110.03777 96.35819
#
# Poissons Ratio (x) = 0.26015 0.03694
# Poissons Ratio (y) = 0.25598 0.24660
# Poissons Ratio (z) = 0.04151 0.28161
#
# Static dielectric constant tensor:
#      x y z
#    x 3.786220 0.000000 -0.089690 
#    y 0.000000 4.104160 0.000000 
#    z -0.089690 0.000000 4.034100 
# 
# 
# High freq. dielectric constant tensor:
#      x y z
#    x 1.844600 0.000000 -0.009930 
#    y 0.000000 1.844790 0.000000 
#    z -0.009930 0.000000 1.865570 
# 
# From -- ./inp_files/27264.got.cif
#   From: 2010.06.25/outbox.cif.g09.slc.cpg/sg12_14_cif.got.tgz:27264.got - 2010.06.28 00:19:55.
