data_PCOD8109161
_publ_section_title
;
Structure prediction by ZEFSAII (Michael W. Deem and Ramdas Pophale) SiO2 
 PCOD8109161
Probable space group: C 2/M
;
_chemical_formula_sum "Si O2"
_cell_formula_units_Z 56
_cell_length_a 28.148384
_cell_length_b 8.884902
_cell_length_c 20.880978
_cell_angle_alpha 90.000000
_cell_angle_beta 32.776127
_cell_angle_gamma 90.000000
_cell_volume 2827.101807
_symmetry_space_group_name_H-M "C 2/M"
_symmetry_group_IT_number 12
_symmetry_cell_setting 'monoclinic'
loop_
_space_group_symop_operation_xyz
x,y,z
-x,y,-z
-x,-y,-z
x,-y,z
1/2+x,1/2+y,z
1/2-x,1/2+y,-z
1/2-x,1/2-y,-z
1/2+x,1/2-y,z
loop_
_atom_site_type_symbol
_atom_site_label
_atom_site_fract_x
_atom_site_fract_y
_atom_site_fract_z
Si Si1 0.424206 0.674276 0.134088
Si Si2 0.830843 0.173690 0.825530
Si Si3 0.724869 0.824806 0.348023
Si Si4 0.957571 0.673427 0.229689
Si Si5 0.638451 0.171146 0.082610
Si Si6 0.180053 0.821743 0.532061
Si Si7 0.097836 0.677782 0.379661
O O1 0.440604 0.500000 0.131959
O O2 0.327486 0.699595 0.213531
O O3 0.427351 0.766993 0.195613
O O4 0.500000 0.732837 0.000000
O O5 0.876570 0.219838 0.840186
O O6 0.870491 0.272591 0.725064
O O7 0.849883 0.000000 0.790217
O O8 0.727788 0.211478 0.944960
O O9 0.697664 0.729408 0.440216
O O10 0.665007 0.763155 0.357818
O O11 0.706682 0.000000 0.383126
O O12 0.928905 0.500000 0.267620
O O13 0.914554 0.765326 0.336851
O O14 0.061770 0.694616 0.118055
O O15 0.641177 0.000000 0.105327
O O16 0.250000 0.750000 0.500000
O O17 0.185581 0.000000 0.529988
O O18 0.095944 0.500000 0.384231
O O19 0.000000 0.743890 0.500000
#
# Coordination Sequence:
#
# PCOD8109161 Si02
#       7
#     8   8   8   8   8   8   8
#     4  10  22  39  60  89 123 159 200 246 297 359
#     4  10  21  39  62  89 119 153 200 253 301 350
#     4  10  22  41  62  86 120 162 202 245 298 358
#     4  11  23  39  62  90 120 159 200 244 299 360
#     4   9  21  40  61  87 120 157 196 243 302 362
#     4  12  24  40  62  89 121 156 198 247 297 351
#     4  10  23  41  61  86 119 162 203 242 298 362
#
# _framework density 19.808271000000001
#
# number of rings (size 3 to 8) (size 9 to 14) (size 15 to 20)
#    0.000    1.714    1.429    2.143    4.000    2.857 
#    0.000    0.000    0.000    0.000    0.000    0.000 
#    0.000    0.000    0.000    0.000    0.000    0.000 
#
# Total GULP energy -347289.547658 kJ/mol
# GULP energy per Si atom -12403.198131 kJ/mol
# Density = 1.976319 g / cm^3
# Si number density = 19.808271 Si / 1000 Ang^3
#
#
#
# Elastic Constant Matrix: (Units=GPa)
#
#
# Indices 1 2 3 4 5 6 
#
# 1 109.2052 24.4901 48.2814 -0.0059 -18.3908 0.0012
# 2 24.4901 56.8589 30.6547 -0.0218 -7.6729 0.0131
# 3 48.2814 30.6547 126.1041 -0.0082 -4.6045 0.0044
# 4 -0.0059 -0.0218 -0.0082 30.2352 0.0079 7.0992
# 5 -18.3908 -7.6729 -4.6045 0.0079 25.4830 -0.0043
# 6 0.0012 0.0131 0.0044 7.0992 -0.0043 24.7904
#
#
#
# Elastic Compliance Matrix: (Units=1/GPa)
#
#
# Indices 1 2 3 4 5 6 
#
# 1 0.012771 -0.002262 -0.004055 -0.000003 0.007803 0.000004
# 2 -0.002262 0.021360 -0.004179 0.000016 0.004044 -0.000014
# 3 -0.004055 -0.004179 0.010414 0.000000 -0.002303 0.000000
# 4 -0.000003 0.000016 0.000000 0.035458 -0.000010 -0.010154
# 5 0.007803 0.004044 -0.002303 -0.000010 0.045675 0.000009
# 6 0.000004 -0.000014 0.000000 -0.010154 0.000009 0.043246
#
#
# Mechanical properties :
#
#
# Convention : Reuss Voigt Hill
#
# Bulk Modulus (GPa) = 42.45431 55.44674 48.95052
# Shear Modulus (GPa) = 25.28226 28.68454 26.98340
#
# Velocity S-wave (km/s) = 3.57648 3.80953 3.69484
# Velocity P-wave (km/s) = 6.20758 6.88495 6.55502
#
# Compressibility (1/GPa) = 0.02355473
#
# Stress axis : x y z
#
# Youngs Moduli (GPa) = 78.30175 46.81586 96.02222
#
# Poissons Ratio (x) = 0.10588 0.38937
# Poissons Ratio (y) = 0.17708 0.40127
# Poissons Ratio (z) = 0.31751 0.19564
#
# Static dielectric constant tensor:
#      x y z
#    x 4.302960 -0.000260 -0.037460 
#    y -0.000260 3.590090 -0.000050 
#    z -0.037460 -0.000050 3.860420 
# 
# 
# High freq. dielectric constant tensor:
#      x y z
#    x 1.775900 0.000000 -0.009390 
#    y 0.000000 1.769110 0.000000 
#    z -0.009390 0.000000 1.780350 
# 
# From -- ./inp_files/292395.got.cif
#   From: 2010.06.25/outbox.cif.g09.slc.cpg/sg12_147_cif.got.tgz:292395.got - 2010.06.28 00:19:55.
