data_PCOD8109448
_publ_section_title
;
Structure prediction by ZEFSAII (Michael W. Deem and Ramdas Pophale) SiO2 
 PCOD8109448
Probable space group: C 2/M
;
_chemical_formula_sum "Si O2"
_cell_formula_units_Z 56
_cell_length_a 18.636734
_cell_length_b 8.497617
_cell_length_c 27.239766
_cell_angle_alpha 90.000000
_cell_angle_beta 141.339159
_cell_angle_gamma 90.000000
_cell_volume 2694.934287
_symmetry_space_group_name_H-M "C 2/M"
_symmetry_group_IT_number 12
_symmetry_cell_setting 'monoclinic'
loop_
_space_group_symop_operation_xyz
x,y,z
-x,y,-z
-x,-y,-z
x,-y,z
1/2+x,1/2+y,z
1/2-x,1/2+y,-z
1/2-x,1/2-y,-z
1/2+x,1/2-y,z
loop_
_atom_site_type_symbol
_atom_site_label
_atom_site_fract_x
_atom_site_fract_y
_atom_site_fract_z
Si Si1 0.160395 0.814928 0.794586
Si Si2 0.623959 0.318013 0.934258
Si Si3 0.159662 0.686245 0.490716
Si Si4 0.231140 0.684258 0.634450
Si Si5 0.519992 0.182420 0.228908
Si Si6 0.398920 0.813187 0.339087
Si Si7 0.888519 0.676865 0.972890
O O1 0.053558 0.728231 0.762775
O O2 0.167765 0.764963 0.741899
O O3 0.278236 0.761764 0.883820
O O4 0.141906 0.000000 0.789209
O O5 0.619587 0.500000 0.916418
O O6 0.548195 0.217132 0.856992
O O7 0.750000 0.250000 0.000000
O O8 0.580906 0.294299 0.966573
O O9 0.170216 0.500000 0.497054
O O10 0.250000 0.750000 0.500000
O O11 0.186679 0.756584 0.559215
O O12 0.031665 0.739850 0.407937
O O13 0.209379 0.500000 0.621904
O O14 0.364789 0.717731 0.711710
O O15 0.159040 0.753183 0.641909
O O16 0.551635 0.000000 0.248975
O O17 0.386044 0.000000 0.328637
O O18 0.863592 0.500000 0.979166
O O19 0.000000 0.677312 0.000000
#
# Coordination Sequence:
#
# PCOD8109448 Si02
#       7
#     8   8   8   8   8   8   8
#     4  11  23  40  62  89 124 163 205 255 311 366
#     4  12  24  41  65  93 123 161 208 257 309 364
#     4  10  21  39  64  92 124 164 205 249 304 364
#     4  10  22  41  64  92 125 162 205 254 306 364
#     4  12  25  41  63  90 124 163 207 256 308 367
#     4  10  22  40  63  91 126 164 205 251 306 368
#     4  10  23  42  63  89 124 164 206 256 312 366
#
# _framework density 20.779727000000001
#
# number of rings (size 3 to 8) (size 9 to 14) (size 15 to 20)
#    0.000    1.286    1.429    4.286    2.000    6.571 
#    0.000    0.000    0.000    2.571    0.000    0.000 
#    0.000    0.000    0.000    0.000    0.000    0.000 
#
# Total GULP energy -347303.479488 kJ/mol
# GULP energy per Si atom -12403.695696 kJ/mol
# Density = 2.073243 g / cm^3
# Si number density = 20.779727 Si / 1000 Ang^3
#
#
#
# Elastic Constant Matrix: (Units=GPa)
#
#
# Indices 1 2 3 4 5 6 
#
# 1 141.0479 16.6452 46.2339 0.0000 -13.1212 0.0000
# 2 16.6452 36.5353 2.6546 0.0000 -8.0181 0.0002
# 3 46.2339 2.6546 96.7115 0.0000 -15.9074 0.0000
# 4 0.0000 0.0000 0.0000 24.2823 0.0000 -5.7556
# 5 -13.1212 -8.0181 -15.9074 0.0000 45.3993 0.0000
# 6 0.0000 0.0002 0.0000 -5.7556 0.0000 29.3294
#
#
#
# Elastic Compliance Matrix: (Units=1/GPa)
#
#
# Indices 1 2 3 4 5 6 
#
# 1 0.008902 -0.003650 -0.004073 0.000000 0.000501 0.000000
# 2 -0.003650 0.029971 0.001718 0.000000 0.004840 0.000000
# 3 -0.004073 0.001718 0.012836 0.000000 0.003624 0.000000
# 4 0.000000 0.000000 0.000000 0.043191 0.000000 0.008476
# 5 0.000501 0.004840 0.003624 0.000000 0.024296 0.000000
# 6 0.000000 0.000000 0.000000 0.008476 0.000000 0.035759
#
#
# Mechanical properties :
#
#
# Convention : Reuss Voigt Hill
#
# Bulk Modulus (GPa) = 25.18890 45.04026 35.11458
# Shear Modulus (GPa) = 27.74717 33.71960 30.73339
#
# Velocity S-wave (km/s) = 3.65814 4.03267 3.84996
# Velocity P-wave (km/s) = 5.47639 6.58827 6.05789
#
# Compressibility (1/GPa) = 0.03970003
#
# Stress axis : x y z
#
# Youngs Moduli (GPa) = 112.33069 33.36552 77.90478
#
# Poissons Ratio (x) = 0.12178 0.31732
# Poissons Ratio (y) = 0.40999 -0.13387
# Poissons Ratio (z) = 0.45755 -0.05733
#
# Static dielectric constant tensor:
#      x y z
#    x 3.217110 -0.000010 0.035910 
#    y -0.000010 3.403910 0.000000 
#    z 0.035910 0.000000 3.788230 
# 
# 
# High freq. dielectric constant tensor:
#      x y z
#    x 1.828360 0.000000 -0.005250 
#    y 0.000000 1.800020 0.000000 
#    z -0.005250 0.000000 1.826750 
# 
# From -- ./inp_files/363185.got.cif
#   From: 2010.06.25/outbox.cif.g09.slc.cpg/sg12_182_cif.got.tgz:363185.got - 2010.06.28 00:19:55.
