data_PCOD8109404
_publ_section_title
;
Structure prediction by ZEFSAII (Michael W. Deem and Ramdas Pophale) SiO2 
 PCOD8109404
Probable space group: C 2/M
;
_chemical_formula_sum "Si O2"
_cell_formula_units_Z 36
_cell_length_a 17.994227
_cell_length_b 9.374795
_cell_length_c 10.569506
_cell_angle_alpha 90.000000
_cell_angle_beta 66.135883
_cell_angle_gamma 90.000000
_cell_volume 1630.560581
_symmetry_space_group_name_H-M "C 2/M"
_symmetry_group_IT_number 12
_symmetry_cell_setting 'monoclinic'
loop_
_space_group_symop_operation_xyz
x,y,z
-x,y,-z
-x,-y,-z
x,-y,z
1/2+x,1/2+y,z
1/2-x,1/2+y,-z
1/2-x,1/2-y,-z
1/2+x,1/2-y,z
loop_
_atom_site_type_symbol
_atom_site_label
_atom_site_fract_x
_atom_site_fract_y
_atom_site_fract_z
Si Si1 0.400722 0.336150 0.927336
Si Si2 0.684133 0.333436 0.750590
Si Si3 0.046500 0.660029 0.735591
Si Si4 0.166140 0.158013 0.293566
Si Si5 0.500000 0.754669 0.500000
O O1 0.431000 0.500000 0.904247
O O2 0.480230 0.237632 0.869427
O O3 0.342636 0.303619 0.848571
O O4 0.350332 0.301172 0.086797
O O5 0.685771 0.500000 0.715370
O O6 0.629757 0.250207 0.685684
O O7 0.775574 0.273436 0.680822
O O8 0.059841 0.500000 0.777496
O O9 0.017117 0.648871 0.610858
O O10 0.077979 0.156521 0.419755
O O11 0.203782 0.000000 0.283330
#
# Coordination Sequence:
#
# PCOD8109404 Si02
#       5
#     8   8   8   8   4
#     4   9  20  39  61  88 123 158 190 232 292 352
#     4  11  23  38  59  90 125 156 189 237 295 348
#     4  11  23  39  62  88 116 154 199 245 289 343
#     4  10  21  39  64  89 116 154 198 241 286 345
#     4  10  24  44  62  82 114 154 198 246 300 348
#
# _framework density 22.078295000000001
#
# number of rings (size 3 to 8) (size 9 to 14) (size 15 to 20)
#    0.000    1.778    0.000    3.333    0.000   12.444 
#    0.000    0.000    0.000    0.000    0.000    0.000 
#    0.000    0.000    0.000    0.000    0.000    0.000 
#
# Total GULP energy -223262.472896 kJ/mol
# GULP energy per Si atom -12403.470716 kJ/mol
# Density = 2.202804 g / cm^3
# Si number density = 22.078295 Si / 1000 Ang^3
#
#
#
# Elastic Constant Matrix: (Units=GPa)
#
#
# Indices 1 2 3 4 5 6 
#
# 1 139.1619 76.8622 28.9419 0.0000 -12.6120 0.0000
# 2 76.8622 150.8637 17.7868 0.0000 -5.1542 0.0000
# 3 28.9419 17.7868 71.1836 0.0000 -6.8401 0.0000
# 4 0.0000 0.0000 0.0000 18.3136 0.0000 -1.5329
# 5 -12.6120 -5.1542 -6.8401 0.0000 21.4437 0.0000
# 6 0.0000 0.0000 0.0000 -1.5329 0.0000 39.1135
#
#
#
# Elastic Compliance Matrix: (Units=1/GPa)
#
#
# Indices 1 2 3 4 5 6 
#
# 1 0.010984 -0.005121 -0.002769 0.000000 0.004346 0.000000
# 2 -0.005121 0.009244 -0.000313 0.000000 -0.000890 0.000000
# 3 -0.002769 -0.000313 0.015566 0.000000 0.003261 0.000000
# 4 0.000000 0.000000 0.000000 0.054784 0.000000 0.002147
# 5 0.004346 -0.000890 0.003261 0.000000 0.050016 0.000000
# 6 0.000000 0.000000 0.000000 0.002147 0.000000 0.025651
#
#
# Mechanical properties :
#
#
# Convention : Reuss Voigt Hill
#
# Bulk Modulus (GPa) = 51.57928 67.59899 59.58913
# Shear Modulus (GPa) = 26.43910 31.61537 29.02724
#
# Velocity S-wave (km/s) = 3.46427 3.78824 3.62987
# Velocity P-wave (km/s) = 6.27808 7.05823 6.67955
#
# Compressibility (1/GPa) = 0.01938763
#
# Stress axis : x y z
#
# Youngs Moduli (GPa) = 91.03993 108.17556 64.24464
#
# Poissons Ratio (x) = 0.55400 0.17787
# Poissons Ratio (y) = 0.46625 0.02012
# Poissons Ratio (z) = 0.25206 0.03388
#
# Static dielectric constant tensor:
#      x y z
#    x 3.970260 0.000000 0.128760 
#    y 0.000000 3.759690 0.000000 
#    z 0.128760 0.000000 3.895350 
# 
# 
# High freq. dielectric constant tensor:
#      x y z
#    x 1.871010 0.000000 0.005640 
#    y 0.000000 1.863900 0.000000 
#    z 0.005640 0.000000 1.864450 
# 
# From -- ./inp_files/151531.got.cif
#   From: 2010.06.25/outbox.cif.g09.slc.cpg/sg12_76_cif.got.tgz:151531.got - 2010.06.28 00:19:55.
