data_PCOD8109387
_publ_section_title
;
Structure prediction by ZEFSAII (Michael W. Deem and Ramdas Pophale) SiO2 
 PCOD8109387
Probable space group: C 2/M
;
_chemical_formula_sum "Si O2"
_cell_formula_units_Z 52
_cell_length_a 20.317471
_cell_length_b 18.744597
_cell_length_c 8.693742
_cell_angle_alpha 90.000000
_cell_angle_beta 125.945749
_cell_angle_gamma 90.000000
_cell_volume 2680.455593
_symmetry_space_group_name_H-M "C 2/M"
_symmetry_group_IT_number 12
_symmetry_cell_setting 'monoclinic'
loop_
_space_group_symop_operation_xyz
x,y,z
-x,y,-z
-x,-y,-z
x,-y,z
1/2+x,1/2+y,z
1/2-x,1/2+y,-z
1/2-x,1/2-y,-z
1/2+x,1/2-y,z
loop_
_atom_site_type_symbol
_atom_site_label
_atom_site_fract_x
_atom_site_fract_y
_atom_site_fract_z
Si Si1 0.416564 0.620212 0.460496
Si Si2 0.220338 0.862713 0.985788
Si Si3 0.825956 0.500000 0.630074
Si Si4 0.476930 0.772953 0.629956
Si Si5 0.349433 0.778084 0.991104
Si Si6 0.412239 0.144626 0.804476
Si Si7 0.352082 0.500000 0.583098
Si Si8 0.725913 0.500000 0.209330
O O1 0.500000 0.591159 0.500000
O O2 0.429037 0.699470 0.540601
O O3 0.395577 0.570350 0.576733
O O4 0.345699 0.621528 0.236571
O O5 0.199646 0.795284 0.065238
O O6 0.225269 0.930938 0.101330
O O7 0.307250 0.842558 0.029172
O O8 0.876601 0.566857 0.752391
O O9 0.740676 0.500000 0.605499
O O10 0.809231 0.500000 0.422945
O O11 0.500000 0.809318 0.500000
O O12 0.417317 0.825384 0.638888
O O13 0.560094 0.759295 0.832515
O O14 0.353233 0.803219 0.819624
O O15 0.500000 0.139755 0.000000
O O16 0.349626 0.500000 0.768997
#
# Coordination Sequence:
#
# PCOD8109387 Si02
#       8
#     8   8   4   8   8   8   4   4
#     4  11  21  41  64  90 124 166 206 257 306 375
#     4  11  22  42  62  92 126 163 210 254 313 361
#     4  10  23  43  58  91 122 159 214 247 313 373
#     4  10  21  39  63  97 124 158 206 255 310 367
#     4  10  22  39  65  94 121 164 205 255 311 368
#     4  10  22  39  67  90 126 159 202 259 313 375
#     4  10  24  39  60  91 119 173 209 247 312 354
#     4  10  27  40  60  92 125 162 211 258 299 366
#
# _framework density 19.399687
#
# number of rings (size 3 to 8) (size 9 to 14) (size 15 to 20)
#    0.462    1.231    3.077    1.846    4.308    0.615 
#    0.000    5.000    0.000    0.000    0.000    0.000 
#    0.000    0.000    0.000    0.000    0.000    0.000 
#
# Total GULP energy -322279.935124 kJ/mol
# GULP energy per Si atom -12395.382120 kJ/mol
# Density = 1.935553 g / cm^3
# Si number density = 19.399687 Si / 1000 Ang^3
#
#
#
# Elastic Constant Matrix: (Units=GPa)
#
#
# Indices 1 2 3 4 5 6 
#
# 1 108.2010 53.2633 22.0933 0.0000 -21.4634 0.0000
# 2 53.2633 107.2796 37.0734 0.0000 -20.4742 0.0000
# 3 22.0933 37.0734 65.6328 0.0000 -14.0610 0.0000
# 4 0.0000 0.0000 0.0000 9.3540 0.0000 7.8058
# 5 -21.4634 -20.4742 -14.0610 0.0000 33.4101 0.0000
# 6 0.0000 0.0000 0.0000 7.8058 0.0000 13.1618
#
#
#
# Elastic Compliance Matrix: (Units=1/GPa)
#
#
# Indices 1 2 3 4 5 6 
#
# 1 0.012918 -0.005393 -0.000255 0.000000 0.004887 0.000000
# 2 -0.005393 0.014571 -0.005764 0.000000 0.003039 0.000000
# 3 -0.000255 -0.005764 0.019549 0.000000 0.004531 0.000000
# 4 0.000000 0.000000 0.000000 0.211656 0.000000 -0.125526
# 5 0.004887 0.003039 0.004531 0.000000 0.036839 0.000000
# 6 0.000000 0.000000 0.000000 -0.125526 0.000000 0.150423
#
#
# Mechanical properties :
#
#
# Convention : Reuss Voigt Hill
#
# Bulk Modulus (GPa) = 41.29985 56.21926 48.75956
# Shear Modulus (GPa) = 10.48543 22.43075 16.45809
#
# Velocity S-wave (km/s) = 2.32738 3.40405 2.91584
# Velocity P-wave (km/s) = 5.34391 6.67026 6.04358
#
# Compressibility (1/GPa) = 0.02421316
#
# Stress axis : x y z
#
# Youngs Moduli (GPa) = 77.40965 68.63010 51.15380
#
# Poissons Ratio (x) = 0.37012 0.01306
# Poissons Ratio (y) = 0.41746 0.29486
# Poissons Ratio (z) = 0.01977 0.39559
#
# Static dielectric constant tensor:
#      x y z
#    x 3.906000 0.000000 -0.143250 
#    y 0.000000 27.371870 0.000000 
#    z -0.143250 0.000000 3.517980 
# 
# 
# High freq. dielectric constant tensor:
#      x y z
#    x 1.768300 0.000000 -0.002300 
#    y 0.000000 1.756530 0.000000 
#    z -0.002300 0.000000 1.745850 
# 
# From -- ./inp_files/88512.got.cif
#   From: 2010.06.25/outbox.cif.g09.slc.cpg/sg12_45_cif.got.tgz:88512.got - 2010.06.28 00:19:55.
