data_PCOD8109130
_publ_section_title
;
Structure prediction by ZEFSAII (Michael W. Deem and Ramdas Pophale) SiO2 
 PCOD8109130
Probable space group: C 2/M
;
_chemical_formula_sum "Si O2"
_cell_formula_units_Z 56
_cell_length_a 18.513674
_cell_length_b 8.956022
_cell_length_c 27.061187
_cell_angle_alpha 90.000000
_cell_angle_beta 140.904701
_cell_angle_gamma 90.000000
_cell_volume 2829.547104
_symmetry_space_group_name_H-M "C 2/M"
_symmetry_group_IT_number 12
_symmetry_cell_setting 'monoclinic'
loop_
_space_group_symop_operation_xyz
x,y,z
-x,y,-z
-x,-y,-z
x,-y,z
1/2+x,1/2+y,z
1/2-x,1/2+y,-z
1/2-x,1/2-y,-z
1/2+x,1/2-y,z
loop_
_atom_site_type_symbol
_atom_site_label
_atom_site_fract_x
_atom_site_fract_y
_atom_site_fract_z
Si Si1 0.408122 0.326114 0.794003
Si Si2 0.009735 0.322814 0.358319
Si Si3 0.265125 0.676054 0.228466
Si Si4 0.642835 0.674410 0.967508
Si Si5 0.410699 0.823430 0.492487
Si Si6 0.867849 0.664264 0.939377
Si Si7 0.150908 0.826433 0.347506
O O1 0.389855 0.500000 0.796284
O O2 0.299543 0.238347 0.757871
O O3 0.525367 0.264780 0.880624
O O4 0.414616 0.298167 0.738784
O O5 0.998267 0.500000 0.350583
O O6 0.059976 0.265679 0.437123
O O7 0.093078 0.271141 0.359070
O O8 0.886939 0.250581 0.286048
O O9 0.279268 0.500000 0.241705
O O10 0.192978 0.721754 0.142139
O O11 0.651260 0.500000 0.963596
O O12 0.750000 0.750000 0.000000
O O13 0.650900 0.711909 0.029282
O O14 0.500000 0.753932 0.500000
O O15 0.282190 0.773440 0.410765
O O16 0.421453 0.000000 0.496417
O O17 0.819462 0.500000 0.929510
O O18 0.000000 0.647305 0.000000
O O19 0.144807 0.000000 0.359641
#
# Coordination Sequence:
#
# PCOD8109130 Si02
#       7
#     8   8   8   8   8   8   8
#     4  10  22  40  61  86 116 153 198 244 291 350
#     4  11  23  38  59  90 123 154 195 243 290 347
#     4  11  23  39  62  87 116 154 197 244 298 355
#     4  11  24  39  59  87 120 157 198 245 296 350
#     4   9  18  36  63  89 116 155 197 237 287 347
#     4  10  21  40  62  85 114 153 198 246 297 351
#     4  10  21  39  62  87 120 160 197 237 290 347
#
# _framework density 19.791152
#
# number of rings (size 3 to 8) (size 9 to 14) (size 15 to 20)
#    0.000    1.714    1.429    2.571    2.000    4.857 
#    0.000    0.714    0.000    3.000    0.000    0.000 
#    0.000    0.000    0.000    0.000    0.000    0.000 
#
# Total GULP energy -347275.604795 kJ/mol
# GULP energy per Si atom -12402.700171 kJ/mol
# Density = 1.974611 g / cm^3
# Si number density = 19.791152 Si / 1000 Ang^3
#
#
#
# Elastic Constant Matrix: (Units=GPa)
#
#
# Indices 1 2 3 4 5 6 
#
# 1 135.0589 42.8012 45.7551 0.0000 -0.5055 0.0000
# 2 42.8012 60.2654 32.3399 0.0000 -0.9208 0.0001
# 3 45.7551 32.3399 104.4726 0.0000 -5.6582 0.0000
# 4 0.0000 0.0000 0.0000 36.5533 0.0000 1.6194
# 5 -0.5055 -0.9208 -5.6582 0.0000 37.6090 0.0000
# 6 0.0000 0.0001 0.0000 1.6194 0.0000 40.6527
#
#
#
# Elastic Compliance Matrix: (Units=1/GPa)
#
#
# Indices 1 2 3 4 5 6 
#
# 1 0.010138 -0.005770 -0.002676 0.000000 -0.000408 0.000000
# 2 -0.005770 0.023190 -0.004663 0.000000 -0.000211 0.000000
# 3 -0.002676 -0.004663 0.012279 0.000000 0.001697 0.000000
# 4 0.000000 0.000000 0.000000 0.027406 0.000000 -0.001092
# 5 -0.000408 -0.000211 0.001697 0.000000 0.026834 0.000000
# 6 0.000000 0.000000 0.000000 -0.001092 0.000000 0.024642
#
#
# Mechanical properties :
#
#
# Convention : Reuss Voigt Hill
#
# Bulk Modulus (GPa) = 51.57507 60.17658 55.87583
# Shear Modulus (GPa) = 31.81257 34.88971 33.35114
#
# Velocity S-wave (km/s) = 4.01361 4.20324 4.10952
# Velocity P-wave (km/s) = 6.89891 7.35038 7.12822
#
# Compressibility (1/GPa) = 0.01938921
#
# Stress axis : x y z
#
# Youngs Moduli (GPa) = 98.64052 43.12123 81.43869
#
# Poissons Ratio (x) = 0.24882 0.21792
# Poissons Ratio (y) = 0.56919 0.37975
# Poissons Ratio (z) = 0.26395 0.20107
#
# Static dielectric constant tensor:
#      x y z
#    x 3.581980 0.000000 0.041360 
#    y 0.000000 4.238990 0.000000 
#    z 0.041360 0.000000 3.802600 
# 
# 
# High freq. dielectric constant tensor:
#      x y z
#    x 1.780580 0.000000 -0.000350 
#    y 0.000000 1.755300 0.000000 
#    z -0.000350 0.000000 1.787520 
# 
# From -- ./inp_files/363109.got.cif
#   From: 2010.06.25/outbox.cif.g09.slc.cpg/sg12_182_cif.got.tgz:363109.got - 2010.06.28 00:19:55.
