data_PCOD8109209
_publ_section_title
;
Structure prediction by ZEFSAII (Michael W. Deem and Ramdas Pophale) SiO2 
 PCOD8109209
Probable space group: C 2/M
;
_chemical_formula_sum "Si O2"
_cell_formula_units_Z 64
_cell_length_a 14.526035
_cell_length_b 23.838937
_cell_length_c 9.193490
_cell_angle_alpha 90.000000
_cell_angle_beta 97.542155
_cell_angle_gamma 90.000000
_cell_volume 3156.027363
_symmetry_space_group_name_H-M "C 2/M"
_symmetry_group_IT_number 12
_symmetry_cell_setting 'monoclinic'
loop_
_space_group_symop_operation_xyz
x,y,z
-x,y,-z
-x,-y,-z
x,-y,z
1/2+x,1/2+y,z
1/2-x,1/2+y,-z
1/2-x,1/2-y,-z
1/2+x,1/2-y,z
loop_
_atom_site_type_symbol
_atom_site_label
_atom_site_fract_x
_atom_site_fract_y
_atom_site_fract_z
Si Si1 0.444096 0.814630 0.628749
Si Si2 0.750056 0.624360 0.580585
Si Si3 0.984354 0.061838 0.825914
Si Si4 0.131020 0.152423 0.824631
Si Si5 0.679907 0.716619 0.384547
Si Si6 0.773365 0.937366 0.692752
Si Si7 0.753252 0.663577 0.123325
Si Si8 0.431467 0.773013 0.116411
O O1 0.500000 0.832744 0.500000
O O2 0.354393 0.853438 0.620362
O O3 0.417585 0.748473 0.626382
O O4 0.514529 0.819576 0.777156
O O5 0.709133 0.628554 0.732232
O O6 0.678023 0.656105 0.457139
O O7 0.750293 0.566520 0.487398
O O8 0.880299 0.073681 0.754169
O O9 0.044889 0.112060 0.773389
O O10 0.015317 0.000000 0.774170
O O11 0.000000 0.063154 0.000000
O O12 0.098608 0.217155 0.799318
O O13 0.172849 0.145954 0.994799
O O14 0.750000 0.750000 0.500000
O O15 0.713280 0.711537 0.224073
O O16 0.715777 0.891266 0.776103
O O17 0.744101 0.000000 0.735308
O O18 0.838250 0.692735 0.052452
O O19 0.500000 0.755199 0.000000
#
# Coordination Sequence:
#
# PCOD8109209 Si02
#       8
#     8   8   8   8   8   8   8   8
#     4  11  20  35  56  80 113 156 202 247 295 352
#     4  10  22  37  56  83 120 152 197 252 306 363
#     4  10  21  39  62  91 120 154 203 253 301 375
#     4  12  23  37  57  89 128 167 200 249 314 375
#     4   9  18  35  52  76 111 155 198 240 294 353
#     4  10  22  42  67  89 117 159 209 257 315 377
#     4  11  22  39  60  84 125 166 204 258 312 371
#     4  12  24  35  57  89 124 164 210 247 298 364
#
# _framework density 20.278658
#
# number of rings (size 3 to 8) (size 9 to 14) (size 15 to 20)
#    0.000    1.375    1.250    6.750    3.500    1.000 
#    0.000    1.250    0.000    3.750    0.000    0.000 
#    0.000    0.000    0.000    0.000    0.000    0.000 
#
# Total GULP energy -396417.575007 kJ/mol
# GULP energy per Si atom -12388.049219 kJ/mol
# Density = 2.023250 g / cm^3
# Si number density = 20.278658 Si / 1000 Ang^3
#
#
#
# Elastic Constant Matrix: (Units=GPa)
#
#
# Indices 1 2 3 4 5 6 
#
# 1 68.9897 41.5173 12.1917 0.0000 -7.3542 0.0000
# 2 41.5173 96.3838 11.0287 0.0000 -2.3437 0.0000
# 3 12.1917 11.0287 86.6103 0.0000 -1.3760 0.0000
# 4 0.0000 0.0000 0.0000 23.1335 0.0000 -2.2679
# 5 -7.3542 -2.3437 -1.3760 0.0000 35.4820 0.0000
# 6 0.0000 0.0000 0.0000 -2.2679 0.0000 23.2731
#
#
#
# Elastic Compliance Matrix: (Units=1/GPa)
#
#
# Indices 1 2 3 4 5 6 
#
# 1 0.020261 -0.008444 -0.001720 0.000000 0.003575 0.000000
# 2 -0.008444 0.014062 -0.000615 0.000000 -0.000845 0.000000
# 3 -0.001720 -0.000615 0.011867 0.000000 0.000063 0.000000
# 4 0.000000 0.000000 0.000000 0.043644 0.000000 0.004253
# 5 0.003575 -0.000845 0.000063 0.000000 0.028871 0.000000
# 6 0.000000 0.000000 0.000000 0.004253 0.000000 0.043383
#
#
# Mechanical properties :
#
#
# Convention : Reuss Voigt Hill
#
# Bulk Modulus (GPa) = 40.59709 42.38438 41.49073
# Shear Modulus (GPa) = 26.06088 28.86079 27.46084
#
# Velocity S-wave (km/s) = 3.58877 3.77664 3.68390
# Velocity P-wave (km/s) = 6.10209 6.32168 6.21285
#
# Compressibility (1/GPa) = 0.02463231
#
# Stress axis : x y z
#
# Youngs Moduli (GPa) = 49.35494 71.11243 84.26395
#
# Poissons Ratio (x) = 0.60046 0.14494
# Poissons Ratio (y) = 0.41675 0.05186
# Poissons Ratio (z) = 0.08489 0.04377
#
# Static dielectric constant tensor:
#      x y z
#    x 3.759680 0.000000 0.128010 
#    y 0.000000 4.367990 0.000000 
#    z 0.128010 0.000000 3.742360 
# 
# 
# High freq. dielectric constant tensor:
#      x y z
#    x 1.783230 0.000000 0.012190 
#    y 0.000000 1.773050 0.000000 
#    z 0.012190 0.000000 1.796550 
# 
# From -- ./inp_files/66979.got.cif
#   From: 2010.06.25/outbox.cif.g09.slc.cpg/sg12_34_cif.got.tgz:66979.got - 2010.06.28 00:19:55.
