data_PCOD8109805
_publ_section_title
;
Structure prediction by ZEFSAII (Michael W. Deem and Ramdas Pophale) SiO2 
 PCOD8109805
Probable space group: C 2/M
;
_chemical_formula_sum "Si O2"
_cell_formula_units_Z 40
_cell_length_a 24.658753
_cell_length_b 9.004570
_cell_length_c 18.850436
_cell_angle_alpha 90.000000
_cell_angle_beta 29.420318
_cell_angle_gamma 90.000000
_cell_volume 2056.009173
_symmetry_space_group_name_H-M "C 2/M"
_symmetry_group_IT_number 12
_symmetry_cell_setting 'monoclinic'
loop_
_space_group_symop_operation_xyz
x,y,z
-x,y,-z
-x,-y,-z
x,-y,z
1/2+x,1/2+y,z
1/2-x,1/2+y,-z
1/2-x,1/2-y,-z
1/2+x,1/2-y,z
loop_
_atom_site_type_symbol
_atom_site_label
_atom_site_fract_x
_atom_site_fract_y
_atom_site_fract_z
Si Si1 0.940770 0.830015 0.138590
Si Si2 0.199125 0.669945 0.361585
Si Si3 0.492461 0.674845 0.664189
Si Si4 0.557183 0.171687 0.132209
Si Si5 0.788904 0.828567 0.798949
O O1 0.809643 0.815131 0.281543
O O2 0.977372 0.728682 0.161636
O O3 0.976788 0.000000 0.111625
O O4 0.000000 0.770839 0.000000
O O5 0.159312 0.500000 0.403231
O O6 0.223024 0.725681 0.255466
O O7 0.107702 0.768578 0.503148
O O8 0.498403 0.500000 0.666350
O O9 0.468415 0.742457 0.767421
O O10 0.397061 0.721501 0.718270
O O11 0.531210 0.000000 0.174133
O O12 0.684346 0.199168 0.968138
O O13 0.796715 0.000000 0.765964
#
# Coordination Sequence:
#
# PCOD8109805 Si02
#       5
#     8   8   8   8   8
#     4  10  21  40  63  88 118 155 198 244 298 355
#     4  11  23  39  63  91 120 156 200 247 294 351
#     4  11  24  41  60  86 125 163 196 241 300 355
#     4  11  23  39  63  92 120 154 201 249 294 349
#     4  10  22  40  62  89 121 159 199 243 295 353
#
# _framework density 19.455165999999998
#
# number of rings (size 3 to 8) (size 9 to 14) (size 15 to 20)
#    0.000    1.400    2.000    3.000    0.000    7.600 
#    0.000    0.000    0.000    0.000    0.000    0.000 
#    0.000    0.000    0.000    0.000    0.000    0.000 
#
# Total GULP energy -248136.976665 kJ/mol
# GULP energy per Si atom -12406.848833 kJ/mol
# Density = 1.941088 g / cm^3
# Si number density = 19.455166 Si / 1000 Ang^3
#
#
#
# Elastic Constant Matrix: (Units=GPa)
#
#
# Indices 1 2 3 4 5 6 
#
# 1 65.8936 36.5110 16.1959 -0.0044 -9.6238 0.0014
# 2 36.5110 87.9159 36.3516 -0.0018 -2.5656 0.0006
# 3 16.1959 36.3516 81.3472 -0.0057 -8.4831 0.0017
# 4 -0.0044 -0.0018 -0.0057 36.6646 0.0015 0.3693
# 5 -9.6238 -2.5656 -8.4831 0.0015 31.0092 -0.0005
# 6 0.0014 0.0006 0.0017 0.3693 -0.0005 26.5407
#
#
#
# Elastic Compliance Matrix: (Units=1/GPa)
#
#
# Indices 1 2 3 4 5 6 
#
# 1 0.020683 -0.008547 0.000306 0.000002 0.005796 -0.000001
# 2 -0.008547 0.017494 -0.006425 -0.000001 -0.002963 0.000000
# 3 0.000306 -0.006425 0.015500 0.000002 0.003804 -0.000001
# 4 0.000002 -0.000001 0.000002 0.027278 0.000000 -0.000380
# 5 0.005796 -0.002963 0.003804 0.000000 0.034843 0.000000
# 6 -0.000001 0.000000 -0.000001 -0.000380 0.000000 0.037683
#
#
# Mechanical properties :
#
#
# Convention : Reuss Voigt Hill
#
# Bulk Modulus (GPa) = 41.07616 45.91929 43.49773
# Shear Modulus (GPa) = 26.18791 28.58276 27.38533
#
# Velocity S-wave (km/s) = 3.67286 3.83712 3.75589
# Velocity P-wave (km/s) = 6.25664 6.57915 6.41992
#
# Compressibility (1/GPa) = 0.02434502
#
# Stress axis : x y z
#
# Youngs Moduli (GPa) = 48.34894 57.16212 64.51672
#
# Poissons Ratio (x) = 0.48856 -0.01973
# Poissons Ratio (y) = 0.41323 0.41451
# Poissons Ratio (z) = -0.01479 0.36726
#
# Static dielectric constant tensor:
#      x y z
#    x 3.780660 0.000000 -0.329690 
#    y 0.000000 3.665550 0.000000 
#    z -0.329690 0.000000 3.914630 
# 
# 
# High freq. dielectric constant tensor:
#      x y z
#    x 1.765910 0.000000 -0.004200 
#    y 0.000000 1.766180 0.000000 
#    z -0.004200 0.000000 1.769200 
# 
# From -- ./inp_files/151622.got.cif
#   From: 2010.06.25/outbox.cif.g09.slc.cpg/sg12_76_cif.got.tgz:151622.got - 2010.06.28 00:19:55.
