data_PCOD8109367
_publ_section_title
;
Structure prediction by ZEFSAII (Michael W. Deem and Ramdas Pophale) SiO2 
 PCOD8109367
Probable space group: C 2/M
;
_chemical_formula_sum "Si O2"
_cell_formula_units_Z 56
_cell_length_a 9.288519
_cell_length_b 30.073499
_cell_length_c 20.656440
_cell_angle_alpha 90.000000
_cell_angle_beta 29.283656
_cell_angle_gamma 90.000000
_cell_volume 2822.366883
_symmetry_space_group_name_H-M "C 2/M"
_symmetry_group_IT_number 12
_symmetry_cell_setting 'monoclinic'
loop_
_space_group_symop_operation_xyz
x,y,z
-x,y,-z
-x,-y,-z
x,-y,z
1/2+x,1/2+y,z
1/2-x,1/2+y,-z
1/2-x,1/2-y,-z
1/2+x,1/2-y,z
loop_
_atom_site_type_symbol
_atom_site_label
_atom_site_fract_x
_atom_site_fract_y
_atom_site_fract_z
Si Si1 0.033819 0.100164 0.297590
Si Si2 0.667147 0.748115 0.782005
Si Si3 0.681214 0.448832 0.492392
Si Si4 0.648622 0.550831 0.757966
Si Si5 0.170737 0.812436 0.992311
Si Si6 0.353227 0.102801 0.988795
Si Si7 0.161678 0.199963 0.649666
O O1 0.384824 0.088853 0.163074
O O2 0.899397 0.084073 0.417753
O O3 0.871960 0.075536 0.302406
O O4 0.989632 0.152493 0.303046
O O5 0.538673 0.725471 0.896643
O O6 0.644596 0.714257 0.731261
O O7 0.000471 0.763733 0.667037
O O8 0.472833 0.792039 0.845959
O O9 0.500000 0.434654 0.500000
O O10 0.612198 0.500000 0.538924
O O11 0.025419 0.442757 0.341144
O O12 0.573548 0.500000 0.773587
O O13 0.416395 0.568073 0.902911
O O14 0.226747 0.849028 0.024038
O O15 0.000000 0.835462 0.000000
O O16 0.500000 0.106495 0.000000
O O17 0.500000 0.197443 0.500000
#
# Coordination Sequence:
#
# PCOD8109367 Si02
#       7
#     8   8   8   8   8   8   8
#     4  11  22  39  64  94 122 164 205 252 306 367
#     4  11  23  40  60  89 114 158 206 250 309 362
#     4  10  22  41  64  92 126 166 207 246 298 368
#     4  10  21  39  63  93 127 162 201 252 308 360
#     4  11  22  38  63  85 117 156 201 256 303 363
#     4  10  22  38  62  93 123 153 204 259 306 363
#     4  12  24  42  62  88 126 160 204 255 309 362
#
# _framework density 19.841504
#
# number of rings (size 3 to 8) (size 9 to 14) (size 15 to 20)
#    0.000    1.286    2.857    3.857    0.000    5.429 
#    0.000    2.143    0.000    3.000    0.000    0.000 
#    0.000    0.000    0.000    0.000    0.000    0.000 
#
# Total GULP energy -347194.780377 kJ/mol
# GULP energy per Si atom -12399.813585 kJ/mol
# Density = 1.979634 g / cm^3
# Si number density = 19.841504 Si / 1000 Ang^3
#
#
#
# Elastic Constant Matrix: (Units=GPa)
#
#
# Indices 1 2 3 4 5 6 
#
# 1 65.3000 37.3325 54.6388 0.0006 -12.1946 0.0010
# 2 37.3325 94.6187 41.8517 -0.0001 -2.6509 -0.0001
# 3 54.6388 41.8517 122.9631 -0.0025 -11.7962 0.0028
# 4 0.0006 -0.0001 -0.0025 32.4188 -0.0003 2.9769
# 5 -12.1946 -2.6509 -11.7962 -0.0003 27.6401 -0.0005
# 6 0.0010 -0.0001 0.0028 2.9769 -0.0005 29.8672
#
#
#
# Elastic Compliance Matrix: (Units=1/GPa)
#
#
# Indices 1 2 3 4 5 6 
#
# 1 0.028854 -0.006860 -0.009726 -0.000001 0.007921 0.000000
# 2 -0.006860 0.014084 -0.001987 0.000000 -0.002524 0.000000
# 3 -0.009726 -0.001987 0.013243 0.000001 0.001170 -0.000001
# 4 -0.000001 0.000000 0.000001 0.031131 0.000000 -0.003103
# 5 0.007921 -0.002524 0.001170 0.000000 0.039931 0.000000
# 6 0.000000 0.000000 -0.000001 -0.003103 0.000000 0.033791
#
#
# Mechanical properties :
#
#
# Convention : Reuss Voigt Hill
#
# Bulk Modulus (GPa) = 52.54135 61.16976 56.85556
# Shear Modulus (GPa) = 24.44680 27.92248 26.18464
#
# Velocity S-wave (km/s) = 3.51394 3.75544 3.63670
# Velocity P-wave (km/s) = 6.55757 7.04986 6.80817
#
# Compressibility (1/GPa) = 0.01903263
#
# Stress axis : x y z
#
# Youngs Moduli (GPa) = 34.65779 71.00336 75.51136
#
# Poissons Ratio (x) = 0.48711 0.73444
# Poissons Ratio (y) = 0.23776 0.15006
# Poissons Ratio (z) = 0.33709 0.14111
#
# Static dielectric constant tensor:
#      x y z
#    x 3.536940 0.000000 -0.216380 
#    y 0.000000 3.569530 0.000000 
#    z -0.216380 0.000000 4.059490 
# 
# 
# High freq. dielectric constant tensor:
#      x y z
#    x 1.769450 0.000000 -0.014860 
#    y 0.000000 1.771220 0.000000 
#    z -0.014860 0.000000 1.783220 
# 
# From -- ./inp_files/302983.got.cif
#   From: 2010.06.25/outbox.cif.g09.slc.cpg/sg12_152_cif.got.tgz:302983.got - 2010.06.28 00:19:55.
