data_PCOD8109619
_publ_section_title
;
Structure prediction by ZEFSAII (Michael W. Deem and Ramdas Pophale) SiO2 
 PCOD8109619
Probable space group: C 2/M
;
_chemical_formula_sum "Si O2"
_cell_formula_units_Z 52
_cell_length_a 22.650861
_cell_length_b 21.390155
_cell_length_c 5.257794
_cell_angle_alpha 90.000000
_cell_angle_beta 61.796867
_cell_angle_gamma 90.000000
_cell_volume 2244.992787
_symmetry_space_group_name_H-M "C 2/M"
_symmetry_group_IT_number 12
_symmetry_cell_setting 'monoclinic'
loop_
_space_group_symop_operation_xyz
x,y,z
-x,y,-z
-x,-y,-z
x,-y,z
1/2+x,1/2+y,z
1/2-x,1/2+y,-z
1/2-x,1/2-y,-z
1/2+x,1/2-y,z
loop_
_atom_site_type_symbol
_atom_site_label
_atom_site_fract_x
_atom_site_fract_y
_atom_site_fract_z
Si Si1 0.543381 0.500000 0.167428
Si Si2 0.077373 0.122274 0.907234
Si Si3 0.174762 0.629748 0.868778
Si Si4 0.311374 0.574195 0.685189
Si Si5 0.534050 0.927167 0.179735
Si Si6 0.688687 0.792249 0.352923
Si Si7 0.169475 0.812995 0.049968
O O1 0.500000 0.500000 0.500000
O O2 0.500000 0.500000 0.000000
O O3 0.586149 0.563454 0.083825
O O4 0.121405 0.102058 0.577453
O O5 0.105408 0.184069 0.993291
O O6 0.000000 0.135623 0.000000
O O7 0.242751 0.590183 0.670228
O O8 0.159781 0.679098 0.671210
O O9 0.113530 0.581973 0.007923
O O10 0.177077 0.663398 0.134461
O O11 0.318252 0.500000 0.722257
O O12 0.306925 0.615091 0.951239
O O13 0.500000 0.896245 0.500000
O O14 0.517851 0.000000 0.215813
O O15 0.500000 0.896258 0.000000
O O16 0.654352 0.725430 0.343935
O O17 0.768832 0.779405 0.223463
#
# Coordination Sequence:
#
# PCOD8109619 Si02
#       7
#     4   8   8   8   8   8   8
#     4  10  24  40  60  86 124 180 218 259 334 403
#     4  11  24  39  62  93 134 180 226 278 335 402
#     4  11  22  43  69 102 133 174 225 286 331 407
#     4  11  24  40  65 101 136 174 224 287 341 400
#     4  10  21  39  67 100 137 177 213 266 349 431
#     4  10  23  42  69  94 130 179 231 277 339 397
#     4  10  24  40  65  92 131 181 233 282 337 411
#
# _framework density 23.162656999999999
#
# number of rings (size 3 to 8) (size 9 to 14) (size 15 to 20)
#    0.000    1.538    2.308    1.385    7.538    1.846 
#    0.000    2.308    6.769    0.000    0.000    0.000 
#    0.000    0.000    0.000    0.000    0.000    0.000 
#
# Total GULP energy -322179.720966 kJ/mol
# GULP energy per Si atom -12391.527729 kJ/mol
# Density = 2.310994 g / cm^3
# Si number density = 23.162657 Si / 1000 Ang^3
#
#
#
# Elastic Constant Matrix: (Units=GPa)
#
#
# Indices 1 2 3 4 5 6 
#
# 1 130.2550 34.9646 40.4385 0.0000 -16.0769 0.0000
# 2 34.9646 84.9546 6.3416 0.0000 1.0940 0.0000
# 3 40.4385 6.3416 98.8131 0.0000 1.0165 0.0000
# 4 0.0000 0.0000 0.0000 26.0470 0.0000 4.0043
# 5 -16.0769 1.0940 1.0165 0.0000 36.1452 0.0000
# 6 0.0000 0.0000 0.0000 4.0043 0.0000 35.8473
#
#
#
# Elastic Compliance Matrix: (Units=1/GPa)
#
#
# Indices 1 2 3 4 5 6 
#
# 1 0.010704 -0.004159 -0.004165 0.000000 0.005004 0.000000
# 2 -0.004159 0.013448 0.000863 0.000000 -0.002281 0.000000
# 3 -0.004165 0.000863 0.011792 0.000000 -0.002210 0.000000
# 4 0.000000 0.000000 0.000000 0.039063 0.000000 -0.004364
# 5 0.005004 -0.002281 -0.002210 0.000000 0.030023 0.000000
# 6 0.000000 0.000000 0.000000 -0.004364 0.000000 0.028384
#
#
# Mechanical properties :
#
#
# Convention : Reuss Voigt Hill
#
# Bulk Modulus (GPa) = 47.57253 53.05690 50.31472
# Shear Modulus (GPa) = 32.18650 35.09311 33.63981
#
# Velocity S-wave (km/s) = 3.73176 3.89662 3.81508
# Velocity P-wave (km/s) = 6.25708 6.57273 6.41685
#
# Compressibility (1/GPa) = 0.02102053
#
# Stress axis : x y z
#
# Youngs Moduli (GPa) = 93.41887 74.36189 84.80250
#
# Poissons Ratio (x) = 0.30928 0.35323
# Poissons Ratio (y) = 0.38854 -0.07314
# Poissons Ratio (z) = 0.38912 -0.06414
#
# Static dielectric constant tensor:
#      x y z
#    x 4.271490 0.000000 0.023550 
#    y 0.000000 4.350930 0.000000 
#    z 0.023550 0.000000 4.076300 
# 
# 
# High freq. dielectric constant tensor:
#      x y z
#    x 1.919910 0.000000 0.011490 
#    y 0.000000 1.907840 0.000000 
#    z 0.011490 0.000000 1.908140 
# 
# From -- ./inp_files/21819.got.cif
#   From: 2010.06.25/outbox.cif.g09.slc.cpg/sg12_11_cif.got.tgz:21819.got - 2010.06.28 00:19:55.
