data_PCOD8109217
_publ_section_title
;
Structure prediction by ZEFSAII (Michael W. Deem and Ramdas Pophale) SiO2 
 PCOD8109217
Probable space group: C 2/M
;
_chemical_formula_sum "Si O2"
_cell_formula_units_Z 64
_cell_length_a 18.777277
_cell_length_b 13.633102
_cell_length_c 25.233061
_cell_angle_alpha 90.000000
_cell_angle_beta 149.638205
_cell_angle_gamma 90.000000
_cell_volume 3264.996802
_symmetry_space_group_name_H-M "C 2/M"
_symmetry_group_IT_number 12
_symmetry_cell_setting 'monoclinic'
loop_
_space_group_symop_operation_xyz
x,y,z
-x,y,-z
-x,-y,-z
x,-y,z
1/2+x,1/2+y,z
1/2-x,1/2+y,-z
1/2-x,1/2-y,-z
1/2+x,1/2-y,z
loop_
_atom_site_type_symbol
_atom_site_label
_atom_site_fract_x
_atom_site_fract_y
_atom_site_fract_z
Si Si1 0.113122 0.287805 0.345842
Si Si2 0.290469 0.239347 0.153004
Si Si3 0.072865 0.385011 0.209259
Si Si4 0.586019 0.386737 0.962787
Si Si5 0.560451 0.887689 0.594878
Si Si6 0.739183 0.887725 0.026494
Si Si7 0.289312 0.112091 0.490207
Si Si8 0.688391 0.258405 0.202521
O O1 0.127705 0.333401 0.297400
O O2 0.176044 0.177734 0.385804
O O3 0.203258 0.355195 0.443778
O O4 0.953520 0.285090 0.262938
O O5 0.260253 0.325371 0.092345
O O6 0.232788 0.274328 0.172504
O O7 0.210662 0.140623 0.083572
O O8 0.103169 0.500000 0.231992
O O9 0.160493 0.341517 0.216516
O O10 0.907636 0.361697 0.096301
O O11 0.549553 0.500000 0.947496
O O12 0.636444 0.364544 0.935152
O O13 0.451237 0.323109 0.889566
O O14 0.500000 0.852755 0.500000
O O15 0.442892 0.874423 0.563971
O O16 0.692118 0.820691 0.692351
O O17 0.612529 0.000000 0.625078
O O18 0.740885 0.000000 0.045565
O O19 0.237328 0.000000 0.452910
#
# Coordination Sequence:
#
# PCOD8109217 Si02
#       8
#     8   8   8   8   8   8   8   8
#     4  11  22  40  69  92 122 167 212 266 315 376
#     4  12  23  39  61  93 127 166 203 258 314 374
#     4  11  23  41  64  88 122 172 217 253 306 376
#     4  11  23  39  61  92 128 165 208 257 310 374
#     4  10  21  39  62  91 126 162 202 256 323 384
#     4  10  22  40  62  86 121 166 215 261 301 360
#     4  10  22  41  65  96 124 158 212 270 324 373
#     4  12  24  39  61  93 131 165 206 252 316 379
#
# _framework density 19.601856999999999
#
# number of rings (size 3 to 8) (size 9 to 14) (size 15 to 20)
#    0.000    1.125    3.750    3.000    0.000    3.000 
#    0.000    4.375    0.000    1.125    0.000    0.000 
#    0.000    0.000    0.000    0.000    0.000    0.000 
#
# Total GULP energy -396978.398049 kJ/mol
# GULP energy per Si atom -12405.574939 kJ/mol
# Density = 1.955724 g / cm^3
# Si number density = 19.601857 Si / 1000 Ang^3
#
#
#
# Elastic Constant Matrix: (Units=GPa)
#
#
# Indices 1 2 3 4 5 6 
#
# 1 87.9695 42.0383 18.8407 -0.0019 -10.1156 -0.0003
# 2 42.0383 112.3739 50.1681 -0.0019 -3.2663 -0.0004
# 3 18.8407 50.1681 90.8444 -0.0053 0.0228 -0.0012
# 4 -0.0019 -0.0019 -0.0053 25.8960 -0.0006 1.4965
# 5 -10.1156 -3.2663 0.0228 -0.0006 35.0857 0.0000
# 6 -0.0003 -0.0004 -0.0012 1.4965 0.0000 23.9855
#
#
#
# Elastic Compliance Matrix: (Units=1/GPa)
#
#
# Indices 1 2 3 4 5 6 
#
# 1 0.014290 -0.005198 -0.000094 0.000001 0.003636 0.000000
# 2 -0.005198 0.013744 -0.006512 -0.000001 -0.000215 0.000000
# 3 -0.000094 -0.006512 0.014624 0.000002 -0.000643 0.000000
# 4 0.000001 -0.000001 0.000002 0.038756 0.000001 -0.002418
# 5 0.003636 -0.000215 -0.000643 0.000001 0.029530 0.000000
# 6 0.000000 0.000000 0.000000 -0.002418 0.000000 0.041843
#
#
# Mechanical properties :
#
#
# Convention : Reuss Voigt Hill
#
# Bulk Modulus (GPa) = 52.49439 57.03133 54.76286
# Shear Modulus (GPa) = 27.36051 29.00282 28.18166
#
# Velocity S-wave (km/s) = 3.74011 3.85072 3.79582
# Velocity P-wave (km/s) = 6.74460 6.99491 6.87090
#
# Compressibility (1/GPa) = 0.01904966
#
# Stress axis : x y z
#
# Youngs Moduli (GPa) = 69.97984 72.75655 68.38188
#
# Poissons Ratio (x) = 0.37820 0.00642
# Poissons Ratio (y) = 0.36376 0.44531
# Poissons Ratio (z) = 0.00658 0.47380
#
# Static dielectric constant tensor:
#      x y z
#    x 3.679400 0.000000 -0.014530 
#    y 0.000000 3.653490 0.000000 
#    z -0.014530 0.000000 3.610300 
# 
# 
# High freq. dielectric constant tensor:
#      x y z
#    x 1.771270 0.000000 -0.005710 
#    y 0.000000 1.767130 0.000000 
#    z -0.005710 0.000000 1.766090 
# 
# From -- ./inp_files/278144.got.cif
#   From: 2010.06.25/outbox.cif.g09.slc.cpg/sg12_140_cif.got.tgz:278144.got - 2010.06.28 00:19:55.
