data_PCOD8109308
_publ_section_title
;
Structure prediction by ZEFSAII (Michael W. Deem and Ramdas Pophale) SiO2 
 PCOD8109308
Probable space group: C 2/M
;
_chemical_formula_sum "Si O2"
_cell_formula_units_Z 48
_cell_length_a 24.708258
_cell_length_b 8.482072
_cell_length_c 12.416046
_cell_angle_alpha 90.000000
_cell_angle_beta 70.444817
_cell_angle_gamma 90.000000
_cell_volume 2452.028984
_symmetry_space_group_name_H-M "C 2/M"
_symmetry_group_IT_number 12
_symmetry_cell_setting 'monoclinic'
loop_
_space_group_symop_operation_xyz
x,y,z
-x,y,-z
-x,-y,-z
x,-y,z
1/2+x,1/2+y,z
1/2-x,1/2+y,-z
1/2-x,1/2-y,-z
1/2+x,1/2-y,z
loop_
_atom_site_type_symbol
_atom_site_label
_atom_site_fract_x
_atom_site_fract_y
_atom_site_fract_z
Si Si1 0.612793 0.682023 0.224473
Si Si2 0.192582 0.818345 0.368918
Si Si3 0.498238 0.184900 0.377641
Si Si4 0.813106 0.182257 0.233735
Si Si5 0.309298 0.183587 0.005100
Si Si6 0.371942 0.817344 0.393025
O O1 0.621462 0.500000 0.188109
O O2 0.642663 0.723482 0.317852
O O3 0.545849 0.721913 0.278251
O O4 0.640130 0.788626 0.113464
O O5 0.246931 0.711681 0.306115
O O6 0.169994 0.782822 0.503049
O O7 0.211491 0.000000 0.348972
O O8 0.500000 0.240627 0.500000
O O9 0.437569 0.233423 0.367087
O O10 0.510885 0.000000 0.360031
O O11 0.855066 0.283319 0.281614
O O12 0.827286 0.000000 0.240813
O O13 0.826543 0.230068 0.103051
O O14 0.301276 0.000000 0.033735
O O15 0.250000 0.250000 0.000000
O O16 0.363670 0.000000 0.426982
#
# Coordination Sequence:
#
# PCOD8109308 Si02
#       6
#     8   8   8   8   8   8
#     4  11  23  38  62  94 126 159 202 253 303 357
#     4  11  22  37  60  91 127 162 202 251 307 367
#     4  10  21  39  63  90 122 162 205 251 303 361
#     4  12  25  41  62  89 125 164 205 253 309 366
#     4  12  24  41  65  91 123 160 204 251 303 363
#     4  11  23  40  62  89 126 165 206 253 308 367
#
# _framework density 19.575623
#
# number of rings (size 3 to 8) (size 9 to 14) (size 15 to 20)
#    0.000    0.833    3.333    5.000    0.000    3.000 
#    0.000    0.833    0.000    5.000    0.000    0.000 
#    0.000    0.000    0.000    0.000    0.000    0.000 
#
# Total GULP energy -297813.684744 kJ/mol
# GULP energy per Si atom -12408.903531 kJ/mol
# Density = 1.953107 g / cm^3
# Si number density = 19.575623 Si / 1000 Ang^3
#
#
#
# Elastic Constant Matrix: (Units=GPa)
#
#
# Indices 1 2 3 4 5 6 
#
# 1 78.9536 23.0704 34.9950 0.0000 -2.4079 0.0000
# 2 23.0704 66.1550 12.9942 0.0000 -3.7856 0.0000
# 3 34.9950 12.9942 108.1414 0.0000 1.1662 0.0000
# 4 0.0000 0.0000 0.0000 33.5478 0.0000 -1.7392
# 5 -2.4079 -3.7856 1.1662 0.0000 35.1919 0.0000
# 6 0.0000 0.0000 0.0000 -1.7392 0.0000 32.2934
#
#
#
# Elastic Compliance Matrix: (Units=1/GPa)
#
#
# Indices 1 2 3 4 5 6 
#
# 1 0.016118 -0.004662 -0.004664 0.000000 0.000756 0.000000
# 2 -0.004662 0.016935 -0.000543 0.000000 0.001521 0.000000
# 3 -0.004664 -0.000543 0.010830 0.000000 -0.000736 0.000000
# 4 0.000000 0.000000 0.000000 0.029892 0.000000 0.001610
# 5 0.000756 0.001521 -0.000736 0.000000 0.028655 0.000000
# 6 0.000000 0.000000 0.000000 0.001610 0.000000 0.031053
#
#
# Mechanical properties :
#
#
# Convention : Reuss Voigt Hill
#
# Bulk Modulus (GPa) = 41.41412 43.92993 42.67202
# Shear Modulus (GPa) = 31.00431 32.35267 31.67849
#
# Velocity S-wave (km/s) = 3.98404 4.06975 4.02713
# Velocity P-wave (km/s) = 6.50887 6.67636 6.59314
#
# Compressibility (1/GPa) = 0.02414636
#
# Stress axis : x y z
#
# Youngs Moduli (GPa) = 62.04232 59.04828 92.33980
#
# Poissons Ratio (x) = 0.27526 0.43066
# Poissons Ratio (y) = 0.28921 0.05013
# Poissons Ratio (z) = 0.28936 0.03205
#
# Static dielectric constant tensor:
#      x y z
#    x 3.524820 0.000000 0.078940 
#    y 0.000000 3.592750 0.000000 
#    z 0.078940 0.000000 3.595250 
# 
# 
# High freq. dielectric constant tensor:
#      x y z
#    x 1.761050 0.000000 0.001720 
#    y 0.000000 1.772070 0.000000 
#    z 0.001720 0.000000 1.763590 
# 
# From -- ./inp_files/172439.got.cif
#   From: 2010.06.25/outbox.cif.g09.slc.cpg/sg12_87_cif.got.tgz:172439.got - 2010.06.28 00:19:55.
