data_PCOD8109276
_publ_section_title
;
Structure prediction by ZEFSAII (Michael W. Deem and Ramdas Pophale) SiO2 
 PCOD8109276
Probable space group: C 2/M
;
_chemical_formula_sum "Si O2"
_cell_formula_units_Z 32
_cell_length_a 14.830717
_cell_length_b 8.830348
_cell_length_c 25.219084
_cell_angle_alpha 90.000000
_cell_angle_beta 151.558336
_cell_angle_gamma 90.000000
_cell_volume 1572.956796
_symmetry_space_group_name_H-M "C 2/M"
_symmetry_group_IT_number 12
_symmetry_cell_setting 'monoclinic'
loop_
_space_group_symop_operation_xyz
x,y,z
-x,y,-z
-x,-y,-z
x,-y,z
1/2+x,1/2+y,z
1/2-x,1/2+y,-z
1/2-x,1/2-y,-z
1/2+x,1/2-y,z
loop_
_atom_site_type_symbol
_atom_site_label
_atom_site_fract_x
_atom_site_fract_y
_atom_site_fract_z
Si Si1 0.944982 0.179315 0.742651
Si Si2 0.891999 0.333281 0.499400
Si Si3 0.282594 0.678209 0.279543
Si Si4 0.790748 0.824964 0.870321
O O1 0.821615 0.218423 0.625757
O O2 0.858641 0.257889 0.749483
O O3 0.153809 0.242643 0.841370
O O4 0.948482 0.000000 0.754427
O O5 0.892177 0.500000 0.526020
O O6 0.000000 0.341170 0.500000
O O7 0.997632 0.218124 0.593507
O O8 0.262255 0.500000 0.265726
O O9 0.222410 0.748766 0.193315
O O10 0.734082 0.000000 0.836652
O O11 0.000000 0.802470 0.000000
#
# Coordination Sequence:
#
# PCOD8109276 Si02
#       4
#     8   8   8   8
#     4  10  21  39  63  89 119 154 191 237 290 343
#     4   8  16  33  57  86 119 152 188 232 283 341
#     4  11  22  37  61  90 120 155 191 234 290 347
#     4  11  25  43  61  83 113 152 200 248 290 339
#
# _framework density 20.343852999999999
#
# number of rings (size 3 to 8) (size 9 to 14) (size 15 to 20)
#    0.000    2.000    0.000    5.250    0.000    9.500 
#    0.000    0.000    0.000    0.000    0.000    0.000 
#    0.000    0.000    0.000    0.000    0.000    0.000 
#
# Total GULP energy -198393.167352 kJ/mol
# GULP energy per Si atom -12399.572959 kJ/mol
# Density = 2.029755 g / cm^3
# Si number density = 20.343853 Si / 1000 Ang^3
#
#
#
# Elastic Constant Matrix: (Units=GPa)
#
#
# Indices 1 2 3 4 5 6 
#
# 1 13.7564 8.6328 -10.5268 0.0008 1.4418 0.0000
# 2 8.6328 128.8681 21.6011 0.0006 2.0616 -0.0002
# 3 -10.5268 21.6011 61.5355 0.0023 0.5061 0.0005
# 4 0.0008 0.0006 0.0023 24.3275 0.0002 -8.6233
# 5 1.4418 2.0616 0.5061 0.0002 35.1793 0.0000
# 6 0.0000 -0.0002 0.0005 -8.6233 0.0000 25.2367
#
#
#
# Elastic Compliance Matrix: (Units=1/GPa)
#
#
# Indices 1 2 3 4 5 6 
#
# 1 0.093882 -0.009487 0.019420 -0.000005 -0.003571 -0.000002
# 2 -0.009487 0.009211 -0.004856 0.000001 -0.000081 0.000000
# 3 0.019420 -0.004856 0.021284 -0.000003 -0.000818 -0.000001
# 4 -0.000005 0.000001 -0.000003 0.046771 0.000000 0.015981
# 5 -0.003571 -0.000081 -0.000818 0.000000 0.028589 0.000000
# 6 -0.000002 0.000000 -0.000001 0.015981 0.000000 0.045086
#
#
# Mechanical properties :
#
#
# Convention : Reuss Voigt Hill
#
# Bulk Modulus (GPa) = 7.43320 27.06380 17.24850
# Shear Modulus (GPa) = 17.88837 29.24555 23.56696
#
# Velocity S-wave (km/s) = 2.96852 3.79563 3.40727
# Velocity P-wave (km/s) = 3.92571 5.70449 4.89655
#
# Compressibility (1/GPa) = 0.13453158
#
# Stress axis : x y z
#
# Youngs Moduli (GPa) = 10.65164 108.57052 46.98335
#
# Poissons Ratio (x) = 1.03003 -0.91242
# Poissons Ratio (y) = 0.10105 0.22813
# Poissons Ratio (z) = -0.20686 0.52717
#
# Static dielectric constant tensor:
#      x y z
#    x 3.525900 0.000000 0.170500 
#    y 0.000000 3.790720 0.000000 
#    z 0.170500 0.000000 4.049550 
# 
# 
# High freq. dielectric constant tensor:
#      x y z
#    x 1.790040 0.000000 0.004820 
#    y 0.000000 1.803500 0.000000 
#    z 0.004820 0.000000 1.797260 
# 
# From -- ./inp_files/138614.got.cif
#   From: 2010.06.25/outbox.cif.g09.slc.cpg/sg12_70_cif.got.tgz:138614.got - 2010.06.28 00:19:55.
