data_PCOD8109727
_publ_section_title
;
Structure prediction by ZEFSAII (Michael W. Deem and Ramdas Pophale) SiO2 
 PCOD8109727
Probable space group: C 2/M
;
_chemical_formula_sum "Si O2"
_cell_formula_units_Z 24
_cell_length_a 11.942137
_cell_length_b 13.655569
_cell_length_c 14.578158
_cell_angle_alpha 90.000000
_cell_angle_beta 150.693584
_cell_angle_gamma 90.000000
_cell_volume 1163.669217
_symmetry_space_group_name_H-M "C 2/M"
_symmetry_group_IT_number 12
_symmetry_cell_setting 'monoclinic'
loop_
_space_group_symop_operation_xyz
x,y,z
-x,y,-z
-x,-y,-z
x,-y,z
1/2+x,1/2+y,z
1/2-x,1/2+y,-z
1/2-x,1/2-y,-z
1/2+x,1/2-y,z
loop_
_atom_site_type_symbol
_atom_site_label
_atom_site_fract_x
_atom_site_fract_y
_atom_site_fract_z
Si Si1 0.720664 0.307764 0.209475
Si Si2 0.290538 0.112956 0.454079
Si Si3 0.080423 0.892050 0.660967
O O1 0.699443 0.323380 0.303417
O O2 0.729314 0.191660 0.192224
O O3 0.948376 0.360425 0.334652
O O4 0.500000 0.351868 0.000000
O O5 0.137498 0.136451 0.432700
O O6 0.277302 0.000000 0.415657
O O7 0.000000 0.893682 0.500000
O O8 0.176965 0.000000 0.757709
#
# Coordination Sequence:
#
# PCOD8109727 Si02
#       3
#     8   8   8
#     4  11  22  36  64  88 115 149 195 237 288 339
#     4  10  22  41  60  84 119 152 191 239 284 339
#     4  10  21  40  62  83 116 157 191 234 289 340
#
# _framework density 20.624417999999999
#
# number of rings (size 3 to 8) (size 9 to 14) (size 15 to 20)
#    0.000    1.667    3.333    3.000    0.000    4.667 
#    0.000    0.000    0.000    0.000    0.000    0.000 
#    0.000    0.000    0.000    0.000    0.000    0.000 
#
# Total GULP energy -148775.286894 kJ/mol
# GULP energy per Si atom -12397.940574 kJ/mol
# Density = 2.057748 g / cm^3
# Si number density = 20.624418 Si / 1000 Ang^3
#
#
#
# Elastic Constant Matrix: (Units=GPa)
#
#
# Indices 1 2 3 4 5 6 
#
# 1 161.6367 50.3605 49.4521 0.0058 0.4225 0.0038
# 2 50.3605 110.9285 32.3315 -0.0039 7.8272 -0.0021
# 3 49.4521 32.3315 139.5400 -0.0091 2.2034 -0.0047
# 4 0.0058 -0.0039 -0.0091 20.4072 -0.0040 8.2993
# 5 0.4225 7.8272 2.2034 -0.0040 5.9796 -0.0019
# 6 0.0038 -0.0021 -0.0047 8.2993 -0.0019 39.9759
#
#
#
# Elastic Compliance Matrix: (Units=1/GPa)
#
#
# Indices 1 2 3 4 5 6 
#
# 1 0.007831 -0.003263 -0.002090 -0.000003 0.004488 0.000000
# 2 -0.003263 0.011949 -0.001377 0.000000 -0.014903 0.000000
# 3 -0.002090 -0.001377 0.008243 0.000004 -0.001087 0.000000
# 4 -0.000003 0.000000 0.000004 0.053521 0.000032 -0.011111
# 5 0.004488 -0.014903 -0.001087 0.000032 0.186829 0.000001
# 6 0.000000 0.000000 0.000000 -0.011111 0.000001 0.027322
#
#
# Mechanical properties :
#
#
# Convention : Reuss Voigt Hill
#
# Bulk Modulus (GPa) = 68.66378 75.15481 71.90929
# Shear Modulus (GPa) = 15.92310 31.93661 23.92986
#
# Velocity S-wave (km/s) = 2.78160 3.93935 3.40997
# Velocity P-wave (km/s) = 6.60917 7.56374 7.10251
#
# Compressibility (1/GPa) = 0.01456372
#
# Stress axis : x y z
#
# Youngs Moduli (GPa) = 127.69781 83.68938 121.30976
#
# Poissons Ratio (x) = 0.27305 0.25356
# Poissons Ratio (y) = 0.41663 0.16704
# Poissons Ratio (z) = 0.26691 0.11524
#
# Static dielectric constant tensor:
#      x y z
#    x 3.825070 -0.000010 0.104280 
#    y -0.000010 4.449010 -0.000010 
#    z 0.104280 -0.000010 3.254280 
# 
# 
# High freq. dielectric constant tensor:
#      x y z
#    x 1.817990 0.000000 0.003860 
#    y 0.000000 1.830210 0.000000 
#    z 0.003860 0.000000 1.767340 
# 
# From -- ./inp_files/9232.got.cif
#   From: 2010.06.25/outbox.cif.g09.slc.cpg/sg12_5_cif.got.tgz:9232.got - 2010.06.28 00:19:55.
