data_PCOD8109698
_publ_section_title
;
Structure prediction by ZEFSAII (Michael W. Deem and Ramdas Pophale) SiO2 
 PCOD8109698
Probable space group: C 2/M
;
_chemical_formula_sum "Si O2"
_cell_formula_units_Z 64
_cell_length_a 19.027200
_cell_length_b 21.298511
_cell_length_c 8.986831
_cell_angle_alpha 90.000000
_cell_angle_beta 121.443639
_cell_angle_gamma 90.000000
_cell_volume 3107.119755
_symmetry_space_group_name_H-M "C 2/M"
_symmetry_group_IT_number 12
_symmetry_cell_setting 'monoclinic'
loop_
_space_group_symop_operation_xyz
x,y,z
-x,y,-z
-x,-y,-z
x,-y,z
1/2+x,1/2+y,z
1/2-x,1/2+y,-z
1/2-x,1/2-y,-z
1/2+x,1/2-y,z
loop_
_atom_site_type_symbol
_atom_site_label
_atom_site_fract_x
_atom_site_fract_y
_atom_site_fract_z
Si Si1 0.687867 0.182092 0.704755
Si Si2 0.063838 0.736767 0.753136
Si Si3 0.408620 0.829195 0.916194
Si Si4 0.676786 0.654046 0.913401
Si Si5 0.413462 0.430644 0.959114
Si Si6 0.707960 0.612393 0.396893
Si Si7 0.623446 0.740603 0.391296
Si Si8 0.729476 0.926798 0.218051
O O1 0.594929 0.179994 0.675828
O O2 0.712990 0.123743 0.625885
O O3 0.689946 0.241227 0.591951
O O4 0.751739 0.188031 0.911500
O O5 0.123230 0.794065 0.767971
O O6 0.968351 0.756755 0.634814
O O7 0.088985 0.721128 0.949051
O O8 0.373632 0.793455 0.733642
O O9 0.356215 0.890686 0.893940
O O10 0.500000 0.856187 0.000000
O O11 0.708577 0.603741 0.830428
O O12 0.615067 0.618120 0.951281
O O13 0.423812 0.500000 0.040280
O O14 0.350608 0.436170 0.751968
O O15 0.500000 0.403701 0.000000
O O16 0.650996 0.674137 0.357708
O O17 0.736149 0.580299 0.578484
O O18 0.716872 0.000000 0.166161
#
# Coordination Sequence:
#
# PCOD8109698 Si02
#       8
#     8   8   8   8   8   8   8   8
#     4  11  21  34  59  88 117 155 191 244 306 365
#     4  11  22  37  60  91 125 156 193 250 317 371
#     4  10  22  40  63  90 123 162 205 250 306 369
#     4  11  23  37  62  90 122 158 203 249 303 365
#     4  10  21  40  61  83 117 162 209 249 287 343
#     4  11  23  37  62  90 122 158 203 249 303 365
#     4  11  22  37  60  91 125 156 193 250 317 371
#     4  12  25  42  62  87 124 169 212 249 294 356
#
# _framework density 20.597854999999999
#
# number of rings (size 3 to 8) (size 9 to 14) (size 15 to 20)
#    0.000    1.125    2.500    4.875    3.500    1.250 
#    0.000    1.875    0.000    4.500    0.000    3.500 
#    0.000    0.000    0.000    0.000    0.000    0.000 
#
# Total GULP energy -396583.619920 kJ/mol
# GULP energy per Si atom -12393.238122 kJ/mol
# Density = 2.055097 g / cm^3
# Si number density = 20.597855 Si / 1000 Ang^3
#
#
#
# Elastic Constant Matrix: (Units=GPa)
#
#
# Indices 1 2 3 4 5 6 
#
# 1 116.0490 39.8529 -1.0913 0.0000 0.6792 0.0000
# 2 39.8529 87.3526 8.8725 0.0000 8.7281 0.0000
# 3 -1.0913 8.8725 46.1489 0.0000 -1.9366 0.0000
# 4 0.0000 0.0000 0.0000 22.1466 0.0000 0.9322
# 5 0.6792 8.7281 -1.9366 0.0000 23.2895 0.0000
# 6 0.0000 0.0000 0.0000 0.9322 0.0000 20.3350
#
#
#
# Elastic Compliance Matrix: (Units=1/GPa)
#
#
# Indices 1 2 3 4 5 6 
#
# 1 0.010342 -0.005017 0.001280 0.000000 0.001685 0.000000
# 2 -0.005017 0.014617 -0.003164 0.000000 -0.005595 0.000000
# 3 0.001280 -0.003164 0.022434 0.000000 0.003014 0.000000
# 4 0.000000 0.000000 0.000000 0.045241 0.000000 -0.002074
# 5 0.001685 -0.005595 0.003014 0.000000 0.045236 0.000000
# 6 0.000000 0.000000 0.000000 -0.002074 0.000000 0.049271
#
#
# Mechanical properties :
#
#
# Convention : Reuss Voigt Hill
#
# Bulk Modulus (GPa) = 29.76914 38.31319 34.04117
# Shear Modulus (GPa) = 23.56937 26.61531 25.09234
#
# Velocity S-wave (km/s) = 3.38637 3.59853 3.49406
# Velocity P-wave (km/s) = 5.45655 5.99224 5.73065
#
# Compressibility (1/GPa) = 0.03359183
#
# Stress axis : x y z
#
# Youngs Moduli (GPa) = 96.69287 68.41371 44.57529
#
# Poissons Ratio (x) = 0.34321 -0.05705
# Poissons Ratio (y) = 0.48508 0.14102
# Poissons Ratio (z) = -0.12374 0.21644
#
# Static dielectric constant tensor:
#      x y z
#    x 4.123100 0.000000 -0.090660 
#    y 0.000000 3.424350 0.000000 
#    z -0.090660 0.000000 3.824100 
# 
# 
# High freq. dielectric constant tensor:
#      x y z
#    x 1.824970 0.000000 -0.010450 
#    y 0.000000 1.775670 0.000000 
#    z -0.010450 0.000000 1.815510 
# 
# From -- ./inp_files/89637.got.cif
#   From: 2010.06.25/outbox.cif.g09.slc.cpg/sg12_45_cif.got.tgz:89637.got - 2010.06.28 00:19:55.
