data_PCOD8109134
_publ_section_title
;
Structure prediction by ZEFSAII (Michael W. Deem and Ramdas Pophale) SiO2 
 PCOD8109134
Probable space group: C 2/M
;
_chemical_formula_sum "Si O2"
_cell_formula_units_Z 60
_cell_length_a 8.358551
_cell_length_b 30.154739
_cell_length_c 11.161556
_cell_angle_alpha 90.000000
_cell_angle_beta 108.096318
_cell_angle_gamma 90.000000
_cell_volume 2674.112926
_symmetry_space_group_name_H-M "C 2/M"
_symmetry_group_IT_number 12
_symmetry_cell_setting 'monoclinic'
loop_
_space_group_symop_operation_xyz
x,y,z
-x,y,-z
-x,-y,-z
x,-y,z
1/2+x,1/2+y,z
1/2-x,1/2+y,-z
1/2-x,1/2-y,-z
1/2+x,1/2-y,z
loop_
_atom_site_type_symbol
_atom_site_label
_atom_site_fract_x
_atom_site_fract_y
_atom_site_fract_z
Si Si1 0.000000 0.759898 0.500000
Si Si2 0.837122 0.119708 0.109844
Si Si3 0.322414 0.105687 0.689118
Si Si4 0.094964 0.564369 0.913700
Si Si5 0.613017 0.548598 0.179762
Si Si6 0.338681 0.794496 0.661089
Si Si7 0.189936 0.711280 0.073662
Si Si8 0.303679 0.050917 0.465054
O O1 0.839145 0.791232 0.448340
O O2 0.979972 0.730449 0.615767
O O3 0.824064 0.108883 0.247160
O O4 0.835458 0.173032 0.092564
O O5 0.997932 0.089919 0.107704
O O6 0.669301 0.107304 0.998246
O O7 0.474144 0.076192 0.775655
O O8 0.394114 0.154285 0.676453
O O9 0.236151 0.081806 0.556061
O O10 0.249991 0.538191 0.891612
O O11 0.000000 0.537383 0.000000
O O12 0.520645 0.500000 0.174199
O O13 0.705080 0.563653 0.322184
O O14 0.320009 0.773535 0.789650
O O15 0.250000 0.750000 0.000000
O O16 0.000000 0.695133 0.000000
O O17 0.500000 0.061840 0.500000
O O18 0.273552 0.000000 0.492705
#
# Coordination Sequence:
#
# PCOD8109134 Si02
#       8
#     4   8   8   8   8   8   8   8
#     4  10  22  40  58  88 130 164 206 266 318 388
#     4  10  23  41  61  94 134 166 213 273 325 404
#     4  10  21  39  64  91 123 168 215 265 331 391
#     4  10  21  39  62  87 121 165 215 272 328 389
#     4  11  24  41  63  93 130 172 220 274 334 398
#     4  10  22  39  62  92 127 167 213 261 323 396
#     4  11  23  43  69  98 132 172 220 273 334 399
#     4  10  21  39  63  92 126 164 222 280 325 391
#
# _framework density 22.437348
#
# number of rings (size 3 to 8) (size 9 to 14) (size 15 to 20)
#    0.000    1.733    1.333    3.200    0.933    5.600 
#    0.000    9.333    0.000    2.800    0.000    0.000 
#    0.000    0.000    0.000    0.000    0.000    0.000 
#
# Total GULP energy -371680.016446 kJ/mol
# GULP energy per Si atom -12389.333882 kJ/mol
# Density = 2.238628 g / cm^3
# Si number density = 22.437348 Si / 1000 Ang^3
#
#
#
# Elastic Constant Matrix: (Units=GPa)
#
#
# Indices 1 2 3 4 5 6 
#
# 1 91.5779 48.2307 31.0960 0.0000 -3.8260 0.0000
# 2 48.2307 114.8986 46.1631 0.0000 -9.0957 0.0000
# 3 31.0960 46.1631 138.8928 0.0000 -15.8869 0.0000
# 4 0.0000 0.0000 0.0000 12.6529 0.0000 4.4295
# 5 -3.8260 -9.0957 -15.8869 0.0000 39.9982 0.0000
# 6 0.0000 0.0000 0.0000 4.4295 0.0000 15.9481
#
#
#
# Elastic Compliance Matrix: (Units=1/GPa)
#
#
# Indices 1 2 3 4 5 6 
#
# 1 0.014254 -0.005443 -0.001433 0.000000 -0.000443 0.000000
# 2 -0.005443 0.012162 -0.002689 0.000000 0.001177 0.000000
# 3 -0.001433 -0.002689 0.008725 0.000000 0.002717 0.000000
# 4 0.000000 0.000000 0.000000 0.087546 0.000000 -0.024316
# 5 -0.000443 0.001177 0.002717 0.000000 0.026305 0.000000
# 6 0.000000 0.000000 0.000000 -0.024316 0.000000 0.069457
#
#
# Mechanical properties :
#
#
# Convention : Reuss Voigt Hill
#
# Bulk Modulus (GPa) = 62.45540 66.26099 64.35820
# Shear Modulus (GPa) = 20.58326 28.37847 24.48087
#
# Velocity S-wave (km/s) = 3.03209 3.56024 3.30673
# Velocity P-wave (km/s) = 6.33672 6.81881 6.58218
#
# Compressibility (1/GPa) = 0.01601143
#
# Stress axis : x y z
#
# Youngs Moduli (GPa) = 70.15444 82.22650 114.61188
#
# Poissons Ratio (x) = 0.44754 0.16424
# Poissons Ratio (y) = 0.38184 0.30818
# Poissons Ratio (z) = 0.10053 0.22110
#
# Static dielectric constant tensor:
#      x y z
#    x 3.942050 0.000000 -0.191800 
#    y 0.000000 3.818890 0.000000 
#    z -0.191800 0.000000 4.272130 
# 
# 
# High freq. dielectric constant tensor:
#      x y z
#    x 1.868960 0.000000 -0.008930 
#    y 0.000000 1.871830 0.000000 
#    z -0.008930 0.000000 1.904640 
# 
# From -- ./inp_files/125780.got.cif
#   From: 2010.06.25/outbox.cif.g09.slc.cpg/sg12_63_cif.got.tgz:125780.got - 2010.06.28 00:19:55.
