data_PCOD8109035
_publ_section_title
;
Structure prediction by ZEFSAII (Michael W. Deem and Ramdas Pophale) SiO2 
 PCOD8109035
Probable space group: C 2/M
;
_chemical_formula_sum "Si O2"
_cell_formula_units_Z 64
_cell_length_a 15.349136
_cell_length_b 8.723322
_cell_length_c 23.891422
_cell_angle_alpha 90.000000
_cell_angle_beta 90.809248
_cell_angle_gamma 90.000000
_cell_volume 3198.633765
_symmetry_space_group_name_H-M "C 2/M"
_symmetry_group_IT_number 12
_symmetry_cell_setting 'monoclinic'
loop_
_space_group_symop_operation_xyz
x,y,z
-x,y,-z
-x,-y,-z
x,-y,z
1/2+x,1/2+y,z
1/2-x,1/2+y,-z
1/2-x,1/2-y,-z
1/2+x,1/2-y,z
loop_
_atom_site_type_symbol
_atom_site_label
_atom_site_fract_x
_atom_site_fract_y
_atom_site_fract_z
Si Si1 0.332889 0.176711 0.246604
Si Si2 0.102337 0.822539 0.859082
Si Si3 0.591741 0.324099 0.128165
Si Si4 0.400371 0.822761 0.370075
Si Si5 0.595026 0.818591 0.361740
Si Si6 0.851318 0.680093 0.758723
Si Si7 0.249252 0.819668 0.560940
Si Si8 0.258168 0.179886 0.939446
O O1 0.398102 0.220533 0.197118
O O2 0.382150 0.207003 0.304908
O O3 0.251279 0.289096 0.240996
O O4 0.303682 0.000000 0.241261
O O5 0.178302 0.761068 0.900544
O O6 0.009536 0.801291 0.889122
O O7 0.117488 0.000000 0.843302
O O8 0.620600 0.500000 0.122406
O O9 0.601952 0.272844 0.192140
O O10 0.650137 0.224387 0.087226
O O11 0.499742 0.771175 0.382993
O O12 0.339716 0.720309 0.408373
O O13 0.385694 0.000000 0.385728
O O14 0.610452 0.755822 0.299308
O O15 0.668592 0.750875 0.403837
O O16 0.604315 0.000000 0.359058
O O17 0.868183 0.500000 0.767328
O O18 0.250000 0.750000 0.500000
O O19 0.257544 0.000000 0.555555
O O20 0.253341 0.000000 0.945707
O O21 0.250000 0.250000 0.000000
#
# Coordination Sequence:
#
# PCOD8109035 Si02
#       8
#     8   8   8   8   8   8   8   8
#     4  11  21  34  60  93 124 155 196 244 294 352
#     4  10  23  41  62  88 124 162 197 240 302 360
#     4  11  23  40  62  92 123 157 199 247 299 355
#     4  10  21  39  61  88 118 153 195 241 291 349
#     4   9  20  38  61  85 117 158 195 233 292 359
#     4  11  20  36  61  89 123 161 197 237 295 361
#     4  11  23  41  61  84 114 154 199 245 295 348
#     4  11  24  43  64  87 118 161 203 251 300 350
#
# _framework density 20.008541000000001
#
# number of rings (size 3 to 8) (size 9 to 14) (size 15 to 20)
#    0.000    1.500    2.500    2.625    0.000    4.000 
#    0.000    7.500    0.000    0.000    0.000    0.000 
#    0.000    0.000    0.000    0.000    0.000    0.000 
#
# Total GULP energy -396926.017825 kJ/mol
# GULP energy per Si atom -12403.938057 kJ/mol
# Density = 1.996300 g / cm^3
# Si number density = 20.008541 Si / 1000 Ang^3
#
#
#
# Elastic Constant Matrix: (Units=GPa)
#
#
# Indices 1 2 3 4 5 6 
#
# 1 127.1113 21.4541 51.3887 0.0000 -10.9018 0.0000
# 2 21.4541 45.9563 32.6025 0.0000 -3.2518 0.0000
# 3 51.3887 32.6025 140.8582 0.0000 -12.8159 0.0000
# 4 0.0000 0.0000 0.0000 35.2592 0.0000 -4.3043
# 5 -10.9018 -3.2518 -12.8159 0.0000 15.2748 0.0000
# 6 0.0000 0.0000 0.0000 -4.3043 0.0000 30.3768
#
#
#
# Elastic Compliance Matrix: (Units=1/GPa)
#
#
# Indices 1 2 3 4 5 6 
#
# 1 0.009681 -0.002378 -0.002597 0.000000 0.004224 0.000000
# 2 -0.002378 0.026623 -0.005341 0.000000 -0.000511 0.000000
# 3 -0.002597 -0.005341 0.009756 0.000000 0.005195 0.000000
# 4 0.000000 0.000000 0.000000 0.028861 0.000000 0.004089
# 5 0.004224 -0.000511 0.005195 0.000000 0.072732 0.000000
# 6 0.000000 0.000000 0.000000 0.004089 0.000000 0.033499
#
#
# Mechanical properties :
#
#
# Convention : Reuss Voigt Hill
#
# Bulk Modulus (GPa) = 39.32800 58.31292 48.82046
# Shear Modulus (GPa) = 23.78024 30.08086 26.93055
#
# Velocity S-wave (km/s) = 3.45121 3.88158 3.67270
# Velocity P-wave (km/s) = 5.96485 7.02112 6.51443
#
# Compressibility (1/GPa) = 0.02542718
#
# Stress axis : x y z
#
# Youngs Moduli (GPa) = 103.29831 37.56184 102.50503
#
# Poissons Ratio (x) = 0.08932 0.26621
# Poissons Ratio (y) = 0.24564 0.54747
# Poissons Ratio (z) = 0.26827 0.20061
#
# Static dielectric constant tensor:
#      x y z
#    x 3.839530 0.000000 0.198400 
#    y 0.000000 3.437220 0.000000 
#    z 0.198400 0.000000 3.641700 
# 
# 
# High freq. dielectric constant tensor:
#      x y z
#    x 1.793560 0.000000 -0.001250 
#    y 0.000000 1.771370 0.000000 
#    z -0.001250 0.000000 1.779630 
# 
# From -- ./inp_files/338738.got.cif
#   From: 2010.06.25/outbox.cif.g09.slc.cpg/sg12_170_cif.got.tgz:338738.got - 2010.06.28 00:19:55.
