data_PCOD8109572
_publ_section_title
;
Structure prediction by ZEFSAII (Michael W. Deem and Ramdas Pophale) SiO2 
 PCOD8109572
Probable space group: C 2/M
;
_chemical_formula_sum "Si O2"
_cell_formula_units_Z 64
_cell_length_a 32.876568
_cell_length_b 8.515750
_cell_length_c 16.489254
_cell_angle_alpha 90.000000
_cell_angle_beta 42.343663
_cell_angle_gamma 90.000000
_cell_volume 3109.545867
_symmetry_space_group_name_H-M "C 2/M"
_symmetry_group_IT_number 12
_symmetry_cell_setting 'monoclinic'
loop_
_space_group_symop_operation_xyz
x,y,z
-x,y,-z
-x,-y,-z
x,-y,z
1/2+x,1/2+y,z
1/2-x,1/2+y,-z
1/2-x,1/2-y,-z
1/2+x,1/2-y,z
loop_
_atom_site_type_symbol
_atom_site_label
_atom_site_fract_x
_atom_site_fract_y
_atom_site_fract_z
Si Si1 0.663130 0.317264 0.760090
Si Si2 0.509326 0.814340 0.233826
Si Si3 0.395130 0.183478 0.302201
Si Si4 0.634606 0.185061 0.976604
Si Si5 0.166703 0.821016 0.324471
Si Si6 0.036607 0.316353 0.526293
Si Si7 0.758928 0.182335 0.075210
Si Si8 0.709527 0.679999 0.440254
O O1 0.677294 0.500000 0.737795
O O2 0.609690 0.273234 0.776489
O O3 0.644010 0.269747 0.877859
O O4 0.722111 0.227076 0.640296
O O5 0.453892 0.748224 0.261914
O O6 0.501995 0.763068 0.338440
O O7 0.509107 0.000000 0.228712
O O8 0.572560 0.749164 0.106774
O O9 0.336575 0.210980 0.443710
O O10 0.402047 0.000000 0.274482
O O11 0.688227 0.222229 0.959050
O O12 0.632378 0.000000 0.964392
O O13 0.097005 0.783238 0.437398
O O14 0.196192 0.706132 0.215166
O O15 0.201309 0.793197 0.357152
O O16 0.174166 0.000000 0.284384
O O17 0.052826 0.500000 0.506297
O O18 0.000000 0.273263 0.500000
O O19 0.775696 0.000000 0.047268
O O20 0.750000 0.250000 0.000000
O O21 0.698242 0.500000 0.482445
#
# Coordination Sequence:
#
# PCOD8109572 Si02
#       8
#     8   8   8   8   8   8   8   8
#     4  12  25  41  62  91 125 165 210 258 317 376
#     4   9  21  40  63  91 124 165 209 253 310 376
#     4  11  22  40  65  92 124 163 209 258 311 377
#     4  11  23  43  66  92 126 165 212 261 310 373
#     4  11  23  40  65  96 130 167 208 259 313 368
#     4  10  21  39  65  96 128 167 211 256 310 377
#     4  12  26  44  67  96 129 168 211 260 315 374
#     4  11  22  39  63  93 128 164 204 257 315 372
#
# _framework density 20.581783000000001
#
# number of rings (size 3 to 8) (size 9 to 14) (size 15 to 20)
#    0.000    1.125    2.500    4.125    1.750    1.750 
#    0.000    6.250    0.000    0.000    0.000    0.000 
#    0.000    0.000    0.000    0.000    0.000    0.000 
#
# Total GULP energy -396989.142016 kJ/mol
# GULP energy per Si atom -12405.910688 kJ/mol
# Density = 2.053494 g / cm^3
# Si number density = 20.581783 Si / 1000 Ang^3
#
#
#
# Elastic Constant Matrix: (Units=GPa)
#
#
# Indices 1 2 3 4 5 6 
#
# 1 56.7311 44.7664 33.3079 -0.0011 1.5846 0.0004
# 2 44.7664 52.3711 18.8569 0.0010 12.5812 0.0006
# 3 33.3079 18.8569 113.6417 -0.0009 -6.3955 0.0002
# 4 -0.0011 0.0010 -0.0009 18.8440 0.0000 0.1394
# 5 1.5846 12.5812 -6.3955 0.0000 31.2006 0.0001
# 6 0.0004 0.0006 0.0002 0.1394 0.0001 29.7632
#
#
#
# Elastic Compliance Matrix: (Units=1/GPa)
#
#
# Indices 1 2 3 4 5 6 
#
# 1 0.073154 -0.063846 -0.009719 0.000007 0.020037 0.000000
# 2 -0.063846 0.078866 0.004066 -0.000008 -0.027725 -0.000001
# 3 -0.009719 0.004066 0.011036 0.000000 0.001116 0.000000
# 4 0.000007 -0.000008 0.000000 0.053069 0.000003 -0.000249
# 5 0.020037 -0.027725 0.001116 0.000003 0.042442 0.000000
# 6 0.000000 -0.000001 0.000000 -0.000249 0.000000 0.033600
#
#
# Mechanical properties :
#
#
# Convention : Reuss Voigt Hill
#
# Bulk Modulus (GPa) = 41.56541 46.28958 43.92749
# Shear Modulus (GPa) = 11.38473 24.34907 17.86690
#
# Velocity S-wave (km/s) = 2.35446 3.44327 2.94954
# Velocity P-wave (km/s) = 5.25646 6.19254 5.74360
#
# Compressibility (1/GPa) = 0.02405847
#
# Stress axis : x y z
#
# Youngs Moduli (GPa) = 13.66970 12.67978 90.60901
#
# Poissons Ratio (x) = 0.80955 0.88067
# Poissons Ratio (y) = 0.87275 -0.36843
# Poissons Ratio (z) = 0.13286 -0.05156
#
# Static dielectric constant tensor:
#      x y z
#    x 3.935200 0.000000 0.037070 
#    y 0.000000 3.625760 0.000000 
#    z 0.037070 0.000000 3.836790 
# 
# 
# High freq. dielectric constant tensor:
#      x y z
#    x 1.817510 0.000000 0.006850 
#    y 0.000000 1.798030 0.000000 
#    z 0.006850 0.000000 1.811130 
# 
# From -- ./inp_files/249836.got.cif
#   From: 2010.06.25/outbox.cif.g09.slc.cpg/sg12_125_cif.got.tgz:249836.got - 2010.06.28 00:19:55.
