data_PCOD8109239
_publ_section_title
;
Structure prediction by ZEFSAII (Michael W. Deem and Ramdas Pophale) SiO2 
 PCOD8109239
Probable space group: C 2/M
;
_chemical_formula_sum "Si O2"
_cell_formula_units_Z 48
_cell_length_a 9.619436
_cell_length_b 15.909813
_cell_length_c 29.128441
_cell_angle_alpha 90.000000
_cell_angle_beta 144.855312
_cell_angle_gamma 90.000000
_cell_volume 2566.169275
_symmetry_space_group_name_H-M "C 2/M"
_symmetry_group_IT_number 12
_symmetry_cell_setting 'monoclinic'
loop_
_space_group_symop_operation_xyz
x,y,z
-x,y,-z
-x,-y,-z
x,-y,z
1/2+x,1/2+y,z
1/2-x,1/2+y,-z
1/2-x,1/2-y,-z
1/2+x,1/2-y,z
loop_
_atom_site_type_symbol
_atom_site_label
_atom_site_fract_x
_atom_site_fract_y
_atom_site_fract_z
Si Si1 0.966256 0.676447 0.296293
Si Si2 0.262518 0.746917 0.056956
Si Si3 0.270041 0.156130 0.798729
Si Si4 0.172285 0.906344 0.675937
Si Si5 0.547181 0.402313 0.832420
Si Si6 0.734884 0.273385 0.443678
O O1 0.899343 0.762941 0.253182
O O2 0.731862 0.624513 0.248989
O O3 0.114329 0.624715 0.299102
O O4 0.128265 0.695948 0.384969
O O5 0.452672 0.815603 0.125155
O O6 0.326191 0.654332 0.094149
O O7 0.250000 0.750000 0.000000
O O8 0.000000 0.777663 0.000000
O O9 0.254417 0.094803 0.751086
O O10 0.187489 0.109115 0.822396
O O11 0.931058 0.854061 0.605341
O O12 0.108203 0.000000 0.643889
O O13 0.562499 0.500000 0.851276
O O14 0.750000 0.250000 0.500000
O O15 0.000000 0.299459 0.500000
#
# Coordination Sequence:
#
# PCOD8109239 Si02
#       6
#     8   8   8   8   8   8
#     4  10  21  39  63  84 117 160 200 235 287 359
#     4  11  22  40  63  88 116 158 200 240 289 358
#     4  10  21  39  63  85 116 159 202 236 285 357
#     4  11  23  39  60  90 121 152 195 250 294 339
#     4  11  23  39  61  90 119 153 196 248 294 341
#     4  11  22  40  64  87 116 159 202 238 289 358
#
# _framework density 18.704923000000001
#
# number of rings (size 3 to 8) (size 9 to 14) (size 15 to 20)
#    0.000    1.333    3.333    4.000    4.667    0.667 
#    0.000    2.500    0.000    2.500    0.000    0.000 
#    0.000    0.000    0.000    0.000    0.000    0.000 
#
# Total GULP energy -297612.133440 kJ/mol
# GULP energy per Si atom -12400.505560 kJ/mol
# Density = 1.866235 g / cm^3
# Si number density = 18.704923 Si / 1000 Ang^3
#
#
#
# Elastic Constant Matrix: (Units=GPa)
#
#
# Indices 1 2 3 4 5 6 
#
# 1 148.7487 49.5848 63.0753 0.0000 3.5310 0.0001
# 2 49.5848 97.4089 35.5455 0.0001 2.6271 0.0000
# 3 63.0753 35.5455 120.9164 -0.0001 1.1178 0.0003
# 4 0.0000 0.0001 -0.0001 12.8933 0.0001 -4.4481
# 5 3.5310 2.6271 1.1178 0.0001 47.1680 0.0001
# 6 0.0001 0.0000 0.0003 -4.4481 0.0001 22.5180
#
#
#
# Elastic Compliance Matrix: (Units=1/GPa)
#
#
# Indices 1 2 3 4 5 6 
#
# 1 0.009554 -0.003399 -0.003981 0.000000 -0.000432 0.000000
# 2 -0.003399 0.012724 -0.001963 0.000000 -0.000408 0.000000
# 3 -0.003981 -0.001963 0.010922 0.000000 0.000148 0.000000
# 4 0.000000 0.000000 0.000000 0.083232 0.000000 0.016441
# 5 -0.000432 -0.000408 0.000148 0.000000 0.021252 0.000000
# 6 0.000000 0.000000 0.000000 0.016441 0.000000 0.047657
#
#
# Mechanical properties :
#
#
# Convention : Reuss Voigt Hill
#
# Bulk Modulus (GPa) = 68.89963 73.72057 71.31010
# Shear Modulus (GPa) = 23.93888 31.10708 27.52298
#
# Velocity S-wave (km/s) = 3.58133 4.08247 3.84008
# Velocity P-wave (km/s) = 7.34958 7.85621 7.60711
#
# Compressibility (1/GPa) = 0.01451387
#
# Stress axis : x y z
#
# Youngs Moduli (GPa) = 104.66826 78.59296 91.55473
#
# Poissons Ratio (x) = 0.26715 0.36444
# Poissons Ratio (y) = 0.35578 0.17976
# Poissons Ratio (z) = 0.41664 0.15431
#
# Static dielectric constant tensor:
#      x y z
#    x 3.504140 0.000000 0.032970 
#    y 0.000000 3.431940 0.000000 
#    z 0.032970 0.000000 3.626990 
# 
# 
# High freq. dielectric constant tensor:
#      x y z
#    x 1.747920 0.000000 0.001930 
#    y 0.000000 1.710040 0.000000 
#    z 0.001930 0.000000 1.736280 
# 
# From -- ./inp_files/251494.got.cif
#   From: 2010.06.25/outbox.cif.g09.slc.cpg/sg12_126_cif.got.tgz:251494.got - 2010.06.28 00:19:55.
