data_PCOD8109964
_publ_section_title
;
Structure prediction by ZEFSAII (Michael W. Deem and Ramdas Pophale) SiO2 
 PCOD8109964
Probable space group: C 2/M
;
_chemical_formula_sum "Si O2"
_cell_formula_units_Z 52
_cell_length_a 13.505085
_cell_length_b 22.883529
_cell_length_c 12.220078
_cell_angle_alpha 90.000000
_cell_angle_beta 44.449060
_cell_angle_gamma 90.000000
_cell_volume 2644.617296
_symmetry_space_group_name_H-M "C 2/M"
_symmetry_group_IT_number 12
_symmetry_cell_setting 'monoclinic'
loop_
_space_group_symop_operation_xyz
x,y,z
-x,y,-z
-x,-y,-z
x,-y,z
1/2+x,1/2+y,z
1/2-x,1/2+y,-z
1/2-x,1/2-y,-z
1/2+x,1/2-y,z
loop_
_atom_site_type_symbol
_atom_site_label
_atom_site_fract_x
_atom_site_fract_y
_atom_site_fract_z
Si Si1 0.589316 0.433577 0.223480
Si Si2 0.459664 0.754967 0.914588
Si Si3 0.500000 0.641200 0.500000
Si Si4 0.607652 0.434035 0.822283
Si Si5 0.251655 0.662380 0.008907
Si Si6 0.153277 0.344188 0.329549
Si Si7 0.240816 0.229864 0.384277
O O1 0.634016 0.500000 0.214882
O O2 0.559974 0.399954 0.358417
O O3 0.454744 0.432178 0.250175
O O4 0.719022 0.402708 0.057193
O O5 0.336920 0.803509 0.013611
O O6 0.596828 0.788582 0.760839
O O7 0.500000 0.730271 0.000000
O O8 0.402370 0.697012 0.897366
O O9 0.627342 0.679237 0.450781
O O10 0.649298 0.500000 0.822490
O O11 0.747664 0.395966 0.708053
O O12 0.500000 0.409370 0.000000
O O13 0.159319 0.660498 0.192905
O O14 0.205515 0.282622 0.331935
O O15 0.000000 0.358191 0.500000
O O16 0.250000 0.250000 0.500000
#
# Coordination Sequence:
#
# PCOD8109964 Si02
#       7
#     8   8   4   8   8   8   8
#     4  11  24  43  68  93 126 176 232 278 322 392
#     4  11  22  37  61  90 128 168 210 263 326 395
#     4  12  25  44  66  98 135 174 224 270 340 400
#     4  10  21  40  65  92 124 174 227 271 325 386
#     4  11  23  38  62  94 127 173 222 265 330 402
#     4  12  23  37  59  97 138 170 210 275 334 392
#     4  12  24  39  61  94 135 174 211 267 333 399
#
# _framework density 19.662580999999999
#
# number of rings (size 3 to 8) (size 9 to 14) (size 15 to 20)
#    0.000    0.769    3.846    4.846    2.154    0.308 
#    0.000    0.000    0.000    5.077    0.000    0.000 
#    0.000    0.000    0.000    0.000    0.000    0.000 
#
# Total GULP energy -322310.079538 kJ/mol
# GULP energy per Si atom -12396.541521 kJ/mol
# Density = 1.961783 g / cm^3
# Si number density = 19.662581 Si / 1000 Ang^3
#
#
#
# Elastic Constant Matrix: (Units=GPa)
#
#
# Indices 1 2 3 4 5 6 
#
# 1 99.4361 54.9514 50.3395 0.0000 -1.1262 0.0000
# 2 54.9514 142.2197 53.4295 0.0000 -5.7794 0.0000
# 3 50.3395 53.4295 116.3687 0.0000 -3.5231 0.0000
# 4 0.0000 0.0000 0.0000 32.3901 0.0000 1.7252
# 5 -1.1262 -5.7794 -3.5231 0.0000 40.3589 0.0000
# 6 0.0000 0.0000 0.0000 1.7252 0.0000 26.4386
#
#
#
# Elastic Compliance Matrix: (Units=1/GPa)
#
#
# Indices 1 2 3 4 5 6 
#
# 1 0.014495 -0.003941 -0.004478 0.000000 -0.000551 0.000000
# 2 -0.003941 0.009600 -0.002672 0.000000 0.001031 0.000000
# 3 -0.004478 -0.002672 0.011773 0.000000 0.000520 0.000000
# 4 0.000000 0.000000 0.000000 0.030981 0.000000 -0.002022
# 5 -0.000551 0.001031 0.000520 0.000000 0.024955 0.000000
# 6 0.000000 0.000000 0.000000 -0.002022 0.000000 0.037955
#
#
# Mechanical properties :
#
#
# Convention : Reuss Voigt Hill
#
# Bulk Modulus (GPa) = 73.06057 75.05171 74.05614
# Shear Modulus (GPa) = 31.94840 33.12445 32.53643
#
# Velocity S-wave (km/s) = 4.03529 4.10889 4.07226
# Velocity P-wave (km/s) = 7.67784 7.79509 7.73669
#
# Compressibility (1/GPa) = 0.01368727
#
# Stress axis : x y z
#
# Youngs Moduli (GPa) = 68.98861 104.17039 84.94210
#
# Poissons Ratio (x) = 0.41052 0.38034
# Poissons Ratio (y) = 0.27188 0.22693
# Poissons Ratio (z) = 0.30891 0.27830
#
# Static dielectric constant tensor:
#      x y z
#    x 3.676900 0.000000 0.209100 
#    y 0.000000 3.667870 0.000000 
#    z 0.209100 0.000000 2.316730 
# 
# 
# High freq. dielectric constant tensor:
#      x y z
#    x 1.772110 0.000000 0.008770 
#    y 0.000000 1.761870 0.000000 
#    z 0.008770 0.000000 1.770120 
# 
# From -- ./inp_files/135868.got.cif
#   From: 2010.06.25/outbox.cif.g09.slc.cpg/sg12_68_cif.got.tgz:135868.got - 2010.06.28 00:19:55.
