data_PCOD8109656
_publ_section_title
;
Structure prediction by ZEFSAII (Michael W. Deem and Ramdas Pophale) SiO2 
 PCOD8109656
Probable space group: C 2/M
;
_chemical_formula_sum "Si O2"
_cell_formula_units_Z 28
_cell_length_a 7.954627
_cell_length_b 20.566146
_cell_length_c 12.068020
_cell_angle_alpha 90.000000
_cell_angle_beta 37.539028
_cell_angle_gamma 90.000000
_cell_volume 1202.932175
_symmetry_space_group_name_H-M "C 2/M"
_symmetry_group_IT_number 12
_symmetry_cell_setting 'monoclinic'
loop_
_space_group_symop_operation_xyz
x,y,z
-x,y,-z
-x,-y,-z
x,-y,z
1/2+x,1/2+y,z
1/2-x,1/2+y,-z
1/2-x,1/2-y,-z
1/2+x,1/2-y,z
loop_
_atom_site_type_symbol
_atom_site_label
_atom_site_fract_x
_atom_site_fract_y
_atom_site_fract_z
Si Si1 0.192190 0.569584 0.003512
Si Si2 0.521337 0.694288 0.114546
Si Si3 0.500000 0.838038 0.500000
Si Si4 0.720732 0.075587 0.584665
O O1 0.348845 0.500000 0.938095
O O2 0.026389 0.586767 0.200704
O O3 0.395704 0.627939 0.866581
O O4 0.000000 0.561091 0.000000
O O5 0.225686 0.710979 0.325082
O O6 0.500000 0.674398 0.000000
O O7 0.750000 0.750000 0.000000
O O8 0.349430 0.882223 0.486810
O O9 0.000000 0.099428 0.500000
O O10 0.752071 0.000000 0.533436
#
# Coordination Sequence:
#
# PCOD8109656 Si02
#       4
#     8   8   4   8
#     4  10  21  42  71 103 145 188 232 298 361 423
#     4  12  27  48  70 104 141 188 244 302 363 437
#     4  12  25  46  74 102 141 196 238 300 366 434
#     4  10  21  39  69 110 149 187 236 293 361 438
#
# _framework density 23.276458000000002
#
# number of rings (size 3 to 8) (size 9 to 14) (size 15 to 20)
#    0.000    1.143    2.857    3.000    0.000    6.286 
#    2.571    0.000    0.000    0.000    0.000    0.000 
#    0.000    0.000    0.000    0.000    0.000    0.000 
#
# Total GULP energy -173490.505554 kJ/mol
# GULP energy per Si atom -12392.178968 kJ/mol
# Density = 2.322348 g / cm^3
# Si number density = 23.276458 Si / 1000 Ang^3
#
#
#
# Elastic Constant Matrix: (Units=GPa)
#
#
# Indices 1 2 3 4 5 6 
#
# 1 121.4349 37.0402 34.5717 0.0000 -1.1701 0.0000
# 2 37.0402 123.4096 61.2082 0.0000 -17.6974 0.0000
# 3 34.5717 61.2082 166.2035 0.0000 0.6866 0.0000
# 4 0.0000 0.0000 0.0000 39.6117 0.0000 -14.0619
# 5 -1.1701 -17.6974 0.6866 0.0000 38.0419 0.0000
# 6 0.0000 0.0000 0.0000 -14.0619 0.0000 17.2721
#
#
#
# Elastic Compliance Matrix: (Units=1/GPa)
#
#
# Indices 1 2 3 4 5 6 
#
# 1 0.009249 -0.002371 -0.001047 0.000000 -0.000800 0.000000
# 2 -0.002371 0.011431 -0.003738 0.000000 0.005312 0.000000
# 3 -0.001047 -0.003738 0.007619 0.000000 -0.001909 0.000000
# 4 0.000000 0.000000 0.000000 0.035507 0.000000 0.028908
# 5 -0.000800 0.005312 -0.001909 0.000000 0.028768 0.000000
# 6 0.000000 0.000000 0.000000 0.028908 0.000000 0.081432
#
#
# Mechanical properties :
#
#
# Convention : Reuss Voigt Hill
#
# Bulk Modulus (GPa) = 71.50538 75.18759 73.34649
# Shear Modulus (GPa) = 25.90932 37.53366 31.72149
#
# Velocity S-wave (km/s) = 3.33995 4.01997 3.69564
# Velocity P-wave (km/s) = 6.75725 7.34296 7.05618
#
# Compressibility (1/GPa) = 0.01398496
#
# Stress axis : x y z
#
# Youngs Moduli (GPa) = 108.12506 87.48383 131.24795
#
# Poissons Ratio (x) = 0.20744 0.13745
# Poissons Ratio (y) = 0.25638 0.49065
# Poissons Ratio (z) = 0.11323 0.32704
#
# Static dielectric constant tensor:
#      x y z
#    x 4.827490 0.000000 0.220680 
#    y 0.000000 3.777370 0.000000 
#    z 0.220680 0.000000 3.412400 
# 
# 
# High freq. dielectric constant tensor:
#      x y z
#    x 1.932350 0.000000 0.009960 
#    y 0.000000 1.908000 0.000000 
#    z 0.009960 0.000000 1.931500 
# 
# From -- ./inp_files/197395.got.cif
#   From: 2010.06.25/outbox.cif.g09.slc.cpg/sg12_99_cif.got.tgz:197395.got - 2010.06.28 00:19:55.
