data_PCOD8109254
_publ_section_title
;
Structure prediction by ZEFSAII (Michael W. Deem and Ramdas Pophale) SiO2 
 PCOD8109254
Probable space group: C 2/M
;
_chemical_formula_sum "Si O2"
_cell_formula_units_Z 48
_cell_length_a 18.194116
_cell_length_b 14.675112
_cell_length_c 15.331829
_cell_angle_alpha 90.000000
_cell_angle_beta 36.437513
_cell_angle_gamma 90.000000
_cell_volume 2431.381596
_symmetry_space_group_name_H-M "C 2/M"
_symmetry_group_IT_number 12
_symmetry_cell_setting 'monoclinic'
loop_
_space_group_symop_operation_xyz
x,y,z
-x,y,-z
-x,-y,-z
x,-y,z
1/2+x,1/2+y,z
1/2-x,1/2+y,-z
1/2-x,1/2-y,-z
1/2+x,1/2-y,z
loop_
_atom_site_type_symbol
_atom_site_label
_atom_site_fract_x
_atom_site_fract_y
_atom_site_fract_z
Si Si1 0.299658 0.759517 0.167636
Si Si2 0.134737 0.603750 0.604638
Si Si3 0.911426 0.896312 0.344297
Si Si4 0.531358 0.240494 0.833061
Si Si5 0.637928 0.895132 0.401184
Si Si6 0.582766 0.393167 0.339846
O O1 0.377777 0.791230 0.176772
O O2 0.227756 0.665889 0.255974
O O3 0.210580 0.840310 0.223009
O O4 0.391517 0.745924 0.998678
O O5 0.087117 0.500000 0.655467
O O6 0.271995 0.614799 0.514755
O O7 0.038170 0.665398 0.749889
O O8 0.141423 0.636811 0.498245
O O9 0.926068 0.838040 0.243233
O O10 0.008130 0.864236 0.324909
O O11 0.934886 0.000000 0.293873
O O12 0.500000 0.881324 0.500000
O O13 0.681498 0.000000 0.350683
O O14 0.500000 0.363298 0.500000
O O15 0.612402 0.500000 0.313009
#
# Coordination Sequence:
#
# PCOD8109254 Si02
#       6
#     8   8   8   8   8   8
#     4  11  24  39  60  88 125 161 192 246 304 361
#     4  10  21  39  63  88 118 156 203 252 294 352
#     4  10  21  39  63  88 116 156 203 250 295 349
#     4  11  24  38  59  92 121 159 199 240 306 360
#     4  10  22  40  62  89 118 157 204 249 299 353
#     4  10  22  39  61  88 116 155 203 247 296 353
#
# _framework density 19.741862999999999
#
# number of rings (size 3 to 8) (size 9 to 14) (size 15 to 20)
#    0.000    1.667    1.667    2.000    4.667    4.000 
#    0.000    3.333    0.000    0.000    0.000    0.000 
#    0.000    0.000    0.000    0.000    0.000    0.000 
#
# Total GULP energy -297683.456312 kJ/mol
# GULP energy per Si atom -12403.477346 kJ/mol
# Density = 1.969693 g / cm^3
# Si number density = 19.741863 Si / 1000 Ang^3
#
#
#
# Elastic Constant Matrix: (Units=GPa)
#
#
# Indices 1 2 3 4 5 6 
#
# 1 98.5156 34.8630 37.8893 0.0000 -4.1181 0.0000
# 2 34.8630 87.4500 63.8146 0.0000 5.9652 0.0000
# 3 37.8893 63.8146 135.8366 0.0000 4.7552 0.0000
# 4 0.0000 0.0000 0.0000 14.3906 0.0000 -0.9828
# 5 -4.1181 5.9652 4.7552 0.0000 23.5298 0.0000
# 6 0.0000 0.0000 0.0000 -0.9828 0.0000 31.4608
#
#
#
# Elastic Compliance Matrix: (Units=1/GPa)
#
#
# Indices 1 2 3 4 5 6 
#
# 1 0.012342 -0.003891 -0.001737 0.000000 0.003498 0.000000
# 2 -0.003891 0.018809 -0.007614 0.000000 -0.003911 0.000000
# 3 -0.001737 -0.007614 0.011447 0.000000 -0.000687 0.000000
# 4 0.000000 0.000000 0.000000 0.069638 0.000000 0.002175
# 5 0.003498 -0.003911 -0.000687 0.000000 0.044242 0.000000
# 6 0.000000 0.000000 0.000000 0.002175 0.000000 0.031854
#
#
# Mechanical properties :
#
#
# Convention : Reuss Voigt Hill
#
# Bulk Modulus (GPa) = 62.05806 66.10401 64.08103
# Shear Modulus (GPa) = 22.70781 26.22527 24.46654
#
# Velocity S-wave (km/s) = 3.39519 3.64869 3.52422
# Velocity P-wave (km/s) = 6.84637 7.16292 7.00643
#
# Compressibility (1/GPa) = 0.01611394
#
# Stress axis : x y z
#
# Youngs Moduli (GPa) = 81.02417 53.16467 87.35640
#
# Poissons Ratio (x) = 0.20689 0.15173
# Poissons Ratio (y) = 0.31530 0.66514
# Poissons Ratio (z) = 0.14073 0.40480
#
# Static dielectric constant tensor:
#      x y z
#    x 3.718800 0.000000 -0.025620 
#    y 0.000000 3.585190 0.000000 
#    z -0.025620 0.000000 3.473820 
# 
# 
# High freq. dielectric constant tensor:
#      x y z
#    x 1.780150 0.000000 -0.001630 
#    y 0.000000 1.775850 0.000000 
#    z -0.001630 0.000000 1.755110 
# 
# From -- ./inp_files/225082.got.cif
#   From: 2010.06.25/outbox.cif.g09.slc.cpg/sg12_113_cif.got.tgz:225082.got - 2010.06.28 00:19:55.
