data_PCOD8109502
_publ_section_title
;
Structure prediction by ZEFSAII (Michael W. Deem and Ramdas Pophale) SiO2 
 PCOD8109502
Probable space group: C 2/M
;
_chemical_formula_sum "Si O2"
_cell_formula_units_Z 64
_cell_length_a 12.318207
_cell_length_b 14.316978
_cell_length_c 27.231212
_cell_angle_alpha 90.000000
_cell_angle_beta 139.789220
_cell_angle_gamma 90.000000
_cell_volume 3100.489593
_symmetry_space_group_name_H-M "C 2/M"
_symmetry_group_IT_number 12
_symmetry_cell_setting 'monoclinic'
loop_
_space_group_symop_operation_xyz
x,y,z
-x,y,-z
-x,-y,-z
x,-y,z
1/2+x,1/2+y,z
1/2-x,1/2+y,-z
1/2-x,1/2-y,-z
1/2+x,1/2-y,z
loop_
_atom_site_type_symbol
_atom_site_label
_atom_site_fract_x
_atom_site_fract_y
_atom_site_fract_z
Si Si1 0.675647 0.897115 0.586551
Si Si2 0.722291 0.755188 0.683402
Si Si3 0.623218 0.896336 0.903990
Si Si4 0.677626 0.106066 0.036838
Si Si5 0.982456 0.793522 0.849418
Si Si6 0.916680 0.390240 0.686221
Si Si7 0.281343 0.394510 0.857210
Si Si8 0.134378 0.754786 0.412056
O O1 0.500000 0.908333 0.500000
O O2 0.645894 0.837973 0.624665
O O3 0.804721 0.839695 0.599230
O O4 0.749902 0.000000 0.623678
O O5 0.840183 0.814854 0.760657
O O6 0.813977 0.667907 0.690645
O O7 0.555537 0.710295 0.647688
O O8 0.479402 0.819039 0.851232
O O9 0.761738 0.874841 0.909138
O O10 0.547436 0.000000 0.867826
O O11 0.692237 0.889388 0.982920
O O12 0.836548 0.169166 0.108107
O O13 0.705054 0.000000 0.064609
O O14 0.500000 0.141650 0.000000
O O15 0.930458 0.832738 0.885037
O O16 0.867467 0.500000 0.669290
O O17 0.869219 0.345917 0.616943
O O18 0.110363 0.375918 0.768116
O O19 0.341484 0.500000 0.870265
O O20 0.250000 0.750000 0.500000
#
# Coordination Sequence:
#
# PCOD8109502 Si02
#       8
#     8   8   8   8   8   8   8   8
#     4  10  22  40  62  88 123 167 213 263 317 376
#     4  11  23  39  63  93 126 163 212 263 317 386
#     4  10  23  43  65  92 129 170 210 263 325 387
#     4  10  24  45  66  96 135 171 215 271 332 396
#     4  12  23  39  69  95 127 169 218 265 329 389
#     4  10  22  40  62  91 129 168 210 266 325 381
#     4  10  21  39  64  96 127 162 218 273 322 386
#     4  11  22  40  62  91 127 166 211 265 316 375
#
# _framework density 20.641901000000001
#
# number of rings (size 3 to 8) (size 9 to 14) (size 15 to 20)
#    0.000    1.500    3.750    0.750    1.750    3.000 
#    0.000    2.500    0.000    0.000    0.000    0.000 
#    0.000    0.000    0.000    0.000    0.000    0.000 
#
# Total GULP energy -396479.380062 kJ/mol
# GULP energy per Si atom -12389.980627 kJ/mol
# Density = 2.059492 g / cm^3
# Si number density = 20.641901 Si / 1000 Ang^3
#
#
#
# Elastic Constant Matrix: (Units=GPa)
#
#
# Indices 1 2 3 4 5 6 
#
# 1 136.5494 54.7561 44.9111 0.0000 11.4424 0.0000
# 2 54.7561 131.3573 19.8503 0.0000 12.3522 0.0000
# 3 44.9111 19.8503 81.5971 0.0000 8.4606 0.0000
# 4 0.0000 0.0000 0.0000 24.8379 0.0000 4.5646
# 5 11.4424 12.3522 8.4606 0.0000 33.3076 0.0000
# 6 0.0000 0.0000 0.0000 4.5646 0.0000 21.7250
#
#
#
# Elastic Compliance Matrix: (Units=1/GPa)
#
#
# Indices 1 2 3 4 5 6 
#
# 1 0.010382 -0.003510 -0.004751 0.000000 -0.001058 0.000000
# 2 -0.003510 0.009300 -0.000100 0.000000 -0.002217 0.000000
# 3 -0.004751 -0.000100 0.015120 0.000000 -0.002171 0.000000
# 4 0.000000 0.000000 0.000000 0.041878 0.000000 -0.008799
# 5 -0.001058 -0.002217 -0.002171 0.000000 0.031761 0.000000
# 6 0.000000 0.000000 0.000000 -0.008799 0.000000 0.047879
#
#
# Mechanical properties :
#
#
# Convention : Reuss Voigt Hill
#
# Bulk Modulus (GPa) = 55.31328 65.39319 60.35324
# Shear Modulus (GPa) = 27.92236 31.30652 29.61444
#
# Velocity S-wave (km/s) = 3.68190 3.89864 3.79182
# Velocity P-wave (km/s) = 6.70298 7.21211 6.96220
#
# Compressibility (1/GPa) = 0.01807884
#
# Stress axis : x y z
#
# Youngs Moduli (GPa) = 96.31897 107.52913 66.13906
#
# Poissons Ratio (x) = 0.37747 0.31420
# Poissons Ratio (y) = 0.33812 0.00664
# Poissons Ratio (z) = 0.45758 0.01079
#
# Static dielectric constant tensor:
#      x y z
#    x 3.910250 0.000000 -0.313020 
#    y 0.000000 3.757980 0.000000 
#    z -0.313020 0.000000 4.229340 
# 
# 
# High freq. dielectric constant tensor:
#      x y z
#    x 1.815430 0.000000 -0.005950 
#    y 0.000000 1.814810 0.000000 
#    z -0.005950 0.000000 1.797930 
# 
# From -- ./inp_files/358481.got.cif
#   From: 2010.06.25/outbox.cif.g09.slc.cpg/sg12_180_cif.got.tgz:358481.got - 2010.06.28 00:19:55.
