data_PCOD8109228
_publ_section_title
;
Structure prediction by ZEFSAII (Michael W. Deem and Ramdas Pophale) SiO2 
 PCOD8109228
Probable space group: C 2/M
;
_chemical_formula_sum "Si O2"
_cell_formula_units_Z 48
_cell_length_a 17.389884
_cell_length_b 16.854398
_cell_length_c 7.655822
_cell_angle_alpha 90.000000
_cell_angle_beta 99.368066
_cell_angle_gamma 90.000000
_cell_volume 2213.964317
_symmetry_space_group_name_H-M "C 2/M"
_symmetry_group_IT_number 12
_symmetry_cell_setting 'monoclinic'
loop_
_space_group_symop_operation_xyz
x,y,z
-x,y,-z
-x,-y,-z
x,-y,z
1/2+x,1/2+y,z
1/2-x,1/2+y,-z
1/2-x,1/2-y,-z
1/2+x,1/2-y,z
loop_
_atom_site_type_symbol
_atom_site_label
_atom_site_fract_x
_atom_site_fract_y
_atom_site_fract_z
Si Si1 0.836731 0.874731 0.608930
Si Si2 0.632056 0.796858 0.369948
Si Si3 0.282030 0.834379 0.952280
Si Si4 0.987091 0.184674 0.794797
Si Si5 0.675686 0.910288 0.692185
Si Si6 0.366551 0.586768 0.241705
O O1 0.817877 0.781671 0.559789
O O2 0.918287 0.881129 0.746175
O O3 0.768570 0.911706 0.698510
O O4 0.840045 0.922296 0.431037
O O5 0.667574 0.832558 0.205223
O O6 0.542222 0.767267 0.305022
O O7 0.632692 0.861462 0.523243
O O8 0.206826 0.889871 0.902537
O O9 0.250000 0.750000 0.000000
O O10 0.338243 0.869995 0.124036
O O11 0.065942 0.153134 0.737107
O O12 0.000000 0.201952 0.000000
O O13 0.642884 0.000000 0.679406
O O14 0.396304 0.500000 0.189685
#
# Coordination Sequence:
#
# PCOD8109228 Si02
#       6
#     8   8   8   8   8   8
#     4  10  21  39  62  92 135 176 217 258 329 399
#     4  10  23  42  64  91 134 176 227 271 317 395
#     4  12  22  40  66  93 131 178 230 266 322 396
#     4  10  23  41  60  91 129 181 224 263 319 400
#     4  12  23  38  65 100 132 168 219 283 340 384
#     4  12  24  39  63 100 141 174 210 271 343 404
#
# _framework density 21.680567
#
# number of rings (size 3 to 8) (size 9 to 14) (size 15 to 20)
#    1.000    0.000    3.333    5.000    0.000    3.000 
#    0.000    0.000    0.000    0.500    0.000   14.000 
#    0.000    0.000    0.000    0.000    0.000    0.000 
#
# Total GULP energy -297479.132579 kJ/mol
# GULP energy per Si atom -12394.963857 kJ/mol
# Density = 2.163122 g / cm^3
# Si number density = 21.680567 Si / 1000 Ang^3
#
#
#
# Elastic Constant Matrix: (Units=GPa)
#
#
# Indices 1 2 3 4 5 6 
#
# 1 69.3619 28.3659 37.4370 0.0000 3.4040 0.0000
# 2 28.3659 145.8911 63.1401 0.0000 9.2583 0.0000
# 3 37.4370 63.1401 130.5819 0.0000 22.1894 0.0000
# 4 0.0000 0.0000 0.0000 17.3115 0.0000 7.4230
# 5 3.4040 9.2583 22.1894 0.0000 27.3898 0.0000
# 6 0.0000 0.0000 0.0000 7.4230 0.0000 16.6290
#
#
#
# Elastic Compliance Matrix: (Units=1/GPa)
#
#
# Indices 1 2 3 4 5 6 
#
# 1 0.017429 -0.001524 -0.004614 0.000000 0.002087 0.000000
# 2 -0.001524 0.008809 -0.003883 0.000000 0.000358 0.000000
# 3 -0.004614 -0.003883 0.012220 0.000000 -0.008014 0.000000
# 4 0.000000 0.000000 0.000000 0.071439 0.000000 -0.031889
# 5 0.002087 0.000358 -0.008014 0.000000 0.042622 0.000000
# 6 0.000000 0.000000 0.000000 -0.031889 0.000000 0.074371
#
#
# Mechanical properties :
#
#
# Convention : Reuss Voigt Hill
#
# Bulk Modulus (GPa) = 54.30546 67.08010 60.69278
# Shear Modulus (GPa) = 19.75734 26.72553 23.24143
#
# Velocity S-wave (km/s) = 3.02204 3.51478 3.27768
# Velocity P-wave (km/s) = 6.10568 6.89050 6.50993
#
# Compressibility (1/GPa) = 0.01841436
#
# Stress axis : x y z
#
# Youngs Moduli (GPa) = 57.37713 113.52547 81.83082
#
# Poissons Ratio (x) = 0.17302 0.37760
# Poissons Ratio (y) = 0.08745 0.31775
# Poissons Ratio (z) = 0.26476 0.44083
#
# Static dielectric constant tensor:
#      x y z
#    x 3.936840 0.000000 -0.034170 
#    y 0.000000 3.846940 0.000000 
#    z -0.034170 0.000000 3.992900 
# 
# 
# High freq. dielectric constant tensor:
#      x y z
#    x 1.822800 0.000000 0.007410 
#    y 0.000000 1.837610 0.000000 
#    z 0.007410 0.000000 1.867080 
# 
# From -- ./inp_files/74533.got.cif
#   From: 2010.06.25/outbox.cif.g09.slc.cpg/sg12_38_cif.got.tgz:74533.got - 2010.06.28 00:19:55.
