data_PCOD8109078
_publ_section_title
;
Structure prediction by ZEFSAII (Michael W. Deem and Ramdas Pophale) SiO2 
 PCOD8109078
Probable space group: C 2/M
;
_chemical_formula_sum "Si O2"
_cell_formula_units_Z 56
_cell_length_a 14.481871
_cell_length_b 23.243970
_cell_length_c 9.261889
_cell_angle_alpha 90.000000
_cell_angle_beta 56.857133
_cell_angle_gamma 90.000000
_cell_volume 2610.482471
_symmetry_space_group_name_H-M "C 2/M"
_symmetry_group_IT_number 12
_symmetry_cell_setting 'monoclinic'
loop_
_space_group_symop_operation_xyz
x,y,z
-x,y,-z
-x,-y,-z
x,-y,z
1/2+x,1/2+y,z
1/2-x,1/2+y,-z
1/2-x,1/2-y,-z
1/2+x,1/2-y,z
loop_
_atom_site_type_symbol
_atom_site_label
_atom_site_fract_x
_atom_site_fract_y
_atom_site_fract_z
Si Si1 0.476413 0.434350 0.188723
Si Si2 0.395358 0.875912 0.674456
Si Si3 0.712891 0.757036 0.192815
Si Si4 0.036067 0.620563 0.809701
Si Si5 0.024438 0.832712 0.324745
Si Si6 0.924113 0.751308 0.192888
Si Si7 0.276304 0.934042 0.528565
O O1 0.502109 0.500000 0.214579
O O2 0.556476 0.388320 0.199606
O O3 0.351969 0.416476 0.343596
O O4 0.500000 0.427911 0.000000
O O5 0.500000 0.850725 0.500000
O O6 0.314073 0.823402 0.765500
O O7 0.440408 0.903754 0.785245
O O8 0.333876 0.924657 0.634511
O O9 0.618428 0.711095 0.290745
O O10 0.801404 0.742549 0.240192
O O11 0.750000 0.750000 0.000000
O O12 0.028623 0.689501 0.800881
O O13 0.158625 0.600087 0.654957
O O14 0.000000 0.599750 0.000000
O O15 0.000000 0.860798 0.500000
O O16 0.929919 0.795258 0.322885
O O17 0.000000 0.777394 0.000000
O O18 0.286068 0.000000 0.477788
#
# Coordination Sequence:
#
# PCOD8109078 Si02
#       7
#     8   8   8   8   8   8   8
#     4  10  24  49  71  92 129 174 229 283 324 389
#     4  10  21  40  61  89 131 166 217 270 313 390
#     4  12  23  38  66  95 130 175 220 268 329 400
#     4  10  21  39  61  93 137 168 203 271 333 389
#     4  12  26  40  64 103 131 173 220 267 344 399
#     4  11  22  41  61  92 139 175 214 265 327 405
#     4  10  23  42  69  95 120 173 226 269 326 385
#
# _framework density 21.451972000000001
#
# number of rings (size 3 to 8) (size 9 to 14) (size 15 to 20)
#    0.000    1.286    2.857    2.571    6.000    3.714 
#    0.000    0.000    0.000    0.000    0.000    0.000 
#    0.000    0.000    0.000    0.000    0.000    0.000 
#
# Total GULP energy -346990.538320 kJ/mol
# GULP energy per Si atom -12392.519226 kJ/mol
# Density = 2.140315 g / cm^3
# Si number density = 21.451972 Si / 1000 Ang^3
#
#
#
# Elastic Constant Matrix: (Units=GPa)
#
#
# Indices 1 2 3 4 5 6 
#
# 1 95.4544 18.9831 20.4310 0.0000 19.1095 0.0000
# 2 18.9831 83.6713 32.2453 0.0000 8.5946 0.0000
# 3 20.4310 32.2453 114.5518 0.0000 18.5454 0.0000
# 4 0.0000 0.0000 0.0000 33.6035 0.0000 3.9513
# 5 19.1095 8.5946 18.5454 0.0000 35.0024 0.0000
# 6 0.0000 0.0000 0.0000 3.9513 0.0000 16.3866
#
#
#
# Elastic Compliance Matrix: (Units=1/GPa)
#
#
# Indices 1 2 3 4 5 6 
#
# 1 0.012165 -0.001895 -0.000696 0.000000 -0.005807 0.000000
# 2 -0.001895 0.013765 -0.003453 0.000000 -0.000516 0.000000
# 3 -0.000696 -0.003453 0.010530 0.000000 -0.004351 0.000000
# 4 0.000000 0.000000 0.000000 0.030627 0.000000 -0.007385
# 5 -0.005807 -0.000516 -0.004351 0.000000 0.034172 0.000000
# 6 0.000000 0.000000 0.000000 -0.007385 0.000000 0.062806
#
#
# Mechanical properties :
#
#
# Convention : Reuss Voigt Hill
#
# Bulk Modulus (GPa) = 41.03178 48.55513 44.79346
# Shear Modulus (GPa) = 27.13284 31.79970 29.46627
#
# Velocity S-wave (km/s) = 3.56029 3.85433 3.71022
# Velocity P-wave (km/s) = 6.00580 6.51853 6.26741
#
# Compressibility (1/GPa) = 0.02437135
#
# Stress axis : x y z
#
# Youngs Moduli (GPa) = 82.20557 72.64643 94.96344
#
# Poissons Ratio (x) = 0.13767 0.06610
# Poissons Ratio (y) = 0.15579 0.32794
# Poissons Ratio (z) = 0.05722 0.25087
#
# Static dielectric constant tensor:
#      x y z
#    x 3.983970 0.000000 0.138910 
#    y 0.000000 3.675110 0.000000 
#    z 0.138910 0.000000 3.973210 
# 
# 
# High freq. dielectric constant tensor:
#      x y z
#    x 1.838140 0.000000 0.009880 
#    y 0.000000 1.834320 0.000000 
#    z 0.009880 0.000000 1.847820 
# 
# From -- ./inp_files/65800.got.cif
#   From: 2010.06.25/outbox.cif.g09.slc.cpg/sg12_33_cif.got.tgz:65800.got - 2010.06.28 00:19:55.
