data_PCOD8109792
_publ_section_title
;
Structure prediction by ZEFSAII (Michael W. Deem and Ramdas Pophale) SiO2 
 PCOD8109792
Probable space group: C 2/M
;
_chemical_formula_sum "Si O2"
_cell_formula_units_Z 56
_cell_length_a 24.874320
_cell_length_b 9.121909
_cell_length_c 14.437353
_cell_angle_alpha 90.000000
_cell_angle_beta 60.483266
_cell_angle_gamma 90.000000
_cell_volume 2850.686872
_symmetry_space_group_name_H-M "C 2/M"
_symmetry_group_IT_number 12
_symmetry_cell_setting 'monoclinic'
loop_
_space_group_symop_operation_xyz
x,y,z
-x,y,-z
-x,-y,-z
x,-y,z
1/2+x,1/2+y,z
1/2-x,1/2+y,-z
1/2-x,1/2-y,-z
1/2+x,1/2-y,z
loop_
_atom_site_type_symbol
_atom_site_label
_atom_site_fract_x
_atom_site_fract_y
_atom_site_fract_z
Si Si1 0.184386 0.334531 0.792792
Si Si2 0.956975 0.330937 0.120237
Si Si3 0.763175 0.330112 0.582854
Si Si4 0.731347 0.668605 0.107810
Si Si5 0.898377 0.169109 0.703282
Si Si6 0.597841 0.172304 0.486065
Si Si7 0.519690 0.669704 0.708927
O O1 0.199731 0.500000 0.746037
O O2 0.111851 0.307379 0.858439
O O3 0.212645 0.218367 0.699197
O O4 0.212251 0.307201 0.870174
O O5 0.969639 0.500000 0.135947
O O6 0.970511 0.232556 0.197513
O O7 0.000000 0.278141 0.000000
O O8 0.755944 0.500000 0.569814
O O9 0.750000 0.250000 0.500000
O O10 0.830402 0.289937 0.563341
O O11 0.720862 0.500000 0.091530
O O12 0.667395 0.731324 0.205017
O O13 0.750000 0.750000 0.000000
O O14 0.923000 0.259989 0.594149
O O15 0.947952 0.188467 0.742989
O O16 0.891954 0.000000 0.677883
O O17 0.561860 0.243659 0.601241
O O18 0.584236 0.000000 0.497249
O O19 0.539452 0.500000 0.690674
#
# Coordination Sequence:
#
# PCOD8109792 Si02
#       7
#     8   8   8   8   8   8   8
#     4  10  21  40  63  87 117 156 199 242 294 350
#     4  10  23  42  63  88 119 157 201 248 295 348
#     4  11  23  37  58  88 120 156 196 242 294 350
#     4  10  22  39  62  90 120 154 197 247 296 350
#     4  10  22  41  62  88 122 159 197 242 297 354
#     4  11  23  39  60  90 122 155 198 245 296 353
#     4  11  24  40  61  89 121 160 200 241 296 357
#
# _framework density 19.644387999999999
#
# number of rings (size 3 to 8) (size 9 to 14) (size 15 to 20)
#    0.000    1.571    1.429    2.571    2.000   10.000 
#    0.000    0.000    0.000    0.000    0.000    0.000 
#    0.000    0.000    0.000    0.000    0.000    0.000 
#
# Total GULP energy -347346.748041 kJ/mol
# GULP energy per Si atom -12405.241001 kJ/mol
# Density = 1.959968 g / cm^3
# Si number density = 19.644388 Si / 1000 Ang^3
#
#
#
# Elastic Constant Matrix: (Units=GPa)
#
#
# Indices 1 2 3 4 5 6 
#
# 1 115.1492 53.1681 60.8782 0.0000 1.1347 0.0000
# 2 53.1681 76.1266 55.9525 0.0000 4.1579 0.0001
# 3 60.8782 55.9525 144.4064 0.0000 3.7064 0.0000
# 4 0.0000 0.0000 0.0000 40.1962 0.0000 6.0527
# 5 1.1347 4.1579 3.7064 0.0000 32.8865 0.0000
# 6 0.0000 0.0001 0.0000 6.0527 0.0000 30.6873
#
#
#
# Elastic Compliance Matrix: (Units=1/GPa)
#
#
# Indices 1 2 3 4 5 6 
#
# 1 0.013642 -0.007451 -0.002884 0.000000 0.000796 0.000000
# 2 -0.007451 0.022513 -0.005531 0.000000 -0.001966 0.000000
# 3 -0.002884 -0.005531 0.010293 0.000000 -0.000361 0.000000
# 4 0.000000 0.000000 0.000000 0.025639 0.000000 -0.005057
# 5 0.000796 -0.001966 -0.000361 0.000000 0.030669 0.000000
# 6 0.000000 0.000000 0.000000 -0.005057 0.000000 0.033584
#
#
# Mechanical properties :
#
#
# Convention : Reuss Voigt Hill
#
# Bulk Modulus (GPa) = 67.96099 75.07553 71.51826
# Shear Modulus (GPa) = 28.90506 31.79956 30.35231
#
# Velocity S-wave (km/s) = 3.84007 4.02775 3.93503
# Velocity P-wave (km/s) = 7.37104 7.74148 7.55853
#
# Compressibility (1/GPa) = 0.01471432
#
# Stress axis : x y z
#
# Youngs Moduli (GPa) = 73.30297 44.41895 97.14994
#
# Poissons Ratio (x) = 0.33098 0.28023
# Poissons Ratio (y) = 0.54620 0.53736
# Poissons Ratio (z) = 0.21144 0.24569
#
# Static dielectric constant tensor:
#      x y z
#    x 3.819340 0.000000 -0.145260 
#    y 0.000000 3.625090 0.000000 
#    z -0.145260 0.000000 3.343520 
# 
# 
# High freq. dielectric constant tensor:
#      x y z
#    x 1.782410 0.000000 -0.001880 
#    y 0.000000 1.765770 0.000000 
#    z -0.001880 0.000000 1.769170 
# 
# From -- ./inp_files/238231.got.cif
#   From: 2010.06.25/outbox.cif.g09.slc.cpg/sg12_120_cif.got.tgz:238231.got - 2010.06.28 00:19:55.
