data_PCOD8109171
_publ_section_title
;
Structure prediction by ZEFSAII (Michael W. Deem and Ramdas Pophale) SiO2 
 PCOD8109171
Probable space group: C 2/M
;
_chemical_formula_sum "Si O2"
_cell_formula_units_Z 56
_cell_length_a 26.838449
_cell_length_b 18.268738
_cell_length_c 9.428143
_cell_angle_alpha 90.000000
_cell_angle_beta 142.132890
_cell_angle_gamma 90.000000
_cell_volume 2837.538368
_symmetry_space_group_name_H-M "C 2/M"
_symmetry_group_IT_number 12
_symmetry_cell_setting 'monoclinic'
loop_
_space_group_symop_operation_xyz
x,y,z
-x,y,-z
-x,-y,-z
x,-y,z
1/2+x,1/2+y,z
1/2-x,1/2+y,-z
1/2-x,1/2-y,-z
1/2+x,1/2-y,z
loop_
_atom_site_type_symbol
_atom_site_label
_atom_site_fract_x
_atom_site_fract_y
_atom_site_fract_z
Si Si1 0.980391 0.311374 0.302616
Si Si2 0.241729 0.083031 0.894047
Si Si3 0.437569 0.416216 0.477614
Si Si4 0.811645 0.305553 0.504249
Si Si5 0.450414 0.696214 0.752863
Si Si6 0.376543 0.914309 0.425381
Si Si7 0.801811 0.687044 0.806117
O O1 0.000000 0.275303 0.500000
O O2 0.001018 0.257606 0.222638
O O3 0.033732 0.385731 0.412131
O O4 0.886026 0.328283 0.075126
O O5 0.155910 0.090921 0.785384
O O6 0.239386 0.135269 0.751239
O O7 0.253556 0.000000 0.867555
O O8 0.314363 0.105677 0.161191
O O9 0.500000 0.384232 0.500000
O O10 0.461322 0.500000 0.562410
O O11 0.441526 0.374142 0.634643
O O12 0.867741 0.233208 0.621291
O O13 0.843858 0.374398 0.491208
O O14 0.804623 0.335899 0.647814
O O15 0.726195 0.272906 0.251532
O O16 0.500000 0.669696 0.000000
O O17 0.381311 0.000000 0.467822
#
# Coordination Sequence:
#
# PCOD8109171 Si02
#       7
#     8   8   8   8   8   8   8
#     4  11  22  36  61  93 122 159 204 249 300 360
#     4  10  21  39  62  89 122 157 202 252 301 367
#     4  10  22  41  62  87 119 159 205 254 311 364
#     4  10  23  39  61  86 126 162 203 251 300 365
#     4  11  21  38  59  87 122 155 203 255 298 360
#     4  10  23  40  60  90 126 164 204 250 303 364
#     4  11  21  40  61  91 120 162 201 247 306 358
#
# _framework density 19.735415
#
# number of rings (size 3 to 8) (size 9 to 14) (size 15 to 20)
#    0.000    1.571    4.286    0.429    0.000    4.571 
#    0.000    0.714    0.000    0.000    0.000    0.000 
#    0.000    0.000    0.000    0.000    0.000    0.000 
#
# Total GULP energy -347109.433395 kJ/mol
# GULP energy per Si atom -12396.765478 kJ/mol
# Density = 1.969050 g / cm^3
# Si number density = 19.735415 Si / 1000 Ang^3
#
#
#
# Elastic Constant Matrix: (Units=GPa)
#
#
# Indices 1 2 3 4 5 6 
#
# 1 108.8749 28.0680 45.4222 0.0000 3.3966 0.0000
# 2 28.0680 68.2654 41.9241 0.0000 2.4845 0.0000
# 3 45.4222 41.9241 117.3539 0.0000 3.3511 0.0000
# 4 0.0000 0.0000 0.0000 9.8393 0.0000 0.5345
# 5 3.3966 2.4845 3.3511 0.0000 29.5457 0.0000
# 6 0.0000 0.0000 0.0000 0.5345 0.0000 26.4936
#
#
#
# Elastic Compliance Matrix: (Units=1/GPa)
#
#
# Indices 1 2 3 4 5 6 
#
# 1 0.011293 -0.002493 -0.003461 0.000000 -0.000696 0.000000
# 2 -0.002493 0.019336 -0.005924 0.000000 -0.000667 0.000000
# 3 -0.003461 -0.005924 0.011990 0.000000 -0.000464 0.000000
# 4 0.000000 0.000000 0.000000 0.101745 0.000000 -0.002053
# 5 -0.000696 -0.000667 -0.000464 0.000000 0.034035 0.000000
# 6 0.000000 0.000000 0.000000 -0.002053 0.000000 0.037786
#
#
# Mechanical properties :
#
#
# Convention : Reuss Voigt Hill
#
# Bulk Modulus (GPa) = 53.00843 58.36922 55.68883
# Shear Modulus (GPa) = 20.30643 25.11438 22.71040
#
# Velocity S-wave (km/s) = 3.21118 3.57116 3.39594
# Velocity P-wave (km/s) = 6.37705 6.82966 6.60723
#
# Compressibility (1/GPa) = 0.01886492
#
# Stress axis : x y z
#
# Youngs Moduli (GPa) = 88.55103 51.71734 83.40151
#
# Poissons Ratio (x) = 0.12891 0.28862
# Poissons Ratio (y) = 0.22072 0.49406
# Poissons Ratio (z) = 0.30644 0.30636
#
# Static dielectric constant tensor:
#      x y z
#    x 3.824440 0.000000 0.178070 
#    y 0.000000 3.392060 0.000000 
#    z 0.178070 0.000000 3.581850 
# 
# 
# High freq. dielectric constant tensor:
#      x y z
#    x 1.785830 0.000000 0.009240 
#    y 0.000000 1.756890 0.000000 
#    z 0.009240 0.000000 1.767720 
# 
# From -- ./inp_files/75838.got.cif
#   From: 2010.06.25/outbox.cif.g09.slc.cpg/sg12_38_cif.got.tgz:75838.got - 2010.06.28 00:19:55.
