data_PCOD8109487
_publ_section_title
;
Structure prediction by ZEFSAII (Michael W. Deem and Ramdas Pophale) SiO2 
 PCOD8109487
Probable space group: C 2/M
;
_chemical_formula_sum "Si O2"
_cell_formula_units_Z 64
_cell_length_a 14.507010
_cell_length_b 27.708318
_cell_length_c 12.363302
_cell_angle_alpha 90.000000
_cell_angle_beta 36.608046
_cell_angle_gamma 90.000000
_cell_volume 2963.567003
_symmetry_space_group_name_H-M "C 2/M"
_symmetry_group_IT_number 12
_symmetry_cell_setting 'monoclinic'
loop_
_space_group_symop_operation_xyz
x,y,z
-x,y,-z
-x,-y,-z
x,-y,z
1/2+x,1/2+y,z
1/2-x,1/2+y,-z
1/2-x,1/2-y,-z
1/2+x,1/2-y,z
loop_
_atom_site_type_symbol
_atom_site_label
_atom_site_fract_x
_atom_site_fract_y
_atom_site_fract_z
Si Si1 0.374486 0.370739 0.479191
Si Si2 0.176271 0.689047 0.321825
Si Si3 0.168923 0.417621 0.294873
Si Si4 0.870847 0.944303 0.308427
Si Si5 0.774910 0.869005 0.804259
Si Si6 0.278880 0.553866 0.970438
Si Si7 0.335422 0.764133 0.026004
Si Si8 0.362231 0.285391 0.337843
O O1 0.298039 0.410190 0.470245
O O2 0.251458 0.368582 0.695478
O O3 0.545224 0.382400 0.357499
O O4 0.419086 0.320273 0.378806
O O5 0.189244 0.638994 0.244990
O O6 0.262644 0.680143 0.353366
O O7 0.000000 0.705251 0.500000
O O8 0.263110 0.734026 0.190041
O O9 0.299679 0.434126 0.257129
O O10 0.000000 0.428102 0.500000
O O11 0.174283 0.445498 0.176678
O O12 0.052840 0.931073 0.140757
O O13 0.841758 0.000000 0.366142
O O14 0.706263 0.912018 0.944284
O O15 0.692917 0.820564 0.925141
O O16 0.280834 0.500000 0.920065
O O17 0.511955 0.747294 0.844017
O O18 0.250000 0.750000 0.000000
O O19 0.250000 0.250000 0.500000
#
# Coordination Sequence:
#
# PCOD8109487 Si02
#       8
#     8   8   8   8   8   8   8   8
#     4  10  21  40  63  93 126 171 210 264 318 378
#     4  11  25  40  60  94 132 169 215 270 321 389
#     4  11  23  39  63  95 130 165 210 266 329 386
#     4  10  21  39  64  94 126 164 215 267 318 381
#     4  10  22  40  64  93 130 165 217 262 316 382
#     4  10  22  40  65  94 125 167 214 266 321 382
#     4  12  23  38  63  93 126 178 214 260 326 382
#     4  12  24  40  62  92 129 170 224 263 319 389
#
# _framework density 21.595596
#
# number of rings (size 3 to 8) (size 9 to 14) (size 15 to 20)
#    0.000    1.250    2.500    3.375    3.500    4.500 
#    0.000    2.500    0.000    0.000    0.000    1.750 
#    0.000    0.000    0.000    0.000    0.000    0.125 
#
# Total GULP energy -396429.668817 kJ/mol
# GULP energy per Si atom -12388.427151 kJ/mol
# Density = 2.154644 g / cm^3
# Si number density = 21.595596 Si / 1000 Ang^3
#
#
#
# Elastic Constant Matrix: (Units=GPa)
#
#
# Indices 1 2 3 4 5 6 
#
# 1 63.2785 27.5205 34.9491 0.0000 11.3921 0.0000
# 2 27.5205 140.6216 61.5008 0.0000 14.7767 0.0000
# 3 34.9491 61.5008 112.1705 0.0000 14.7076 0.0000
# 4 0.0000 0.0000 0.0000 15.8570 0.0000 13.9075
# 5 11.3921 14.7767 14.7076 0.0000 38.6317 0.0000
# 6 0.0000 0.0000 0.0000 13.9075 0.0000 28.2336
#
#
#
# Elastic Compliance Matrix: (Units=1/GPa)
#
#
# Indices 1 2 3 4 5 6 
#
# 1 0.019744 -0.001329 -0.004975 0.000000 -0.003420 0.000000
# 2 -0.001329 0.009553 -0.004627 0.000000 -0.001501 0.000000
# 3 -0.004975 -0.004627 0.013238 0.000000 -0.001803 0.000000
# 4 0.000000 0.000000 0.000000 0.111033 0.000000 -0.054694
# 5 -0.003420 -0.001501 -0.001803 0.000000 0.028155 0.000000
# 6 0.000000 0.000000 0.000000 -0.054694 0.000000 0.062360
#
#
# Mechanical properties :
#
#
# Convention : Reuss Voigt Hill
#
# Bulk Modulus (GPa) = 48.36901 62.66793 55.51847
# Shear Modulus (GPa) = 18.32609 29.35112 23.83861
#
# Velocity S-wave (km/s) = 2.91624 3.69063 3.32605
# Velocity P-wave (km/s) = 5.81253 6.87334 6.36508
#
# Compressibility (1/GPa) = 0.02067439
#
# Stress axis : x y z
#
# Youngs Moduli (GPa) = 50.64710 104.68456 75.53964
#
# Poissons Ratio (x) = 0.13913 0.37579
# Poissons Ratio (y) = 0.06731 0.34949
# Poissons Ratio (z) = 0.25195 0.48433
#
# Static dielectric constant tensor:
#      x y z
#    x 4.226400 0.000000 1.171520 
#    y 0.000000 3.770430 0.000000 
#    z 1.171520 0.000000 7.871110 
# 
# 
# High freq. dielectric constant tensor:
#      x y z
#    x 1.841960 0.000000 0.015420 
#    y 0.000000 1.854400 0.000000 
#    z 0.015420 0.000000 1.843880 
# 
# From -- ./inp_files/149737.got.cif
#   From: 2010.06.25/outbox.cif.g09.slc.cpg/sg12_75_cif.got.tgz:149737.got - 2010.06.28 00:19:55.
