data_PCOD8109087
_publ_section_title
;
Structure prediction by ZEFSAII (Michael W. Deem and Ramdas Pophale) SiO2 
 PCOD8109087
Probable space group: C 2/M
;
_chemical_formula_sum "Si O2"
_cell_formula_units_Z 48
_cell_length_a 24.565067
_cell_length_b 9.165576
_cell_length_c 14.706359
_cell_angle_alpha 90.000000
_cell_angle_beta 133.110225
_cell_angle_gamma 90.000000
_cell_volume 2417.295429
_symmetry_space_group_name_H-M "C 2/M"
_symmetry_group_IT_number 12
_symmetry_cell_setting 'monoclinic'
loop_
_space_group_symop_operation_xyz
x,y,z
-x,y,-z
-x,-y,-z
x,-y,z
1/2+x,1/2+y,z
1/2-x,1/2+y,-z
1/2-x,1/2-y,-z
1/2+x,1/2-y,z
loop_
_atom_site_type_symbol
_atom_site_label
_atom_site_fract_x
_atom_site_fract_y
_atom_site_fract_z
Si Si1 0.542677 0.331974 0.638736
Si Si2 0.452570 0.830144 0.030482
Si Si3 0.197281 0.328268 0.863680
Si Si4 0.533695 0.339526 0.265160
Si Si5 0.302891 0.337033 0.623308
Si Si6 0.308321 0.332177 0.831837
O O1 0.500000 0.270487 0.500000
O O2 0.567591 0.500000 0.651443
O O3 0.615456 0.242729 0.756714
O O4 0.478897 0.319046 0.642282
O O5 0.494581 0.794417 0.170837
O O6 0.440649 0.000000 0.004398
O O7 0.500000 0.765460 0.000000
O O8 0.373476 0.756068 0.953931
O O9 0.189603 0.500000 0.880940
O O10 0.234485 0.310899 0.807032
O O11 0.250000 0.250000 0.000000
O O12 0.502519 0.500000 0.199532
O O13 0.619152 0.330382 0.337827
O O14 0.272141 0.500000 0.596763
O O15 0.250000 0.250000 0.500000
O O16 0.300721 0.266910 0.721550
O O17 0.332964 0.500000 0.854411
#
# Coordination Sequence:
#
# PCOD8109087 Si02
#       6
#     8   8   8   8   8   8
#     4  10  23  42  64  91 122 160 205 251 300 358
#     4  11  22  35  56  90 121 148 188 240 294 344
#     4  11  24  42  64  91 122 161 206 251 302 358
#     4  10  21  39  62  85 115 157 196 233 290 357
#     4  10  22  38  58  85 115 150 193 239 289 347
#     4  10  22  40  61  85 117 156 194 235 291 357
#
# _framework density 19.856902999999999
#
# number of rings (size 3 to 8) (size 9 to 14) (size 15 to 20)
#    0.000    1.667    1.667    2.000    2.333    8.333 
#    0.000    0.000    0.000    0.000    0.000    0.000 
#    0.000    0.000    0.000    0.000    0.000    0.000 
#
# Total GULP energy -297489.884641 kJ/mol
# GULP energy per Si atom -12395.411860 kJ/mol
# Density = 1.981171 g / cm^3
# Si number density = 19.856903 Si / 1000 Ang^3
#
#
#
# Elastic Constant Matrix: (Units=GPa)
#
#
# Indices 1 2 3 4 5 6 
#
# 1 116.2238 33.9577 42.4890 0.0000 -16.1523 0.0000
# 2 33.9577 72.9592 48.7562 0.0000 3.0159 0.0000
# 3 42.4890 48.7562 125.9735 0.0000 -6.8565 0.0000
# 4 0.0000 0.0000 0.0000 38.2614 0.0000 1.7287
# 5 -16.1523 3.0159 -6.8565 0.0000 26.3465 0.0000
# 6 0.0000 0.0000 0.0000 1.7287 0.0000 25.8674
#
#
#
# Elastic Compliance Matrix: (Units=1/GPa)
#
#
# Indices 1 2 3 4 5 6 
#
# 1 0.011555 -0.004490 -0.001771 0.000000 0.007137 0.000000
# 2 -0.004490 0.020665 -0.006860 0.000000 -0.006903 0.000000
# 3 -0.001771 -0.006860 0.011335 0.000000 0.002649 0.000000
# 4 0.000000 0.000000 0.000000 0.026215 0.000000 -0.001752
# 5 0.007137 -0.006903 0.002649 0.000000 0.043811 0.000000
# 6 0.000000 0.000000 0.000000 -0.001752 0.000000 0.038776
#
#
# Mechanical properties :
#
#
# Convention : Reuss Voigt Hill
#
# Bulk Modulus (GPa) = 57.75598 62.84027 60.29812
# Shear Modulus (GPa) = 27.11940 30.75862 28.93901
#
# Velocity S-wave (km/s) = 3.69960 3.94002 3.82170
# Velocity P-wave (km/s) = 6.88467 7.23973 7.06443
#
# Compressibility (1/GPa) = 0.01731423
#
# Stress axis : x y z
#
# Youngs Moduli (GPa) = 86.54048 48.39017 88.22416
#
# Poissons Ratio (x) = 0.21725 0.15628
# Poissons Ratio (y) = 0.38853 0.60519
# Poissons Ratio (z) = 0.15329 0.33194
#
# Static dielectric constant tensor:
#      x y z
#    x 4.128020 0.000000 0.214530 
#    y 0.000000 3.708730 0.000000 
#    z 0.214530 0.000000 3.875940 
# 
# 
# High freq. dielectric constant tensor:
#      x y z
#    x 1.792020 0.000000 -0.008490 
#    y 0.000000 1.769480 0.000000 
#    z -0.008490 0.000000 1.769580 
# 
# From -- ./inp_files/244862.got.cif
#   From: 2010.06.25/outbox.cif.g09.slc.cpg/sg12_123_cif.got.tgz:244862.got - 2010.06.28 00:19:55.
