data_PCOD8109566
_publ_section_title
;
Structure prediction by ZEFSAII (Michael W. Deem and Ramdas Pophale) SiO2 
 PCOD8109566
Probable space group: C 2/M
;
_chemical_formula_sum "Si O2"
_cell_formula_units_Z 64
_cell_length_a 15.438102
_cell_length_b 17.891295
_cell_length_c 15.070444
_cell_angle_alpha 90.000000
_cell_angle_beta 136.135499
_cell_angle_gamma 90.000000
_cell_volume 2884.475974
_symmetry_space_group_name_H-M "C 2/M"
_symmetry_group_IT_number 12
_symmetry_cell_setting 'monoclinic'
loop_
_space_group_symop_operation_xyz
x,y,z
-x,y,-z
-x,-y,-z
x,-y,z
1/2+x,1/2+y,z
1/2-x,1/2+y,-z
1/2-x,1/2-y,-z
1/2+x,1/2-y,z
loop_
_atom_site_type_symbol
_atom_site_label
_atom_site_fract_x
_atom_site_fract_y
_atom_site_fract_z
Si Si1 0.306828 0.320132 0.680321
Si Si2 0.937805 0.188284 0.043474
Si Si3 0.905527 0.350825 0.350396
Si Si4 0.774244 0.343952 0.677665
Si Si5 0.043005 0.358431 0.937142
Si Si6 0.568589 0.316895 0.643114
Si Si7 0.872379 0.085325 0.576024
Si Si8 0.298994 0.084448 0.102035
O O1 0.456008 0.318768 0.803591
O O2 0.234714 0.349265 0.714077
O O3 0.251317 0.238054 0.615819
O O4 0.282117 0.378202 0.583090
O O5 0.900350 0.275531 0.004877
O O6 0.815931 0.141679 0.978515
O O7 0.000000 0.157072 0.000000
O O8 0.945568 0.269904 0.341514
O O9 0.897530 0.402664 0.256590
O O10 0.000000 0.377448 0.500000
O O11 0.713726 0.340664 0.732980
O O12 0.706223 0.408854 0.572448
O O13 0.919552 0.358007 0.786462
O O14 0.139187 0.406422 0.949799
O O15 0.000000 0.394400 0.000000
O O16 0.500000 0.331534 0.500000
O O17 0.503896 0.369520 0.668530
O O18 0.902738 0.000000 0.621197
O O19 0.248986 0.000000 0.071852
#
# Coordination Sequence:
#
# PCOD8109566 Si02
#       8
#     8   8   8   8   8   8   8   8
#     4  10  21  39  65  95 127 167 218 264 321 384
#     4  10  21  45  70  95 123 168 228 281 319 378
#     4  10  22  41  66  95 131 175 217 261 314 393
#     4   9  20  39  63  89 127 170 215 269 313 383
#     4  10  24  43  69  97 122 169 228 272 318 387
#     4   8  18  36  60  90 122 167 213 258 310 371
#     4  11  23  36  60 100 135 167 210 264 335 388
#     4  12  27  43  66  99 135 175 214 268 341 390
#
# _framework density 22.187740000000002
#
# number of rings (size 3 to 8) (size 9 to 14) (size 15 to 20)
#    0.000    2.000    1.250    1.500    7.000    5.500 
#    0.000    0.000    0.000    0.000    0.000    0.000 
#    0.000    0.000    0.000    0.000    0.000    0.000 
#
# Total GULP energy -396580.510505 kJ/mol
# GULP energy per Si atom -12393.140953 kJ/mol
# Density = 2.213724 g / cm^3
# Si number density = 22.187740 Si / 1000 Ang^3
#
#
#
# Elastic Constant Matrix: (Units=GPa)
#
#
# Indices 1 2 3 4 5 6 
#
# 1 115.6917 46.2322 21.0195 0.0000 -4.4517 0.0000
# 2 46.2322 97.1817 15.5417 0.0000 -1.6332 0.0000
# 3 21.0195 15.5417 49.9587 0.0000 3.7066 0.0001
# 4 0.0000 0.0000 0.0000 22.5861 0.0000 1.5646
# 5 -4.4517 -1.6332 3.7066 0.0000 34.3674 0.0000
# 6 0.0000 0.0000 0.0001 1.5646 0.0000 14.5947
#
#
#
# Elastic Compliance Matrix: (Units=1/GPa)
#
#
# Indices 1 2 3 4 5 6 
#
# 1 0.011223 -0.004776 -0.003354 0.000000 0.001588 0.000000
# 2 -0.004776 0.012888 -0.002016 0.000000 0.000211 0.000000
# 3 -0.003354 -0.002016 0.022272 0.000000 -0.002932 0.000000
# 4 0.000000 0.000000 0.000000 0.044606 0.000000 -0.004782
# 5 0.001588 0.000211 -0.002932 0.000000 0.029629 0.000000
# 6 0.000000 0.000000 0.000000 -0.004782 0.000000 0.069030
#
#
# Mechanical properties :
#
#
# Convention : Reuss Voigt Hill
#
# Bulk Modulus (GPa) = 38.32586 47.60209 42.96398
# Shear Modulus (GPa) = 22.86896 26.31223 24.59059
#
# Velocity S-wave (km/s) = 3.21394 3.44741 3.33272
# Velocity P-wave (km/s) = 5.57526 6.11122 5.84938
#
# Compressibility (1/GPa) = 0.02609204
#
# Stress axis : x y z
#
# Youngs Moduli (GPa) = 89.10541 77.59201 44.89892
#
# Poissons Ratio (x) = 0.37057 0.15059
# Poissons Ratio (y) = 0.42556 0.09050
# Poissons Ratio (z) = 0.29885 0.15639
#
# Static dielectric constant tensor:
#      x y z
#    x 4.239580 0.000000 0.120060 
#    y 0.000000 3.622200 0.000000 
#    z 0.120060 0.000000 3.846880 
# 
# 
# High freq. dielectric constant tensor:
#      x y z
#    x 1.884910 0.000000 0.003990 
#    y 0.000000 1.836840 0.000000 
#    z 0.003990 0.000000 1.861480 
# 
# From -- ./inp_files/216844.got.cif
#   From: 2010.06.25/outbox.cif.g09.slc.cpg/sg12_109_cif.got.tgz:216844.got - 2010.06.28 00:19:55.
