data_PCOD8109064
_publ_section_title
;
Structure prediction by ZEFSAII (Michael W. Deem and Ramdas Pophale) SiO2 
 PCOD8109064
Probable space group: C 2/M
;
_chemical_formula_sum "Si O2"
_cell_formula_units_Z 60
_cell_length_a 25.007231
_cell_length_b 21.220829
_cell_length_c 12.663341
_cell_angle_alpha 90.000000
_cell_angle_beta 26.083837
_cell_angle_gamma 90.000000
_cell_volume 2954.736207
_symmetry_space_group_name_H-M "C 2/M"
_symmetry_group_IT_number 12
_symmetry_cell_setting 'monoclinic'
loop_
_space_group_symop_operation_xyz
x,y,z
-x,y,-z
-x,-y,-z
x,-y,z
1/2+x,1/2+y,z
1/2-x,1/2+y,-z
1/2-x,1/2-y,-z
1/2+x,1/2-y,z
loop_
_atom_site_type_symbol
_atom_site_label
_atom_site_fract_x
_atom_site_fract_y
_atom_site_fract_z
Si Si1 0.780187 0.824710 0.581001
Si Si2 0.660238 0.712043 0.089710
Si Si3 0.079426 0.677641 0.105086
Si Si4 0.986408 0.429854 0.402792
Si Si5 0.165565 0.683027 0.570719
Si Si6 0.228225 0.116857 0.805754
Si Si7 0.500000 0.618496 0.500000
Si Si8 0.464840 0.571138 0.334692
O O1 0.833884 0.758291 0.447342
O O2 0.689629 0.842601 0.645988
O O3 0.884201 0.877319 0.415336
O O4 0.707543 0.818405 0.818654
O O5 0.563008 0.758415 0.203989
O O6 0.602814 0.662785 0.271142
O O7 0.750000 0.750000 0.000000
O O8 0.739216 0.676514 0.862672
O O9 0.078897 0.617111 0.181210
O O10 0.971643 0.665443 0.214213
O O11 0.033101 0.500000 0.295245
O O12 0.845520 0.426393 0.617474
O O13 0.000000 0.413130 0.500000
O O14 0.265244 0.646284 0.323142
O O15 0.103359 0.079585 0.048426
O O16 0.453216 0.577411 0.483074
O O17 0.423365 0.500000 0.379090
#
# Coordination Sequence:
#
# PCOD8109064 Si02
#       8
#     8   8   8   8   8   8   4   8
#     4  11  23  40  63  93 120 165 205 259 316 375
#     4  11  21  32  57  92 126 156 199 257 314 371
#     4  11  22  38  60  90 126 160 202 259 315 369
#     4  10  22  39  60  87 123 169 210 245 299 374
#     4  10  22  40  64  89 125 155 208 262 321 368
#     4  10  21  39  61  90 121 162 206 263 309 367
#     4  10  23  36  58  88 123 164 200 242 316 372
#     4  11  24  43  63  90 129 169 210 253 310 387
#
# _framework density 20.306380999999998
#
# number of rings (size 3 to 8) (size 9 to 14) (size 15 to 20)
#    0.000    1.467    1.333    4.200    4.667    2.133 
#    0.000    6.667    0.000    4.000    0.000    0.000 
#    0.000    0.000    0.000    0.000    0.000    0.000 
#
# Total GULP energy -371847.205853 kJ/mol
# GULP energy per Si atom -12394.906862 kJ/mol
# Density = 2.026016 g / cm^3
# Si number density = 20.306381 Si / 1000 Ang^3
#
#
#
# Elastic Constant Matrix: (Units=GPa)
#
#
# Indices 1 2 3 4 5 6 
#
# 1 86.2153 42.3599 3.4885 -0.0004 2.7785 0.0020
# 2 42.3599 105.4662 24.8511 -0.0008 8.8647 0.0008
# 3 3.4885 24.8511 64.8707 0.0003 5.9264 0.0022
# 4 -0.0004 -0.0008 0.0003 -25.0192 -0.0008 -15.5192
# 5 2.7785 8.8647 5.9264 -0.0008 25.4886 -0.0016
# 6 0.0020 0.0008 0.0022 -15.5192 -0.0016 64.5131
#
#
#
# Elastic Compliance Matrix: (Units=1/GPa)
#
#
# Indices 1 2 3 4 5 6 
#
# 1 0.014602 -0.006258 0.001593 0.000000 0.000214 0.000000
# 2 -0.006258 0.013298 -0.004493 0.000000 -0.002898 0.000000
# 3 0.001593 -0.004493 0.017291 0.000001 -0.002631 0.000000
# 4 0.000000 0.000000 0.000001 -0.034780 -0.000002 -0.008367
# 5 0.000214 -0.002898 -0.002631 -0.000002 0.040830 0.000001
# 6 0.000000 0.000000 0.000000 -0.008367 0.000001 0.013488
#
#
# Mechanical properties :
#
#
# Convention : Reuss Voigt Hill
#
# Bulk Modulus (GPa) = 37.21052 44.21682 40.71367
# Shear Modulus (GPa) = 54.34543 25.38667 39.86605
#
# Velocity S-wave (km/s) = 5.17888 3.53963 4.43564
# Velocity P-wave (km/s) = 7.35700 6.20704 6.80635
#
# Compressibility (1/GPa) = 0.02687412
#
# Stress axis : x y z
#
# Youngs Moduli (GPa) = 68.48204 75.20197 57.83301
#
# Poissons Ratio (x) = 0.47063 -0.09210
# Poissons Ratio (y) = 0.42858 0.25983
# Poissons Ratio (z) = -0.10906 0.33787
#
# Static dielectric constant tensor:
#      x y z
#    x 4.117880 0.000000 0.013720 
#    y 0.000000 3.455880 0.000000 
#    z 0.013720 0.000000 3.839590 
# 
# 
# High freq. dielectric constant tensor:
#      x y z
#    x 1.798250 0.000000 0.005890 
#    y 0.000000 1.791130 0.000000 
#    z 0.005890 0.000000 1.788340 
# 
# From -- ./inp_files/178013.got.cif
#   From: 2010.06.25/outbox.cif.g09.slc.cpg/sg12_90_cif.got.tgz:178013.got - 2010.06.28 00:19:55.
