data_PCOD8109979
_publ_section_title
;
Structure prediction by ZEFSAII (Michael W. Deem and Ramdas Pophale) SiO2 
 PCOD8109979
Probable space group: C 2/M
;
_chemical_formula_sum "Si O2"
_cell_formula_units_Z 64
_cell_length_a 29.656054
_cell_length_b 8.658064
_cell_length_c 18.383966
_cell_angle_alpha 90.000000
_cell_angle_beta 139.959781
_cell_angle_gamma 90.000000
_cell_volume 3036.714152
_symmetry_space_group_name_H-M "C 2/M"
_symmetry_group_IT_number 12
_symmetry_cell_setting 'monoclinic'
loop_
_space_group_symop_operation_xyz
x,y,z
-x,y,-z
-x,-y,-z
x,-y,z
1/2+x,1/2+y,z
1/2-x,1/2+y,-z
1/2-x,1/2-y,-z
1/2+x,1/2-y,z
loop_
_atom_site_type_symbol
_atom_site_label
_atom_site_fract_x
_atom_site_fract_y
_atom_site_fract_z
Si Si1 0.357773 0.176687 0.483609
Si Si2 0.436212 0.680508 0.868664
Si Si3 0.289337 0.678434 0.760187
Si Si4 0.050064 0.678094 0.271068
Si Si5 0.921676 0.820647 0.426442
Si Si6 0.910676 0.820945 0.147053
Si Si7 0.790219 0.321192 0.914827
Si Si8 0.843818 0.321102 0.201965
O O1 0.274940 0.214054 0.374007
O O2 0.379563 0.206903 0.594355
O O3 0.406291 0.281608 0.491372
O O4 0.372628 0.000000 0.479914
O O5 0.442127 0.500000 0.857724
O O6 0.362554 0.723294 0.814092
O O7 0.438250 0.775390 0.797269
O O8 0.500000 0.731589 0.000000
O O9 0.290027 0.500000 0.785754
O O10 0.278219 0.785161 0.815940
O O11 0.027032 0.500000 0.245625
O O12 0.991487 0.782873 0.236031
O O13 0.869396 0.716414 0.314653
O O14 0.000000 0.776325 0.500000
O O15 0.906548 0.000000 0.392869
O O16 0.889272 0.777729 0.202158
O O17 0.897287 0.000000 0.116533
O O18 0.868234 0.724545 0.034482
O O19 0.776622 0.500000 0.912112
O O20 0.737729 0.225672 0.902099
O O21 0.852250 0.500000 0.193178
#
# Coordination Sequence:
#
# PCOD8109979 Si02
#       8
#     8   8   8   8   8   8   8   8
#     4  10  22  40  62  89 126 169 212 261 318 380
#     4  10  22  41  66  95 127 166 213 263 321 385
#     4  10  21  40  65  93 127 171 216 260 317 383
#     4  11  24  42  64  94 128 164 211 264 321 379
#     4  11  23  38  59  89 124 166 218 269 314 372
#     4  12  25  42  63  89 124 167 212 263 323 383
#     4  12  24  40  63  94 128 164 211 264 318 379
#     4  12  24  40  61  89 126 167 212 261 317 379
#
# _framework density 21.075412
#
# number of rings (size 3 to 8) (size 9 to 14) (size 15 to 20)
#    0.000    1.000    1.250    6.000    0.000    6.250 
#    0.000    0.000    0.000    0.000    0.000    0.000 
#    0.000    0.000    0.000    0.000    0.000    0.000 
#
# Total GULP energy -397002.448481 kJ/mol
# GULP energy per Si atom -12406.326515 kJ/mol
# Density = 2.102744 g / cm^3
# Si number density = 21.075412 Si / 1000 Ang^3
#
#
#
# Elastic Constant Matrix: (Units=GPa)
#
#
# Indices 1 2 3 4 5 6 
#
# 1 112.8153 33.5038 48.5149 0.0000 4.9012 0.0000
# 2 33.5038 84.5043 34.2939 0.0000 0.3389 0.0000
# 3 48.5149 34.2939 134.4396 0.0000 -2.2286 0.0000
# 4 0.0000 0.0000 0.0000 29.8443 0.0000 -4.5598
# 5 4.9012 0.3389 -2.2286 0.0000 39.5307 0.0000
# 6 0.0000 0.0000 0.0000 -4.5598 0.0000 34.6462
#
#
#
# Elastic Compliance Matrix: (Units=1/GPa)
#
#
# Indices 1 2 3 4 5 6 
#
# 1 0.011279 -0.003127 -0.003298 0.000000 -0.001558 0.000000
# 2 -0.003127 0.014071 -0.002459 0.000000 0.000128 0.000000
# 3 -0.003298 -0.002459 0.009272 0.000000 0.000953 0.000000
# 4 0.000000 0.000000 0.000000 0.034195 0.000000 0.004500
# 5 -0.001558 0.000128 0.000953 0.000000 0.025542 0.000000
# 6 0.000000 0.000000 0.000000 0.004500 0.000000 0.029455
#
#
# Mechanical properties :
#
#
# Convention : Reuss Voigt Hill
#
# Bulk Modulus (GPa) = 59.33646 62.70940 61.02293
# Shear Modulus (GPa) = 33.96749 35.16735 34.56742
#
# Velocity S-wave (km/s) = 4.01897 4.08933 4.05430
# Velocity P-wave (km/s) = 7.05348 7.21916 7.13680
#
# Compressibility (1/GPa) = 0.01685304
#
# Stress axis : x y z
#
# Youngs Moduli (GPa) = 88.66233 71.06926 107.85718
#
# Poissons Ratio (x) = 0.22223 0.35575
# Poissons Ratio (y) = 0.27724 0.26519
# Poissons Ratio (z) = 0.29244 0.17474
#
# Static dielectric constant tensor:
#      x y z
#    x 3.771290 0.000000 0.140630 
#    y 0.000000 3.738110 0.000000 
#    z 0.140630 0.000000 3.988480 
# 
# 
# High freq. dielectric constant tensor:
#      x y z
#    x 1.821620 0.000000 0.003980 
#    y 0.000000 1.825750 0.000000 
#    z 0.003980 0.000000 1.840770 
# 
# From -- ./inp_files/295712.got.cif
#   From: 2010.06.25/outbox.cif.g09.slc.cpg/sg12_148_cif.got.tgz:295712.got - 2010.06.28 00:19:55.
