data_PCOD8109677
_publ_section_title
;
Structure prediction by ZEFSAII (Michael W. Deem and Ramdas Pophale) SiO2 
 PCOD8109677
Probable space group: C 2/M
;
_chemical_formula_sum "Si O2"
_cell_formula_units_Z 56
_cell_length_a 16.997929
_cell_length_b 30.562967
_cell_length_c 5.303221
_cell_angle_alpha 90.000000
_cell_angle_beta 65.706689
_cell_angle_gamma 90.000000
_cell_volume 2511.104139
_symmetry_space_group_name_H-M "C 2/M"
_symmetry_group_IT_number 12
_symmetry_cell_setting 'monoclinic'
loop_
_space_group_symop_operation_xyz
x,y,z
-x,y,-z
-x,-y,-z
x,-y,z
1/2+x,1/2+y,z
1/2-x,1/2+y,-z
1/2-x,1/2-y,-z
1/2+x,1/2-y,z
loop_
_atom_site_type_symbol
_atom_site_label
_atom_site_fract_x
_atom_site_fract_y
_atom_site_fract_z
Si Si1 0.331504 0.117252 0.176816
Si Si2 0.398293 0.787373 0.139353
Si Si3 0.421050 0.952512 0.786591
Si Si4 0.152584 0.860408 0.261388
Si Si5 0.397477 0.736996 0.637271
Si Si6 0.095852 0.905234 0.855037
Si Si7 0.263497 0.047626 0.640957
O O1 0.414805 0.089228 0.976196
O O2 0.362563 0.164156 0.224304
O O3 0.251788 0.123799 0.087695
O O4 0.294541 0.089956 0.454921
O O5 0.366152 0.761217 0.426066
O O6 0.500000 0.790297 0.000000
O O7 0.366621 0.764608 0.922365
O O8 0.500000 0.941971 0.500000
O O9 0.325495 0.955692 0.798244
O O10 0.439259 0.000000 0.894734
O O11 0.151829 0.808734 0.305085
O O12 0.111023 0.884404 0.559027
O O13 0.101606 0.869009 0.069335
O O14 0.500000 0.729230 0.500000
O O15 0.162906 0.943998 0.837439
O O16 0.000000 0.925332 0.000000
O O17 0.269194 0.000000 0.492202
#
# Coordination Sequence:
#
# PCOD8109677 Si02
#       7
#     8   8   8   8   8   8   8
#     4  11  24  39  62  91 130 164 216 266 325 374
#     4  10  24  38  61  90 126 166 213 263 319 378
#     4  10  22  40  65  92 124 171 217 264 322 385
#     4  11  23  40  67  94 131 169 215 267 313 379
#     4  10  21  40  59  89 124 166 212 263 316 375
#     4  11  22  40  66  99 129 171 217 260 317 378
#     4  10  23  42  63  92 131 166 211 266 322 382
#
# _framework density 22.300948000000002
#
# number of rings (size 3 to 8) (size 9 to 14) (size 15 to 20)
#    0.000    1.571    1.429    2.571    4.000    3.143 
#    0.000    2.143    0.000    2.571    0.000    0.000 
#    0.000    0.000    0.000    0.000    0.000    0.000 
#
# Total GULP energy -346977.403139 kJ/mol
# GULP energy per Si atom -12392.050112 kJ/mol
# Density = 2.225019 g / cm^3
# Si number density = 22.300948 Si / 1000 Ang^3
#
#
#
# Elastic Constant Matrix: (Units=GPa)
#
#
# Indices 1 2 3 4 5 6 
#
# 1 62.2374 21.2701 36.5730 0.0000 -2.5565 0.0000
# 2 21.2701 114.2858 40.3099 0.0000 -12.4772 0.0000
# 3 36.5730 40.3099 107.4261 0.0000 4.4096 0.0000
# 4 0.0000 0.0000 0.0000 -97.9585 0.0000 347.5695
# 5 -2.5565 -12.4772 4.4096 0.0000 33.7154 0.0000
# 6 0.0000 0.0000 0.0000 347.5695 0.0000 -921.9005
#
#
#
# Elastic Compliance Matrix: (Units=1/GPa)
#
#
# Indices 1 2 3 4 5 6 
#
# 1 0.020437 -0.001280 -0.006557 0.000000 0.001934 0.000000
# 2 -0.001280 0.010809 -0.003801 0.000000 0.004400 0.000000
# 3 -0.006557 -0.003801 0.013116 0.000000 -0.003619 0.000000
# 4 0.000000 0.000000 0.000000 0.030230 0.000000 0.011397
# 5 0.001934 0.004400 -0.003619 0.000000 0.031908 0.000000
# 6 0.000000 0.000000 0.000000 0.011397 0.000000 0.003212
#
#
# Mechanical properties :
#
#
# Convention : Reuss Voigt Hill
#
# Bulk Modulus (GPa) = 47.42255 53.36171 50.39213
# Shear Modulus (GPa) = 35.70987 -184.84230 -74.56622
#
# Velocity S-wave (km/s) = 4.00593 -9.11402 -5.78869
# Velocity P-wave (km/s) = 6.53511 9.31525 4.69394
#
# Compressibility (1/GPa) = 0.02108701
#
# Stress axis : x y z
#
# Youngs Moduli (GPa) = 48.92969 92.51370 76.24369
#
# Poissons Ratio (x) = 0.11840 0.49993
# Poissons Ratio (y) = 0.06262 0.28979
# Poissons Ratio (z) = 0.32083 0.35163
#
# Static dielectric constant tensor:
#      x y z
#    x 4.286930 0.000000 -0.127040 
#    y 0.000000 4.299930 0.000000 
#    z -0.127040 0.000000 4.014330 
# 
# 
# High freq. dielectric constant tensor:
#      x y z
#    x 1.884770 0.000000 -0.007510 
#    y 0.000000 1.885760 0.000000 
#    z -0.007510 0.000000 1.869820 
# 
# From -- ./inp_files/18234.got.cif
#   From: 2010.06.25/outbox.cif.g09.slc.cpg/sg12_10_cif.got.tgz:18234.got - 2010.06.28 00:19:55.
