data_PCOD8109007
_publ_section_title
;
Structure prediction by ZEFSAII (Michael W. Deem and Ramdas Pophale) SiO2 
 PCOD8109007
Probable space group: C 2/M
;
_chemical_formula_sum "Si O2"
_cell_formula_units_Z 56
_cell_length_a 17.864501
_cell_length_b 8.568968
_cell_length_c 25.038375
_cell_angle_alpha 90.000000
_cell_angle_beta 135.122627
_cell_angle_gamma 90.000000
_cell_volume 2704.450667
_symmetry_space_group_name_H-M "C 2/M"
_symmetry_group_IT_number 12
_symmetry_cell_setting 'monoclinic'
loop_
_space_group_symop_operation_xyz
x,y,z
-x,y,-z
-x,-y,-z
x,-y,z
1/2+x,1/2+y,z
1/2-x,1/2+y,-z
1/2-x,1/2-y,-z
1/2+x,1/2-y,z
loop_
_atom_site_type_symbol
_atom_site_label
_atom_site_fract_x
_atom_site_fract_y
_atom_site_fract_z
Si Si1 0.374046 0.679592 0.704393
Si Si2 0.653246 0.182406 0.983968
Si Si3 0.055642 0.318459 0.728281
Si Si4 0.428218 0.680577 0.852094
Si Si5 0.506849 0.816946 0.583987
Si Si6 0.778707 0.320846 0.862437
Si Si7 0.343073 0.681113 0.425466
O O1 0.349641 0.500000 0.680716
O O2 0.485662 0.723150 0.734621
O O3 0.378159 0.714344 0.769198
O O4 0.280839 0.781316 0.630812
O O5 0.670256 0.215810 0.054784
O O6 0.639468 0.000000 0.964954
O O7 0.750000 0.250000 0.000000
O O8 0.550787 0.274392 0.912398
O O9 0.031302 0.500000 0.722888
O O10 0.178372 0.289083 0.802407
O O11 0.028784 0.261223 0.655072
O O12 0.415881 0.500000 0.861727
O O13 0.368124 0.787529 0.864011
O O14 0.402963 0.727593 0.510234
O O15 0.609279 0.777093 0.600076
O O16 0.485585 0.000000 0.569950
O O17 0.742265 0.500000 0.839833
O O18 0.360490 0.500000 0.423066
#
# Coordination Sequence:
#
# PCOD8109007 Si02
#       7
#     8   8   8   8   8   8   8
#     4  11  24  41  60  85 120 157 194 242 298 350
#     4  11  24  41  62  90 123 158 196 240 294 350
#     4  11  24  40  61  89 118 154 199 243 292 350
#     4  11  24  41  63  90 118 155 201 244 291 347
#     4  10  21  39  61  86 119 155 193 241 295 348
#     4  11  24  41  62  89 121 157 196 241 294 349
#     4  11  22  37  61  90 117 152 199 242 288 350
#
# _framework density 20.706606000000001
#
# number of rings (size 3 to 8) (size 9 to 14) (size 15 to 20)
#    0.000    1.143    0.000    6.857    0.000   16.000 
#    0.000    0.000    0.000    0.000    0.000    0.000 
#    0.000    0.000    0.000    0.000    0.000    0.000 
#
# Total GULP energy -347434.250295 kJ/mol
# GULP energy per Si atom -12408.366082 kJ/mol
# Density = 2.065948 g / cm^3
# Si number density = 20.706606 Si / 1000 Ang^3
#
#
#
# Elastic Constant Matrix: (Units=GPa)
#
#
# Indices 1 2 3 4 5 6 
#
# 1 76.3607 12.9559 9.4113 0.0000 15.7107 0.0000
# 2 12.9559 67.2947 41.4833 0.0000 -8.6136 0.0000
# 3 9.4113 41.4833 74.6933 0.0000 18.2517 0.0000
# 4 0.0000 0.0000 0.0000 35.2894 0.0000 5.0784
# 5 15.7107 -8.6136 18.2517 0.0000 35.2767 0.0000
# 6 0.0000 0.0000 0.0000 5.0784 0.0000 35.2505
#
#
#
# Elastic Compliance Matrix: (Units=1/GPa)
#
#
# Indices 1 2 3 4 5 6 
#
# 1 0.016220 -0.007846 0.005205 0.000000 -0.011832 0.000000
# 2 -0.007846 0.034239 -0.023952 0.000000 0.024247 0.000000
# 3 0.005205 -0.023952 0.032087 0.000000 -0.024768 0.000000
# 4 0.000000 0.000000 0.000000 0.028937 0.000000 -0.004169
# 5 -0.011832 0.024247 -0.024768 0.000000 0.052352 0.000000
# 6 0.000000 0.000000 0.000000 -0.004169 0.000000 0.028969
#
#
# Mechanical properties :
#
#
# Convention : Reuss Voigt Hill
#
# Bulk Modulus (GPa) = 34.05977 38.44997 36.25487
# Shear Modulus (GPa) = 19.54835 31.46322 25.50578
#
# Velocity S-wave (km/s) = 3.07589 3.90228 3.51347
# Velocity P-wave (km/s) = 5.39438 6.23802 5.83148
#
# Compressibility (1/GPa) = 0.02936015
#
# Stress axis : x y z
#
# Youngs Moduli (GPa) = 61.65298 29.20635 31.16535
#
# Poissons Ratio (x) = 0.22915 -0.16222
# Poissons Ratio (y) = 0.48372 0.74647
# Poissons Ratio (z) = -0.32090 0.69955
#
# Static dielectric constant tensor:
#      x y z
#    x 3.668750 0.000000 -0.074590 
#    y 0.000000 3.808370 0.000000 
#    z -0.074590 0.000000 3.875640 
# 
# 
# High freq. dielectric constant tensor:
#      x y z
#    x 1.814400 0.000000 0.002280 
#    y 0.000000 1.821660 0.000000 
#    z 0.002280 0.000000 1.823690 
# 
# From -- ./inp_files/342557.got.cif
#   From: 2010.06.25/outbox.cif.g09.slc.cpg/sg12_172_cif.got.tgz:342557.got - 2010.06.28 00:19:55.
