data_PCOD8109980
_publ_section_title
;
Structure prediction by ZEFSAII (Michael W. Deem and Ramdas Pophale) SiO2 
 PCOD8109980
Probable space group: C 2/M
;
_chemical_formula_sum "Si O2"
_cell_formula_units_Z 56
_cell_length_a 19.335030
_cell_length_b 8.768899
_cell_length_c 28.887983
_cell_angle_alpha 90.000000
_cell_angle_beta 33.410070
_cell_angle_gamma 90.000000
_cell_volume 2696.900998
_symmetry_space_group_name_H-M "C 2/M"
_symmetry_group_IT_number 12
_symmetry_cell_setting 'monoclinic'
loop_
_space_group_symop_operation_xyz
x,y,z
-x,y,-z
-x,-y,-z
x,-y,z
1/2+x,1/2+y,z
1/2-x,1/2+y,-z
1/2-x,1/2-y,-z
1/2+x,1/2-y,z
loop_
_atom_site_type_symbol
_atom_site_label
_atom_site_fract_x
_atom_site_fract_y
_atom_site_fract_z
Si Si1 0.216305 0.322815 0.127676
Si Si2 0.733175 0.174263 0.374670
Si Si3 0.031803 0.177483 0.065372
Si Si4 0.665974 0.321151 0.506823
Si Si5 0.990265 0.824940 0.815885
Si Si6 0.279757 0.178067 0.185150
Si Si7 0.400612 0.178056 0.642618
O O1 0.220622 0.500000 0.138632
O O2 0.091019 0.288330 0.169485
O O3 0.208880 0.222675 0.177901
O O4 0.335875 0.274811 0.030345
O O5 0.720242 0.281357 0.426162
O O6 0.625229 0.210987 0.397229
O O7 0.865382 0.203895 0.276443
O O8 0.720392 0.000000 0.398817
O O9 0.924820 0.273640 0.099309
O O10 0.034793 0.220772 0.117380
O O11 0.001870 0.000000 0.074454
O O12 0.668059 0.500000 0.512652
O O13 0.750000 0.250000 0.500000
O O14 0.523672 0.264609 0.591127
O O15 0.951375 0.000000 0.828374
O O16 0.219281 0.266887 0.261759
O O17 0.266737 0.000000 0.201436
O O18 0.420131 0.000000 0.640380
#
# Coordination Sequence:
#
# PCOD8109980 Si02
#       7
#     8   8   8   8   8   8   8
#     4  11  24  39  61  91 129 172 217 266 321 379
#     4  10  22  43  70  96 128 170 212 258 317 380
#     4  10  21  42  65  90 125 170 217 265 320 380
#     4  12  27  45  68 100 136 169 208 258 313 374
#     4  10  21  40  65  93 128 167 213 265 318 377
#     4  12  25  40  63  94 129 168 215 268 320 378
#     4  11  23  45  72  96 128 169 213 259 316 381
#
# _framework density 20.764574
#
# number of rings (size 3 to 8) (size 9 to 14) (size 15 to 20)
#    0.000    1.143    1.429    4.714    2.000    6.857 
#    0.000    0.000    0.000    0.000    0.000    0.000 
#    0.000    0.000    0.000    0.000    0.000    0.000 
#
# Total GULP energy -347407.469667 kJ/mol
# GULP energy per Si atom -12407.409631 kJ/mol
# Density = 2.071731 g / cm^3
# Si number density = 20.764574 Si / 1000 Ang^3
#
#
#
# Elastic Constant Matrix: (Units=GPa)
#
#
# Indices 1 2 3 4 5 6 
#
# 1 122.7948 59.3054 26.6913 0.0029 -9.4177 -0.0384
# 2 59.3054 111.6729 38.5594 0.0050 -0.5209 -0.0049
# 3 26.6913 38.5594 63.2558 -0.0008 -3.9563 0.0006
# 4 0.0029 0.0050 -0.0008 32.3102 0.0021 -2.7051
# 5 -9.4177 -0.5209 -3.9563 0.0021 33.7051 0.0014
# 6 -0.0384 -0.0049 0.0006 -2.7051 0.0014 38.1174
#
#
#
# Elastic Compliance Matrix: (Units=1/GPa)
#
#
# Indices 1 2 3 4 5 6 
#
# 1 0.011328 -0.005592 -0.001187 0.000001 0.002939 0.000011
# 2 -0.005592 0.014116 -0.006376 -0.000002 -0.002093 -0.000004
# 3 -0.001187 -0.006376 0.020319 0.000001 0.001955 -0.000002
# 4 0.000001 -0.000002 0.000001 0.031135 -0.000002 0.002210
# 5 0.002939 -0.002093 0.001955 -0.000002 0.030688 0.000001
# 6 0.000011 -0.000004 -0.000002 0.002210 0.000001 0.026392
#
#
# Mechanical properties :
#
#
# Convention : Reuss Voigt Hill
#
# Bulk Modulus (GPa) = 51.40885 60.75950 56.08417
# Shear Modulus (GPa) = 29.98091 32.37105 31.17598
#
# Velocity S-wave (km/s) = 3.80392 3.95264 3.87900
# Velocity P-wave (km/s) = 6.64115 7.08208 6.86515
#
# Compressibility (1/GPa) = 0.01945190
#
# Stress axis : x y z
#
# Youngs Moduli (GPa) = 88.27674 70.83928 49.21529
#
# Poissons Ratio (x) = 0.39615 0.05843
# Poissons Ratio (y) = 0.49367 0.31381
# Poissons Ratio (z) = 0.10480 0.45169
#
# Static dielectric constant tensor:
#      x y z
#    x 3.796250 -0.000010 0.011170 
#    y -0.000010 3.699110 -0.000010 
#    z 0.011170 -0.000010 3.818090 
# 
# 
# High freq. dielectric constant tensor:
#      x y z
#    x 1.825220 0.000000 0.000360 
#    y 0.000000 1.808990 0.000000 
#    z 0.000360 0.000000 1.823490 
# 
# From -- ./inp_files/380611.got.cif
#   From: 2010.06.25/outbox.cif.g09.slc.cpg/sg12_191_cif.got.tgz:380611.got - 2010.06.28 00:19:55.
