data_PCOD8109311
_publ_section_title
;
Structure prediction by ZEFSAII (Michael W. Deem and Ramdas Pophale) SiO2 
 PCOD8109311
Probable space group: C 2/M
;
_chemical_formula_sum "Si O2"
_cell_formula_units_Z 48
_cell_length_a 23.384062
_cell_length_b 11.393916
_cell_length_c 11.767763
_cell_angle_alpha 90.000000
_cell_angle_beta 130.615231
_cell_angle_gamma 90.000000
_cell_volume 2380.043476
_symmetry_space_group_name_H-M "C 2/M"
_symmetry_group_IT_number 12
_symmetry_cell_setting 'monoclinic'
loop_
_space_group_symop_operation_xyz
x,y,z
-x,y,-z
-x,-y,-z
x,-y,z
1/2+x,1/2+y,z
1/2-x,1/2+y,-z
1/2-x,1/2-y,-z
1/2+x,1/2-y,z
loop_
_atom_site_type_symbol
_atom_site_label
_atom_site_fract_x
_atom_site_fract_y
_atom_site_fract_z
Si Si1 0.215489 0.128283 0.905627
Si Si2 0.906567 0.131759 0.653259
Si Si3 0.155715 0.138351 0.185485
Si Si4 0.431599 0.134407 0.340707
Si Si5 0.422667 0.689546 0.141398
Si Si6 0.686618 0.756246 0.656964
O O1 0.132598 0.111542 0.851957
O O2 0.211091 0.143201 0.763511
O O3 0.256641 0.000000 0.982168
O O4 0.250000 0.250000 0.000000
O O5 0.883976 0.175462 0.749202
O O6 0.868851 0.219009 0.515172
O O7 0.996371 0.129170 0.759501
O O8 0.876149 0.000000 0.593980
O O9 0.242332 0.177313 0.304020
O O10 0.149999 0.000000 0.154841
O O11 0.112279 0.205938 0.028899
O O12 0.500000 0.194225 0.500000
O O13 0.428272 0.184052 0.208749
O O14 0.354552 0.154611 0.309848
O O15 0.449012 0.000000 0.346334
#
# Coordination Sequence:
#
# PCOD8109311 Si02
#       6
#     8   8   8   8   8   8
#     4  11  23  38  63  93 128 164 205 261 321 377
#     4  11  23  40  63  88 122 162 208 257 310 365
#     4  11  23  40  63  90 121 165 207 256 310 369
#     4  10  21  39  63  90 122 163 202 251 316 380
#     4  11  22  40  63  93 123 155 207 257 312 371
#     4  11  22  40  60  91 124 158 208 254 312 368
#
# _framework density 20.1677
#
# number of rings (size 3 to 8) (size 9 to 14) (size 15 to 20)
#    0.000    1.167    3.333    3.500    0.000    4.000 
#    0.000    2.500    0.000    5.000    0.000    0.000 
#    0.000    0.000    0.000    0.000    0.000    0.000 
#
# Total GULP energy -297482.456186 kJ/mol
# GULP energy per Si atom -12395.102341 kJ/mol
# Density = 2.012180 g / cm^3
# Si number density = 20.167700 Si / 1000 Ang^3
#
#
#
# Elastic Constant Matrix: (Units=GPa)
#
#
# Indices 1 2 3 4 5 6 
#
# 1 125.4111 32.6576 42.8580 0.0000 -5.0376 0.0000
# 2 32.6576 100.6084 37.3112 0.0000 -4.9292 0.0000
# 3 42.8580 37.3112 115.1764 0.0000 -4.1149 0.0000
# 4 0.0000 0.0000 0.0000 23.9834 0.0000 -4.4686
# 5 -5.0376 -4.9292 -4.1149 0.0000 39.2400 0.0000
# 6 0.0000 0.0000 0.0000 -4.4686 0.0000 9.6344
#
#
#
# Elastic Compliance Matrix: (Units=1/GPa)
#
#
# Indices 1 2 3 4 5 6 
#
# 1 0.009498 -0.001987 -0.002867 0.000000 0.000669 0.000000
# 2 -0.001987 0.011755 -0.003036 0.000000 0.000903 0.000000
# 3 -0.002867 -0.003036 0.010746 0.000000 0.000377 0.000000
# 4 0.000000 0.000000 0.000000 0.045640 0.000000 0.021169
# 5 0.000669 0.000903 0.000377 0.000000 0.025723 0.000000
# 6 0.000000 0.000000 0.000000 0.021169 0.000000 0.113613
#
#
# Mechanical properties :
#
#
# Convention : Reuss Voigt Hill
#
# Bulk Modulus (GPa) = 61.65701 62.98327 62.32014
# Shear Modulus (GPa) = 20.99423 29.79617 25.39520
#
# Velocity S-wave (km/s) = 3.22993 3.84789 3.55237
# Velocity P-wave (km/s) = 6.67446 7.14418 6.91331
#
# Compressibility (1/GPa) = 0.01621876
#
# Stress axis : x y z
#
# Youngs Moduli (GPa) = 105.28848 85.07159 93.05728
#
# Poissons Ratio (x) = 0.16905 0.26675
# Poissons Ratio (y) = 0.20922 0.28255
# Poissons Ratio (z) = 0.30181 0.25830
#
# Static dielectric constant tensor:
#      x y z
#    x 3.817340 0.000000 -0.012200 
#    y 0.000000 3.531970 0.000000 
#    z -0.012200 0.000000 3.823900 
# 
# 
# High freq. dielectric constant tensor:
#      x y z
#    x 1.791610 0.000000 0.001840 
#    y 0.000000 1.773900 0.000000 
#    z 0.001840 0.000000 1.797300 
# 
# From -- ./inp_files/164722.got.cif
#   From: 2010.06.25/outbox.cif.g09.slc.cpg/sg12_83_cif.got.tgz:164722.got - 2010.06.28 00:19:55.
