data_PCOD8109351
_publ_section_title
;
Structure prediction by ZEFSAII (Michael W. Deem and Ramdas Pophale) SiO2 
 PCOD8109351
Probable space group: C 2/M
;
_chemical_formula_sum "Si O2"
_cell_formula_units_Z 48
_cell_length_a 25.779026
_cell_length_b 20.395380
_cell_length_c 8.522643
_cell_angle_alpha 90.000000
_cell_angle_beta 148.574562
_cell_angle_gamma 90.000000
_cell_volume 2336.329441
_symmetry_space_group_name_H-M "C 2/M"
_symmetry_group_IT_number 12
_symmetry_cell_setting 'monoclinic'
loop_
_space_group_symop_operation_xyz
x,y,z
-x,y,-z
-x,-y,-z
x,-y,z
1/2+x,1/2+y,z
1/2-x,1/2+y,-z
1/2-x,1/2-y,-z
1/2+x,1/2-y,z
loop_
_atom_site_type_symbol
_atom_site_label
_atom_site_fract_x
_atom_site_fract_y
_atom_site_fract_z
Si Si1 0.103837 0.143675 0.738684
Si Si2 0.888806 0.312422 0.761102
Si Si3 0.387319 0.426236 0.739042
Si Si4 0.598641 0.779884 0.844477
Si Si5 0.312144 0.689263 0.359690
Si Si6 0.259572 0.426337 0.705897
O O1 0.096920 0.201393 0.850006
O O2 0.115099 0.180335 0.600676
O O3 0.000000 0.104662 0.500000
O O4 0.196121 0.095415 0.010583
O O5 0.846363 0.249678 0.557919
O O6 0.827379 0.377708 0.566813
O O7 0.888247 0.303552 0.945163
O O8 0.000000 0.327078 0.000000
O O9 0.375787 0.500000 0.641972
O O10 0.313433 0.378540 0.457428
O O11 0.354929 0.423725 0.836465
O O12 0.500000 0.401658 0.000000
O O13 0.500000 0.807679 0.500000
O O14 0.698496 0.801271 0.007812
O O15 0.215968 0.500000 0.603866
#
# Coordination Sequence:
#
# PCOD8109351 Si02
#       6
#     8   8   8   8   8   8
#     4  11  23  38  62  97 132 159 205 264 320 381
#     4  12  24  41  68  93 125 169 215 262 313 373
#     4  10  21  39  63  92 126 165 211 258 314 380
#     4  11  23  39  63  97 127 158 205 265 317 374
#     4  12  22  40  68  94 129 165 208 258 323 373
#     4  11  24  42  63  90 128 175 216 260 314 372
#
# _framework density 20.545047
#
# number of rings (size 3 to 8) (size 9 to 14) (size 15 to 20)
#    0.000    0.833    3.333    5.500    2.333    1.333 
#    0.000    0.000    0.000    1.000    0.000    0.000 
#    0.000    0.000    0.000    0.000    0.000    0.000 
#
# Total GULP energy -297505.793750 kJ/mol
# GULP energy per Si atom -12396.074740 kJ/mol
# Density = 2.049829 g / cm^3
# Si number density = 20.545047 Si / 1000 Ang^3
#
#
#
# Elastic Constant Matrix: (Units=GPa)
#
#
# Indices 1 2 3 4 5 6 
#
# 1 90.9861 28.2218 43.5663 0.0000 8.5738 0.0000
# 2 28.2218 124.7751 61.8532 0.0000 -6.6088 0.0000
# 3 43.5663 61.8532 140.9870 0.0000 5.3867 0.0000
# 4 0.0000 0.0000 0.0000 25.2807 0.0000 3.5403
# 5 8.5738 -6.6088 5.3867 0.0000 37.2886 0.0000
# 6 0.0000 0.0000 0.0000 3.5403 0.0000 22.0063
#
#
#
# Elastic Compliance Matrix: (Units=1/GPa)
#
#
# Indices 1 2 3 4 5 6 
#
# 1 0.013330 -0.001505 -0.003350 0.000000 -0.002848 0.000000
# 2 -0.001505 0.010645 -0.004314 0.000000 0.002856 0.000000
# 3 -0.003350 -0.004314 0.010076 0.000000 -0.001450 0.000000
# 4 0.000000 0.000000 0.000000 0.040468 0.000000 -0.006510
# 5 -0.002848 0.002856 -0.001450 0.000000 0.028188 0.000000
# 6 0.000000 0.000000 0.000000 -0.006510 0.000000 0.046489
#
#
# Mechanical properties :
#
#
# Convention : Reuss Voigt Hill
#
# Bulk Modulus (GPa) = 63.64390 69.33676 66.49033
# Shear Modulus (GPa) = 28.94004 31.78890 30.36447
#
# Velocity S-wave (km/s) = 3.75722 3.93781 3.84858
# Velocity P-wave (km/s) = 7.06168 7.38221 7.22372
#
# Compressibility (1/GPa) = 0.01571242
#
# Stress axis : x y z
#
# Youngs Moduli (GPa) = 75.01905 93.94398 99.24575
#
# Poissons Ratio (x) = 0.14141 0.33246
# Poissons Ratio (y) = 0.11292 0.42814
# Poissons Ratio (z) = 0.25131 0.40527
#
# Static dielectric constant tensor:
#      x y z
#    x 3.923930 0.000000 0.169480 
#    y 0.000000 3.689200 0.000000 
#    z 0.169480 0.000000 3.903370 
# 
# 
# High freq. dielectric constant tensor:
#      x y z
#    x 1.809450 0.000000 0.005760 
#    y 0.000000 1.791970 0.000000 
#    z 0.005760 0.000000 1.806550 
# 
# From -- ./inp_files/106602.got.cif
#   From: 2010.06.25/outbox.cif.g09.slc.cpg/sg12_54_cif.got.tgz:106602.got - 2010.06.28 00:19:55.
