data_PCOD8109819
_publ_section_title
;
Structure prediction by ZEFSAII (Michael W. Deem and Ramdas Pophale) SiO2 
 PCOD8109819
Probable space group: C 2/M
;
_chemical_formula_sum "Si O2"
_cell_formula_units_Z 48
_cell_length_a 18.898377
_cell_length_b 16.034147
_cell_length_c 11.845280
_cell_angle_alpha 90.000000
_cell_angle_beta 43.156522
_cell_angle_gamma 90.000000
_cell_volume 2455.092327
_symmetry_space_group_name_H-M "C 2/M"
_symmetry_group_IT_number 12
_symmetry_cell_setting 'monoclinic'
loop_
_space_group_symop_operation_xyz
x,y,z
-x,y,-z
-x,-y,-z
x,-y,z
1/2+x,1/2+y,z
1/2-x,1/2+y,-z
1/2-x,1/2-y,-z
1/2+x,1/2-y,z
loop_
_atom_site_type_symbol
_atom_site_label
_atom_site_fract_x
_atom_site_fract_y
_atom_site_fract_z
Si Si1 0.449302 0.500000 0.224580
Si Si2 0.292865 0.220861 0.280114
Si Si3 0.497745 0.166211 0.681267
Si Si4 0.666101 0.144353 0.313441
Si Si5 0.419005 0.910138 0.998425
Si Si6 0.172941 0.000000 0.858856
Si Si7 0.388640 0.679646 0.358921
O O1 0.362011 0.500000 0.229792
O O2 0.432918 0.585911 0.311631
O O3 0.568462 0.500000 0.051530
O O4 0.216575 0.269732 0.288703
O O5 0.376694 0.281393 0.245477
O O6 0.226456 0.174395 0.454078
O O7 0.339177 0.156894 0.136925
O O8 0.585120 0.117649 0.506138
O O9 0.390269 0.162062 0.739186
O O10 0.483083 0.120570 0.816085
O O11 0.533114 0.261893 0.661195
O O12 0.757063 0.078517 0.191717
O O13 0.365281 0.000000 0.033182
O O14 0.500000 0.926761 0.000000
#
# Coordination Sequence:
#
# PCOD8109819 Si02
#       7
#     4   8   8   8   8   4   8
#     4  11  24  38  64  95 130 155 212 271 314 373
#     4  10  21  40  63  89 124 167 211 253 314 384
#     4  10  23  42  66  89 126 170 208 262 315 375
#     4  10  23  42  65  93 125 166 214 263 316 376
#     4  11  24  37  58  92 126 163 207 258 311 372
#     4  11  24  37  62  98 122 163 211 271 321 360
#     4  10  21  41  64  92 122 171 210 257 314 379
#
# _framework density 19.551199
#
# number of rings (size 3 to 8) (size 9 to 14) (size 15 to 20)
#    0.000    1.667    3.333    0.000    5.833    1.333 
#    0.000    0.000    0.000    2.000    0.000    0.000 
#    0.000    0.000    0.000    0.000    0.000    0.000 
#
# Total GULP energy -297469.444143 kJ/mol
# GULP energy per Si atom -12394.560173 kJ/mol
# Density = 1.950670 g / cm^3
# Si number density = 19.551199 Si / 1000 Ang^3
#
#
#
# Elastic Constant Matrix: (Units=GPa)
#
#
# Indices 1 2 3 4 5 6 
#
# 1 102.7023 34.8642 33.5689 0.0000 -7.2062 0.0000
# 2 34.8642 119.0845 53.3321 0.0000 -2.7676 0.0000
# 3 33.5689 53.3321 89.2861 0.0000 4.2871 0.0000
# 4 0.0000 0.0000 0.0000 46.7229 0.0000 5.7718
# 5 -7.2062 -2.7676 4.2871 0.0000 30.3895 0.0000
# 6 0.0000 0.0000 0.0000 5.7718 0.0000 38.6991
#
#
#
# Elastic Compliance Matrix: (Units=1/GPa)
#
#
# Indices 1 2 3 4 5 6 
#
# 1 0.011700 -0.001797 -0.003474 0.000000 0.003101 0.000000
# 2 -0.001797 0.011865 -0.006487 0.000000 0.001569 0.000000
# 3 -0.003474 -0.006487 0.016561 0.000000 -0.003751 0.000000
# 4 0.000000 0.000000 0.000000 0.021805 0.000000 -0.003252
# 5 0.003101 0.001569 -0.003751 0.000000 0.034313 0.000000
# 6 0.000000 0.000000 0.000000 -0.003252 0.000000 0.026325
#
#
# Mechanical properties :
#
#
# Convention : Reuss Voigt Hill
#
# Bulk Modulus (GPa) = 60.20692 61.62259 60.91476
# Shear Modulus (GPa) = 32.97646 35.78282 34.37964
#
# Velocity S-wave (km/s) = 4.11137 4.28274 4.19793
# Velocity P-wave (km/s) = 7.30747 7.48617 7.39736
#
# Compressibility (1/GPa) = 0.01660939
#
# Stress axis : x y z
#
# Youngs Moduli (GPa) = 85.46875 84.27953 60.38298
#
# Poissons Ratio (x) = 0.15149 0.20978
# Poissons Ratio (y) = 0.15363 0.39170
# Poissons Ratio (z) = 0.29693 0.54671
#
# Static dielectric constant tensor:
#      x y z
#    x 3.585800 0.000000 -0.123410 
#    y 0.000000 3.702400 0.000000 
#    z -0.123410 0.000000 3.818010 
# 
# 
# High freq. dielectric constant tensor:
#      x y z
#    x 1.755770 0.000000 -0.003080 
#    y 0.000000 1.763250 0.000000 
#    z -0.003080 0.000000 1.760030 
# 
# From -- ./inp_files/167561.got.cif
#   From: 2010.06.25/outbox.cif.g09.slc.cpg/sg12_84_cif.got.tgz:167561.got - 2010.06.28 00:19:55.
