data_PCOD8109724
_publ_section_title
;
Structure prediction by ZEFSAII (Michael W. Deem and Ramdas Pophale) SiO2 
 PCOD8109724
Probable space group: C 2/M
;
_chemical_formula_sum "Si O2"
_cell_formula_units_Z 48
_cell_length_a 9.906351
_cell_length_b 18.648634
_cell_length_c 14.708946
_cell_angle_alpha 90.000000
_cell_angle_beta 108.473258
_cell_angle_gamma 90.000000
_cell_volume 2577.309917
_symmetry_space_group_name_H-M "C 2/M"
_symmetry_group_IT_number 12
_symmetry_cell_setting 'monoclinic'
loop_
_space_group_symop_operation_xyz
x,y,z
-x,y,-z
-x,-y,-z
x,-y,z
1/2+x,1/2+y,z
1/2-x,1/2+y,-z
1/2-x,1/2-y,-z
1/2+x,1/2-y,z
loop_
_atom_site_type_symbol
_atom_site_label
_atom_site_fract_x
_atom_site_fract_y
_atom_site_fract_z
Si Si1 0.432025 0.583148 0.075771
Si Si2 0.100937 0.318356 0.772945
Si Si3 0.080793 0.336016 0.432789
Si Si4 0.880542 0.416452 0.045645
Si Si5 0.088503 0.821003 0.245834
Si Si6 0.614914 0.666563 0.457220
O O1 0.467629 0.500000 0.087404
O O2 0.509293 0.616090 0.177776
O O3 0.500000 0.617677 0.000000
O O4 0.264577 0.598777 0.039274
O O5 0.112677 0.370083 0.861633
O O6 0.257303 0.300953 0.764601
O O7 0.003586 0.357197 0.676332
O O8 0.017964 0.246361 0.782489
O O9 0.241664 0.363795 0.466062
O O10 0.093865 0.251499 0.452410
O O11 0.000000 0.372131 0.500000
O O12 0.894861 0.500000 0.076151
O O13 0.000000 0.392197 0.000000
O O14 0.107029 0.854923 0.349908
O O15 0.500000 0.630867 0.500000
#
# Coordination Sequence:
#
# PCOD8109724 Si02
#       6
#     8   8   8   8   8   8
#     4  10  21  40  62  79 105 149 192 225 268 336
#     4  11  23  35  56  86 116 145 182 233 278 323
#     4   9  16  30  49  74 110 146 180 216 266 327
#     4  10  23  42  61  81 108 147 189 227 275 334
#     4  11  23  35  55  88 115 143 186 230 280 323
#     4   9  18  30  50  77 111 146 182 219 268 328
#
# _framework density 18.62407
#
# number of rings (size 3 to 8) (size 9 to 14) (size 15 to 20)
#    0.000    2.000    3.333    0.000    9.333    1.333 
#    0.000    0.000    0.000    2.000    0.000    0.000 
#    0.000    0.000    0.000    0.000    0.000    0.000 
#
# Total GULP energy -297421.582751 kJ/mol
# GULP energy per Si atom -12392.565948 kJ/mol
# Density = 1.858168 g / cm^3
# Si number density = 18.624070 Si / 1000 Ang^3
#
#
#
# Elastic Constant Matrix: (Units=GPa)
#
#
# Indices 1 2 3 4 5 6 
#
# 1 177.4596 34.5222 80.0645 0.0000 -3.3628 0.0000
# 2 34.5222 32.1152 42.4221 0.0000 2.8877 0.0000
# 3 80.0645 42.4221 134.4187 0.0000 1.9478 0.0000
# 4 0.0000 0.0000 0.0000 4.4866 0.0000 1.8700
# 5 -3.3628 2.8877 1.9478 0.0000 35.5191 0.0000
# 6 0.0000 0.0000 0.0000 1.8700 0.0000 15.7632
#
#
#
# Elastic Compliance Matrix: (Units=1/GPa)
#
#
# Indices 1 2 3 4 5 6 
#
# 1 0.008046 -0.004132 -0.003507 0.000000 0.001290 0.000000
# 2 -0.004132 0.055940 -0.015134 0.000000 -0.004109 0.000000
# 3 -0.003507 -0.015134 0.014303 0.000000 0.000114 0.000000
# 4 0.000000 0.000000 0.000000 0.234479 0.000000 -0.027816
# 5 0.001290 -0.004109 0.000114 0.000000 0.028604 0.000000
# 6 0.000000 0.000000 0.000000 -0.027816 0.000000 0.066739
#
#
# Mechanical properties :
#
#
# Convention : Reuss Voigt Hill
#
# Bulk Modulus (GPa) = 30.54106 73.11232 51.82669
# Shear Modulus (GPa) = 10.76266 23.61943 17.19104
#
# Velocity S-wave (km/s) = 2.40654 3.56507 3.04148
# Velocity P-wave (km/s) = 4.91490 7.50256 6.34211
#
# Compressibility (1/GPa) = 0.03274281
#
# Stress axis : x y z
#
# Youngs Moduli (GPa) = 124.29218 17.87633 69.91726
#
# Poissons Ratio (x) = 0.07387 0.24518
# Poissons Ratio (y) = 0.51362 1.05809
# Poissons Ratio (z) = 0.43586 0.27053
#
# Static dielectric constant tensor:
#      x y z
#    x 3.964380 0.000000 -0.076530 
#    y 0.000000 2.909540 0.000000 
#    z -0.076530 0.000000 3.627080 
# 
# 
# High freq. dielectric constant tensor:
#      x y z
#    x 1.750240 0.000000 0.002940 
#    y 0.000000 1.667050 0.000000 
#    z 0.002940 0.000000 1.736960 
# 
# From -- ./inp_files/197168.got.cif
#   From: 2010.06.25/outbox.cif.g09.slc.cpg/sg12_99_cif.got.tgz:197168.got - 2010.06.28 00:19:55.
