data_PCOD8109354
_publ_section_title
;
Structure prediction by ZEFSAII (Michael W. Deem and Ramdas Pophale) SiO2 
 PCOD8109354
Probable space group: C 2/M
;
_chemical_formula_sum "Si O2"
_cell_formula_units_Z 48
_cell_length_a 26.194443
_cell_length_b 9.120037
_cell_length_c 13.317465
_cell_angle_alpha 90.000000
_cell_angle_beta 46.899366
_cell_angle_gamma 90.000000
_cell_volume 2322.962650
_symmetry_space_group_name_H-M "C 2/M"
_symmetry_group_IT_number 12
_symmetry_cell_setting 'monoclinic'
loop_
_space_group_symop_operation_xyz
x,y,z
-x,y,-z
-x,-y,-z
x,-y,z
1/2+x,1/2+y,z
1/2-x,1/2+y,-z
1/2-x,1/2-y,-z
1/2+x,1/2-y,z
loop_
_atom_site_type_symbol
_atom_site_label
_atom_site_fract_x
_atom_site_fract_y
_atom_site_fract_z
Si Si1 0.521869 0.164651 0.580265
Si Si2 0.190464 0.161957 0.132439
Si Si3 0.720997 0.826639 0.638596
Si Si4 0.576762 0.828793 0.933487
Si Si5 0.934222 0.161176 0.851397
Si Si6 0.179703 0.334042 0.343402
O O1 0.500000 0.231736 0.500000
O O2 0.494426 0.255409 0.711062
O O3 0.603902 0.162411 0.495508
O O4 0.490716 0.000000 0.625912
O O5 0.129898 0.142936 0.135280
O O6 0.164152 0.259699 0.258682
O O7 0.215635 0.000000 0.134277
O O8 0.250000 0.250000 0.000000
O O9 0.750000 0.750000 0.500000
O O10 0.638414 0.792617 0.769807
O O11 0.765020 0.763945 0.671742
O O12 0.733261 0.000000 0.612097
O O13 0.576618 0.000000 0.957893
O O14 0.500000 0.777610 0.000000
O O15 0.592753 0.745888 0.014767
O O16 0.962142 0.000000 0.845052
O O17 0.209193 0.500000 0.292437
#
# Coordination Sequence:
#
# PCOD8109354 Si02
#       6
#     8   8   8   8   8   8
#     4  10  21  39  63  92 126 171 215 252 308 383
#     4  11  23  38  59  89 125 164 206 256 318 385
#     4  11  25  45  69  97 130 169 213 269 325 382
#     4  10  24  46  69  92 123 168 218 261 314 386
#     4  11  24  39  61  94 129 162 204 265 323 373
#     4  11  23  40  64  92 126 166 212 262 313 380
#
# _framework density 20.663267999999999
#
# number of rings (size 3 to 8) (size 9 to 14) (size 15 to 20)
#    0.000    1.333    1.667    3.000    2.333    8.000 
#    0.000    0.000    0.000    0.000    0.000    0.000 
#    0.000    0.000    0.000    0.000    0.000    0.000 
#
# Total GULP energy -297560.014972 kJ/mol
# GULP energy per Si atom -12398.333957 kJ/mol
# Density = 2.061624 g / cm^3
# Si number density = 20.663268 Si / 1000 Ang^3
#
#
#
# Elastic Constant Matrix: (Units=GPa)
#
#
# Indices 1 2 3 4 5 6 
#
# 1 82.9474 40.0365 40.4871 0.0000 -1.2323 0.0000
# 2 40.0365 133.1746 77.2185 0.0001 4.9636 0.0000
# 3 40.4871 77.2185 140.6832 0.0000 4.0380 0.0000
# 4 0.0000 0.0001 0.0000 33.1279 0.0000 3.5264
# 5 -1.2323 4.9636 4.0380 0.0000 38.1739 0.0000
# 6 0.0000 0.0000 0.0000 3.5264 0.0000 31.2965
#
#
#
# Elastic Compliance Matrix: (Units=1/GPa)
#
#
# Indices 1 2 3 4 5 6 
#
# 1 0.014799 -0.002938 -0.002679 0.000000 0.001143 0.000000
# 2 -0.002938 0.011622 -0.005504 0.000000 -0.001024 0.000000
# 3 -0.002679 -0.005504 0.010915 0.000000 -0.000525 0.000000
# 4 0.000000 0.000000 0.000000 0.030552 0.000000 -0.003443
# 5 0.001143 -0.001024 -0.000525 0.000000 0.026422 0.000000
# 6 0.000000 0.000000 0.000000 -0.003443 0.000000 0.032340
#
#
# Mechanical properties :
#
#
# Convention : Reuss Voigt Hill
#
# Bulk Modulus (GPa) = 66.25449 74.69884 70.47667
# Shear Modulus (GPa) = 32.48366 33.79054 33.13710
#
# Velocity S-wave (km/s) = 3.96921 4.04827 4.00893
# Velocity P-wave (km/s) = 7.28970 7.62104 7.45721
#
# Compressibility (1/GPa) = 0.01509332
#
# Stress axis : x y z
#
# Youngs Moduli (GPa) = 67.57386 86.04505 91.61455
#
# Poissons Ratio (x) = 0.25282 0.24543
# Poissons Ratio (y) = 0.19855 0.50425
# Poissons Ratio (z) = 0.18103 0.47360
#
# Static dielectric constant tensor:
#      x y z
#    x 3.640610 0.000000 -0.055160 
#    y 0.000000 4.103630 0.000000 
#    z -0.055160 0.000000 3.761160 
# 
# 
# High freq. dielectric constant tensor:
#      x y z
#    x 1.803720 0.000000 -0.003420 
#    y 0.000000 1.819730 0.000000 
#    z -0.003420 0.000000 1.818010 
# 
# From -- ./inp_files/244685.got.cif
#   From: 2010.06.25/outbox.cif.g09.slc.cpg/sg12_123_cif.got.tgz:244685.got - 2010.06.28 00:19:55.
