data_PCOD8109571
_publ_section_title
;
Structure prediction by ZEFSAII (Michael W. Deem and Ramdas Pophale) SiO2 
 PCOD8109571
Probable space group: C 2/M
;
_chemical_formula_sum "Si O2"
_cell_formula_units_Z 56
_cell_length_a 9.784282
_cell_length_b 17.745494
_cell_length_c 16.776486
_cell_angle_alpha 90.000000
_cell_angle_beta 105.730223
_cell_angle_gamma 90.000000
_cell_volume 2803.760053
_symmetry_space_group_name_H-M "C 2/M"
_symmetry_group_IT_number 12
_symmetry_cell_setting 'monoclinic'
loop_
_space_group_symop_operation_xyz
x,y,z
-x,y,-z
-x,-y,-z
x,-y,z
1/2+x,1/2+y,z
1/2-x,1/2+y,-z
1/2-x,1/2-y,-z
1/2+x,1/2-y,z
loop_
_atom_site_type_symbol
_atom_site_label
_atom_site_fract_x
_atom_site_fract_y
_atom_site_fract_z
Si Si1 0.562216 0.165951 0.174736
Si Si2 0.337700 0.824898 0.503207
Si Si3 0.101231 0.837026 0.183597
Si Si4 0.805633 0.912265 0.116682
Si Si5 0.233271 0.417370 0.653469
Si Si6 0.578716 0.082204 0.341170
Si Si7 0.232753 0.669894 0.953637
O O1 0.564967 0.252263 0.203307
O O2 0.702785 0.141677 0.150514
O O3 0.548912 0.116148 0.250494
O O4 0.429028 0.154171 0.095640
O O5 0.500000 0.809446 0.500000
O O6 0.250000 0.750000 0.500000
O O7 0.246490 0.874287 0.426437
O O8 0.326572 0.865063 0.587571
O O9 0.211593 0.868958 0.264020
O O10 0.165318 0.834801 0.105734
O O11 0.964552 0.890114 0.165189
O O12 0.778618 0.000000 0.131343
O O13 0.780005 0.897120 0.019402
O O14 0.307496 0.500000 0.661721
O O15 0.067485 0.429301 0.636826
O O16 0.651989 0.000000 0.342533
O O17 0.250000 0.750000 0.000000
#
# Coordination Sequence:
#
# PCOD8109571 Si02
#       7
#     8   8   8   8   8   8   8
#     4  12  23  42  68  92 130 170 219 268 324 391
#     4  10  21  41  67  95 129 162 210 258 313 381
#     4  12  23  42  68  92 130 170 219 268 324 391
#     4  12  28  42  62  97 134 168 213 279 341 382
#     4  10  21  39  65  96 126 164 214 264 318 376
#     4  10  21  39  65  96 126 164 214 264 318 376
#     4  12  24  44  66  93 124 170 226 277 321 394
#
# _framework density 19.973178000000001
#
# number of rings (size 3 to 8) (size 9 to 14) (size 15 to 20)
#    0.000    0.857    4.286    3.000    0.000    5.143 
#    2.571    0.000    0.000    0.857    0.000    0.000 
#    0.000    0.000    0.000    0.000    0.000    0.000 
#
# Total GULP energy -347243.437685 kJ/mol
# GULP energy per Si atom -12401.551346 kJ/mol
# Density = 1.992772 g / cm^3
# Si number density = 19.973178 Si / 1000 Ang^3
#
#
#
# Elastic Constant Matrix: (Units=GPa)
#
#
# Indices 1 2 3 4 5 6 
#
# 1 62.0019 16.5412 18.5471 0.0000 4.3018 0.0000
# 2 16.5412 133.4743 53.7614 0.0000 10.7301 0.0000
# 3 18.5471 53.7614 129.2952 0.0000 2.5040 0.0000
# 4 0.0000 0.0000 0.0000 34.2705 0.0000 3.5710
# 5 4.3018 10.7301 2.5040 0.0000 16.5274 0.0000
# 6 0.0000 0.0000 0.0000 3.5710 0.0000 26.4939
#
#
#
# Elastic Compliance Matrix: (Units=1/GPa)
#
#
# Indices 1 2 3 4 5 6 
#
# 1 0.017243 -0.001065 -0.001963 0.000000 -0.003499 0.000000
# 2 -0.001065 0.009551 -0.003715 0.000000 -0.005361 0.000000
# 3 -0.001963 -0.003715 0.009532 0.000000 0.001479 0.000000
# 4 0.000000 0.000000 0.000000 0.029595 0.000000 -0.003989
# 5 -0.003499 -0.005361 0.001479 0.000000 0.064673 0.000000
# 6 0.000000 0.000000 0.000000 -0.003989 0.000000 0.038282
#
#
# Mechanical properties :
#
#
# Convention : Reuss Voigt Hill
#
# Bulk Modulus (GPa) = 43.78206 55.83011 49.80608
# Shear Modulus (GPa) = 26.31931 31.18649 28.75290
#
# Velocity S-wave (km/s) = 3.63400 3.95577 3.79829
# Velocity P-wave (km/s) = 6.29094 6.99123 6.65031
#
# Compressibility (1/GPa) = 0.02284041
#
# Stress axis : x y z
#
# Youngs Moduli (GPa) = 57.99596 104.69747 104.91164
#
# Poissons Ratio (x) = 0.11150 0.20592
# Poissons Ratio (y) = 0.06176 0.38974
# Poissons Ratio (z) = 0.11384 0.38894
#
# Static dielectric constant tensor:
#      x y z
#    x 3.521210 0.000000 -0.013640 
#    y 0.000000 3.813490 0.000000 
#    z -0.013640 0.000000 3.823690 
# 
# 
# High freq. dielectric constant tensor:
#      x y z
#    x 1.764120 0.000000 0.000860 
#    y 0.000000 1.793650 0.000000 
#    z 0.000860 0.000000 1.794440 
# 
# From -- ./inp_files/257144.got.cif
#   From: 2010.06.25/outbox.cif.g09.slc.cpg/sg12_129_cif.got.tgz:257144.got - 2010.06.28 00:19:55.
