data_PCOD8109869
_publ_section_title
;
Structure prediction by ZEFSAII (Michael W. Deem and Ramdas Pophale) SiO2 
 PCOD8109869
Probable space group: C 2/M
;
_chemical_formula_sum "Si O2"
_cell_formula_units_Z 56
_cell_length_a 9.228377
_cell_length_b 17.435093
_cell_length_c 27.478434
_cell_angle_alpha 90.000000
_cell_angle_beta 144.276723
_cell_angle_gamma 90.000000
_cell_volume 2581.419224
_symmetry_space_group_name_H-M "C 2/M"
_symmetry_group_IT_number 12
_symmetry_cell_setting 'monoclinic'
loop_
_space_group_symop_operation_xyz
x,y,z
-x,y,-z
-x,-y,-z
x,-y,z
1/2+x,1/2+y,z
1/2-x,1/2+y,-z
1/2-x,1/2-y,-z
1/2+x,1/2-y,z
loop_
_atom_site_type_symbol
_atom_site_label
_atom_site_fract_x
_atom_site_fract_y
_atom_site_fract_z
Si Si1 0.017428 0.415051 0.556739
Si Si2 0.780837 0.301619 0.256268
Si Si3 0.270627 0.800366 0.553084
Si Si4 0.475836 0.850652 0.852052
Si Si5 0.250835 0.088207 0.165658
Si Si6 0.327531 0.911757 0.998794
Si Si7 0.975805 0.084012 0.742860
O O1 0.911366 0.500000 0.519729
O O2 0.860373 0.382546 0.558586
O O3 0.000000 0.369477 0.500000
O O4 0.304298 0.413140 0.648768
O O5 0.626261 0.233049 0.189870
O O6 0.883389 0.359078 0.242587
O O7 0.589737 0.347546 0.238380
O O8 0.024309 0.270411 0.351788
O O9 0.250000 0.750000 0.500000
O O10 0.000000 0.810307 0.500000
O O11 0.667143 0.882505 0.864669
O O12 0.615266 0.852019 0.942085
O O13 0.248402 0.908575 0.795663
O O14 0.331116 0.000000 0.194491
O O15 0.957592 0.098844 0.093387
O O16 0.377292 0.000000 0.028640
O O17 0.500000 0.890061 0.000000
O O18 0.950955 0.000000 0.762041
#
# Coordination Sequence:
#
# PCOD8109869 Si02
#       7
#     8   8   8   8   8   8   8
#     4   9  20  39  63  93 125 164 220 278 329 390
#     4  11  26  43  65  96 135 172 222 271 330 397
#     4  11  26  42  68  91 129 180 223 272 334 402
#     4  12  24  39  67 101 135 167 218 276 322 383
#     4  11  24  43  69 100 134 172 218 273 326 388
#     4  10  22  43  70  99 133 178 220 259 325 402
#     4  10  21  40  64  89 126 176 219 263 326 397
#
# _framework density 21.693494000000001
#
# number of rings (size 3 to 8) (size 9 to 14) (size 15 to 20)
#    0.000    1.429    0.000    4.286    8.000    3.714 
#    0.000    2.857    0.000    0.000    0.000    0.000 
#    0.000    0.000    0.000    0.000    0.000    0.000 
#
# Total GULP energy -347150.667816 kJ/mol
# GULP energy per Si atom -12398.238136 kJ/mol
# Density = 2.164412 g / cm^3
# Si number density = 21.693494 Si / 1000 Ang^3
#
#
#
# Elastic Constant Matrix: (Units=GPa)
#
#
# Indices 1 2 3 4 5 6 
#
# 1 117.4581 12.1387 36.9905 0.0002 -3.3685 -0.0001
# 2 12.1387 91.2728 41.9088 0.0003 -16.6385 0.0000
# 3 36.9905 41.9088 105.6910 -0.0012 -14.8476 -0.0003
# 4 0.0002 0.0003 -0.0012 31.6384 -0.0001 -10.2303
# 5 -3.3685 -16.6385 -14.8476 -0.0001 41.7353 -0.0003
# 6 -0.0001 0.0000 -0.0003 -10.2303 -0.0003 27.7632
#
#
#
# Elastic Compliance Matrix: (Units=1/GPa)
#
#
# Indices 1 2 3 4 5 6 
#
# 1 0.009581 0.000272 -0.003513 0.000000 -0.000368 0.000000
# 2 0.000272 0.013947 -0.005096 0.000000 0.003769 0.000000
# 3 -0.003513 -0.005096 0.013038 0.000001 0.002323 0.000000
# 4 0.000000 0.000000 0.000001 0.035883 0.000000 0.013222
# 5 -0.000368 0.003769 0.002323 0.000000 0.026260 0.000000
# 6 0.000000 0.000000 0.000000 0.013222 0.000000 0.040891
#
#
# Mechanical properties :
#
#
# Convention : Reuss Voigt Hill
#
# Bulk Modulus (GPa) = 50.27086 55.16643 52.71865
# Shear Modulus (GPa) = 30.69282 35.11962 32.90622
#
# Velocity S-wave (km/s) = 3.76552 4.02792 3.89893
# Velocity P-wave (km/s) = 6.49069 6.86421 6.68006
#
# Compressibility (1/GPa) = 0.01989224
#
# Stress axis : x y z
#
# Youngs Moduli (GPa) = 104.37004 71.70020 76.69931
#
# Poissons Ratio (x) = -0.01947 0.26942
# Poissons Ratio (y) = -0.02834 0.39084
# Poissons Ratio (z) = 0.36662 0.36537
#
# Static dielectric constant tensor:
#      x y z
#    x 4.104890 0.000000 -0.095630 
#    y 0.000000 4.114400 0.000000 
#    z -0.095630 0.000000 4.077590 
# 
# 
# High freq. dielectric constant tensor:
#      x y z
#    x 1.857310 0.000000 -0.007600 
#    y 0.000000 1.853930 0.000000 
#    z -0.007600 0.000000 1.858540 
# 
# From -- ./inp_files/356735.got.cif
#   From: 2010.06.25/outbox.cif.g09.slc.cpg/sg12_179_cif.got.tgz:356735.got - 2010.06.28 00:19:55.
