data_PCOD8109627
_publ_section_title
;
Structure prediction by ZEFSAII (Michael W. Deem and Ramdas Pophale) SiO2 
 PCOD8109627
Probable space group: C 2/M
;
_chemical_formula_sum "Si O2"
_cell_formula_units_Z 64
_cell_length_a 9.512362
_cell_length_b 18.237575
_cell_length_c 30.568356
_cell_angle_alpha 90.000000
_cell_angle_beta 37.436144
_cell_angle_gamma 90.000000
_cell_volume 3223.614902
_symmetry_space_group_name_H-M "C 2/M"
_symmetry_group_IT_number 12
_symmetry_cell_setting 'monoclinic'
loop_
_space_group_symop_operation_xyz
x,y,z
-x,y,-z
-x,-y,-z
x,-y,z
1/2+x,1/2+y,z
1/2-x,1/2+y,-z
1/2-x,1/2-y,-z
1/2+x,1/2-y,z
loop_
_atom_site_type_symbol
_atom_site_label
_atom_site_fract_x
_atom_site_fract_y
_atom_site_fract_z
Si Si1 0.030699 0.584582 0.745162
Si Si2 0.086092 0.712509 0.574991
Si Si3 0.611936 0.915830 0.425375
Si Si4 0.397593 0.360075 0.721714
Si Si5 0.863606 0.676911 0.989280
Si Si6 0.002096 0.082218 0.122669
Si Si7 0.867025 0.714458 0.338459
Si Si8 0.745818 0.585697 0.149885
O O1 0.101005 0.500000 0.718469
O O2 0.171143 0.618231 0.750750
O O3 0.069024 0.632638 0.692191
O O4 0.764381 0.591700 0.823513
O O5 0.250000 0.750000 0.500000
O O6 0.205601 0.711859 0.592741
O O7 0.032636 0.629210 0.574568
O O8 0.849594 0.758540 0.636497
O O9 0.500000 0.900240 0.500000
O O10 0.878655 0.890547 0.359548
O O11 0.592676 0.000000 0.416682
O O12 0.421003 0.271799 0.720962
O O13 0.378277 0.396150 0.773987
O O14 0.028439 0.636722 0.913144
O O15 0.750000 0.750000 0.000000
O O16 0.645475 0.626038 0.051843
O O17 0.000000 0.693461 0.000000
O O18 0.057607 0.105099 0.159014
O O19 0.086279 0.000000 0.095745
O O20 0.817945 0.500000 0.131222
#
# Coordination Sequence:
#
# PCOD8109627 Si02
#       8
#     8   8   8   8   8   8   8   8
#     4  11  24  41  63  93 130 165 204 262 321 369
#     4  11  22  42  63  88 120 162 210 257 315 381
#     4  10  22  39  64  92 123 163 209 260 317 377
#     4  11  23  42  64  92 127 163 212 262 312 377
#     4  10  22  40  60  90 125 163 203 252 302 366
#     4   9  21  40  63  88 122 161 202 251 310 372
#     4  11  24  40  62  90 122 166 207 259 313 378
#     4  10  21  39  67  93 120 162 209 258 311 372
#
# _framework density 19.853487000000001
#
# number of rings (size 3 to 8) (size 9 to 14) (size 15 to 20)
#    0.000    1.625    1.250    3.375    5.250    3.000 
#    0.000    0.000    0.000    4.500    0.000    0.000 
#    0.000    0.000    0.000    0.000    0.000    0.000 
#
# Total GULP energy -396835.803298 kJ/mol
# GULP energy per Si atom -12401.118853 kJ/mol
# Density = 1.980830 g / cm^3
# Si number density = 19.853487 Si / 1000 Ang^3
#
#
#
# Elastic Constant Matrix: (Units=GPa)
#
#
# Indices 1 2 3 4 5 6 
#
# 1 79.2448 38.4311 41.1269 -0.0048 -3.3524 -0.0066
# 2 38.4311 125.1520 47.4291 0.0016 -7.0246 -0.0086
# 3 41.1269 47.4291 105.6753 -0.0086 2.1980 -0.0301
# 4 -0.0048 0.0016 -0.0086 34.4070 0.0081 -0.0388
# 5 -3.3524 -7.0246 2.1980 0.0081 27.0328 0.0073
# 6 -0.0066 -0.0086 -0.0301 -0.0388 0.0073 29.8663
#
#
#
# Elastic Compliance Matrix: (Units=1/GPa)
#
#
# Indices 1 2 3 4 5 6 
#
# 1 0.016912 -0.003120 -0.005217 0.000001 0.001711 -0.000003
# 2 -0.003120 0.010429 -0.003521 -0.000002 0.002609 -0.000002
# 3 -0.005217 -0.003521 0.013128 0.000003 -0.002629 0.000012
# 4 0.000001 -0.000002 0.000003 0.029064 -0.000010 0.000038
# 5 0.001711 0.002609 -0.002629 -0.000010 0.038096 -0.000011
# 6 -0.000003 -0.000002 0.000012 0.000038 -0.000011 0.033483
#
#
# Mechanical properties :
#
#
# Convention : Reuss Voigt Hill
#
# Bulk Modulus (GPa) = 59.68894 62.67181 61.18037
# Shear Modulus (GPa) = 29.34048 30.46688 29.90368
#
# Velocity S-wave (km/s) = 3.84845 3.92163 3.88521
# Velocity P-wave (km/s) = 7.06240 7.22089 7.14208
#
# Compressibility (1/GPa) = 0.01675352
#
# Stress axis : x y z
#
# Youngs Moduli (GPa) = 59.12859 95.88517 76.17164
#
# Poissons Ratio (x) = 0.29918 0.39740
# Poissons Ratio (y) = 0.18449 0.26818
# Poissons Ratio (z) = 0.30848 0.33759
#
# Static dielectric constant tensor:
#      x y z
#    x 3.604620 0.000270 -0.076580 
#    y 0.000270 4.016910 -0.000040 
#    z -0.076580 -0.000040 3.575440 
# 
# 
# High freq. dielectric constant tensor:
#      x y z
#    x 1.772670 0.000000 -0.002610 
#    y 0.000000 1.787050 0.000000 
#    z -0.002610 0.000000 1.773880 
# 
# From -- ./inp_files/372926.got.cif
#   From: 2010.06.25/outbox.cif.g09.slc.cpg/sg12_187_cif.got.tgz:372926.got - 2010.06.28 00:19:55.
