data_PCOD8109162
_publ_section_title
;
Structure prediction by ZEFSAII (Michael W. Deem and Ramdas Pophale) SiO2 
 PCOD8109162
Probable space group: C 2/M
;
_chemical_formula_sum "Si O2"
_cell_formula_units_Z 56
_cell_length_a 23.561730
_cell_length_b 8.833845
_cell_length_c 15.559498
_cell_angle_alpha 90.000000
_cell_angle_beta 120.705116
_cell_angle_gamma 90.000000
_cell_volume 2784.539266
_symmetry_space_group_name_H-M "C 2/M"
_symmetry_group_IT_number 12
_symmetry_cell_setting 'monoclinic'
loop_
_space_group_symop_operation_xyz
x,y,z
-x,y,-z
-x,-y,-z
x,-y,z
1/2+x,1/2+y,z
1/2-x,1/2+y,-z
1/2-x,1/2-y,-z
1/2+x,1/2-y,z
loop_
_atom_site_type_symbol
_atom_site_label
_atom_site_fract_x
_atom_site_fract_y
_atom_site_fract_z
Si Si1 0.153760 0.672699 0.477341
Si Si2 0.445704 0.820668 0.028146
Si Si3 0.476017 0.678228 0.571893
Si Si4 0.561164 0.320996 0.797795
Si Si5 0.814372 0.823334 0.855493
Si Si6 0.712890 0.678554 0.891563
Si Si7 0.798227 0.172334 0.647517
O O1 0.130339 0.500000 0.464399
O O2 0.100023 0.779892 0.477935
O O3 0.163108 0.715009 0.384827
O O4 0.220187 0.702046 0.582090
O O5 0.466408 0.760672 0.138086
O O6 0.438543 0.000000 0.024275
O O7 0.500000 0.768910 0.000000
O O8 0.375366 0.748646 0.952387
O O9 0.500000 0.748802 0.500000
O O10 0.484575 0.500000 0.576336
O O11 0.518335 0.741609 0.684731
O O12 0.553027 0.500000 0.804573
O O13 0.636419 0.275666 0.836036
O O14 0.745820 0.746290 0.831176
O O15 0.823790 0.793591 0.762212
O O16 0.811366 0.000000 0.875797
O O17 0.722235 0.500000 0.899819
O O18 0.750000 0.750000 0.000000
O O19 0.813806 0.000000 0.631972
#
# Coordination Sequence:
#
# PCOD8109162 Si02
#       7
#     8   8   8   8   8   8   8
#     4  10  21  39  62  89 120 154 199 251 302 353
#     4  11  25  42  61  90 125 160 202 251 303 360
#     4  10  23  42  63  88 121 162 205 247 298 363
#     4  10  23  42  63  88 119 162 205 245 301 363
#     4  11  23  39  62  90 120 158 200 245 299 360
#     4  11  22  38  61  89 119 153 197 246 296 354
#     4   9  21  40  61  88 120 157 198 244 301 361
#
# _framework density 20.111049000000001
#
# number of rings (size 3 to 8) (size 9 to 14) (size 15 to 20)
#    0.000    1.714    1.429    1.714    4.000    4.286 
#    0.000    0.000    0.000    0.000    0.000    0.000 
#    0.000    0.000    0.000    0.000    0.000    0.000 
#
# Total GULP energy -347320.888028 kJ/mol
# GULP energy per Si atom -12404.317430 kJ/mol
# Density = 2.006528 g / cm^3
# Si number density = 20.111049 Si / 1000 Ang^3
#
#
#
# Elastic Constant Matrix: (Units=GPa)
#
#
# Indices 1 2 3 4 5 6 
#
# 1 107.3461 28.6816 41.0968 0.0000 -9.5958 0.0000
# 2 28.6816 49.6765 31.7353 0.0000 -4.9105 0.0000
# 3 41.0968 31.7353 117.4868 0.0000 -17.3813 0.0000
# 4 0.0000 0.0000 0.0000 24.9886 0.0000 -2.1323
# 5 -9.5958 -4.9105 -17.3813 0.0000 22.4784 0.0000
# 6 0.0000 0.0000 0.0000 -2.1323 0.0000 34.7921
#
#
#
# Elastic Compliance Matrix: (Units=1/GPa)
#
#
# Indices 1 2 3 4 5 6 
#
# 1 0.011784 -0.005029 -0.002464 0.000000 0.002027 0.000000
# 2 -0.005029 0.026476 -0.005481 0.000000 -0.000602 0.000000
# 3 -0.002464 -0.005481 0.011880 0.000000 0.006937 0.000000
# 4 0.000000 0.000000 0.000000 0.040229 0.000000 0.002466
# 5 0.002027 -0.000602 0.006937 0.000000 0.050585 0.000000
# 6 0.000000 0.000000 0.000000 0.002466 0.000000 0.028893
#
#
# Mechanical properties :
#
#
# Convention : Reuss Voigt Hill
#
# Bulk Modulus (GPa) = 41.33673 53.05964 47.19819
# Shear Modulus (GPa) = 24.52660 27.98486 26.25573
#
# Velocity S-wave (km/s) = 3.49601 3.73435 3.61714
# Velocity P-wave (km/s) = 6.07412 6.71077 6.40037
#
# Compressibility (1/GPa) = 0.02419156
#
# Stress axis : x y z
#
# Youngs Moduli (GPa) = 84.86225 37.76954 84.17282
#
# Poissons Ratio (x) = 0.18996 0.20737
# Poissons Ratio (y) = 0.42681 0.46139
# Poissons Ratio (z) = 0.20907 0.20703
#
# Static dielectric constant tensor:
#      x y z
#    x 3.824010 0.000000 -0.088600 
#    y 0.000000 3.631010 0.000000 
#    z -0.088600 0.000000 3.763520 
# 
# 
# High freq. dielectric constant tensor:
#      x y z
#    x 1.793240 0.000000 -0.005160 
#    y 0.000000 1.782440 0.000000 
#    z -0.005160 0.000000 1.791130 
# 
# From -- ./inp_files/238879.got.cif
#   From: 2010.06.25/outbox.cif.g09.slc.cpg/sg12_120_cif.got.tgz:238879.got - 2010.06.28 00:19:55.
