data_PCOD8109616
_publ_section_title
;
Structure prediction by ZEFSAII (Michael W. Deem and Ramdas Pophale) SiO2 
 PCOD8109616
Probable space group: C 2/M
;
_chemical_formula_sum "Si O2"
_cell_formula_units_Z 64
_cell_length_a 15.730039
_cell_length_b 17.402618
_cell_length_c 14.315932
_cell_angle_alpha 90.000000
_cell_angle_beta 45.430648
_cell_angle_gamma 90.000000
_cell_volume 2791.829282
_symmetry_space_group_name_H-M "C 2/M"
_symmetry_group_IT_number 12
_symmetry_cell_setting 'monoclinic'
loop_
_space_group_symop_operation_xyz
x,y,z
-x,y,-z
-x,-y,-z
x,-y,z
1/2+x,1/2+y,z
1/2-x,1/2+y,-z
1/2-x,1/2-y,-z
1/2+x,1/2-y,z
loop_
_atom_site_type_symbol
_atom_site_label
_atom_site_fract_x
_atom_site_fract_y
_atom_site_fract_z
Si Si1 0.285278 0.829210 0.250285
Si Si2 0.262477 0.830348 0.797366
Si Si3 0.533982 0.848702 0.626677
Si Si4 0.006655 0.587636 0.144701
Si Si5 0.233968 0.911395 0.009583
Si Si6 0.256239 0.588906 0.371740
Si Si7 0.867633 0.816346 0.452977
Si Si8 0.088980 0.913024 0.298788
O O1 0.279764 0.756582 0.185770
O O2 0.421807 0.858569 0.147463
O O3 0.238317 0.808394 0.390114
O O4 0.203440 0.897435 0.274364
O O5 0.405635 0.832665 0.681034
O O6 0.214384 0.857962 0.934702
O O7 0.205592 0.884220 0.761208
O O8 0.525854 0.903695 0.721835
O O9 0.615105 0.894420 0.490145
O O10 0.596945 0.768749 0.606586
O O11 0.985072 0.500000 0.130527
O O12 0.145460 0.611866 0.026460
O O13 0.246051 0.000000 0.967505
O O14 0.122354 0.899038 0.164042
O O15 0.287407 0.500000 0.359802
O O16 0.328668 0.635189 0.393653
O O17 0.981460 0.857759 0.411734
O O18 0.047952 0.000000 0.346862
#
# Coordination Sequence:
#
# PCOD8109616 Si02
#       8
#     8   8   8   8   8   8   8   8
#     4  12  23  39  64  97 135 167 213 263 329 387
#     4  11  23  40  66  95 128 170 214 268 324 381
#     4  11  21  39  62  91 132 170 208 258 326 384
#     4  10  21  39  66  97 130 166 210 272 325 376
#     4   9  22  46  69  94 128 168 222 275 316 372
#     4  12  24  37  63  97 129 170 215 262 326 391
#     4  12  24  42  61  95 139 170 209 269 322 389
#     4  11  25  43  68  92 126 180 222 263 318 382
#
# _framework density 22.924037999999999
#
# number of rings (size 3 to 8) (size 9 to 14) (size 15 to 20)
#    0.000    1.000    3.750    3.375    0.000    5.000 
#    0.000    2.500    2.750    2.250    0.000    0.000 
#    0.000    0.000    0.000    0.000    0.000    0.000 
#
# Total GULP energy -396943.136923 kJ/mol
# GULP energy per Si atom -12404.473029 kJ/mol
# Density = 2.287186 g / cm^3
# Si number density = 22.924038 Si / 1000 Ang^3
#
#
#
# Elastic Constant Matrix: (Units=GPa)
#
#
# Indices 1 2 3 4 5 6 
#
# 1 92.4075 32.8451 3.2104 0.0000 8.9317 0.0000
# 2 32.8451 97.7109 13.1275 0.0000 -3.0525 0.0000
# 3 3.2104 13.1275 36.5905 0.0000 -4.2334 0.0000
# 4 0.0000 0.0000 0.0000 24.9214 0.0000 6.4953
# 5 8.9317 -3.0525 -4.2334 0.0000 21.4769 0.0000
# 6 0.0000 0.0000 0.0000 6.4953 0.0000 39.9279
#
#
#
# Elastic Compliance Matrix: (Units=1/GPa)
#
#
# Indices 1 2 3 4 5 6 
#
# 1 0.013035 -0.004543 -0.000221 0.000000 -0.006110 0.000000
# 2 -0.004543 0.012349 -0.003694 0.000000 0.002916 0.000000
# 3 -0.000221 -0.003694 0.029292 0.000000 0.005341 0.000000
# 4 0.000000 0.000000 0.000000 0.041903 0.000000 -0.006817
# 5 -0.006110 0.002916 0.005341 0.000000 0.050570 0.000000
# 6 0.000000 0.000000 0.000000 -0.006817 0.000000 0.026154
#
#
# Mechanical properties :
#
#
# Convention : Reuss Voigt Hill
#
# Bulk Modulus (GPa) = 26.48324 36.11944 31.30134
# Shear Modulus (GPa) = 24.65430 29.10028 26.87729
#
# Velocity S-wave (km/s) = 3.28301 3.56676 3.42782
# Velocity P-wave (km/s) = 5.09397 5.72300 5.41762
#
# Compressibility (1/GPa) = 0.03775973
#
# Stress axis : x y z
#
# Youngs Moduli (GPa) = 76.71948 80.97999 34.13882
#
# Poissons Ratio (x) = 0.36787 0.00754
# Poissons Ratio (y) = 0.34851 0.12612
# Poissons Ratio (z) = 0.01694 0.29917
#
# Static dielectric constant tensor:
#      x y z
#    x 4.120360 0.000000 -0.100440 
#    y 0.000000 4.097360 0.000000 
#    z -0.100440 0.000000 4.048810 
# 
# 
# High freq. dielectric constant tensor:
#      x y z
#    x 1.911590 0.000000 0.004790 
#    y 0.000000 1.908390 0.000000 
#    z 0.004790 0.000000 1.895290 
# 
# From -- ./inp_files/216782.got.cif
#   From: 2010.06.25/outbox.cif.g09.slc.cpg/sg12_109_cif.got.tgz:216782.got - 2010.06.28 00:19:55.
