data_PCOD8109198
_publ_section_title
;
Structure prediction by ZEFSAII (Michael W. Deem and Ramdas Pophale) SiO2 
 PCOD8109198
Probable space group: C 2/M
;
_chemical_formula_sum "Si O2"
_cell_formula_units_Z 64
_cell_length_a 24.563932
_cell_length_b 23.668272
_cell_length_c 12.583946
_cell_angle_alpha 90.000000
_cell_angle_beta 153.315615
_cell_angle_gamma 90.000000
_cell_volume 3285.493819
_symmetry_space_group_name_H-M "C 2/M"
_symmetry_group_IT_number 12
_symmetry_cell_setting 'monoclinic'
loop_
_space_group_symop_operation_xyz
x,y,z
-x,y,-z
-x,-y,-z
x,-y,z
1/2+x,1/2+y,z
1/2-x,1/2+y,-z
1/2-x,1/2-y,-z
1/2+x,1/2-y,z
loop_
_atom_site_type_symbol
_atom_site_label
_atom_site_fract_x
_atom_site_fract_y
_atom_site_fract_z
Si Si1 0.497721 0.746754 0.874258
Si Si2 0.001747 0.565652 0.877731
Si Si3 0.636510 0.561073 0.702618
Si Si4 0.140949 0.819437 0.764010
Si Si5 0.275059 0.727045 0.869173
Si Si6 0.669719 0.159568 0.510120
Si Si7 0.388054 0.633447 0.743044
Si Si8 0.267989 0.436545 0.352288
O O1 0.405879 0.786919 0.655909
O O2 0.446404 0.683493 0.775650
O O3 0.500000 0.766909 0.000000
O O4 0.629077 0.751093 0.048689
O O5 0.972964 0.500000 0.803387
O O6 0.905545 0.601929 0.640879
O O7 0.137398 0.584681 0.080092
O O8 0.000000 0.579028 0.000000
O O9 0.500000 0.556117 0.500000
O O10 0.701425 0.500000 0.843702
O O11 0.700027 0.616985 0.862862
O O12 0.635041 0.568961 0.572366
O O13 0.191005 0.779530 0.757626
O O14 0.000000 0.826933 0.500000
O O15 0.158942 0.794744 0.911234
O O16 0.199752 0.674408 0.686217
O O17 0.797011 0.158506 0.671198
O O18 0.314233 0.593446 0.537854
O O19 0.500000 0.602307 0.000000
O O20 0.247422 0.500000 0.356087
#
# Coordination Sequence:
#
# PCOD8109198 Si02
#       8
#     8   8   8   8   8   8   8   8
#     4  11  24  37  58  90 125 162 203 248 304 371
#     4  10  21  39  62  90 124 165 210 249 294 368
#     4   9  20  37  62  89 111 147 202 256 302 353
#     4  10  23  42  64  85 120 164 208 259 310 365
#     4  11  24  41  59  90 124 163 207 254 311 374
#     4  12  23  37  61  90 126 162 205 251 308 367
#     4  11  23  37  55  88 132 159 194 249 306 369
#     4  10  22  39  63  90 119 162 209 248 301 367
#
# _framework density 19.479568
#
# number of rings (size 3 to 8) (size 9 to 14) (size 15 to 20)
#    0.000    1.500    3.750    1.500    7.000    0.250 
#    0.000    0.625    0.000    0.000    0.000    2.625 
#    0.000    0.000    0.000    0.000    0.000    0.000 
#
# Total GULP energy -396555.703998 kJ/mol
# GULP energy per Si atom -12392.365750 kJ/mol
# Density = 1.943523 g / cm^3
# Si number density = 19.479568 Si / 1000 Ang^3
#
#
#
# Elastic Constant Matrix: (Units=GPa)
#
#
# Indices 1 2 3 4 5 6 
#
# 1 114.3685 39.2607 37.4587 0.0000 2.4717 0.0000
# 2 39.2607 95.9118 39.4982 0.0000 3.3083 0.0000
# 3 37.4587 39.4982 92.2425 0.0000 6.0370 0.0000
# 4 0.0000 0.0000 0.0000 23.0323 0.0000 -0.5396
# 5 2.4717 3.3083 6.0370 0.0000 21.1814 0.0000
# 6 0.0000 0.0000 0.0000 -0.5396 0.0000 26.8003
#
#
#
# Elastic Compliance Matrix: (Units=1/GPa)
#
#
# Indices 1 2 3 4 5 6 
#
# 1 0.010831 -0.003185 -0.003041 0.000000 0.000100 0.000000
# 2 -0.003185 0.013599 -0.004499 0.000000 -0.000470 0.000000
# 3 -0.003041 -0.004499 0.014198 0.000000 -0.002989 0.000000
# 4 0.000000 0.000000 0.000000 0.043438 0.000000 0.000875
# 5 0.000100 -0.000470 -0.002989 0.000000 0.048125 0.000000
# 6 0.000000 0.000000 0.000000 0.000875 0.000000 0.037331
#
#
# Mechanical properties :
#
#
# Convention : Reuss Voigt Hill
#
# Bulk Modulus (GPa) = 58.21354 59.43978 58.82666
# Shear Modulus (GPa) = 25.68097 26.62313 26.15205
#
# Velocity S-wave (km/s) = 3.63485 3.70093 3.66804
# Velocity P-wave (km/s) = 6.89677 6.98875 6.94292
#
# Compressibility (1/GPa) = 0.01717813
#
# Stress axis : x y z
#
# Youngs Moduli (GPa) = 92.32951 73.53591 70.43186
#
# Poissons Ratio (x) = 0.23418 0.21420
# Poissons Ratio (y) = 0.29403 0.31688
# Poissons Ratio (z) = 0.28079 0.33084
#
# Static dielectric constant tensor:
#      x y z
#    x 3.699230 0.000000 0.131110 
#    y 0.000000 3.910830 0.000000 
#    z 0.131110 0.000000 3.565710 
# 
# 
# High freq. dielectric constant tensor:
#      x y z
#    x 1.764940 0.000000 0.013580 
#    y 0.000000 1.764710 0.000000 
#    z 0.013580 0.000000 1.743680 
# 
# From -- ./inp_files/178424.got.cif
#   From: 2010.06.25/outbox.cif.g09.slc.cpg/sg12_90_cif.got.tgz:178424.got - 2010.06.28 00:19:55.
