data_PCOD8109477
_publ_section_title
;
Structure prediction by ZEFSAII (Michael W. Deem and Ramdas Pophale) SiO2 
 PCOD8109477
Probable space group: C 2/M
;
_chemical_formula_sum "Si O2"
_cell_formula_units_Z 44
_cell_length_a 35.300111
_cell_length_b 7.687128
_cell_length_c 20.813175
_cell_angle_alpha 90.000000
_cell_angle_beta 22.271192
_cell_angle_gamma 90.000000
_cell_volume 2140.461034
_symmetry_space_group_name_H-M "C 2/M"
_symmetry_group_IT_number 12
_symmetry_cell_setting 'monoclinic'
loop_
_space_group_symop_operation_xyz
x,y,z
-x,y,-z
-x,-y,-z
x,-y,z
1/2+x,1/2+y,z
1/2-x,1/2+y,-z
1/2-x,1/2-y,-z
1/2+x,1/2-y,z
loop_
_atom_site_type_symbol
_atom_site_label
_atom_site_fract_x
_atom_site_fract_y
_atom_site_fract_z
Si Si1 0.105140 0.805684 0.647915
Si Si2 0.925750 0.206452 0.560966
Si Si3 0.488796 0.702190 0.706920
Si Si4 0.717754 0.000000 0.666452
Si Si5 0.347669 0.000000 0.098316
Si Si6 0.300513 0.302294 0.076827
Si Si7 0.437233 0.000000 0.193103
O O1 0.099335 0.675273 0.715674
O O2 0.047510 0.722732 0.676700
O O3 0.060030 0.000000 0.734702
O O4 0.223258 0.826347 0.448367
O O5 0.816750 0.277344 0.751541
O O6 0.000000 0.269484 0.500000
O O7 0.968872 0.285124 0.425998
O O8 0.917991 0.000000 0.570100
O O9 0.511655 0.500000 0.665823
O O10 0.369091 0.737091 0.905630
O O11 0.606701 0.000000 0.810272
O O12 0.734196 0.000000 0.717622
O O13 0.339527 0.825143 0.070645
O O14 0.444464 0.000000 0.991427
O O15 0.320461 0.500000 0.067973
#
# Coordination Sequence:
#
# PCOD8109477 Si02
#       7
#     8   8   8   4   4   8   4
#     4   9  20  37  60  84 119 154 201 246 288 356
#     4  10  21  39  64  93 127 161 198 252 310 361
#     4   9  18  38  61  87 122 162 200 251 299 351
#     4  10  23  40  58  88 131 153 187 269 307 346
#     4  12  23  42  59  90 124 154 206 249 302 366
#     4  11  23  41  64  89 121 163 208 253 299 357
#     4  12  21  38  66  88 115 163 204 238 310 374
#
# _framework density 20.556318999999998
#
# number of rings (size 3 to 8) (size 9 to 14) (size 15 to 20)
#    0.545    1.273    2.727    1.909    0.000    1.091 
#    8.182    0.000    0.000    2.182    0.000    0.000 
#    0.000    0.000    0.000    0.000    0.000    0.000 
#
# Total GULP energy -272548.829001 kJ/mol
# GULP energy per Si atom -12388.583136 kJ/mol
# Density = 2.050953 g / cm^3
# Si number density = 20.556319 Si / 1000 Ang^3
#
#
#
# Elastic Constant Matrix: (Units=GPa)
#
#
# Indices 1 2 3 4 5 6 
#
# 1 100.3527 27.2092 45.7289 0.0000 -5.3381 0.0000
# 2 27.2092 78.4500 12.6315 -0.0023 3.0700 -0.0007
# 3 45.7289 12.6315 114.2568 -0.0012 -18.2587 -0.0003
# 4 0.0000 -0.0023 -0.0012 25.1166 -0.0002 -1.6264
# 5 -5.3381 3.0700 -18.2587 -0.0002 36.2211 0.0001
# 6 0.0000 -0.0007 -0.0003 -1.6264 0.0001 22.0959
#
#
#
# Elastic Compliance Matrix: (Units=1/GPa)
#
#
# Indices 1 2 3 4 5 6 
#
# 1 0.013215 -0.003786 -0.004903 -0.000001 -0.000203 0.000000
# 2 -0.003786 0.014195 -0.000365 0.000001 -0.001945 0.000001
# 3 -0.004903 -0.000365 0.011577 0.000001 0.005144 0.000000
# 4 -0.000001 0.000001 0.000001 0.040005 0.000000 0.002945
# 5 -0.000203 -0.001945 0.005144 0.000000 0.030336 0.000000
# 6 0.000000 0.000001 0.000000 0.002945 0.000000 0.045474
#
#
# Mechanical properties :
#
#
# Convention : Reuss Voigt Hill
#
# Bulk Modulus (GPa) = 47.89449 51.57763 49.73606
# Shear Modulus (GPa) = 27.79807 30.51939 29.15873
#
# Velocity S-wave (km/s) = 3.68134 3.85732 3.77036
# Velocity P-wave (km/s) = 6.43579 6.70701 6.57280
#
# Compressibility (1/GPa) = 0.02087923
#
# Stress axis : x y z
#
# Youngs Moduli (GPa) = 75.67343 70.44767 86.37925
#
# Poissons Ratio (x) = 0.26671 0.42350
# Poissons Ratio (y) = 0.28650 0.03152
# Poissons Ratio (z) = 0.37101 0.02570
#
# Static dielectric constant tensor:
#      x y z
#    x 3.636890 0.000000 -0.014700 
#    y 0.000000 3.807090 0.000000 
#    z -0.014700 0.000000 3.994480 
# 
# 
# High freq. dielectric constant tensor:
#      x y z
#    x 1.791630 0.000000 -0.005930 
#    y 0.000000 1.784360 0.000000 
#    z -0.005930 0.000000 1.816870 
# 
# From -- ./inp_files/295029.got.cif
#   From: 2010.06.25/outbox.cif.g09.slc.cpg/sg12_148_cif.got.tgz:295029.got - 2010.06.28 00:19:55.
