data_PCOD8109592
_publ_section_title
;
Structure prediction by ZEFSAII (Michael W. Deem and Ramdas Pophale) SiO2 
 PCOD8109592
Probable space group: C 2/M
;
_chemical_formula_sum "Si O2"
_cell_formula_units_Z 48
_cell_length_a 11.618908
_cell_length_b 14.484914
_cell_length_c 25.888992
_cell_angle_alpha 90.000000
_cell_angle_beta 29.756943
_cell_angle_gamma 90.000000
_cell_volume 2162.517571
_symmetry_space_group_name_H-M "C 2/M"
_symmetry_group_IT_number 12
_symmetry_cell_setting 'monoclinic'
loop_
_space_group_symop_operation_xyz
x,y,z
-x,y,-z
-x,-y,-z
x,-y,z
1/2+x,1/2+y,z
1/2-x,1/2+y,-z
1/2-x,1/2-y,-z
1/2+x,1/2-y,z
loop_
_atom_site_type_symbol
_atom_site_label
_atom_site_fract_x
_atom_site_fract_y
_atom_site_fract_z
Si Si1 0.993732 0.892830 0.168295
Si Si2 0.441714 0.889955 0.938899
Si Si3 0.559362 0.108552 0.275370
Si Si4 0.040341 0.892994 0.264284
Si Si5 0.756008 0.390648 0.904261
Si Si6 0.736255 0.753778 0.442200
O O1 0.916383 0.878267 0.257492
O O2 0.788938 0.850523 0.213561
O O3 0.010568 0.000000 0.147436
O O4 0.248942 0.851300 0.054633
O O5 0.701085 0.854273 0.847594
O O6 0.375676 0.851204 0.908437
O O7 0.448219 0.000000 0.939162
O O8 0.581685 0.136825 0.206869
O O9 0.330410 0.155354 0.386844
O O10 0.531480 0.000000 0.295134
O O11 0.910085 0.836300 0.359114
O O12 0.039770 0.000000 0.281909
O O13 0.731977 0.500000 0.916955
O O14 0.500000 0.347064 0.000000
O O15 0.500000 0.769820 0.500000
O O16 0.750000 0.750000 0.500000
#
# Coordination Sequence:
#
# PCOD8109592 Si02
#       6
#     8   8   8   8   8   8
#     4   9  16  33  62  96 130 164 196 235 295 375
#     4   9  16  29  57  95 129 159 195 237 291 365
#     4  10  21  39  66  93 123 162 202 247 310 374
#     4  10  22  40  65  91 122 164 205 247 306 371
#     4   9  15  28  54  91 129 163 194 233 291 366
#     4  12  29  49  66  88 120 158 214 281 321 352
#
# _framework density 22.196352000000001
#
# number of rings (size 3 to 8) (size 9 to 14) (size 15 to 20)
#    0.000    2.167    1.667    1.500    2.333    3.333 
#    0.000    2.500    0.000    0.000    0.000    0.000 
#    0.000    0.000    0.000    0.000    0.000    0.000 
#
# Total GULP energy -297363.878021 kJ/mol
# GULP energy per Si atom -12390.161584 kJ/mol
# Density = 2.214583 g / cm^3
# Si number density = 22.196352 Si / 1000 Ang^3
#
#
#
# Elastic Constant Matrix: (Units=GPa)
#
#
# Indices 1 2 3 4 5 6 
#
# 1 106.3438 14.1804 41.1532 0.0264 12.7094 0.0090
# 2 14.1804 51.6081 38.9084 0.0235 5.7419 0.0032
# 3 41.1532 38.9084 121.5869 -0.0228 15.7106 -0.0259
# 4 0.0264 0.0235 -0.0228 25.0066 -0.0012 -1.5272
# 5 12.7094 5.7419 15.7106 -0.0012 41.0538 0.0088
# 6 0.0090 0.0032 -0.0259 -1.5272 0.0088 16.3461
#
#
#
# Elastic Compliance Matrix: (Units=1/GPa)
#
#
# Indices 1 2 3 4 5 6 
#
# 1 0.010990 -0.000246 -0.003373 -0.000015 -0.002077 -0.000012
# 2 -0.000246 0.025552 -0.008039 -0.000032 -0.000421 -0.000020
# 3 -0.003373 -0.008039 0.012265 0.000024 -0.002525 0.000026
# 4 -0.000015 -0.000032 0.000024 0.040219 0.000001 0.003758
# 5 -0.002077 -0.000421 -0.002525 0.000001 0.026027 -0.000017
# 6 -0.000012 -0.000020 0.000026 0.003758 -0.000017 0.061528
#
#
# Mechanical properties :
#
#
# Convention : Reuss Voigt Hill
#
# Bulk Modulus (GPa) = 39.22878 52.00253 45.61566
# Shear Modulus (GPa) = 23.99321 28.83441 26.41381
#
# Velocity S-wave (km/s) = 3.29135 3.60816 3.45339
# Velocity P-wave (km/s) = 5.67062 6.39044 6.04126
#
# Compressibility (1/GPa) = 0.02549149
#
# Stress axis : x y z
#
# Youngs Moduli (GPa) = 90.99492 39.13566 81.53325
#
# Poissons Ratio (x) = 0.00962 0.27498
# Poissons Ratio (y) = 0.02237 0.65546
# Poissons Ratio (z) = 0.30689 0.31462
#
# Static dielectric constant tensor:
#      x y z
#    x 4.285770 0.000020 -0.055280 
#    y 0.000020 3.622250 0.000020 
#    z -0.055280 0.000020 4.028100 
# 
# 
# High freq. dielectric constant tensor:
#      x y z
#    x 1.885900 0.000000 0.003710 
#    y 0.000000 1.852590 0.000000 
#    z 0.003710 0.000000 1.863160 
# 
# From -- ./inp_files/358328.got.cif
#   From: 2010.06.25/outbox.cif.g09.slc.cpg/sg12_180_cif.got.tgz:358328.got - 2010.06.28 00:19:55.
