data_PCOD8109460
_publ_section_title
;
Structure prediction by ZEFSAII (Michael W. Deem and Ramdas Pophale) SiO2 
 PCOD8109460
Probable space group: C 2/M
;
_chemical_formula_sum "Si O2"
_cell_formula_units_Z 64
_cell_length_a 18.215448
_cell_length_b 14.834276
_cell_length_c 16.496042
_cell_angle_alpha 90.000000
_cell_angle_beta 136.934286
_cell_angle_gamma 90.000000
_cell_volume 3043.706929
_symmetry_space_group_name_H-M "C 2/M"
_symmetry_group_IT_number 12
_symmetry_cell_setting 'monoclinic'
loop_
_space_group_symop_operation_xyz
x,y,z
-x,y,-z
-x,-y,-z
x,-y,z
1/2+x,1/2+y,z
1/2-x,1/2+y,-z
1/2-x,1/2-y,-z
1/2+x,1/2-y,z
loop_
_atom_site_type_symbol
_atom_site_label
_atom_site_fract_x
_atom_site_fract_y
_atom_site_fract_z
Si Si1 0.807641 0.776638 0.217639
Si Si2 0.099515 0.251376 0.130935
Si Si3 0.733529 0.352120 0.511341
Si Si4 0.863530 0.896835 0.111092
Si Si5 0.653972 0.896931 0.835780
Si Si6 0.376922 0.599102 0.415004
Si Si7 0.897274 0.099894 0.747462
Si Si8 0.945933 0.398555 0.771375
O O1 0.679940 0.777332 0.123961
O O2 0.840727 0.835038 0.168479
O O3 0.853163 0.674390 0.243923
O O4 0.846938 0.820695 0.331692
O O5 0.148627 0.170266 0.224347
O O6 0.075590 0.336509 0.168643
O O7 0.000000 0.215219 0.000000
O O8 0.750000 0.250000 0.500000
O O9 0.650465 0.364016 0.518121
O O10 0.679260 0.403269 0.392529
O O11 0.850234 0.391601 0.628207
O O12 0.980452 0.868885 0.172175
O O13 0.865423 0.000000 0.142475
O O14 0.770582 0.881761 0.970198
O O15 0.559263 0.872680 0.822114
O O16 0.641740 0.000000 0.794224
O O17 0.500000 0.580959 0.500000
O O18 0.319761 0.500000 0.355610
O O19 0.897953 0.000000 0.786158
O O20 0.951972 0.500000 0.809336
#
# Coordination Sequence:
#
# PCOD8109460 Si02
#       8
#     8   8   8   8   8   8   8   8
#     4  12  22  37  61  89 124 163 198 255 311 372
#     4  12  25  40  61  96 131 163 204 255 318 375
#     4  12  23  42  66  94 128 167 210 260 309 376
#     4  10  21  39  64  93 122 159 213 264 310 369
#     4  10  23  41  62  89 123 170 216 254 300 368
#     4  11  24  40  62  94 126 155 198 261 321 368
#     4  11  23  42  68  93 122 165 212 262 313 368
#     4  11  23  42  65  91 129 172 212 255 304 377
#
# _framework density 21.026990999999999
#
# number of rings (size 3 to 8) (size 9 to 14) (size 15 to 20)
#    0.000    0.875    2.500    4.875    1.750    3.500 
#    0.000    0.000    0.000    0.375    0.000    0.000 
#    0.000    0.000    0.000    0.000    0.000    0.000 
#
# Total GULP energy -396724.713337 kJ/mol
# GULP energy per Si atom -12397.647292 kJ/mol
# Density = 2.097913 g / cm^3
# Si number density = 21.026991 Si / 1000 Ang^3
#
#
#
# Elastic Constant Matrix: (Units=GPa)
#
#
# Indices 1 2 3 4 5 6 
#
# 1 53.2721 16.3563 -2.1500 0.0000 14.3414 0.0000
# 2 16.3563 94.4935 -0.7997 0.0000 -12.6265 0.0000
# 3 -2.1500 -0.7997 59.6541 0.0000 3.6143 0.0000
# 4 0.0000 0.0000 0.0000 13.0252 0.0000 13.4934
# 5 14.3414 -12.6265 3.6143 0.0000 31.7703 0.0000
# 6 0.0000 0.0000 0.0000 13.4934 0.0000 18.5942
#
#
#
# Elastic Compliance Matrix: (Units=1/GPa)
#
#
# Indices 1 2 3 4 5 6 
#
# 1 0.024331 -0.006009 0.001618 0.000000 -0.013556 0.000000
# 2 -0.006009 0.012661 -0.000520 0.000000 0.007804 0.000000
# 3 0.001618 -0.000520 0.016989 0.000000 -0.002869 0.000000
# 4 0.000000 0.000000 0.000000 0.309275 0.000000 -0.224434
# 5 -0.013556 0.007804 -0.002869 0.000000 0.041023 0.000000
# 6 0.000000 0.000000 0.000000 -0.224434 0.000000 0.216646
#
#
# Mechanical properties :
#
#
# Convention : Reuss Voigt Hill
#
# Bulk Modulus (GPa) = 22.64569 26.02585 24.33577
# Shear Modulus (GPa) = 7.74633 25.61216 16.67924
#
# Velocity S-wave (km/s) = 1.92146 3.49386 2.81949
# Velocity P-wave (km/s) = 3.96432 5.35540 4.71148
#
# Compressibility (1/GPa) = 0.04415851
#
# Stress axis : x y z
#
# Youngs Moduli (GPa) = 41.09957 78.98115 58.86334
#
# Poissons Ratio (x) = 0.47461 -0.09522
# Poissons Ratio (y) = 0.24698 0.03059
# Poissons Ratio (z) = -0.06649 0.04104
#
# Static dielectric constant tensor:
#      x y z
#    x 3.863640 0.000000 0.186700 
#    y 0.000000 4.159570 0.000000 
#    z 0.186700 0.000000 3.865950 
# 
# 
# High freq. dielectric constant tensor:
#      x y z
#    x 1.830890 0.000000 0.011480 
#    y 0.000000 1.845520 0.000000 
#    z 0.011480 0.000000 1.810660 
# 
# From -- ./inp_files/225736.got.cif
#   From: 2010.06.25/outbox.cif.g09.slc.cpg/sg12_113_cif.got.tgz:225736.got - 2010.06.28 00:19:55.
