data_PCOD8109590
_publ_section_title
;
Structure prediction by ZEFSAII (Michael W. Deem and Ramdas Pophale) SiO2 
 PCOD8109590
Probable space group: C 2/M
;
_chemical_formula_sum "Si O2"
_cell_formula_units_Z 48
_cell_length_a 20.421266
_cell_length_b 13.868124
_cell_length_c 11.459606
_cell_angle_alpha 90.000000
_cell_angle_beta 44.682628
_cell_angle_gamma 90.000000
_cell_volume 2282.107267
_symmetry_space_group_name_H-M "C 2/M"
_symmetry_group_IT_number 12
_symmetry_cell_setting 'monoclinic'
loop_
_space_group_symop_operation_xyz
x,y,z
-x,y,-z
-x,-y,-z
x,-y,z
1/2+x,1/2+y,z
1/2-x,1/2+y,-z
1/2-x,1/2-y,-z
1/2+x,1/2-y,z
loop_
_atom_site_type_symbol
_atom_site_label
_atom_site_fract_x
_atom_site_fract_y
_atom_site_fract_z
Si Si1 0.989815 0.268710 0.649129
Si Si2 0.663007 0.607298 0.811901
Si Si3 0.177101 0.319882 0.530998
Si Si4 0.103201 0.686050 0.854337
Si Si5 0.658883 0.113423 0.024879
Si Si6 0.350474 0.609323 0.896116
O O1 0.928853 0.351288 0.788463
O O2 0.939104 0.167303 0.736363
O O3 0.000000 0.291335 0.500000
O O4 0.093320 0.264482 0.571785
O O5 0.622650 0.500000 0.830899
O O6 0.769421 0.611276 0.627976
O O7 0.604709 0.696539 0.831313
O O8 0.663110 0.621298 0.949541
O O9 0.250000 0.250000 0.500000
O O10 0.136378 0.373101 0.697540
O O11 0.163544 0.659928 0.890534
O O12 0.000000 0.649245 0.000000
O O13 0.650665 0.000000 0.025811
O O14 0.755066 0.147696 0.960571
O O15 0.369588 0.500000 0.835224
#
# Coordination Sequence:
#
# PCOD8109590 Si02
#       6
#     8   8   8   8   8   8
#     4  12  24  40  68  91 127 168 205 265 317 368
#     4  10  21  39  66  92 122 161 206 261 311 368
#     4  10  23  39  60  95 129 164 209 250 308 374
#     4  11  21  41  64  88 130 167 208 256 312 376
#     4  11  24  40  64  94 123 167 214 257 312 375
#     4  10  22  42  67  94 124 161 213 262 313 376
#
# _framework density 21.033192
#
# number of rings (size 3 to 8) (size 9 to 14) (size 15 to 20)
#    0.000    1.333    3.333    1.500    4.667    2.667 
#    0.000    5.000    0.000    0.000    0.000    0.000 
#    0.000    0.000    0.000    0.000    0.000    0.000 
#
# Total GULP energy -297396.497973 kJ/mol
# GULP energy per Si atom -12391.520749 kJ/mol
# Density = 2.098532 g / cm^3
# Si number density = 21.033192 Si / 1000 Ang^3
#
#
#
# Elastic Constant Matrix: (Units=GPa)
#
#
# Indices 1 2 3 4 5 6 
#
# 1 98.4257 8.7812 31.8185 0.0000 -0.2729 0.0000
# 2 8.7812 74.9070 -1.1366 0.0000 -5.4219 0.0000
# 3 31.8185 -1.1366 113.9766 0.0000 13.1598 0.0000
# 4 0.0000 0.0000 0.0000 22.5157 0.0000 -4.2421
# 5 -0.2729 -5.4219 13.1598 0.0000 42.6058 0.0000
# 6 0.0000 0.0000 0.0000 -4.2421 0.0000 20.5317
#
#
#
# Elastic Compliance Matrix: (Units=1/GPa)
#
#
# Indices 1 2 3 4 5 6 
#
# 1 0.011342 -0.001313 -0.003286 0.000000 0.000920 0.000000
# 2 -0.001313 0.013626 0.000314 0.000000 0.001629 0.000000
# 3 -0.003286 0.000314 0.010050 0.000000 -0.003085 0.000000
# 4 0.000000 0.000000 0.000000 0.046212 0.000000 0.009548
# 5 0.000920 0.001629 -0.003085 0.000000 0.024637 0.000000
# 6 0.000000 0.000000 0.000000 0.009548 0.000000 0.050678
#
#
# Mechanical properties :
#
#
# Convention : Reuss Voigt Hill
#
# Bulk Modulus (GPa) = 37.80662 40.69283 39.24973
# Shear Modulus (GPa) = 28.74705 33.65372 31.20038
#
# Velocity S-wave (km/s) = 3.70096 4.00438 3.85566
# Velocity P-wave (km/s) = 6.02301 6.38506 6.20667
#
# Compressibility (1/GPa) = 0.02645039
#
# Stress axis : x y z
#
# Youngs Moduli (GPa) = 88.16959 73.38675 99.49919
#
# Poissons Ratio (x) = 0.09634 0.32692
# Poissons Ratio (y) = 0.11575 -0.03128
# Poissons Ratio (z) = 0.28969 -0.02307
#
# Static dielectric constant tensor:
#      x y z
#    x 3.746950 0.000000 -0.291830 
#    y 0.000000 3.822550 0.000000 
#    z -0.291830 0.000000 2.503700 
# 
# 
# High freq. dielectric constant tensor:
#      x y z
#    x 1.826830 0.000000 0.007260 
#    y 0.000000 1.810250 0.000000 
#    z 0.007260 0.000000 1.843830 
# 
# From -- ./inp_files/167558.got.cif
#   From: 2010.06.25/outbox.cif.g09.slc.cpg/sg12_84_cif.got.tgz:167558.got - 2010.06.28 00:19:55.
