data_PCOD8109179
_publ_section_title
;
Structure prediction by ZEFSAII (Michael W. Deem and Ramdas Pophale) SiO2 
 PCOD8109179
Probable space group: C 2/M
;
_chemical_formula_sum "Si O2"
_cell_formula_units_Z 48
_cell_length_a 14.023311
_cell_length_b 15.025212
_cell_length_c 10.792985
_cell_angle_alpha 90.000000
_cell_angle_beta 77.940305
_cell_angle_gamma 90.000000
_cell_volume 2223.927973
_symmetry_space_group_name_H-M "C 2/M"
_symmetry_group_IT_number 12
_symmetry_cell_setting 'monoclinic'
loop_
_space_group_symop_operation_xyz
x,y,z
-x,y,-z
-x,-y,-z
x,-y,z
1/2+x,1/2+y,z
1/2-x,1/2+y,-z
1/2-x,1/2-y,-z
1/2+x,1/2-y,z
loop_
_atom_site_type_symbol
_atom_site_label
_atom_site_fract_x
_atom_site_fract_y
_atom_site_fract_z
Si Si1 0.891442 0.145405 0.500147
Si Si2 0.591729 0.161501 0.407223
Si Si3 0.202169 0.899778 0.236091
Si Si4 0.210831 0.901680 0.715222
Si Si5 0.852561 0.256895 0.117914
Si Si6 0.067425 0.757571 0.163428
O O1 0.882662 0.251286 0.519517
O O2 0.814687 0.096779 0.611374
O O3 0.870823 0.122196 0.363655
O O4 0.000000 0.111588 0.500000
O O5 0.500000 0.113733 0.500000
O O6 0.684614 0.097381 0.382091
O O7 0.567791 0.184908 0.271373
O O8 0.301728 0.845712 0.183352
O O9 0.106787 0.852462 0.202631
O O10 0.213283 0.000000 0.180938
O O11 0.211846 0.829305 0.825956
O O12 0.190688 0.000000 0.775447
O O13 0.957982 0.237096 0.145560
O O14 0.859472 0.268613 0.968097
#
# Coordination Sequence:
#
# PCOD8109179 Si02
#       6
#     8   8   8   8   8   8
#     4  10  21  39  62  89 126 162 207 265 320 376
#     4  10  21  39  65  89 122 166 207 257 321 376
#     4  11  23  40  67  95 125 170 221 269 316 381
#     4  12  24  37  62  96 128 167 210 258 319 385
#     4  11  23  43  66  91 132 168 215 265 323 381
#     4  10  23  43  66  91 128 172 209 263 324 384
#
# _framework density 21.583431999999998
#
# number of rings (size 3 to 8) (size 9 to 14) (size 15 to 20)
#    0.000    1.333    3.333    4.500    2.333    4.333 
#    0.000    4.167    0.000    0.000    0.000    0.000 
#    0.000    0.000    0.000    0.000    0.000    0.000 
#
# Total GULP energy -297564.205592 kJ/mol
# GULP energy per Si atom -12398.508566 kJ/mol
# Density = 2.153431 g / cm^3
# Si number density = 21.583432 Si / 1000 Ang^3
#
#
#
# Elastic Constant Matrix: (Units=GPa)
#
#
# Indices 1 2 3 4 5 6 
#
# 1 72.4676 20.4480 35.1713 0.0000 -12.8888 0.0000
# 2 20.4480 96.2430 32.8629 0.0000 -3.2543 0.0000
# 3 35.1713 32.8629 135.6402 0.0000 -14.5687 0.0000
# 4 0.0000 0.0000 0.0000 5.0260 0.0000 1.9913
# 5 -12.8888 -3.2543 -14.5687 0.0000 37.3537 0.0000
# 6 0.0000 0.0000 0.0000 1.9913 0.0000 10.5044
#
#
#
# Elastic Compliance Matrix: (Units=1/GPa)
#
#
# Indices 1 2 3 4 5 6 
#
# 1 0.016836 -0.002288 -0.003349 0.000000 0.004304 0.000000
# 2 -0.002288 0.011639 -0.002299 0.000000 -0.000672 0.000000
# 3 -0.003349 -0.002299 0.009030 0.000000 0.002166 0.000000
# 4 0.000000 0.000000 0.000000 0.215124 0.000000 -0.040781
# 5 0.004304 -0.000672 0.002166 0.000000 0.029042 0.000000
# 6 0.000000 0.000000 0.000000 -0.040781 0.000000 0.102929
#
#
# Mechanical properties :
#
#
# Convention : Reuss Voigt Hill
#
# Bulk Modulus (GPa) = 46.22441 53.47948 49.85194
# Shear Modulus (GPa) = 12.26446 24.96806 18.61626
#
# Velocity S-wave (km/s) = 2.38635 3.40489 2.94006
# Velocity P-wave (km/s) = 5.39036 6.34740 5.88836
#
# Compressibility (1/GPa) = 0.02163359
#
# Stress axis : x y z
#
# Youngs Moduli (GPa) = 59.39787 85.92057 110.73684
#
# Poissons Ratio (x) = 0.19658 0.37085
# Poissons Ratio (y) = 0.13590 0.25455
# Poissons Ratio (z) = 0.19892 0.19751
#
# Static dielectric constant tensor:
#      x y z
#    x 3.975860 0.000000 -0.168060 
#    y 0.000000 3.529020 0.000000 
#    z -0.168060 0.000000 4.289110 
# 
# 
# High freq. dielectric constant tensor:
#      x y z
#    x 1.856090 0.000000 -0.011940 
#    y 0.000000 1.812730 0.000000 
#    z -0.011940 0.000000 1.857800 
# 
# From -- ./inp_files/142755.got.cif
#   From: 2010.06.25/outbox.cif.g09.slc.cpg/sg12_72_cif.got.tgz:142755.got - 2010.06.28 00:19:55.
