data_PCOD8109143
_publ_section_title
;
Structure prediction by ZEFSAII (Michael W. Deem and Ramdas Pophale) SiO2 
 PCOD8109143
Probable space group: C 2/M
;
_chemical_formula_sum "Si O2"
_cell_formula_units_Z 56
_cell_length_a 26.974400
_cell_length_b 8.807877
_cell_length_c 11.804560
_cell_angle_alpha 90.000000
_cell_angle_beta 103.635917
_cell_angle_gamma 90.000000
_cell_volume 2725.559858
_symmetry_space_group_name_H-M "C 2/M"
_symmetry_group_IT_number 12
_symmetry_cell_setting 'monoclinic'
loop_
_space_group_symop_operation_xyz
x,y,z
-x,y,-z
-x,-y,-z
x,-y,z
1/2+x,1/2+y,z
1/2-x,1/2+y,-z
1/2-x,1/2-y,-z
1/2+x,1/2-y,z
loop_
_atom_site_type_symbol
_atom_site_label
_atom_site_fract_x
_atom_site_fract_y
_atom_site_fract_z
Si Si1 0.728932 0.819646 0.602679
Si Si2 0.992921 0.677401 0.123773
Si Si3 0.175291 0.822623 0.209918
Si Si4 0.619196 0.679651 0.571316
Si Si5 0.394359 0.177715 0.209553
Si Si6 0.082972 0.179703 0.306994
Si Si7 0.694480 0.678923 0.969931
O O1 0.750000 0.750000 0.500000
O O2 0.768858 0.767516 0.720956
O O3 0.675189 0.749402 0.604966
O O4 0.723980 0.000000 0.589159
O O5 0.004849 0.500000 0.131674
O O6 0.030509 0.756149 0.231834
O O7 0.935918 0.713955 0.135427
O O8 0.000000 0.742305 0.000000
O O9 0.129819 0.748722 0.259534
O O10 0.172535 0.000000 0.230935
O O11 0.167480 0.781784 0.074717
O O12 0.623400 0.500000 0.581841
O O13 0.588504 0.745233 0.662767
O O14 0.589783 0.729098 0.441343
O O15 0.339895 0.246452 0.145248
O O16 0.387764 0.000000 0.225826
O O17 0.081377 0.000000 0.294650
O O18 0.698767 0.500000 0.951799
O O19 0.750000 0.750000 0.000000
#
# Coordination Sequence:
#
# PCOD8109143 Si02
#       7
#     8   8   8   8   8   8   8
#     4  11  20  35  58  87 126 166 204 247 300 359
#     4  10  23  43  65  90 120 155 199 252 307 366
#     4   9  19  36  57  84 119 156 197 248 299 352
#     4  11  23  40  61  89 124 160 206 254 305 368
#     4  11  24  42  62  87 124 162 200 252 310 367
#     4  10  21  39  62  88 118 153 200 254 302 359
#     4  11  22  38  62  89 121 160 203 249 300 361
#
# _framework density 20.546239
#
# number of rings (size 3 to 8) (size 9 to 14) (size 15 to 20)
#    0.000    1.571    1.429    3.429    0.000    4.286 
#    0.000    5.714    0.000    0.000    0.000    0.000 
#    0.000    0.000    0.000    0.000    0.000    0.000 
#
# Total GULP energy -347258.108249 kJ/mol
# GULP energy per Si atom -12402.075295 kJ/mol
# Density = 2.049948 g / cm^3
# Si number density = 20.546239 Si / 1000 Ang^3
#
#
#
# Elastic Constant Matrix: (Units=GPa)
#
#
# Indices 1 2 3 4 5 6 
#
# 1 93.9812 38.3898 53.3232 0.0000 2.2042 0.0000
# 2 38.3898 74.2553 49.8677 0.0000 -2.1295 0.0000
# 3 53.3232 49.8677 137.4491 0.0000 3.7467 0.0000
# 4 0.0000 0.0000 0.0000 31.1514 0.0000 -0.0110
# 5 2.2042 -2.1295 3.7467 0.0000 39.5398 0.0000
# 6 0.0000 0.0000 0.0000 -0.0110 0.0000 33.3360
#
#
#
# Elastic Compliance Matrix: (Units=1/GPa)
#
#
# Indices 1 2 3 4 5 6 
#
# 1 0.014983 -0.005126 -0.003933 0.000000 -0.000739 0.000000
# 2 -0.005126 0.019658 -0.005193 0.000000 0.001837 0.000000
# 3 -0.003933 -0.005193 0.010715 0.000000 -0.001076 0.000000
# 4 0.000000 0.000000 0.000000 0.032101 0.000000 0.000011
# 5 -0.000739 0.001837 -0.001076 0.000000 0.025533 0.000000
# 6 0.000000 0.000000 0.000000 0.000011 0.000000 0.029998
#
#
# Mechanical properties :
#
#
# Convention : Reuss Voigt Hill
#
# Bulk Modulus (GPa) = 59.34438 65.42744 62.38591
# Shear Modulus (GPa) = 29.92063 31.74576 30.83320
#
# Velocity S-wave (km/s) = 3.82024 3.93503 3.87806
# Velocity P-wave (km/s) = 6.95737 7.24976 7.10507
#
# Compressibility (1/GPa) = 0.01685079
#
# Stress axis : x y z
#
# Youngs Moduli (GPa) = 66.74188 50.87072 93.33080
#
# Poissons Ratio (x) = 0.26078 0.36704
# Poissons Ratio (y) = 0.34214 0.48469
# Poissons Ratio (z) = 0.26247 0.26419
#
# Static dielectric constant tensor:
#      x y z
#    x 4.345320 0.000000 -0.253450 
#    y 0.000000 3.584530 0.000000 
#    z -0.253450 0.000000 3.945070 
# 
# 
# High freq. dielectric constant tensor:
#      x y z
#    x 1.806020 0.000000 -0.006240 
#    y 0.000000 1.791670 0.000000 
#    z -0.006240 0.000000 1.820390 
# 
# From -- ./inp_files/181033.got.cif
#   From: 2010.06.25/outbox.cif.g09.slc.cpg/sg12_91_cif.got.tgz:181033.got - 2010.06.28 00:19:55.
