data_PCOD8109559
_publ_section_title
;
Structure prediction by ZEFSAII (Michael W. Deem and Ramdas Pophale) SiO2 
 PCOD8109559
Probable space group: C 2/M
;
_chemical_formula_sum "Si O2"
_cell_formula_units_Z 64
_cell_length_a 22.433531
_cell_length_b 23.525122
_cell_length_c 16.683167
_cell_angle_alpha 90.000000
_cell_angle_beta 159.075166
_cell_angle_gamma 90.000000
_cell_volume 3144.488549
_symmetry_space_group_name_H-M "C 2/M"
_symmetry_group_IT_number 12
_symmetry_cell_setting 'monoclinic'
loop_
_space_group_symop_operation_xyz
x,y,z
-x,y,-z
-x,-y,-z
x,-y,z
1/2+x,1/2+y,z
1/2-x,1/2+y,-z
1/2-x,1/2-y,-z
1/2+x,1/2-y,z
loop_
_atom_site_type_symbol
_atom_site_label
_atom_site_fract_x
_atom_site_fract_y
_atom_site_fract_z
Si Si1 0.845543 0.935741 0.946193
Si Si2 0.461932 0.771132 0.541069
Si Si3 0.817690 0.853457 0.771975
Si Si4 0.829747 0.935063 0.333998
Si Si5 0.557002 0.935102 0.862715
Si Si6 0.203234 0.363330 0.906869
Si Si7 0.075615 0.156085 0.420558
Si Si8 0.202046 0.106124 0.425989
O O1 0.828309 0.912648 0.834202
O O2 0.727770 0.899834 0.857257
O O3 0.781750 0.000000 0.867782
O O4 0.039733 0.934137 0.216516
O O5 0.500000 0.748465 0.500000
O O6 0.308762 0.813910 0.339688
O O7 0.619605 0.802894 0.779588
O O8 0.395927 0.718546 0.509632
O O9 0.757515 0.862727 0.606282
O O10 0.000000 0.824315 0.000000
O O11 0.835164 0.893079 0.416019
O O12 0.000000 0.929049 0.500000
O O13 0.805609 0.000000 0.334205
O O14 0.677702 0.915759 0.086305
O O15 0.584375 0.897122 0.818354
O O16 0.366876 0.929598 0.655159
O O17 0.596932 0.000000 0.889560
O O18 0.377949 0.353517 0.169898
O O19 0.162464 0.154092 0.442678
#
# Coordination Sequence:
#
# PCOD8109559 Si02
#       8
#     8   8   8   8   8   8   8   8
#     4  10  21  39  65  94 131 173 210 251 316 378
#     4  12  24  44  67  93 125 167 212 267 310 367
#     4  10  22  43  61  90 133 170 207 259 312 370
#     4  10  21  40  64  92 125 160 204 266 322 373
#     4  11  22  38  64  94 128 165 207 259 319 374
#     4  11  22  41  64  97 126 162 215 268 305 368
#     4  11  25  43  66  93 122 169 214 255 320 377
#     4  10  23  41  61  91 128 164 212 257 309 376
#
# _framework density 20.353072000000001
#
# number of rings (size 3 to 8) (size 9 to 14) (size 15 to 20)
#    0.000    1.375    3.750    1.500    0.000    6.250 
#    2.250    1.875    0.000    0.000    0.000    0.000 
#    0.000    0.000    0.000    0.000    0.000    0.000 
#
# Total GULP energy -396882.190634 kJ/mol
# GULP energy per Si atom -12402.568457 kJ/mol
# Density = 2.030675 g / cm^3
# Si number density = 20.353072 Si / 1000 Ang^3
#
#
#
# Elastic Constant Matrix: (Units=GPa)
#
#
# Indices 1 2 3 4 5 6 
#
# 1 93.6716 51.2706 51.6543 0.0000 -16.8224 0.0000
# 2 51.2706 101.8314 32.7999 0.0000 -14.1498 0.0000
# 3 51.6543 32.7999 99.9345 0.0000 -2.7429 0.0000
# 4 0.0000 0.0000 0.0000 18.2474 0.0000 -6.7459
# 5 -16.8224 -14.1498 -2.7429 0.0000 30.7148 0.0000
# 6 0.0000 0.0000 0.0000 -6.7459 0.0000 26.3434
#
#
#
# Elastic Compliance Matrix: (Units=1/GPa)
#
#
# Indices 1 2 3 4 5 6 
#
# 1 0.019895 -0.006447 -0.007969 0.000000 0.007214 0.000000
# 2 -0.006447 0.013808 -0.001124 0.000000 0.002729 0.000000
# 3 -0.007969 -0.001124 0.014396 0.000000 -0.003597 0.000000
# 4 0.000000 0.000000 0.000000 0.060533 0.000000 0.015501
# 5 0.007214 0.002729 -0.003597 0.000000 0.037445 0.000000
# 6 0.000000 0.000000 0.000000 0.015501 0.000000 0.041930
#
#
# Mechanical properties :
#
#
# Convention : Reuss Voigt Hill
#
# Bulk Modulus (GPa) = 58.76621 62.98748 60.87684
# Shear Modulus (GPa) = 22.24597 25.70862 23.97729
#
# Velocity S-wave (km/s) = 3.30965 3.55791 3.43602
# Velocity P-wave (km/s) = 6.59857 6.92047 6.76143
#
# Compressibility (1/GPa) = 0.01701658
#
# Stress axis : x y z
#
# Youngs Moduli (GPa) = 50.26488 72.42314 69.46402
#
# Poissons Ratio (x) = 0.46694 0.55356
# Poissons Ratio (y) = 0.32408 0.07811
# Poissons Ratio (z) = 0.40056 0.08144
#
# Static dielectric constant tensor:
#      x y z
#    x 3.673390 0.000000 0.001850 
#    y 0.000000 3.437990 0.000000 
#    z 0.001850 0.000000 3.785850 
# 
# 
# High freq. dielectric constant tensor:
#      x y z
#    x 1.802510 0.000000 0.000290 
#    y 0.000000 1.777980 0.000000 
#    z 0.000290 0.000000 1.804670 
# 
# From -- ./inp_files/290968.got.cif
#   From: 2010.06.25/outbox.cif.g09.slc.cpg/sg12_146_cif.got.tgz:290968.got - 2010.06.28 00:19:55.
