data_PCOD8109957
_publ_section_title
;
Structure prediction by ZEFSAII (Michael W. Deem and Ramdas Pophale) SiO2 
 PCOD8109957
Probable space group: C 2/M
;
_chemical_formula_sum "Si O2"
_cell_formula_units_Z 48
_cell_length_a 15.904532
_cell_length_b 8.887925
_cell_length_c 16.826116
_cell_angle_alpha 90.000000
_cell_angle_beta 90.605912
_cell_angle_gamma 90.000000
_cell_volume 2378.377946
_symmetry_space_group_name_H-M "C 2/M"
_symmetry_group_IT_number 12
_symmetry_cell_setting 'monoclinic'
loop_
_space_group_symop_operation_xyz
x,y,z
-x,y,-z
-x,-y,-z
x,-y,z
1/2+x,1/2+y,z
1/2-x,1/2+y,-z
1/2-x,1/2-y,-z
1/2+x,1/2-y,z
loop_
_atom_site_type_symbol
_atom_site_label
_atom_site_fract_x
_atom_site_fract_y
_atom_site_fract_z
Si Si1 0.250360 0.678714 0.086008
Si Si2 0.597119 0.672154 0.172283
Si Si3 0.411818 0.322208 0.183420
Si Si4 0.098837 0.668884 0.497548
Si Si5 0.335182 0.671351 0.656854
Si Si6 0.662571 0.677379 0.655374
O O1 0.252554 0.500000 0.079828
O O2 0.165688 0.724551 0.130867
O O3 0.333708 0.742389 0.131466
O O4 0.250000 0.750000 0.000000
O O5 0.609491 0.500000 0.143268
O O6 0.502637 0.732925 0.151212
O O7 0.603119 0.680462 0.267592
O O8 0.409331 0.500000 0.177259
O O9 0.402584 0.275420 0.276022
O O10 0.135582 0.500000 0.502763
O O11 0.124767 0.742025 0.415721
O O12 0.134453 0.764581 0.569996
O O13 0.000000 0.667412 0.500000
O O14 0.318714 0.500000 0.630959
O O15 0.249525 0.749093 0.682317
O O16 0.674376 0.500000 0.650276
#
# Coordination Sequence:
#
# PCOD8109957 Si02
#       6
#     8   8   8   8   8   8
#     4  11  23  42  65  92 125 159 199 247 305 366
#     4  10  21  40  65  92 121 159 205 250 300 361
#     4   9  20  39  64  90 121 162 203 245 301 367
#     4  11  24  39  55  82 120 160 206 257 308 358
#     4  11  22  37  60  88 120 157 204 254 305 362
#     4  11  21  38  62  86 118 160 208 252 302 362
#
# _framework density 20.181822
#
# number of rings (size 3 to 8) (size 9 to 14) (size 15 to 20)
#    0.000    1.500    1.667    3.500    0.000    4.000 
#    0.000    6.667    0.000    0.000    0.000    0.000 
#    0.000    0.000    0.000    0.000    0.000    0.000 
#
# Total GULP energy -297596.929718 kJ/mol
# GULP energy per Si atom -12399.872072 kJ/mol
# Density = 2.013589 g / cm^3
# Si number density = 20.181822 Si / 1000 Ang^3
#
#
#
# Elastic Constant Matrix: (Units=GPa)
#
#
# Indices 1 2 3 4 5 6 
#
# 1 145.4718 40.3943 49.0394 0.0000 -4.8620 0.0000
# 2 40.3943 109.3644 46.3751 0.0000 -3.6861 0.0000
# 3 49.0394 46.3751 119.8516 0.0000 -7.5925 0.0000
# 4 0.0000 0.0000 0.0000 33.6736 0.0000 -4.0918
# 5 -4.8620 -3.6861 -7.5925 0.0000 22.2084 0.0000
# 6 0.0000 0.0000 0.0000 -4.0918 0.0000 29.1844
#
#
#
# Elastic Compliance Matrix: (Units=1/GPa)
#
#
# Indices 1 2 3 4 5 6 
#
# 1 0.008314 -0.001943 -0.002612 0.000000 0.000605 0.000000
# 2 -0.001943 0.011396 -0.003599 0.000000 0.000235 0.000000
# 3 -0.002612 -0.003599 0.010969 0.000000 0.002581 0.000000
# 4 0.000000 0.000000 0.000000 0.030212 0.000000 0.004236
# 5 0.000605 0.000235 0.002581 0.000000 0.046082 0.000000
# 6 0.000000 0.000000 0.000000 0.004236 0.000000 0.034859
#
#
# Mechanical properties :
#
#
# Convention : Reuss Voigt Hill
#
# Bulk Modulus (GPa) = 69.58959 71.81169 70.70064
# Shear Modulus (GPa) = 30.68813 32.93855 31.81334
#
# Velocity S-wave (km/s) = 3.90370 4.04430 3.97462
# Velocity P-wave (km/s) = 7.40774 7.58077 7.49475
#
# Compressibility (1/GPa) = 0.01436997
#
# Stress axis : x y z
#
# Youngs Moduli (GPa) = 120.27318 87.75258 91.16962
#
# Poissons Ratio (x) = 0.17051 0.23812
# Poissons Ratio (y) = 0.23370 0.32816
# Poissons Ratio (z) = 0.31413 0.31586
#
# Static dielectric constant tensor:
#      x y z
#    x 4.117840 0.000000 0.051270 
#    y 0.000000 3.689120 0.000000 
#    z 0.051270 0.000000 3.591780 
# 
# 
# High freq. dielectric constant tensor:
#      x y z
#    x 1.803170 0.000000 -0.000970 
#    y 0.000000 1.779210 0.000000 
#    z -0.000970 0.000000 1.792560 
# 
# From -- ./inp_files/221687.got.cif
#   From: 2010.06.25/outbox.cif.g09.slc.cpg/sg12_111_cif.got.tgz:221687.got - 2010.06.28 00:19:55.
