data_PCOD8109533
_publ_section_title
;
Structure prediction by ZEFSAII (Michael W. Deem and Ramdas Pophale) SiO2 
 PCOD8109533
Probable space group: C 2/M
;
_chemical_formula_sum "Si O2"
_cell_formula_units_Z 56
_cell_length_a 20.953670
_cell_length_b 13.947855
_cell_length_c 8.712397
_cell_angle_alpha 90.000000
_cell_angle_beta 69.780326
_cell_angle_gamma 90.000000
_cell_volume 2389.358586
_symmetry_space_group_name_H-M "C 2/M"
_symmetry_group_IT_number 12
_symmetry_cell_setting 'monoclinic'
loop_
_space_group_symop_operation_xyz
x,y,z
-x,y,-z
-x,-y,-z
x,-y,z
1/2+x,1/2+y,z
1/2-x,1/2+y,-z
1/2-x,1/2-y,-z
1/2+x,1/2-y,z
loop_
_atom_site_type_symbol
_atom_site_label
_atom_site_fract_x
_atom_site_fract_y
_atom_site_fract_z
Si Si1 0.426220 0.738394 0.307994
Si Si2 0.659968 0.607907 0.781425
Si Si3 0.546857 0.106744 0.105445
Si Si4 0.764109 0.257918 0.809648
Si Si5 0.046817 0.889490 0.131940
Si Si6 0.921044 0.246398 0.657741
Si Si7 0.158837 0.390654 0.789201
O O1 0.360707 0.668943 0.351736
O O2 0.482187 0.680609 0.156009
O O3 0.453941 0.746958 0.460076
O O4 0.399466 0.842228 0.271601
O O5 0.665166 0.500000 0.724981
O O6 0.733028 0.642231 0.777838
O O7 0.607049 0.628587 0.962576
O O8 0.538529 0.180977 0.255144
O O9 0.526061 0.000000 0.177970
O O10 0.500000 0.138506 0.000000
O O11 0.625365 0.108110 0.986850
O O12 0.842515 0.271848 0.703212
O O13 0.728779 0.169087 0.746353
O O14 0.750000 0.250000 0.000000
O O15 0.076175 0.860903 0.274866
O O16 0.021902 0.000000 0.149308
O O17 0.173144 0.500000 0.720726
#
# Coordination Sequence:
#
# PCOD8109533 Si02
#       7
#     8   8   8   8   8   8   8
#     4  11  24  40  62  94 135 167 209 266 332 389
#     4  10  22  41  68  97 128 173 221 266 319 385
#     4  10  21  39  65  92 119 161 214 261 310 374
#     4  11  21  40  64  94 128 168 216 270 316 384
#     4  11  23  41  66  93 125 172 223 269 321 384
#     4  12  24  40  62  96 133 169 207 268 331 387
#     4  10  22  40  63  89 123 168 214 260 312 381
#
# _framework density 23.437252000000001
#
# number of rings (size 3 to 8) (size 9 to 14) (size 15 to 20)
#    0.000    1.286    2.857    3.000    0.000    7.429 
#    0.000    1.429    0.000    4.286    0.000    0.000 
#    0.000    0.000    0.000    0.000    0.000    0.000 
#
# Total GULP energy -346916.040838 kJ/mol
# GULP energy per Si atom -12389.858601 kJ/mol
# Density = 2.338391 g / cm^3
# Si number density = 23.437252 Si / 1000 Ang^3
#
#
#
# Elastic Constant Matrix: (Units=GPa)
#
#
# Indices 1 2 3 4 5 6 
#
# 1 107.5977 51.1382 23.3325 0.0000 14.6015 0.0000
# 2 51.1382 166.6402 35.1172 0.0000 11.4400 0.0000
# 3 23.3325 35.1172 61.4156 0.0000 12.6535 0.0000
# 4 0.0000 0.0000 0.0000 21.6817 0.0000 1.5251
# 5 14.6015 11.4400 12.6535 0.0000 36.1040 0.0000
# 6 0.0000 0.0000 0.0000 1.5251 0.0000 26.7004
#
#
#
# Elastic Compliance Matrix: (Units=1/GPa)
#
#
# Indices 1 2 3 4 5 6 
#
# 1 0.011532 -0.002888 -0.002110 0.000000 -0.003009 0.000000
# 2 -0.002888 0.007571 -0.003210 0.000000 -0.000106 0.000000
# 3 -0.002110 -0.003210 0.019977 0.000000 -0.005131 0.000000
# 4 0.000000 0.000000 0.000000 0.046308 0.000000 -0.002645
# 5 -0.003009 -0.000106 -0.005131 0.000000 0.030747 0.000000
# 6 0.000000 0.000000 0.000000 -0.002645 0.000000 0.037604
#
#
# Mechanical properties :
#
#
# Convention : Reuss Voigt Hill
#
# Bulk Modulus (GPa) = 44.12228 61.64769 52.88499
# Shear Modulus (GPa) = 28.13593 31.96825 30.05209
#
# Velocity S-wave (km/s) = 3.46855 3.69723 3.58472
# Velocity P-wave (km/s) = 5.90827 6.67731 6.30453
#
# Compressibility (1/GPa) = 0.02266429
#
# Stress axis : x y z
#
# Youngs Moduli (GPa) = 86.71295 132.08472 50.05817
#
# Poissons Ratio (x) = 0.38143 0.10562
# Poissons Ratio (y) = 0.25041 0.16069
# Poissons Ratio (z) = 0.18296 0.42400
#
# Static dielectric constant tensor:
#      x y z
#    x 4.637400 0.000000 0.093740 
#    y 0.000000 4.338130 0.000000 
#    z 0.093740 0.000000 4.049850 
# 
# 
# High freq. dielectric constant tensor:
#      x y z
#    x 1.955660 0.000000 0.001310 
#    y 0.000000 1.928070 0.000000 
#    z 0.001310 0.000000 1.904770 
# 
# From -- ./inp_files/96235.got.cif
#   From: 2010.06.25/outbox.cif.g09.slc.cpg/sg12_49_cif.got.tgz:96235.got - 2010.06.28 00:19:55.
