data_PCOD8109389
_publ_section_title
;
Structure prediction by ZEFSAII (Michael W. Deem and Ramdas Pophale) SiO2 
 PCOD8109389
Probable space group: C 2/M
;
_chemical_formula_sum "Si O2"
_cell_formula_units_Z 56
_cell_length_a 14.630869
_cell_length_b 18.085075
_cell_length_c 12.151682
_cell_angle_alpha 90.000000
_cell_angle_beta 57.302961
_cell_angle_gamma 90.000000
_cell_volume 2705.832598
_symmetry_space_group_name_H-M "C 2/M"
_symmetry_group_IT_number 12
_symmetry_cell_setting 'monoclinic'
loop_
_space_group_symop_operation_xyz
x,y,z
-x,y,-z
-x,-y,-z
x,-y,z
1/2+x,1/2+y,z
1/2-x,1/2+y,-z
1/2-x,1/2-y,-z
1/2+x,1/2-y,z
loop_
_atom_site_type_symbol
_atom_site_label
_atom_site_fract_x
_atom_site_fract_y
_atom_site_fract_z
Si Si1 0.697130 0.846637 0.366104
Si Si2 0.824427 0.585463 0.845407
Si Si3 0.424306 0.416076 0.944502
Si Si4 0.509637 0.144956 0.867715
Si Si5 0.889997 0.193274 0.518526
Si Si6 0.697586 0.914505 0.599944
Si Si7 0.932679 0.802737 0.243902
O O1 0.646626 0.893215 0.298880
O O2 0.651377 0.763678 0.386541
O O3 0.663088 0.885119 0.502317
O O4 0.826839 0.844541 0.266749
O O5 0.852630 0.500000 0.844959
O O6 0.893916 0.634188 0.884366
O O7 0.699243 0.603234 0.949681
O O8 0.436533 0.500000 0.894454
O O9 0.467242 0.360557 0.822562
O O10 0.500000 0.401363 0.000000
O O11 0.598648 0.095103 0.748443
O O12 0.541899 0.230956 0.844904
O O13 0.500000 0.118818 0.000000
O O14 0.801672 0.128623 0.579048
O O15 0.910146 0.222822 0.382493
O O16 0.000000 0.161714 0.500000
O O17 0.729396 0.000000 0.570523
#
# Coordination Sequence:
#
# PCOD8109389 Si02
#       7
#     8   8   8   8   8   8   8
#     4  11  21  42  69  97 125 161 215 277 322 378
#     4  11  25  42  67 100 129 166 215 271 329 382
#     4  10  21  39  63  97 133 162 207 274 329 375
#     4  12  26  44  64  91 134 180 219 255 313 397
#     4  11  23  41  66  95 130 164 214 270 318 380
#     4  11  24  43  66  93 128 174 213 263 323 377
#     4  11  21  41  67  94 127 173 212 260 330 379
#
# _framework density 20.696031999999999
#
# number of rings (size 3 to 8) (size 9 to 14) (size 15 to 20)
#    0.000    1.000    4.286    3.000    0.000    5.429 
#    0.000    2.857    0.000    0.000    0.000    0.000 
#    0.000    0.000    0.000    0.000    0.000    0.000 
#
# Total GULP energy -347357.290561 kJ/mol
# GULP energy per Si atom -12405.617520 kJ/mol
# Density = 2.064893 g / cm^3
# Si number density = 20.696032 Si / 1000 Ang^3
#
#
#
# Elastic Constant Matrix: (Units=GPa)
#
#
# Indices 1 2 3 4 5 6 
#
# 1 115.3833 16.9494 49.5883 0.0000 -0.8345 0.0000
# 2 16.9494 94.9017 41.0194 0.0000 -10.9180 0.0000
# 3 49.5883 41.0194 111.2579 0.0000 -2.3148 0.0000
# 4 0.0000 0.0000 0.0000 30.0090 0.0000 -6.5948
# 5 -0.8345 -10.9180 -2.3148 0.0000 28.2573 0.0000
# 6 0.0000 0.0000 0.0000 -6.5948 0.0000 16.6014
#
#
#
# Elastic Compliance Matrix: (Units=1/GPa)
#
#
# Indices 1 2 3 4 5 6 
#
# 1 0.010723 0.000178 -0.004845 0.000000 -0.000012 0.000000
# 2 0.000178 0.013128 -0.004822 0.000000 0.004683 0.000000
# 3 -0.004845 -0.004822 0.012906 0.000000 -0.000949 0.000000
# 4 0.000000 0.000000 0.000000 0.036511 0.000000 0.014504
# 5 -0.000012 0.004683 -0.000949 0.000000 0.037120 0.000000
# 6 0.000000 0.000000 0.000000 0.014504 0.000000 0.065997
#
#
# Mechanical properties :
#
#
# Convention : Reuss Voigt Hill
#
# Bulk Modulus (GPa) = 56.24850 59.62856 57.93853
# Shear Modulus (GPa) = 24.83980 29.23926 27.03953
#
# Velocity S-wave (km/s) = 3.46818 3.76280 3.61849
# Velocity P-wave (km/s) = 6.57838 6.91030 6.74638
#
# Compressibility (1/GPa) = 0.01777825
#
# Stress axis : x y z
#
# Youngs Moduli (GPa) = 93.25917 76.17037 77.48535
#
# Poissons Ratio (x) = -0.01354 0.37542
# Poissons Ratio (y) = -0.01658 0.37364
# Poissons Ratio (z) = 0.45184 0.36730
#
# Static dielectric constant tensor:
#      x y z
#    x 3.775430 0.000000 -0.142830 
#    y 0.000000 3.657550 0.000000 
#    z -0.142830 0.000000 3.750250 
# 
# 
# High freq. dielectric constant tensor:
#      x y z
#    x 1.807550 0.000000 -0.012020 
#    y 0.000000 1.812760 0.000000 
#    z -0.012020 0.000000 1.812430 
# 
# From -- ./inp_files/146024.got.cif
#   From: 2010.06.25/outbox.cif.g09.slc.cpg/sg12_74_cif.got.tgz:146024.got - 2010.06.28 00:19:55.
