data_PCOD8109098
_publ_section_title
;
Structure prediction by ZEFSAII (Michael W. Deem and Ramdas Pophale) SiO2 
 PCOD8109098
Probable space group: C 2/M
;
_chemical_formula_sum "Si O2"
_cell_formula_units_Z 40
_cell_length_a 20.103509
_cell_length_b 8.720238
_cell_length_c 11.379158
_cell_angle_alpha 90.000000
_cell_angle_beta 89.995346
_cell_angle_gamma 90.000000
_cell_volume 1994.850404
_symmetry_space_group_name_H-M "C 2/M"
_symmetry_group_IT_number 12
_symmetry_cell_setting 'monoclinic'
loop_
_space_group_symop_operation_xyz
x,y,z
-x,y,-z
-x,-y,-z
x,-y,z
1/2+x,1/2+y,z
1/2-x,1/2+y,-z
1/2-x,1/2-y,-z
1/2+x,1/2-y,z
loop_
_atom_site_type_symbol
_atom_site_label
_atom_site_fract_x
_atom_site_fract_y
_atom_site_fract_z
Si Si1 0.103535 0.677646 0.249947
Si Si2 0.760787 0.680721 0.872067
Si Si3 0.360884 0.819542 0.255852
Si Si4 0.019441 0.822261 0.868651
Si Si5 0.574002 0.822047 0.508582
O O1 0.086628 0.500000 0.224978
O O2 0.167678 0.732160 0.177618
O O3 0.115412 0.704168 0.389050
O O4 0.041426 0.781314 0.215479
O O5 0.755817 0.500000 0.882970
O O6 0.707216 0.738075 0.778699
O O7 0.750000 0.750000 0.000000
O O8 0.416708 0.780156 0.160043
O O9 0.384333 0.752317 0.382493
O O10 0.348049 0.000000 0.257363
O O11 0.037887 0.000000 0.853725
O O12 0.000000 0.779897 0.000000
O O13 0.500000 0.747443 0.500000
O O14 0.564228 0.000000 0.538180
#
# Coordination Sequence:
#
# PCOD8109098 Si02
#       5
#     8   8   8   8   8
#     4  10  21  39  62  86 114 156 200 240 293 355
#     4  11  24  41  61  87 123 159 199 246 293 350
#     4  11  22  38  63  88 117 158 198 240 296 355
#     4  11  23  37  56  85 119 153 196 250 298 345
#     4   9  17  35  62  89 117 150 194 245 293 350
#
# _framework density 20.051627
#
# number of rings (size 3 to 8) (size 9 to 14) (size 15 to 20)
#    0.000    1.600    2.000    3.000    0.000    7.200 
#    0.000    3.000    0.000    0.000    0.000    0.000 
#    0.000    0.000    0.000    0.000    0.000    0.000 
#
# Total GULP energy -248059.346468 kJ/mol
# GULP energy per Si atom -12402.967323 kJ/mol
# Density = 2.000599 g / cm^3
# Si number density = 20.051627 Si / 1000 Ang^3
#
#
#
# Elastic Constant Matrix: (Units=GPa)
#
#
# Indices 1 2 3 4 5 6 
#
# 1 77.0671 17.4450 5.6893 0.0000 -2.5788 0.0000
# 2 17.4450 39.3035 13.2245 0.0000 -2.4522 0.0000
# 3 5.6893 13.2245 87.9816 0.0000 -1.8857 0.0000
# 4 0.0000 0.0000 0.0000 27.1502 0.0000 5.4267
# 5 -2.5788 -2.4522 -1.8857 0.0000 41.9689 0.0000
# 6 0.0000 0.0000 0.0000 5.4267 0.0000 31.0700
#
#
#
# Elastic Compliance Matrix: (Units=1/GPa)
#
#
# Indices 1 2 3 4 5 6 
#
# 1 0.014436 -0.006388 0.000038 0.000000 0.000515 0.000000
# 2 -0.006388 0.029706 -0.004027 0.000000 0.001162 0.000000
# 3 0.000038 -0.004027 0.011975 0.000000 0.000305 0.000000
# 4 0.000000 0.000000 0.000000 0.038165 0.000000 -0.006666
# 5 0.000515 0.001162 0.000305 0.000000 0.023940 0.000000
# 6 0.000000 0.000000 0.000000 -0.006666 0.000000 0.033350
#
#
# Mechanical properties :
#
#
# Convention : Reuss Voigt Hill
#
# Bulk Modulus (GPa) = 28.27843 30.78551 29.53197
# Shear Modulus (GPa) = 27.15699 31.23736 29.19718
#
# Velocity S-wave (km/s) = 3.68415 3.95124 3.82003
# Velocity P-wave (km/s) = 5.67721 6.01688 5.84951
#
# Compressibility (1/GPa) = 0.03536265
#
# Stress axis : x y z
#
# Youngs Moduli (GPa) = 69.27040 33.66332 83.50436
#
# Poissons Ratio (x) = 0.21504 -0.00315
# Poissons Ratio (y) = 0.44250 0.33628
# Poissons Ratio (z) = -0.00261 0.13557
#
# Static dielectric constant tensor:
#      x y z
#    x 3.799790 0.000000 -0.075330 
#    y 0.000000 3.442490 0.000000 
#    z -0.075330 0.000000 3.995300 
# 
# 
# High freq. dielectric constant tensor:
#      x y z
#    x 1.783860 0.000000 0.000830 
#    y 0.000000 1.764060 0.000000 
#    z 0.000830 0.000000 1.799560 
# 
# From -- ./inp_files/151666.got.cif
#   From: 2010.06.25/outbox.cif.g09.slc.cpg/sg12_76_cif.got.tgz:151666.got - 2010.06.28 00:19:55.
