data_PCOD8109116
_publ_section_title
;
Structure prediction by ZEFSAII (Michael W. Deem and Ramdas Pophale) SiO2 
 PCOD8109116
Probable space group: C 2/M
;
_chemical_formula_sum "Si O2"
_cell_formula_units_Z 56
_cell_length_a 26.166851
_cell_length_b 18.018634
_cell_length_c 9.419262
_cell_angle_alpha 90.000000
_cell_angle_beta 41.019360
_cell_angle_gamma 90.000000
_cell_volume 2914.753778
_symmetry_space_group_name_H-M "C 2/M"
_symmetry_group_IT_number 12
_symmetry_cell_setting 'monoclinic'
loop_
_space_group_symop_operation_xyz
x,y,z
-x,y,-z
-x,-y,-z
x,-y,z
1/2+x,1/2+y,z
1/2-x,1/2+y,-z
1/2-x,1/2-y,-z
1/2+x,1/2-y,z
loop_
_atom_site_type_symbol
_atom_site_label
_atom_site_fract_x
_atom_site_fract_y
_atom_site_fract_z
Si Si1 0.750954 0.411895 0.520690
Si Si2 0.088580 0.704384 0.317398
Si Si3 0.571648 0.628708 0.262654
Si Si4 0.799925 0.316085 0.678804
Si Si5 0.218765 0.339291 0.828909
Si Si6 0.278479 0.419984 0.944321
Si Si7 0.928598 0.913033 0.049435
O O1 0.764306 0.500000 0.501023
O O2 0.795335 0.374893 0.561053
O O3 0.795739 0.376449 0.293155
O O4 0.658016 0.393077 0.710049
O O5 0.094832 0.790069 0.265689
O O6 0.115063 0.697007 0.428624
O O7 0.000000 0.674507 0.500000
O O8 0.139993 0.661299 0.090136
O O9 0.500000 0.597674 0.500000
O O10 0.637028 0.569260 0.165677
O O11 0.557291 0.631295 0.124913
O O12 0.756434 0.241156 0.724807
O O13 0.758268 0.350628 0.900888
O O14 0.280274 0.394813 0.776222
O O15 0.235641 0.500000 0.050562
O O16 0.934609 0.000000 0.007205
O O17 0.000000 0.886955 0.000000
#
# Coordination Sequence:
#
# PCOD8109116 Si02
#       7
#     8   8   8   8   8   8   8
#     4  11  23  38  60  87 118 156 200 249 300 353
#     4  10  21  39  62  87 116 150 197 252 300 350
#     4  11  21  35  56  87 120 155 200 237 286 349
#     4  11  20  39  61  85 116 158 201 238 292 358
#     4  11  21  38  59  90 116 155 203 244 288 352
#     4  11  20  34  57  84 119 155 196 244 285 336
#     4  10  22  37  51  79 126 167 193 225 282 352
#
# _framework density 19.212600999999999
#
# number of rings (size 3 to 8) (size 9 to 14) (size 15 to 20)
#    0.000    1.286    4.286    2.571    2.000    1.143 
#    0.000    0.714    0.000   16.286    0.000    0.000 
#    0.000    0.000    0.000    0.000    0.000    0.000 
#
# Total GULP energy -346920.402486 kJ/mol
# GULP energy per Si atom -12390.014375 kJ/mol
# Density = 1.916887 g / cm^3
# Si number density = 19.212601 Si / 1000 Ang^3
#
#
#
# Elastic Constant Matrix: (Units=GPa)
#
#
# Indices 1 2 3 4 5 6 
#
# 1 141.8150 48.4410 52.6768 0.0000 7.7592 0.0000
# 2 48.4410 98.3166 24.5982 0.0000 9.5295 0.0000
# 3 52.6768 24.5982 89.2288 0.0000 8.0489 0.0000
# 4 0.0000 0.0000 0.0000 28.8751 0.0000 2.3760
# 5 7.7592 9.5295 8.0489 0.0000 28.5660 0.0000
# 6 0.0000 0.0000 0.0000 2.3760 0.0000 24.0935
#
#
#
# Elastic Compliance Matrix: (Units=1/GPa)
#
#
# Indices 1 2 3 4 5 6 
#
# 1 0.010189 -0.003767 -0.004967 0.000000 -0.000112 0.000000
# 2 -0.003767 0.012551 -0.000976 0.000000 -0.002889 0.000000
# 3 -0.004967 -0.000976 0.014629 0.000000 -0.002447 0.000000
# 4 0.000000 0.000000 0.000000 0.034915 0.000000 -0.003443
# 5 -0.000112 -0.002889 -0.002447 0.000000 0.036690 0.000000
# 6 0.000000 0.000000 0.000000 -0.003443 0.000000 0.041844
#
#
# Mechanical properties :
#
#
# Convention : Reuss Voigt Hill
#
# Bulk Modulus (GPa) = 55.70739 64.53248 60.11994
# Shear Modulus (GPa) = 28.37342 29.88324 29.12833
#
# Velocity S-wave (km/s) = 3.84710 3.94813 3.89794
# Velocity P-wave (km/s) = 6.98511 7.37870 7.18460
#
# Compressibility (1/GPa) = 0.01795094
#
# Stress axis : x y z
#
# Youngs Moduli (GPa) = 98.14455 79.67329 68.35718
#
# Poissons Ratio (x) = 0.30011 0.33951
# Poissons Ratio (y) = 0.36968 0.06670
# Poissons Ratio (z) = 0.48746 0.07774
#
# Static dielectric constant tensor:
#      x y z
#    x 4.958130 0.000000 -0.451470 
#    y 0.000000 3.417000 0.000000 
#    z -0.451470 0.000000 3.600410 
# 
# 
# High freq. dielectric constant tensor:
#      x y z
#    x 1.755690 0.000000 0.013620 
#    y 0.000000 1.748170 0.000000 
#    z 0.013620 0.000000 1.726370 
# 
# From -- ./inp_files/98080.got.cif
#   From: 2010.06.25/outbox.cif.g09.slc.cpg/sg12_50_cif.got.tgz:98080.got - 2010.06.28 00:19:55.
