data_PCOD8109150
_publ_section_title
;
Structure prediction by ZEFSAII (Michael W. Deem and Ramdas Pophale) SiO2 
 PCOD8109150
Probable space group: C 2/M
;
_chemical_formula_sum "Si O2"
_cell_formula_units_Z 40
_cell_length_a 14.083829
_cell_length_b 10.762224
_cell_length_c 12.305511
_cell_angle_alpha 90.000000
_cell_angle_beta 73.936047
_cell_angle_gamma 90.000000
_cell_volume 1792.358031
_symmetry_space_group_name_H-M "C 2/M"
_symmetry_group_IT_number 12
_symmetry_cell_setting 'monoclinic'
loop_
_space_group_symop_operation_xyz
x,y,z
-x,y,-z
-x,-y,-z
x,-y,z
1/2+x,1/2+y,z
1/2-x,1/2+y,-z
1/2-x,1/2-y,-z
1/2+x,1/2-y,z
loop_
_atom_site_type_symbol
_atom_site_label
_atom_site_fract_x
_atom_site_fract_y
_atom_site_fract_z
Si Si1 0.497180 0.637450 0.796469
Si Si2 0.240459 0.636629 0.636150
Si Si3 0.818423 0.220772 0.140263
Si Si4 0.135493 0.361432 0.077684
Si Si5 0.583609 0.267218 0.553802
O O1 0.447235 0.500000 0.825283
O O2 0.588607 0.640305 0.850826
O O3 0.424749 0.752140 0.843733
O O4 0.533373 0.647996 0.661380
O O5 0.233135 0.500000 0.687499
O O6 0.240822 0.730543 0.736436
O O7 0.341063 0.647605 0.537291
O O8 0.145173 0.655810 0.588859
O O9 0.745498 0.135189 0.093126
O O10 0.858450 0.333858 0.052828
O O11 0.089012 0.500000 0.108515
O O12 0.500000 0.211975 0.500000
#
# Coordination Sequence:
#
# PCOD8109150 Si02
#       5
#     8   8   8   8   8
#     4  11  24  41  63  91 124 163 204 248 302 364
#     4  10  21  39  62  88 120 158 203 254 304 358
#     4  10  23  41  63  89 123 160 202 250 306 363
#     4  11  24  41  64  93 124 161 205 252 302 359
#     4  10  22  39  59  88 121 157 202 250 304 363
#
# _framework density 22.316970000000001
#
# number of rings (size 3 to 8) (size 9 to 14) (size 15 to 20)
#    0.000    1.600    0.000    3.600    0.000   14.000 
#    0.000    7.000    0.000    0.000    0.000    0.000 
#    0.000    0.000    0.000    0.000    0.000    0.000 
#
# Total GULP energy -247958.343450 kJ/mol
# GULP energy per Si atom -12397.917172 kJ/mol
# Density = 2.226618 g / cm^3
# Si number density = 22.316970 Si / 1000 Ang^3
#
#
#
# Elastic Constant Matrix: (Units=GPa)
#
#
# Indices 1 2 3 4 5 6 
#
# 1 81.0899 17.9269 47.6658 0.0000 8.8306 0.0000
# 2 17.9269 146.0241 42.1851 0.0000 -18.6040 0.0000
# 3 47.6658 42.1851 114.7659 0.0000 1.9624 0.0000
# 4 0.0000 0.0000 0.0000 17.2513 0.0000 -4.4657
# 5 8.8306 -18.6040 1.9624 0.0000 37.5983 0.0000
# 6 0.0000 0.0000 0.0000 -4.4657 0.0000 11.9724
#
#
#
# Elastic Compliance Matrix: (Units=1/GPa)
#
#
# Indices 1 2 3 4 5 6 
#
# 1 0.016832 -0.000632 -0.006691 0.000000 -0.003917 0.000000
# 2 -0.000632 0.008317 -0.002870 0.000000 0.004414 0.000000
# 3 -0.006691 -0.002870 0.012556 0.000000 -0.000504 0.000000
# 4 0.000000 0.000000 0.000000 0.064162 0.000000 0.023932
# 5 -0.003917 0.004414 -0.000504 0.000000 0.029727 0.000000
# 6 0.000000 0.000000 0.000000 0.023932 0.000000 0.092452
#
#
# Mechanical properties :
#
#
# Convention : Reuss Voigt Hill
#
# Bulk Modulus (GPa) = 57.74483 61.93728 59.84105
# Shear Modulus (GPa) = 19.98359 28.97123 24.47741
#
# Velocity S-wave (km/s) = 2.99564 3.60692 3.31540
# Velocity P-wave (km/s) = 6.15599 6.72013 6.44424
#
# Compressibility (1/GPa) = 0.01731757
#
# Stress axis : x y z
#
# Youngs Moduli (GPa) = 59.41235 120.23150 79.64291
#
# Poissons Ratio (x) = 0.07603 0.53291
# Poissons Ratio (y) = 0.03757 0.22858
# Poissons Ratio (z) = 0.39754 0.34507
#
# Static dielectric constant tensor:
#      x y z
#    x 4.159800 0.000000 0.120100 
#    y 0.000000 3.651970 0.000000 
#    z 0.120100 0.000000 4.127610 
# 
# 
# High freq. dielectric constant tensor:
#      x y z
#    x 1.887160 0.000000 0.009340 
#    y 0.000000 1.858850 0.000000 
#    z 0.009340 0.000000 1.890690 
# 
# From -- ./inp_files/211160.got.cif
#   From: 2010.06.25/outbox.cif.g09.slc.cpg/sg12_106_cif.got.tgz:211160.got - 2010.06.28 00:19:55.
