data_PCOD8109996
_publ_section_title
;
Structure prediction by ZEFSAII (Michael W. Deem and Ramdas Pophale) SiO2 
 PCOD8109996
Probable space group: C 2/M
;
_chemical_formula_sum "Si O2"
_cell_formula_units_Z 64
_cell_length_a 11.878774
_cell_length_b 14.869370
_cell_length_c 16.670672
_cell_angle_alpha 90.000000
_cell_angle_beta 88.892891
_cell_angle_gamma 90.000000
_cell_volume 2943.989212
_symmetry_space_group_name_H-M "C 2/M"
_symmetry_group_IT_number 12
_symmetry_cell_setting 'monoclinic'
loop_
_space_group_symop_operation_xyz
x,y,z
-x,y,-z
-x,-y,-z
x,-y,z
1/2+x,1/2+y,z
1/2-x,1/2+y,-z
1/2-x,1/2-y,-z
1/2+x,1/2-y,z
loop_
_atom_site_type_symbol
_atom_site_label
_atom_site_fract_x
_atom_site_fract_y
_atom_site_fract_z
Si Si1 0.193578 0.102277 0.789365
Si Si2 0.444334 0.200521 0.367512
Si Si3 0.269521 0.891682 0.963596
Si Si4 0.098528 0.222678 0.055631
Si Si5 0.168909 0.830436 0.522065
Si Si6 0.794362 0.103885 0.643428
Si Si7 0.666663 0.100679 0.357782
Si Si8 0.965680 0.815109 0.764467
O O1 0.212478 0.135448 0.879595
O O2 0.277977 0.149562 0.722528
O O3 0.061920 0.109104 0.769873
O O4 0.229208 0.000000 0.782848
O O5 0.434993 0.287355 0.426616
O O6 0.332006 0.141007 0.366573
O O7 0.556000 0.148547 0.395072
O O8 0.471316 0.230725 0.276714
O O9 0.379894 0.828506 0.964768
O O10 0.291768 0.000000 0.973428
O O11 0.195463 0.851135 0.036703
O O12 0.073972 0.216317 0.149006
O O13 0.000000 0.189060 0.000000
O O14 0.250000 0.750000 0.500000
O O15 0.134531 0.880417 0.439903
O O16 0.236536 0.900596 0.576352
O O17 0.858837 0.152099 0.714888
O O18 0.785979 0.000000 0.664709
O O19 0.629554 0.000000 0.338524
#
# Coordination Sequence:
#
# PCOD8109996 Si02
#       8
#     8   8   8   8   8   8   8   8
#     4  10  21  40  65  96 128 171 217 262 317 381
#     4  11  23  41  68  93 127 168 215 264 321 381
#     4  10  23  42  67  98 136 169 212 267 321 387
#     4  11  24  42  69  99 129 171 217 263 326 392
#     4  10  22  40  62  91 125 163 214 259 321 381
#     4  11  26  44  63  94 130 167 212 269 328 384
#     4  11  22  40  64  93 126 167 216 266 315 378
#     4  12  24  41  67  94 132 168 214 264 320 386
#
# _framework density 21.739208999999999
#
# number of rings (size 3 to 8) (size 9 to 14) (size 15 to 20)
#    0.000    1.250    2.500    3.375    1.750    6.000 
#    0.000    4.375    0.000    0.000    0.000    0.000 
#    0.000    0.000    0.000    0.000    0.000    0.000 
#
# Total GULP energy -396547.040088 kJ/mol
# GULP energy per Si atom -12392.095003 kJ/mol
# Density = 2.168973 g / cm^3
# Si number density = 21.739209 Si / 1000 Ang^3
#
#
#
# Elastic Constant Matrix: (Units=GPa)
#
#
# Indices 1 2 3 4 5 6 
#
# 1 104.9271 36.1489 39.2669 0.0000 -17.4094 0.0000
# 2 36.1489 102.2106 33.6907 0.0000 -12.4208 0.0000
# 3 39.2669 33.6907 135.1157 0.0000 -19.6995 0.0000
# 4 0.0000 0.0000 0.0000 26.9664 0.0000 -0.2150
# 5 -17.4094 -12.4208 -19.6995 0.0000 32.9435 0.0000
# 6 0.0000 0.0000 0.0000 -0.2150 0.0000 22.2043
#
#
#
# Elastic Compliance Matrix: (Units=1/GPa)
#
#
# Indices 1 2 3 4 5 6 
#
# 1 0.012048 -0.003072 -0.002165 0.000000 0.003914 0.000000
# 2 -0.003072 0.011660 -0.001764 0.000000 0.001718 0.000000
# 3 -0.002165 -0.001764 0.008990 0.000000 0.003567 0.000000
# 4 0.000000 0.000000 0.000000 0.037086 0.000000 0.000359
# 5 0.003914 0.001718 0.003567 0.000000 0.035204 0.000000
# 6 0.000000 0.000000 0.000000 0.000359 0.000000 0.045040
#
#
# Mechanical properties :
#
#
# Convention : Reuss Voigt Hill
#
# Bulk Modulus (GPa) = 53.48452 62.27407 57.87929
# Shear Modulus (GPa) = 29.36633 31.96599 30.66616
#
# Velocity S-wave (km/s) = 3.67937 3.83878 3.75992
# Velocity P-wave (km/s) = 6.53503 6.95388 6.74770
#
# Compressibility (1/GPa) = 0.01869700
#
# Stress axis : x y z
#
# Youngs Moduli (GPa) = 82.99899 85.75978 111.23327
#
# Poissons Ratio (x) = 0.26345 0.24080
# Poissons Ratio (y) = 0.25497 0.19625
# Poissons Ratio (z) = 0.17967 0.15130
#
# Static dielectric constant tensor:
#      x y z
#    x 3.982600 0.000000 -0.146970 
#    y 0.000000 3.873020 0.000000 
#    z -0.146970 0.000000 4.460860 
# 
# 
# High freq. dielectric constant tensor:
#      x y z
#    x 1.853880 0.000000 -0.010600 
#    y 0.000000 1.845140 0.000000 
#    z -0.010600 0.000000 1.864650 
# 
# From -- ./inp_files/263335.got.cif
#   From: 2010.06.25/outbox.cif.g09.slc.cpg/sg12_132_cif.got.tgz:263335.got - 2010.06.28 00:19:55.
