data_PCOD8109027
_publ_section_title
;
Structure prediction by ZEFSAII (Michael W. Deem and Ramdas Pophale) SiO2 
 PCOD8109027
Probable space group: C 2/M
;
_chemical_formula_sum "Si O2"
_cell_formula_units_Z 56
_cell_length_a 30.439005
_cell_length_b 9.043162
_cell_length_c 23.073407
_cell_angle_alpha 90.000000
_cell_angle_beta 26.276524
_cell_angle_gamma 90.000000
_cell_volume 2811.743967
_symmetry_space_group_name_H-M "C 2/M"
_symmetry_group_IT_number 12
_symmetry_cell_setting 'monoclinic'
loop_
_space_group_symop_operation_xyz
x,y,z
-x,y,-z
-x,-y,-z
x,-y,z
1/2+x,1/2+y,z
1/2-x,1/2+y,-z
1/2-x,1/2-y,-z
1/2+x,1/2-y,z
loop_
_atom_site_type_symbol
_atom_site_label
_atom_site_fract_x
_atom_site_fract_y
_atom_site_fract_z
Si Si1 0.295624 0.826257 0.889784
Si Si2 0.999914 0.830009 0.651069
Si Si3 0.507750 0.331793 0.059282
Si Si4 0.836293 0.330156 0.325720
Si Si5 0.638130 0.170145 0.570105
Si Si6 0.780594 0.828252 0.144562
Si Si7 0.096582 0.169301 0.417363
O O1 0.401871 0.757728 0.749044
O O2 0.226609 0.793988 0.915576
O O3 0.306347 0.000000 0.889070
O O4 0.250000 0.750000 0.000000
O O5 0.044812 0.759332 0.655790
O O6 0.081460 0.815633 0.504054
O O7 0.971665 0.000000 0.696675
O O8 0.489852 0.500000 0.102085
O O9 0.425780 0.222845 0.180681
O O10 0.500000 0.322961 0.000000
O O11 0.613595 0.272743 0.956989
O O12 0.811514 0.500000 0.341388
O O13 0.739931 0.234683 0.424119
O O14 0.867447 0.307382 0.354977
O O15 0.630611 0.000000 0.560342
O O16 0.695821 0.751220 0.282150
O O17 0.767349 0.000000 0.172606
O O18 0.000000 0.238355 0.500000
O O19 0.108119 0.000000 0.383894
#
# Coordination Sequence:
#
# PCOD8109027 Si02
#       7
#     8   8   8   8   8   8   8
#     4  11  24  41  61  90 125 164 208 252 303 365
#     4  11  23  39  62  92 123 159 201 250 303 361
#     4  10  23  42  62  88 122 162 204 250 306 364
#     4  10  22  41  63  90 120 157 203 250 303 361
#     4  10  22  40  63  91 122 159 199 249 305 360
#     4  10  23  41  62  89 120 161 206 251 304 361
#     4  10  21  39  61  87 120 157 197 244 300 355
#
# _framework density 19.916466
#
# number of rings (size 3 to 8) (size 9 to 14) (size 15 to 20)
#    0.000    1.714    1.429    1.714    4.000    4.571 
#    0.000    0.000    0.000    0.000    0.000    0.000 
#    0.000    0.000    0.000    0.000    0.000    0.000 
#
# Total GULP energy -347335.654092 kJ/mol
# GULP energy per Si atom -12404.844789 kJ/mol
# Density = 1.987113 g / cm^3
# Si number density = 19.916466 Si / 1000 Ang^3
#
#
#
# Elastic Constant Matrix: (Units=GPa)
#
#
# Indices 1 2 3 4 5 6 
#
# 1 103.6190 43.2825 26.1490 -0.0059 -12.7477 0.0086
# 2 43.2825 93.8160 35.6262 -0.0210 5.0929 0.0232
# 3 26.1490 35.6262 90.2485 -0.0164 3.7051 0.0182
# 4 -0.0059 -0.0210 -0.0164 40.5231 0.0124 0.1660
# 5 -12.7477 5.0929 3.7051 0.0124 24.3570 -0.0095
# 6 0.0086 0.0232 0.0182 0.1660 -0.0095 21.9781
#
#
#
# Elastic Compliance Matrix: (Units=1/GPa)
#
#
# Indices 1 2 3 4 5 6 
#
# 1 0.013764 -0.006087 -0.001945 -0.000005 0.008772 0.000006
# 2 -0.006087 0.015317 -0.004046 0.000007 -0.005773 -0.000013
# 3 -0.001945 -0.004046 0.013331 0.000004 -0.002200 -0.000007
# 4 -0.000005 0.000007 0.000004 0.024678 -0.000017 -0.000186
# 5 0.008772 -0.005773 -0.002200 -0.000017 0.047189 0.000025
# 6 0.000006 -0.000013 -0.000007 -0.000186 0.000025 0.045501
#
#
# Mechanical properties :
#
#
# Convention : Reuss Voigt Hill
#
# Bulk Modulus (GPa) = 54.77671 55.31096 55.04384
# Shear Modulus (GPa) = 26.31267 29.54670 27.92969
#
# Velocity S-wave (km/s) = 3.63871 3.85584 3.74885
# Velocity P-wave (km/s) = 6.72432 6.90327 6.81438
#
# Compressibility (1/GPa) = 0.01825593
#
# Stress axis : x y z
#
# Youngs Moduli (GPa) = 72.65565 65.28501 75.01036
#
# Poissons Ratio (x) = 0.39742 0.14589
# Poissons Ratio (y) = 0.44229 0.30348
# Poissons Ratio (z) = 0.14131 0.26413
#
# Static dielectric constant tensor:
#      x y z
#    x 3.813620 -0.000010 -0.097300 
#    y -0.000010 3.698170 0.000040 
#    z -0.097300 0.000040 3.503480 
# 
# 
# High freq. dielectric constant tensor:
#      x y z
#    x 1.787420 0.000000 -0.001430 
#    y 0.000000 1.780940 0.000000 
#    z -0.001430 0.000000 1.776500 
# 
# From -- ./inp_files/329541.got.cif
#   From: 2010.06.25/outbox.cif.g09.slc.cpg/sg12_165_cif.got.tgz:329541.got - 2010.06.28 00:19:55.
