data_PCOD8109752
_publ_section_title
;
Structure prediction by ZEFSAII (Michael W. Deem and Ramdas Pophale) SiO2 
 PCOD8109752
Probable space group: C 2/M
;
_chemical_formula_sum "Si O2"
_cell_formula_units_Z 56
_cell_length_a 27.984398
_cell_length_b 8.857069
_cell_length_c 11.601717
_cell_angle_alpha 90.000000
_cell_angle_beta 72.775635
_cell_angle_gamma 90.000000
_cell_volume 2746.635272
_symmetry_space_group_name_H-M "C 2/M"
_symmetry_group_IT_number 12
_symmetry_cell_setting 'monoclinic'
loop_
_space_group_symop_operation_xyz
x,y,z
-x,y,-z
-x,-y,-z
x,-y,z
1/2+x,1/2+y,z
1/2-x,1/2+y,-z
1/2-x,1/2-y,-z
1/2+x,1/2-y,z
loop_
_atom_site_type_symbol
_atom_site_label
_atom_site_fract_x
_atom_site_fract_y
_atom_site_fract_z
Si Si1 0.712861 0.823050 0.616955
Si Si2 0.556384 0.826968 0.476019
Si Si3 0.490018 0.324871 0.137917
Si Si4 0.675735 0.328343 0.085999
Si Si5 0.754647 0.171678 0.178386
Si Si6 0.422334 0.172285 0.798146
Si Si7 0.106876 0.825131 0.653372
O O1 0.750000 0.750000 0.500000
O O2 0.732917 0.783924 0.728268
O O3 0.656460 0.767467 0.643316
O O4 0.713572 0.000000 0.597291
O O5 0.500000 0.768379 0.500000
O O6 0.584259 0.811840 0.334270
O O7 0.584359 0.722401 0.546913
O O8 0.556350 0.000000 0.520279
O O9 0.504194 0.500000 0.142294
O O10 0.523353 0.227745 0.201132
O O11 0.432517 0.295389 0.215007
O O12 0.500000 0.271208 0.000000
O O13 0.677979 0.500000 0.128866
O O14 0.702390 0.220605 0.159317
O O15 0.618988 0.274955 0.110397
O O16 0.700813 0.313209 0.944135
O O17 0.749355 0.000000 0.226853
O O18 0.415513 0.000000 0.842106
O O19 0.121363 0.000000 0.636382
#
# Coordination Sequence:
#
# PCOD8109752 Si02
#       7
#     8   8   8   8   8   8   8
#     4  12  27  46  68  93 127 167 213 264 319 380
#     4  10  21  40  62  87 124 163 204 254 308 363
#     4  10  23  42  63  91 129 170 211 258 316 380
#     4  10  22  40  65  94 127 165 206 259 317 375
#     4  10  22  43  67  92 125 163 209 261 318 377
#     4  11  23  38  62  93 125 163 210 261 312 372
#     4  11  24  42  66  94 126 166 213 262 316 378
#
# _framework density 20.388583000000001
#
# number of rings (size 3 to 8) (size 9 to 14) (size 15 to 20)
#    0.000    1.429    1.429    3.000    4.000    4.000 
#    0.000    0.000    0.000    0.000    0.000    0.000 
#    0.000    0.000    0.000    0.000    0.000    0.000 
#
# Total GULP energy -347371.336522 kJ/mol
# GULP energy per Si atom -12406.119161 kJ/mol
# Density = 2.034218 g / cm^3
# Si number density = 20.388583 Si / 1000 Ang^3
#
#
#
# Elastic Constant Matrix: (Units=GPa)
#
#
# Indices 1 2 3 4 5 6 
#
# 1 89.5059 46.9150 50.2829 0.0000 -14.0973 0.0000
# 2 46.9150 124.1168 58.0824 0.0000 -8.4470 0.0000
# 3 50.2829 58.0824 92.8204 0.0000 1.3048 0.0000
# 4 0.0000 0.0000 0.0000 38.8584 0.0000 -2.7049
# 5 -14.0973 -8.4470 1.3048 0.0000 33.1734 0.0000
# 6 0.0000 0.0000 0.0000 -2.7049 0.0000 41.8384
#
#
#
# Elastic Compliance Matrix: (Units=1/GPa)
#
#
# Indices 1 2 3 4 5 6 
#
# 1 0.018466 -0.002453 -0.008575 0.000000 0.007560 0.000000
# 2 -0.002453 0.012065 -0.006253 0.000000 0.002276 0.000000
# 3 -0.008575 -0.006253 0.019416 0.000000 -0.006000 0.000000
# 4 0.000000 0.000000 0.000000 0.025851 0.000000 0.001671
# 5 0.007560 0.002276 -0.006000 0.000000 0.034173 0.000000
# 6 0.000000 0.000000 0.000000 0.001671 0.000000 0.024010
#
#
# Mechanical properties :
#
#
# Convention : Reuss Voigt Hill
#
# Bulk Modulus (GPa) = 64.99563 68.55597 66.77580
# Shear Modulus (GPa) = 28.79019 32.85157 30.82088
#
# Velocity S-wave (km/s) = 3.76183 4.01842 3.89224
# Velocity P-wave (km/s) = 7.12855 7.43155 7.28163
#
# Compressibility (1/GPa) = 0.01538565
#
# Stress axis : x y z
#
# Youngs Moduli (GPa) = 54.15353 82.88348 51.50399
#
# Poissons Ratio (x) = 0.20329 0.44165
# Poissons Ratio (y) = 0.13282 0.32206
# Poissons Ratio (z) = 0.46437 0.51828
#
# Static dielectric constant tensor:
#      x y z
#    x 3.798780 0.000000 -0.106910 
#    y 0.000000 3.768670 0.000000 
#    z -0.106910 0.000000 3.767740 
# 
# 
# High freq. dielectric constant tensor:
#      x y z
#    x 1.801150 0.000000 -0.006750 
#    y 0.000000 1.804550 0.000000 
#    z -0.006750 0.000000 1.802920 
# 
# From -- ./inp_files/180859.got.cif
#   From: 2010.06.25/outbox.cif.g09.slc.cpg/sg12_91_cif.got.tgz:180859.got - 2010.06.28 00:19:55.
