data_PCOD8109934
_publ_section_title
;
Structure prediction by ZEFSAII (Michael W. Deem and Ramdas Pophale) SiO2 
 PCOD8109934
Probable space group: C 2/M
;
_chemical_formula_sum "Si O2"
_cell_formula_units_Z 40
_cell_length_a 19.524558
_cell_length_b 15.363891
_cell_length_c 7.580083
_cell_angle_alpha 90.000000
_cell_angle_beta 52.540692
_cell_angle_gamma 90.000000
_cell_volume 1804.926596
_symmetry_space_group_name_H-M "C 2/M"
_symmetry_group_IT_number 12
_symmetry_cell_setting 'monoclinic'
loop_
_space_group_symop_operation_xyz
x,y,z
-x,y,-z
-x,-y,-z
x,-y,z
1/2+x,1/2+y,z
1/2-x,1/2+y,-z
1/2-x,1/2-y,-z
1/2+x,1/2-y,z
loop_
_atom_site_type_symbol
_atom_site_label
_atom_site_fract_x
_atom_site_fract_y
_atom_site_fract_z
Si Si1 0.512941 0.718982 0.780535
Si Si2 0.718227 0.138418 0.889586
Si Si3 0.671560 0.332373 0.964134
Si Si4 0.340752 0.403700 0.404946
Si Si5 0.522461 0.095181 0.262170
O O1 0.597389 0.665672 0.589612
O O2 0.527248 0.823686 0.750289
O O3 0.500000 0.690029 0.000000
O O4 0.426706 0.687582 0.813920
O O5 0.719335 0.241454 0.858134
O O6 0.752395 0.095979 0.655075
O O7 0.779755 0.113624 0.959446
O O8 0.624250 0.101024 0.074046
O O9 0.677428 0.383164 0.770914
O O10 0.382300 0.500000 0.347397
O O11 0.500000 0.103035 0.500000
O O12 0.491217 0.000000 0.238866
#
# Coordination Sequence:
#
# PCOD8109934 Si02
#       5
#     8   8   8   8   8
#     4   9  21  39  60  88 123 159 200 245 303 365
#     4  10  21  40  65  90 119 161 206 253 307 362
#     4   9  21  39  62  89 122 166 199 251 306 357
#     4  11  23  38  62  93 128 163 204 251 297 365
#     4  10  22  40  62  87 118 155 201 256 310 365
#
# _framework density 22.161565
#
# number of rings (size 3 to 8) (size 9 to 14) (size 15 to 20)
#    0.000    2.200    0.000    1.200    8.400    5.600 
#    0.000    1.000    0.000    0.000    0.000    0.000 
#    0.000    0.000    0.000    0.000    0.000    0.000 
#
# Total GULP energy -247893.329450 kJ/mol
# GULP energy per Si atom -12394.666472 kJ/mol
# Density = 2.211112 g / cm^3
# Si number density = 22.161565 Si / 1000 Ang^3
#
#
#
# Elastic Constant Matrix: (Units=GPa)
#
#
# Indices 1 2 3 4 5 6 
#
# 1 70.6166 43.7348 21.2760 0.0000 -4.9373 0.0000
# 2 43.7348 141.0733 40.3320 0.0000 -8.9155 0.0000
# 3 21.2760 40.3320 111.4949 0.0000 -8.6396 0.0000
# 4 0.0000 0.0000 0.0000 79.5231 0.0000 20.9277
# 5 -4.9373 -8.9155 -8.6396 0.0000 25.1970 0.0000
# 6 0.0000 0.0000 0.0000 20.9277 0.0000 33.7829
#
#
#
# Elastic Compliance Matrix: (Units=1/GPa)
#
#
# Indices 1 2 3 4 5 6 
#
# 1 0.017801 -0.005017 -0.001489 0.000000 0.001202 0.000000
# 2 -0.005017 0.009406 -0.002325 0.000000 0.001548 0.000000
# 3 -0.001489 -0.002325 0.010281 0.000000 0.002411 0.000000
# 4 0.000000 0.000000 0.000000 0.015024 0.000000 -0.009307
# 5 0.001202 0.001548 0.002411 0.000000 0.041297 0.000000
# 6 0.000000 0.000000 0.000000 -0.009307 0.000000 0.035366
#
#
# Mechanical properties :
#
#
# Convention : Reuss Voigt Hill
#
# Bulk Modulus (GPa) = 50.43862 59.31895 54.87879
# Shear Modulus (GPa) = 32.58456 42.22340 37.40398
#
# Velocity S-wave (km/s) = 3.83863 4.36966 4.11272
# Velocity P-wave (km/s) = 6.51581 7.23071 6.88255
#
# Compressibility (1/GPa) = 0.01982608
#
# Stress axis : x y z
#
# Youngs Moduli (GPa) = 56.17759 106.31006 97.26574
#
# Poissons Ratio (x) = 0.53334 0.14481
# Poissons Ratio (y) = 0.28183 0.22618
# Poissons Ratio (z) = 0.08364 0.24721
#
# Static dielectric constant tensor:
#      x y z
#    x 4.004310 0.000000 -0.147970 
#    y 0.000000 4.136870 0.000000 
#    z -0.147970 0.000000 3.962590 
# 
# 
# High freq. dielectric constant tensor:
#      x y z
#    x 1.852950 0.000000 -0.000940 
#    y 0.000000 1.874900 0.000000 
#    z -0.000940 0.000000 1.877580 
# 
# From -- ./inp_files/85509.got.cif
#   From: 2010.06.25/outbox.cif.g09.slc.cpg/sg12_43_cif.got.tgz:85509.got - 2010.06.28 00:19:55.
