data_PCOD8109449
_publ_section_title
;
Structure prediction by ZEFSAII (Michael W. Deem and Ramdas Pophale) SiO2 
 PCOD8109449
Probable space group: C 2/M
;
_chemical_formula_sum "Si O2"
_cell_formula_units_Z 40
_cell_length_a 11.783046
_cell_length_b 20.109694
_cell_length_c 8.546219
_cell_angle_alpha 90.000000
_cell_angle_beta 64.271199
_cell_angle_gamma 90.000000
_cell_volume 1824.289824
_symmetry_space_group_name_H-M "C 2/M"
_symmetry_group_IT_number 12
_symmetry_cell_setting 'monoclinic'
loop_
_space_group_symop_operation_xyz
x,y,z
-x,y,-z
-x,-y,-z
x,-y,z
1/2+x,1/2+y,z
1/2-x,1/2+y,-z
1/2-x,1/2-y,-z
1/2+x,1/2-y,z
loop_
_atom_site_type_symbol
_atom_site_label
_atom_site_fract_x
_atom_site_fract_y
_atom_site_fract_z
Si Si1 0.368107 0.313939 0.779827
Si Si2 0.529464 0.074605 0.663479
Si Si3 0.314465 0.574296 0.563460
Si Si4 0.079256 0.886141 0.812142
Si Si5 0.183031 0.669995 0.161210
O O1 0.371779 0.368442 0.639365
O O2 0.491308 0.323954 0.814407
O O3 0.368229 0.237329 0.723151
O O4 0.240785 0.319876 0.955593
O O5 0.500000 0.081684 0.500000
O O6 0.672161 0.095506 0.612073
O O7 0.434103 0.122722 0.809191
O O8 0.503964 0.000000 0.737863
O O9 0.321783 0.500000 0.635480
O O10 0.395705 0.568428 0.354557
O O11 0.215995 0.862945 0.784831
O O12 0.000000 0.923253 0.000000
#
# Coordination Sequence:
#
# PCOD8109449 Si02
#       5
#     8   8   8   8   8
#     4  10  24  40  62  95 127 165 208 259 315 370
#     4  10  21  39  64  92 124 164 209 256 308 371
#     4  11  24  42  63  93 129 165 211 262 313 371
#     4  10  22  41  62  89 124 168 211 254 318 377
#     4  10  22  42  64  90 128 166 210 256 308 381
#
# _framework density 21.926342000000002
#
# number of rings (size 3 to 8) (size 9 to 14) (size 15 to 20)
#    0.000    1.800    2.000    0.600    2.800    6.000 
#    0.000    6.000    0.000    0.000    0.000    0.000 
#    0.000    0.000    0.000    0.000    0.000    0.000 
#
# Total GULP energy -247867.491022 kJ/mol
# GULP energy per Si atom -12393.374551 kJ/mol
# Density = 2.187644 g / cm^3
# Si number density = 21.926342 Si / 1000 Ang^3
#
#
#
# Elastic Constant Matrix: (Units=GPa)
#
#
# Indices 1 2 3 4 5 6 
#
# 1 106.7806 27.5903 23.8781 0.0000 -17.3453 0.0000
# 2 27.5903 100.3314 40.2797 0.0000 -9.1548 0.0000
# 3 23.8781 40.2797 96.6020 0.0000 -6.3162 0.0000
# 4 0.0000 0.0000 0.0000 25.0983 0.0000 -3.1449
# 5 -17.3453 -9.1548 -6.3162 0.0000 33.8432 0.0000
# 6 0.0000 0.0000 0.0000 -3.1449 0.0000 11.8593
#
#
#
# Elastic Compliance Matrix: (Units=1/GPa)
#
#
# Indices 1 2 3 4 5 6 
#
# 1 0.011007 -0.001947 -0.001594 0.000000 0.004817 0.000000
# 2 -0.001947 0.012501 -0.004632 0.000000 0.001519 0.000000
# 3 -0.001594 -0.004632 0.012697 0.000000 0.000300 0.000000
# 4 0.000000 0.000000 0.000000 0.041213 0.000000 0.010929
# 5 0.004817 0.001519 0.000300 0.000000 0.032484 0.000000
# 6 0.000000 0.000000 0.000000 0.010929 0.000000 0.087220
#
#
# Mechanical properties :
#
#
# Convention : Reuss Voigt Hill
#
# Bulk Modulus (GPa) = 50.35629 54.13446 52.24537
# Shear Modulus (GPa) = 22.71837 28.29121 25.50479
#
# Velocity S-wave (km/s) = 3.22238 3.59595 3.41428
# Velocity P-wave (km/s) = 6.07132 6.47950 6.27873
#
# Compressibility (1/GPa) = 0.01985849
#
# Stress axis : x y z
#
# Youngs Moduli (GPa) = 90.85072 79.99658 78.76177
#
# Poissons Ratio (x) = 0.15579 0.12553
# Poissons Ratio (y) = 0.17693 0.36479
# Poissons Ratio (z) = 0.14479 0.37051
#
# Static dielectric constant tensor:
#      x y z
#    x 4.080960 0.000000 -0.188610 
#    y 0.000000 3.889270 0.000000 
#    z -0.188610 0.000000 3.937500 
# 
# 
# High freq. dielectric constant tensor:
#      x y z
#    x 1.876520 0.000000 -0.013790 
#    y 0.000000 1.849190 0.000000 
#    z -0.013790 0.000000 1.854850 
# 
# From -- ./inp_files/48503.got.cif
#   From: 2010.06.25/outbox.cif.g09.slc.cpg/sg12_25_cif.got.tgz:48503.got - 2010.06.28 00:19:55.
