data_PCOD8109863
_publ_section_title
;
Structure prediction by ZEFSAII (Michael W. Deem and Ramdas Pophale) SiO2 
 PCOD8109863
Probable space group: C 2/M
;
_chemical_formula_sum "Si O2"
_cell_formula_units_Z 48
_cell_length_a 18.780088
_cell_length_b 8.926734
_cell_length_c 29.843033
_cell_angle_alpha 90.000000
_cell_angle_beta 29.235220
_cell_angle_gamma 90.000000
_cell_volume 2443.461010
_symmetry_space_group_name_H-M "C 2/M"
_symmetry_group_IT_number 12
_symmetry_cell_setting 'monoclinic'
loop_
_space_group_symop_operation_xyz
x,y,z
-x,y,-z
-x,-y,-z
x,-y,z
1/2+x,1/2+y,z
1/2-x,1/2+y,-z
1/2-x,1/2-y,-z
1/2+x,1/2-y,z
loop_
_atom_site_type_symbol
_atom_site_label
_atom_site_fract_x
_atom_site_fract_y
_atom_site_fract_z
Si Si1 0.168341 0.677081 0.913256
Si Si2 0.657417 0.834212 0.434039
Si Si3 0.306015 0.826771 0.924636
Si Si4 0.647487 0.172546 0.743897
Si Si5 0.305618 0.677098 0.745989
Si Si6 0.378657 0.675796 0.455908
O O1 0.187499 0.500000 0.908438
O O2 0.233388 0.754388 0.921136
O O3 0.252567 0.739735 0.823080
O O4 0.000000 0.720527 0.000000
O O5 0.500000 0.847402 0.500000
O O6 0.771750 0.778541 0.335015
O O7 0.648929 0.713139 0.477588
O O8 0.706771 0.000000 0.423881
O O9 0.478222 0.804056 0.828344
O O10 0.262800 0.000000 0.949862
O O11 0.250000 0.750000 0.000000
O O12 0.691133 0.224326 0.770186
O O13 0.694862 0.000000 0.710492
O O14 0.312021 0.500000 0.745526
O O15 0.466026 0.741368 0.646254
O O16 0.373826 0.500000 0.451592
O O17 0.250000 0.750000 0.500000
#
# Coordination Sequence:
#
# PCOD8109863 Si02
#       6
#     8   8   8   8   8   8
#     4  10  21  40  65  90 122 161 198 244 300 364
#     4  11  23  39  60  90 124 161 206 253 303 356
#     4  11  24  41  64  94 124 157 198 250 304 361
#     4  10  21  40  64  89 119 160 208 250 299 363
#     4   9  19  37  61  86 115 158 202 242 299 358
#     4  11  23  39  60  86 122 164 206 252 300 358
#
# _framework density 19.644268
#
# number of rings (size 3 to 8) (size 9 to 14) (size 15 to 20)
#    0.000    1.667    1.667    2.500    2.333    5.000 
#    0.000    1.667    0.000    0.000    0.000    0.000 
#    0.000    0.000    0.000    0.000    0.000    0.000 
#
# Total GULP energy -297625.911580 kJ/mol
# GULP energy per Si atom -12401.079649 kJ/mol
# Density = 1.959956 g / cm^3
# Si number density = 19.644268 Si / 1000 Ang^3
#
#
#
# Elastic Constant Matrix: (Units=GPa)
#
#
# Indices 1 2 3 4 5 6 
#
# 1 167.0889 50.7534 79.6360 0.0038 3.4035 -0.0027
# 2 50.7534 73.7206 51.9078 0.0049 -3.2169 -0.0015
# 3 79.6360 51.9078 120.8716 -0.0019 11.4807 -0.0044
# 4 0.0038 0.0049 -0.0019 27.6062 0.0001 -0.9233
# 5 3.4035 -3.2169 11.4807 0.0001 41.1332 -0.0007
# 6 -0.0027 -0.0015 -0.0044 -0.9233 -0.0007 41.8738
#
#
#
# Elastic Compliance Matrix: (Units=1/GPa)
#
#
# Indices 1 2 3 4 5 6 
#
# 1 0.009155 -0.002889 -0.004825 -0.000001 0.000363 0.000000
# 2 -0.002889 0.021004 -0.007494 -0.000004 0.003973 0.000000
# 3 -0.004825 -0.007494 0.015088 0.000003 -0.004398 0.000001
# 4 -0.000001 -0.000004 0.000003 0.036251 -0.000001 0.000799
# 5 0.000363 0.003973 -0.004398 -0.000001 0.025820 0.000000
# 6 0.000000 0.000000 0.000001 0.000799 0.000000 0.023899
#
#
# Mechanical properties :
#
#
# Convention : Reuss Voigt Hill
#
# Bulk Modulus (GPa) = 67.43043 80.69726 74.06385
# Shear Modulus (GPa) = 30.01632 34.08156 32.04894
#
# Velocity S-wave (km/s) = 3.91320 4.16978 4.04352
# Velocity P-wave (km/s) = 7.40390 8.02192 7.71910
#
# Compressibility (1/GPa) = 0.01483010
#
# Stress axis : x y z
#
# Youngs Moduli (GPa) = 109.23138 47.61072 66.27624
#
# Poissons Ratio (x) = 0.13756 0.31981
# Poissons Ratio (y) = 0.31559 0.49666
# Poissons Ratio (z) = 0.52709 0.35678
#
# Static dielectric constant tensor:
#      x y z
#    x 3.531830 0.001390 -0.001190 
#    y 0.001390 6.759000 -0.000530 
#    z -0.001190 -0.000530 3.860100 
# 
# 
# High freq. dielectric constant tensor:
#      x y z
#    x 1.779530 0.000000 0.000380 
#    y 0.000000 1.751900 0.000000 
#    z 0.000380 0.000000 1.779800 
# 
# From -- ./inp_files/295909.got.cif
#   From: 2010.06.25/outbox.cif.g09.slc.cpg/sg12_148_cif.got.tgz:295909.got - 2010.06.28 00:19:55.
