data_PCOD8109885
_publ_section_title
;
Structure prediction by ZEFSAII (Michael W. Deem and Ramdas Pophale) SiO2 
 PCOD8109885
Probable space group: C 2/M
;
_chemical_formula_sum "Si O2"
_cell_formula_units_Z 64
_cell_length_a 29.994804
_cell_length_b 8.606212
_cell_length_c 18.993593
_cell_angle_alpha 90.000000
_cell_angle_beta 139.735410
_cell_angle_gamma 90.000000
_cell_volume 3168.922778
_symmetry_space_group_name_H-M "C 2/M"
_symmetry_group_IT_number 12
_symmetry_cell_setting 'monoclinic'
loop_
_space_group_symop_operation_xyz
x,y,z
-x,y,-z
-x,-y,-z
x,-y,z
1/2+x,1/2+y,z
1/2-x,1/2+y,-z
1/2-x,1/2-y,-z
1/2+x,1/2-y,z
loop_
_atom_site_type_symbol
_atom_site_label
_atom_site_fract_x
_atom_site_fract_y
_atom_site_fract_z
Si Si1 0.595687 0.820332 0.677351
Si Si2 0.210962 0.818997 0.302493
Si Si3 0.345574 0.321467 0.521828
Si Si4 0.729867 0.318463 0.901193
Si Si5 0.818659 0.685138 0.877566
Si Si6 0.559988 0.819687 0.477483
Si Si7 0.394105 0.820554 0.721391
Si Si8 0.528297 0.181262 0.961680
O O1 0.651578 0.720477 0.786187
O O2 0.593608 0.774053 0.592710
O O3 0.521343 0.786149 0.621457
O O4 0.615033 0.000000 0.708995
O O5 0.280754 0.788456 0.429334
O O6 0.222327 0.762701 0.236419
O O7 0.148658 0.719796 0.260129
O O8 0.193085 0.000000 0.284326
O O9 0.322939 0.500000 0.487920
O O10 0.407233 0.286793 0.542605
O O11 0.371227 0.290823 0.631348
O O12 0.737929 0.500000 0.917203
O O13 0.782347 0.254552 0.904995
O O14 0.750000 0.250000 0.000000
O O15 0.813624 0.500000 0.865083
O O16 0.897412 0.748622 0.971581
O O17 0.574492 0.000000 0.478490
O O18 0.474526 0.788214 0.833950
O O19 0.381937 0.000000 0.686443
O O20 0.538008 0.000000 0.987697
O O21 0.500000 0.259045 0.000000
#
# Coordination Sequence:
#
# PCOD8109885 Si02
#       8
#     8   8   8   8   8   8   8   8
#     4   9  19  38  64  88 117 153 197 245 294 358
#     4  12  24  39  60  87 119 156 197 245 299 356
#     4  12  25  39  56  85 123 158 196 244 296 356
#     4  11  24  39  59  87 123 160 201 251 302 358
#     4  10  21  40  64  91 117 154 203 246 295 356
#     4   9  19  38  63  90 116 152 195 241 297 358
#     4  11  22  39  62  86 117 158 200 246 295 353
#     4   9  17  35  64  89 112 148 195 243 290 348
#
# _framework density 20.196137
#
# number of rings (size 3 to 8) (size 9 to 14) (size 15 to 20)
#    0.000    1.625    1.250    4.875    0.000    5.000 
#    0.000    5.625    0.000    0.000    0.000    0.000 
#    0.000    0.000    0.000    0.000    0.000    0.000 
#
# Total GULP energy -396927.468690 kJ/mol
# GULP energy per Si atom -12403.983397 kJ/mol
# Density = 2.015017 g / cm^3
# Si number density = 20.196137 Si / 1000 Ang^3
#
#
#
# Elastic Constant Matrix: (Units=GPa)
#
#
# Indices 1 2 3 4 5 6 
#
# 1 66.6879 25.1288 34.8542 0.0000 -6.4696 0.0000
# 2 25.1288 53.7114 28.4330 0.0000 -2.8775 0.0000
# 3 34.8542 28.4330 115.3233 0.0000 -2.4687 0.0000
# 4 0.0000 0.0000 0.0000 33.0203 0.0000 -2.7054
# 5 -6.4696 -2.8775 -2.4687 0.0000 33.0906 0.0000
# 6 0.0000 0.0000 0.0000 -2.7054 0.0000 28.1037
#
#
#
# Elastic Compliance Matrix: (Units=1/GPa)
#
#
# Indices 1 2 3 4 5 6 
#
# 1 0.020176 -0.006997 -0.004308 0.000000 0.003015 0.000000
# 2 -0.006997 0.023911 -0.003771 0.000000 0.000430 0.000000
# 3 -0.004308 -0.003771 0.010895 0.000000 -0.000357 0.000000
# 4 0.000000 0.000000 0.000000 0.030525 0.000000 0.002939
# 5 0.003015 0.000430 -0.000357 0.000000 0.030820 0.000000
# 6 0.000000 0.000000 0.000000 0.002939 0.000000 0.035865
#
#
# Mechanical properties :
#
#
# Convention : Reuss Voigt Hill
#
# Bulk Modulus (GPa) = 40.27502 45.83938 43.05720
# Shear Modulus (GPa) = 26.22980 28.66336 27.44658
#
# Velocity S-wave (km/s) = 3.60773 3.77138 3.69046
# Velocity P-wave (km/s) = 6.11061 6.45839 6.28690
#
# Compressibility (1/GPa) = 0.02482929
#
# Stress axis : x y z
#
# Youngs Moduli (GPa) = 49.56399 41.82165 91.78132
#
# Poissons Ratio (x) = 0.29264 0.39540
# Poissons Ratio (y) = 0.34681 0.34613
# Poissons Ratio (z) = 0.21353 0.15772
#
# Static dielectric constant tensor:
#      x y z
#    x 3.846260 0.000000 0.064100 
#    y 0.000000 3.414130 0.000000 
#    z 0.064100 0.000000 3.648550 
# 
# 
# High freq. dielectric constant tensor:
#      x y z
#    x 1.794590 0.000000 0.004790 
#    y 0.000000 1.771600 0.000000 
#    z 0.004790 0.000000 1.796300 
# 
# From -- ./inp_files/295788.got.cif
#   From: 2010.06.25/outbox.cif.g09.slc.cpg/sg12_148_cif.got.tgz:295788.got - 2010.06.28 00:19:55.
