data_PCOD8109040
_publ_section_title
;
Structure prediction by ZEFSAII (Michael W. Deem and Ramdas Pophale) SiO2 
 PCOD8109040
Probable space group: C 2/M
;
_chemical_formula_sum "Si O2"
_cell_formula_units_Z 56
_cell_length_a 8.522688
_cell_length_b 25.584377
_cell_length_c 12.890152
_cell_angle_alpha 90.000000
_cell_angle_beta 80.240984
_cell_angle_gamma 90.000000
_cell_volume 2769.995467
_symmetry_space_group_name_H-M "C 2/M"
_symmetry_group_IT_number 12
_symmetry_cell_setting 'monoclinic'
loop_
_space_group_symop_operation_xyz
x,y,z
-x,y,-z
-x,-y,-z
x,-y,z
1/2+x,1/2+y,z
1/2-x,1/2+y,-z
1/2-x,1/2-y,-z
1/2+x,1/2-y,z
loop_
_atom_site_type_symbol
_atom_site_label
_atom_site_fract_x
_atom_site_fract_y
_atom_site_fract_z
Si Si1 0.337281 0.441815 0.714060
Si Si2 0.895875 0.394113 0.102051
Si Si3 0.870110 0.136494 0.350223
Si Si4 0.853877 0.597606 0.449493
Si Si5 0.239121 0.211414 0.096905
Si Si6 0.956213 0.237924 0.240274
Si Si7 0.563940 0.846317 0.273628
O O1 0.410417 0.500000 0.714653
O O2 0.234936 0.431346 0.829920
O O3 0.477615 0.399666 0.688633
O O4 0.222881 0.441849 0.625441
O O5 0.813511 0.343941 0.057271
O O6 0.017967 0.374058 0.173448
O O7 0.000000 0.422827 0.000000
O O8 0.792748 0.121486 0.468929
O O9 0.911395 0.198615 0.339875
O O10 0.734966 0.127962 0.278515
O O11 0.000000 0.571051 0.500000
O O12 0.934154 0.644872 0.378254
O O13 0.313889 0.234423 0.194631
O O14 0.053882 0.203139 0.145549
O O15 0.250000 0.250000 0.000000
O O16 0.073672 0.283701 0.267282
#
# Coordination Sequence:
#
# PCOD8109040 Si02
#       7
#     8   8   8   8   8   8   8
#     4  11  24  43  65  88 115 151 200 259 308 352
#     4  10  21  39  61  88 122 157 199 247 292 367
#     4  11  21  38  58  87 123 157 199 256 291 350
#     4   9  21  40  63  89 119 155 196 241 302 361
#     4  11  20  34  55  91 119 164 203 239 292 351
#     4  11  20  33  55  85 126 161 200 239 291 358
#     4   9  20  38  57  87 127 163 197 234 296 364
#
# _framework density 20.216638
#
# number of rings (size 3 to 8) (size 9 to 14) (size 15 to 20)
#    0.000    1.714    2.857    2.571    0.000    2.286 
#    0.000    9.286    0.000    0.857    0.000    0.000 
#    0.000    0.000    0.000    0.000    0.000    0.000 
#
# Total GULP energy -346914.025717 kJ/mol
# GULP energy per Si atom -12389.786633 kJ/mol
# Density = 2.017062 g / cm^3
# Si number density = 20.216638 Si / 1000 Ang^3
#
#
#
# Elastic Constant Matrix: (Units=GPa)
#
#
# Indices 1 2 3 4 5 6 
#
# 1 66.5942 23.1449 28.7505 0.0000 -12.5791 0.0000
# 2 23.1449 76.0765 22.8654 0.0000 6.4462 0.0000
# 3 28.7505 22.8654 102.9256 0.0000 -18.0264 0.0000
# 4 0.0000 0.0000 0.0000 12.7307 0.0000 0.0685
# 5 -12.5791 6.4462 -18.0264 0.0000 33.4446 0.0000
# 6 0.0000 0.0000 0.0000 0.0685 0.0000 18.1844
#
#
#
# Elastic Compliance Matrix: (Units=1/GPa)
#
#
# Indices 1 2 3 4 5 6 
#
# 1 0.019561 -0.005620 -0.003023 0.000000 0.006811 0.000000
# 2 -0.005620 0.016453 -0.003325 0.000000 -0.007077 0.000000
# 3 -0.003023 -0.003325 0.012381 0.000000 0.006177 0.000000
# 4 0.000000 0.000000 0.000000 0.078552 0.000000 -0.000296
# 5 0.006811 -0.007077 0.006177 0.000000 0.037155 0.000000
# 6 0.000000 0.000000 0.000000 -0.000296 0.000000 0.054993
#
#
# Mechanical properties :
#
#
# Convention : Reuss Voigt Hill
#
# Bulk Modulus (GPa) = 40.88248 43.90199 42.39224
# Shear Modulus (GPa) = 19.90579 24.26098 22.08339
#
# Velocity S-wave (km/s) = 3.14128 3.46793 3.30864
# Velocity P-wave (km/s) = 5.78126 6.14803 5.96746
#
# Compressibility (1/GPa) = 0.02446036
#
# Stress axis : x y z
#
# Youngs Moduli (GPa) = 51.12213 60.77790 80.77181
#
# Poissons Ratio (x) = 0.34156 0.24415
# Poissons Ratio (y) = 0.28729 0.26856
# Poissons Ratio (z) = 0.15452 0.20208
#
# Static dielectric constant tensor:
#      x y z
#    x 3.995740 0.000000 -0.067700 
#    y 0.000000 3.379390 0.000000 
#    z -0.067700 0.000000 3.757530 
# 
# 
# High freq. dielectric constant tensor:
#      x y z
#    x 1.802760 0.000000 -0.012790 
#    y 0.000000 1.755530 0.000000 
#    z -0.012790 0.000000 1.790310 
# 
# From -- ./inp_files/124267.got.cif
#   From: 2010.06.25/outbox.cif.g09.slc.cpg/sg12_63_cif.got.tgz:124267.got - 2010.06.28 00:19:55.
