data_PCOD8109454
_publ_section_title
;
Structure prediction by ZEFSAII (Michael W. Deem and Ramdas Pophale) SiO2 
 PCOD8109454
Probable space group: C 2/M
;
_chemical_formula_sum "Si O2"
_cell_formula_units_Z 48
_cell_length_a 27.811813
_cell_length_b 8.635591
_cell_length_c 10.116993
_cell_angle_alpha 90.000000
_cell_angle_beta 90.014906
_cell_angle_gamma 90.000000
_cell_volume 2429.812716
_symmetry_space_group_name_H-M "C 2/M"
_symmetry_group_IT_number 12
_symmetry_cell_setting 'monoclinic'
loop_
_space_group_symop_operation_xyz
x,y,z
-x,y,-z
-x,-y,-z
x,-y,z
1/2+x,1/2+y,z
1/2-x,1/2+y,-z
1/2-x,1/2-y,-z
1/2+x,1/2-y,z
loop_
_atom_site_type_symbol
_atom_site_label
_atom_site_fract_x
_atom_site_fract_y
_atom_site_fract_z
Si Si1 0.372512 0.318675 0.720407
Si Si2 0.225258 0.682117 0.371896
Si Si3 0.222712 0.318731 0.876788
Si Si4 0.629115 0.679730 0.974135
Si Si5 0.521011 0.320666 0.356003
Si Si6 0.035121 0.322887 0.879508
O O1 0.362780 0.500000 0.711302
O O2 0.329968 0.234855 0.641914
O O3 0.422832 0.273195 0.651046
O O4 0.373508 0.265169 0.873445
O O5 0.225765 0.500000 0.382136
O O6 0.250000 0.750000 0.500000
O O7 0.257431 0.735465 0.250979
O O8 0.232564 0.500000 0.864736
O O9 0.166713 0.283769 0.894137
O O10 0.250000 0.250000 0.000000
O O11 0.643350 0.500000 0.965015
O O12 0.579197 0.707116 0.900231
O O13 0.500000 0.287241 0.500000
O O14 0.515235 0.500000 0.315624
O O15 0.491131 0.215610 0.256498
O O16 0.052977 0.500000 0.876120
O O17 0.000000 0.292369 0.000000
#
# Coordination Sequence:
#
# PCOD8109454 Si02
#       6
#     8   8   8   8   8   8
#     4  10  21  39  64  92 125 166 214 265 322 384
#     4  12  26  44  67  94 130 172 214 265 321 383
#     4  12  24  41  65  95 128 163 210 263 318 381
#     4  11  22  38  65  95 127 168 213 264 319 376
#     4  10  22  41  65  92 125 166 211 262 318 380
#     4  11  23  38  60  91 127 165 211 263 313 373
#
# _framework density 19.754608999999999
#
# number of rings (size 3 to 8) (size 9 to 14) (size 15 to 20)
#    0.000    1.000    3.333    4.000    0.000    3.667 
#    0.000    5.000    0.000    0.000    0.000    0.000 
#    0.000    0.000    0.000    0.000    0.000    0.000 
#
# Total GULP energy -297729.082431 kJ/mol
# GULP energy per Si atom -12405.378435 kJ/mol
# Density = 1.970965 g / cm^3
# Si number density = 19.754609 Si / 1000 Ang^3
#
#
#
# Elastic Constant Matrix: (Units=GPa)
#
#
# Indices 1 2 3 4 5 6 
#
# 1 146.9089 53.4988 72.8104 0.0000 3.0592 0.0000
# 2 53.4988 79.2346 39.9456 0.0000 10.2879 0.0000
# 3 72.8104 39.9456 136.1690 0.0000 3.6832 0.0000
# 4 0.0000 0.0000 0.0000 58.7696 0.0000 -15.5037
# 5 3.0592 10.2879 3.6832 0.0000 33.9989 0.0000
# 6 0.0000 0.0000 0.0000 -15.5037 0.0000 51.5831
#
#
#
# Elastic Compliance Matrix: (Units=1/GPa)
#
#
# Indices 1 2 3 4 5 6 
#
# 1 0.010829 -0.005304 -0.004264 0.000000 0.001092 0.000000
# 2 -0.005304 0.017979 -0.002311 0.000000 -0.004713 0.000000
# 3 -0.004264 -0.002311 0.010303 0.000000 -0.000033 0.000000
# 4 0.000000 0.000000 0.000000 0.018481 0.000000 0.005555
# 5 0.001092 -0.004713 -0.000033 0.000000 0.030744 0.000000
# 6 0.000000 0.000000 0.000000 0.005555 0.000000 0.021056
#
#
# Mechanical properties :
#
#
# Convention : Reuss Voigt Hill
#
# Bulk Modulus (GPa) = 65.13273 77.20245 71.16759
# Shear Modulus (GPa) = 36.16233 41.94083 39.05158
#
# Velocity S-wave (km/s) = 4.28317 4.61270 4.45098
# Velocity P-wave (km/s) = 7.58308 8.21796 7.90690
#
# Compressibility (1/GPa) = 0.01535326
#
# Stress axis : x y z
#
# Youngs Moduli (GPa) = 92.34513 55.62148 97.06376
#
# Poissons Ratio (x) = 0.29501 0.41388
# Poissons Ratio (y) = 0.48979 0.22428
# Poissons Ratio (z) = 0.39376 0.12852
#
# Static dielectric constant tensor:
#      x y z
#    x 3.823960 0.000000 -0.022220 
#    y 0.000000 3.676920 0.000000 
#    z -0.022220 0.000000 3.505850 
# 
# 
# High freq. dielectric constant tensor:
#      x y z
#    x 1.786650 0.000000 -0.001810 
#    y 0.000000 1.775650 0.000000 
#    z -0.001810 0.000000 1.769740 
# 
# From -- ./inp_files/108730.got.cif
#   From: 2010.06.25/outbox.cif.g09.slc.cpg/sg12_55_cif.got.tgz:108730.got - 2010.06.28 00:19:55.
