data_PCOD8109416
_publ_section_title
;
Structure prediction by ZEFSAII (Michael W. Deem and Ramdas Pophale) SiO2 
 PCOD8109416
Probable space group: C 2/M
;
_chemical_formula_sum "Si O2"
_cell_formula_units_Z 44
_cell_length_a 25.558704
_cell_length_b 17.377531
_cell_length_c 11.786104
_cell_angle_alpha 90.000000
_cell_angle_beta 156.361586
_cell_angle_gamma 90.000000
_cell_volume 2098.948646
_symmetry_space_group_name_H-M "C 2/M"
_symmetry_group_IT_number 12
_symmetry_cell_setting 'monoclinic'
loop_
_space_group_symop_operation_xyz
x,y,z
-x,y,-z
-x,-y,-z
x,-y,z
1/2+x,1/2+y,z
1/2-x,1/2+y,-z
1/2-x,1/2-y,-z
1/2+x,1/2-y,z
loop_
_atom_site_type_symbol
_atom_site_label
_atom_site_fract_x
_atom_site_fract_y
_atom_site_fract_z
Si Si1 0.278886 0.584007 0.568071
Si Si2 0.484705 0.335387 0.337703
Si Si3 0.500000 0.866971 0.000000
Si Si4 0.283942 0.591521 0.332584
Si Si5 0.249597 0.091899 0.243550
Si Si6 0.483468 0.173687 0.212235
O O1 0.343517 0.500000 0.701047
O O2 0.324978 0.623949 0.541285
O O3 0.306382 0.624335 0.744871
O O4 0.122482 0.576234 0.248383
O O5 0.500000 0.320050 0.500000
O O6 0.603267 0.387785 0.530577
O O7 0.483257 0.254651 0.272565
O O8 0.349533 0.380324 0.049480
O O9 0.493215 0.811970 0.096536
O O10 0.264869 0.500000 0.301259
O O11 0.149456 0.628681 0.021489
O O12 0.392149 0.124870 0.497829
O O13 0.259128 0.000000 0.266020
#
# Coordination Sequence:
#
# PCOD8109416 Si02
#       6
#     8   8   4   8   8   8
#     4   8  15  30  56  90 121 146 178 228 290 350
#     4  12  27  43  56  79 120 162 199 248 301 333
#     4   8  15  30  56  90 121 146 178 228 290 350
#     4  10  21  39  64  91 119 152 191 236 289 353
#     4  10  21  39  64  91 119 152 191 236 289 353
#     4  10  21  39  64  91 119 152 191 236 289 353
#
# _framework density 20.962876999999999
#
# number of rings (size 3 to 8) (size 9 to 14) (size 15 to 20)
#    0.000    2.182    0.000    2.455    0.000   10.909 
#    0.000    8.182    0.000    3.273    0.000    0.000 
#    0.000    0.000    0.000    0.000    0.000    0.000 
#
# Total GULP energy -272596.686851 kJ/mol
# GULP energy per Si atom -12390.758493 kJ/mol
# Density = 2.091516 g / cm^3
# Si number density = 20.962877 Si / 1000 Ang^3
#
#
#
# Elastic Constant Matrix: (Units=GPa)
#
#
# Indices 1 2 3 4 5 6 
#
# 1 32.4285 17.7178 16.3876 0.0000 -19.9893 0.0000
# 2 17.7178 79.8788 30.7124 0.0000 -5.1125 0.0000
# 3 16.3876 30.7124 110.1506 0.0000 -4.3862 0.0000
# 4 0.0000 0.0000 0.0000 29.6704 0.0000 5.9359
# 5 -19.9893 -5.1125 -4.3862 0.0000 22.4204 0.0000
# 6 0.0000 0.0000 0.0000 5.9359 0.0000 6.2125
#
#
#
# Elastic Compliance Matrix: (Units=1/GPa)
#
#
# Indices 1 2 3 4 5 6 
#
# 1 0.084519 -0.011688 -0.006471 0.000000 0.071423 0.000000
# 2 -0.011688 0.015773 -0.002954 0.000000 -0.007401 0.000000
# 3 -0.006471 -0.002954 0.010692 0.000000 -0.004352 0.000000
# 4 0.000000 0.000000 0.000000 0.041669 0.000000 -0.039814
# 5 0.071423 -0.007401 -0.004352 0.000000 0.105742 0.000000
# 6 0.000000 0.000000 0.000000 -0.039814 0.000000 0.199009
#
#
# Mechanical properties :
#
#
# Convention : Reuss Voigt Hill
#
# Bulk Modulus (GPa) = 14.54368 39.12149 26.83259
# Shear Modulus (GPa) = 9.56848 22.17000 15.86924
#
# Velocity S-wave (km/s) = 2.13878 3.25558 2.75438
# Velocity P-wave (km/s) = 3.61277 5.73014 4.78992
#
# Compressibility (1/GPa) = 0.06875840
#
# Stress axis : x y z
#
# Youngs Moduli (GPa) = 11.83163 63.39792 93.53146
#
# Poissons Ratio (x) = 0.74097 0.60528
# Poissons Ratio (y) = 0.13828 0.27628
# Poissons Ratio (z) = 0.07657 0.18727
#
# Static dielectric constant tensor:
#      x y z
#    x 3.902410 0.000000 -0.052930 
#    y 0.000000 3.462450 0.000000 
#    z -0.052930 0.000000 3.923120 
# 
# 
# High freq. dielectric constant tensor:
#      x y z
#    x 1.814360 0.000000 0.002360 
#    y 0.000000 1.802830 0.000000 
#    z 0.002360 0.000000 1.826070 
# 
# From -- ./inp_files/184753.got.cif
#   From: 2010.06.25/outbox.cif.g09.slc.cpg/sg12_93_cif.got.tgz:184753.got - 2010.06.28 00:19:55.
