data_PCOD8109500
_publ_section_title
;
Structure prediction by ZEFSAII (Michael W. Deem and Ramdas Pophale) SiO2 
 PCOD8109500
Probable space group: C 2/M
;
_chemical_formula_sum "Si O2"
_cell_formula_units_Z 64
_cell_length_a 30.649693
_cell_length_b 13.374972
_cell_length_c 12.881410
_cell_angle_alpha 90.000000
_cell_angle_beta 35.901147
_cell_angle_gamma 90.000000
_cell_volume 3096.477383
_symmetry_space_group_name_H-M "C 2/M"
_symmetry_group_IT_number 12
_symmetry_cell_setting 'monoclinic'
loop_
_space_group_symop_operation_xyz
x,y,z
-x,y,-z
-x,-y,-z
x,-y,z
1/2+x,1/2+y,z
1/2-x,1/2+y,-z
1/2-x,1/2-y,-z
1/2+x,1/2-y,z
loop_
_atom_site_type_symbol
_atom_site_label
_atom_site_fract_x
_atom_site_fract_y
_atom_site_fract_z
Si Si1 0.313840 0.722411 0.456034
Si Si2 0.777967 0.884167 0.934515
Si Si3 0.272758 0.117041 0.197782
Si Si4 0.072065 0.719116 0.075398
Si Si5 0.082153 0.383039 0.651354
Si Si6 0.369373 0.884892 0.676403
Si Si7 0.919031 0.887252 0.110029
Si Si8 0.430761 0.720696 0.689125
O O1 0.250000 0.750000 0.500000
O O2 0.281018 0.681135 0.625932
O O3 0.363305 0.821708 0.378493
O O4 0.362796 0.634751 0.311974
O O5 0.750122 0.853717 0.874307
O O6 0.855215 0.836690 0.815903
O O7 0.791606 0.000000 0.916664
O O8 0.715325 0.848094 0.137545
O O9 0.262390 0.000000 0.240580
O O10 0.358714 0.144403 0.049673
O O11 0.051573 0.768675 0.224229
O O12 0.001713 0.656012 0.170267
O O13 0.093549 0.809612 0.958377
O O14 0.086226 0.500000 0.673177
O O15 0.109753 0.363861 0.481808
O O16 0.425988 0.828776 0.643189
O O17 0.376934 0.000000 0.692536
O O18 0.904971 0.000000 0.095850
O O19 0.000000 0.875502 0.000000
O O20 0.500000 0.663635 0.500000
#
# Coordination Sequence:
#
# PCOD8109500 Si02
#       8
#     8   8   8   8   8   8   8   8
#     4  12  25  45  68  97 132 167 219 271 334 400
#     4  10  23  41  63  93 132 177 220 262 319 387
#     4  11  24  42  68  98 130 172 220 276 329 387
#     4  12  24  43  69 101 132 169 226 274 328 395
#     4  11  25  43  68 102 138 171 216 276 333 388
#     4  10  21  39  64  95 133 176 215 256 319 389
#     4  11  25  48  71  91 126 175 220 271 332 396
#     4  12  24  38  64  96 137 176 215 263 320 384
#
# _framework density 20.668647
#
# number of rings (size 3 to 8) (size 9 to 14) (size 15 to 20)
#    0.000    0.875    5.000    1.875    1.750    2.500 
#    0.000    0.625    0.000    0.000    0.000    0.000 
#    0.000    0.000    0.000    0.000    0.000    0.000 
#
# Total GULP energy -396904.720055 kJ/mol
# GULP energy per Si atom -12403.272502 kJ/mol
# Density = 2.062160 g / cm^3
# Si number density = 20.668647 Si / 1000 Ang^3
#
#
#
# Elastic Constant Matrix: (Units=GPa)
#
#
# Indices 1 2 3 4 5 6 
#
# 1 72.2543 39.2017 11.6000 0.0000 -12.4505 0.0000
# 2 39.2017 83.9369 30.8751 0.0000 -3.9657 0.0000
# 3 11.6000 30.8751 105.4348 0.0000 -12.6067 0.0000
# 4 0.0000 0.0000 0.0000 32.2285 0.0000 4.9010
# 5 -12.4505 -3.9657 -12.6067 0.0000 34.6816 0.0000
# 6 0.0000 0.0000 0.0000 4.9010 0.0000 27.1862
#
#
#
# Elastic Compliance Matrix: (Units=1/GPa)
#
#
# Indices 1 2 3 4 5 6 
#
# 1 0.019897 -0.009488 0.001373 0.000000 0.006557 0.000000
# 2 -0.009488 0.017877 -0.004552 0.000000 -0.003017 0.000000
# 3 0.001373 -0.004552 0.011148 0.000000 0.004025 0.000000
# 4 0.000000 0.000000 0.000000 0.031903 0.000000 -0.005751
# 5 0.006557 -0.003017 0.004025 0.000000 0.032306 0.000000
# 6 0.000000 0.000000 0.000000 -0.005751 0.000000 0.037820
#
#
# Mechanical properties :
#
#
# Convention : Reuss Voigt Hill
#
# Bulk Modulus (GPa) = 42.39331 47.21997 44.80664
# Shear Modulus (GPa) = 27.15226 30.81587 28.98407
#
# Velocity S-wave (km/s) = 3.62842 3.86547 3.74882
# Velocity P-wave (km/s) = 6.17328 6.54356 6.36112
#
# Compressibility (1/GPa) = 0.02358863
#
# Stress axis : x y z
#
# Youngs Moduli (GPa) = 50.25812 55.93825 89.70547
#
# Poissons Ratio (x) = 0.53075 -0.12320
# Poissons Ratio (y) = 0.47686 0.40832
# Poissons Ratio (z) = -0.06903 0.25462
#
# Static dielectric constant tensor:
#      x y z
#    x 3.743330 0.000000 -0.028140 
#    y 0.000000 3.925350 0.000000 
#    z -0.028140 0.000000 4.033050 
# 
# 
# High freq. dielectric constant tensor:
#      x y z
#    x 1.806440 0.000000 -0.005430 
#    y 0.000000 1.813810 0.000000 
#    z -0.005430 0.000000 1.830640 
# 
# From -- ./inp_files/183774.got.cif
#   From: 2010.06.25/outbox.cif.g09.slc.cpg/sg12_92_cif.got.tgz:183774.got - 2010.06.28 00:19:55.
