data_PCOD8109479
_publ_section_title
;
Structure prediction by ZEFSAII (Michael W. Deem and Ramdas Pophale) SiO2 
 PCOD8109479
Probable space group: C 2/M
;
_chemical_formula_sum "Si O2"
_cell_formula_units_Z 44
_cell_length_a 21.443593
_cell_length_b 13.607470
_cell_length_c 7.712531
_cell_angle_alpha 90.000000
_cell_angle_beta 122.055430
_cell_angle_gamma 90.000000
_cell_volume 1907.346183
_symmetry_space_group_name_H-M "C 2/M"
_symmetry_group_IT_number 12
_symmetry_cell_setting 'monoclinic'
loop_
_space_group_symop_operation_xyz
x,y,z
-x,y,-z
-x,-y,-z
x,-y,z
1/2+x,1/2+y,z
1/2-x,1/2+y,-z
1/2-x,1/2-y,-z
1/2+x,1/2-y,z
loop_
_atom_site_type_symbol
_atom_site_label
_atom_site_fract_x
_atom_site_fract_y
_atom_site_fract_z
Si Si1 0.586013 0.393040 0.146482
Si Si2 0.609482 0.111034 0.544625
Si Si3 0.870399 0.890548 0.173314
Si Si4 0.293038 0.115966 0.977188
Si Si5 0.500000 0.743780 0.500000
Si Si6 0.827217 0.289444 0.668030
O O1 0.598681 0.500000 0.258275
O O2 0.617387 0.300608 0.297190
O O3 0.500000 0.375573 0.000000
O O4 0.631276 0.395748 0.035539
O O5 0.659492 0.141863 0.783032
O O6 0.539234 0.182672 0.422513
O O7 0.654168 0.120166 0.431206
O O8 0.581782 0.000000 0.523326
O O9 0.791473 0.848273 0.119985
O O10 0.938520 0.823395 0.324084
O O11 0.882532 0.000000 0.268291
O O12 0.294393 0.000000 0.941575
O O13 0.329359 0.174464 0.870250
O O14 0.750000 0.250000 0.500000
#
# Coordination Sequence:
#
# PCOD8109479 Si02
#       6
#     8   8   8   8   4   8
#     4  10  22  40  61  90 128 166 207 258 316 377
#     4  11  25  44  65  92 128 169 213 260 310 371
#     4  10  21  39  64  93 127 166 207 258 317 374
#     4  10  23  44  67  93 129 169 210 258 312 371
#     4  12  22  38  64  94 130 166 208 260 314 372
#     4  12  24  39  66  98 127 164 211 261 315 374
#
# _framework density 23.068701999999998
#
# number of rings (size 3 to 8) (size 9 to 14) (size 15 to 20)
#    0.000    1.273    0.000    5.455    0.000    5.091 
#    0.000    4.545    0.000    6.545    0.000    0.000 
#    0.000    0.000    0.000    0.000    0.000    0.000 
#
# Total GULP energy -272730.950288 kJ/mol
# GULP energy per Si atom -12396.861377 kJ/mol
# Density = 2.301620 g / cm^3
# Si number density = 23.068702 Si / 1000 Ang^3
#
#
#
# Elastic Constant Matrix: (Units=GPa)
#
#
# Indices 1 2 3 4 5 6 
#
# 1 116.8414 55.3300 45.3928 0.0000 3.2218 0.0000
# 2 55.3300 125.8649 54.7714 0.0000 21.4552 0.0000
# 3 45.3928 54.7714 80.3939 0.0000 -2.1668 0.0000
# 4 0.0000 0.0000 0.0000 26.3803 0.0000 1.4094
# 5 3.2218 21.4552 -2.1668 0.0000 43.4682 0.0000
# 6 0.0000 0.0000 0.0000 1.4094 0.0000 41.6428
#
#
#
# Elastic Compliance Matrix: (Units=1/GPa)
#
#
# Indices 1 2 3 4 5 6 
#
# 1 0.011850 -0.003419 -0.004345 0.000000 0.000593 0.000000
# 2 -0.003419 0.014069 -0.007846 0.000000 -0.007082 0.000000
# 3 -0.004345 -0.007846 0.020378 0.000000 0.005210 0.000000
# 4 0.000000 0.000000 0.000000 0.037976 0.000000 -0.001285
# 5 0.000593 -0.007082 0.005210 0.000000 0.026717 0.000000
# 6 0.000000 0.000000 0.000000 -0.001285 0.000000 0.024057
#
#
# Mechanical properties :
#
#
# Convention : Reuss Voigt Hill
#
# Bulk Modulus (GPa) = 66.32759 70.45430 68.39094
# Shear Modulus (GPa) = 29.18990 33.47198 31.33094
#
# Velocity S-wave (km/s) = 3.56103 3.81329 3.68932
# Velocity P-wave (km/s) = 6.76184 7.07076 6.91803
#
# Compressibility (1/GPa) = 0.01507668
#
# Stress axis : x y z
#
# Youngs Moduli (GPa) = 84.39162 71.07589 49.07323
#
# Poissons Ratio (x) = 0.24303 0.21323
# Poissons Ratio (y) = 0.28856 0.38501
# Poissons Ratio (z) = 0.36669 0.55764
#
# Static dielectric constant tensor:
#      x y z
#    x 4.437090 0.000000 -0.103210 
#    y 0.000000 5.053940 0.000000 
#    z -0.103210 0.000000 3.832460 
# 
# 
# High freq. dielectric constant tensor:
#      x y z
#    x 1.925260 0.000000 0.002660 
#    y 0.000000 1.938810 0.000000 
#    z 0.002660 0.000000 1.884630 
# 
# From -- ./inp_files/95083.got.cif
#   From: 2010.06.25/outbox.cif.g09.slc.cpg/sg12_48_cif.got.tgz:95083.got - 2010.06.28 00:19:55.
