data_PCOD8109013
_publ_section_title
;
Structure prediction by ZEFSAII (Michael W. Deem and Ramdas Pophale) SiO2 
 PCOD8109013
Probable space group: C 2/M
;
_chemical_formula_sum "Si O2"
_cell_formula_units_Z 44
_cell_length_a 17.089758
_cell_length_b 25.726083
_cell_length_c 7.549869
_cell_angle_alpha 90.000000
_cell_angle_beta 145.195784
_cell_angle_gamma 90.000000
_cell_volume 1894.580962
_symmetry_space_group_name_H-M "C 2/M"
_symmetry_group_IT_number 12
_symmetry_cell_setting 'monoclinic'
loop_
_space_group_symop_operation_xyz
x,y,z
-x,y,-z
-x,-y,-z
x,-y,z
1/2+x,1/2+y,z
1/2-x,1/2+y,-z
1/2-x,1/2-y,-z
1/2+x,1/2-y,z
loop_
_atom_site_type_symbol
_atom_site_label
_atom_site_fract_x
_atom_site_fract_y
_atom_site_fract_z
Si Si1 0.484880 0.306382 0.756870
Si Si2 0.241484 0.131202 0.509021
Si Si3 0.350542 0.097050 0.059363
Si Si4 0.653072 0.941079 0.582358
Si Si5 0.500000 0.792668 0.000000
Si Si6 0.287377 0.309172 0.065551
O O1 0.404419 0.337394 0.768200
O O2 0.489123 0.244891 0.808661
O O3 0.393284 0.318672 0.418882
O O4 0.640029 0.323700 0.989129
O O5 0.244872 0.093175 0.346963
O O6 0.365465 0.172068 0.756465
O O7 0.252330 0.094403 0.705180
O O8 0.302461 0.057990 0.127196
O O9 0.503963 0.084842 0.283683
O O10 0.343293 0.154023 0.141888
O O11 0.651284 0.000000 0.508405
O O12 0.250000 0.250000 0.000000
#
# Coordination Sequence:
#
# PCOD8109013 Si02
#       6
#     8   8   8   8   4   8
#     4  10  23  36  57  89 128 162 209 238 304 369
#     4  11  23  40  60  92 129 161 201 256 309 367
#     4  10  21  39  61  86 121 156 201 252 309 366
#     4  11  24  40  65  94 117 156 212 266 317 363
#     4  12  22  38  57  92 125 168 196 244 298 376
#     4  10  22  37  59  89 124 169 203 246 299 373
#
# _framework density 23.224132999999998
#
# number of rings (size 3 to 8) (size 9 to 14) (size 15 to 20)
#    0.000    1.455    1.818    3.818    5.091    3.636 
#    0.000    0.000    0.000    3.273    0.000   12.727 
#    0.000    0.000    0.000    0.000    0.000    0.000 
#
# Total GULP energy -272609.375337 kJ/mol
# GULP energy per Si atom -12391.335243 kJ/mol
# Density = 2.317127 g / cm^3
# Si number density = 23.224133 Si / 1000 Ang^3
#
#
#
# Elastic Constant Matrix: (Units=GPa)
#
#
# Indices 1 2 3 4 5 6 
#
# 1 149.8607 59.9200 26.4072 0.0000 7.1634 0.0000
# 2 59.9200 141.9205 31.7795 0.0000 24.4249 0.0000
# 3 26.4072 31.7795 57.2540 0.0000 15.2500 0.0000
# 4 0.0000 0.0000 0.0000 18.3820 0.0000 -8.3641
# 5 7.1634 24.4249 15.2500 0.0000 30.0097 0.0000
# 6 0.0000 0.0000 0.0000 -8.3641 0.0000 29.4979
#
#
#
# Elastic Compliance Matrix: (Units=1/GPa)
#
#
# Indices 1 2 3 4 5 6 
#
# 1 0.008344 -0.003294 -0.002549 0.000000 0.001984 0.000000
# 2 -0.003294 0.010036 -0.002412 0.000000 -0.006157 0.000000
# 3 -0.002549 -0.002412 0.022316 0.000000 -0.008769 0.000000
# 4 0.000000 0.000000 0.000000 0.062460 0.000000 0.017710
# 5 0.001984 -0.006157 -0.008769 0.000000 0.042316 0.000000
# 6 0.000000 0.000000 0.000000 0.017710 0.000000 0.038922
#
#
# Mechanical properties :
#
#
# Convention : Reuss Voigt Hill
#
# Bulk Modulus (GPa) = 41.34293 65.02762 53.18528
# Shear Modulus (GPa) = 23.92731 30.97314 27.45022
#
# Velocity S-wave (km/s) = 3.21328 3.65590 3.44171
# Velocity P-wave (km/s) = 5.62203 6.77359 6.22450
#
# Compressibility (1/GPa) = 0.02418793
#
# Stress axis : x y z
#
# Youngs Moduli (GPa) = 119.84518 99.63635 44.81086
#
# Poissons Ratio (x) = 0.32817 0.11422
# Poissons Ratio (y) = 0.39473 0.10807
# Poissons Ratio (z) = 0.30547 0.24030
#
# Static dielectric constant tensor:
#      x y z
#    x 4.926730 0.000000 -0.239790 
#    y 0.000000 3.946970 0.000000 
#    z -0.239790 0.000000 4.335590 
# 
# 
# High freq. dielectric constant tensor:
#      x y z
#    x 1.949420 0.000000 -0.019710 
#    y 0.000000 1.890940 0.000000 
#    z -0.019710 0.000000 1.912530 
# 
# From -- ./inp_files/79198.got.cif
#   From: 2010.06.25/outbox.cif.g09.slc.cpg/sg12_40_cif.got.tgz:79198.got - 2010.06.28 00:19:55.
