data_PCOD8109848
_publ_section_title
;
Structure prediction by ZEFSAII (Michael W. Deem and Ramdas Pophale) SiO2 
 PCOD8109848
Probable space group: C 2/M
;
_chemical_formula_sum "Si O2"
_cell_formula_units_Z 48
_cell_length_a 16.714123
_cell_length_b 18.884701
_cell_length_c 13.392182
_cell_angle_alpha 90.000000
_cell_angle_beta 32.062827
_cell_angle_gamma 90.000000
_cell_volume 2243.964287
_symmetry_space_group_name_H-M "C 2/M"
_symmetry_group_IT_number 12
_symmetry_cell_setting 'monoclinic'
loop_
_space_group_symop_operation_xyz
x,y,z
-x,y,-z
-x,-y,-z
x,-y,z
1/2+x,1/2+y,z
1/2-x,1/2+y,-z
1/2-x,1/2-y,-z
1/2+x,1/2-y,z
loop_
_atom_site_type_symbol
_atom_site_label
_atom_site_fract_x
_atom_site_fract_y
_atom_site_fract_z
Si Si1 0.500046 0.500000 0.782624
Si Si2 0.924371 0.856549 0.187596
Si Si3 0.328259 0.000000 0.784267
Si Si4 0.349833 0.888839 0.097494
Si Si5 0.020565 0.500000 0.178369
Si Si6 0.667493 0.257688 0.983915
Si Si7 0.834926 0.643201 0.669565
Si Si8 0.715147 0.500000 0.380172
O O1 0.565875 0.427994 0.759069
O O2 0.554554 0.500000 0.608047
O O3 0.320298 0.500000 0.987661
O O4 0.746178 0.843222 0.352140
O O5 0.000000 0.870258 0.000000
O O6 0.992082 0.785756 0.172139
O O7 0.470505 0.000000 0.710641
O O8 0.340346 0.061738 0.692062
O O9 0.298017 0.811010 0.119712
O O10 0.227912 0.930245 0.295522
O O11 0.500000 0.880149 0.000000
O O12 0.389142 0.931475 0.955935
O O13 0.848622 0.500000 0.321641
O O14 0.741914 0.324932 0.857221
O O15 0.750000 0.250000 0.000000
O O16 0.000000 0.677841 0.500000
#
# Coordination Sequence:
#
# PCOD8109848 Si02
#       8
#     4   8   4   8   4   8   8   4
#     4  12  21  38  63  96 129 156 213 251 318 382
#     4  10  21  40  64  87 125 168 204 253 320 374
#     4  12  21  37  63  90 127 162 203 262 311 377
#     4   9  18  40  64  86 123 164 203 253 313 369
#     4   9  20  36  64  91 116 157 212 253 298 367
#     4  11  22  41  66  88 122 167 215 254 312 387
#     4  11  24  40  60  94 123 163 209 256 324 371
#     4   9  22  38  62  95 120 164 207 258 312 374
#
# _framework density 21.390716000000001
#
# number of rings (size 3 to 8) (size 9 to 14) (size 15 to 20)
#    0.000    1.667    3.333    4.500    2.333    0.000 
#    3.000    2.500    0.000    0.000    0.000    0.000 
#    0.000    0.000    0.000    0.000    0.000    0.000 
#
# Total GULP energy -297327.862845 kJ/mol
# GULP energy per Si atom -12388.660952 kJ/mol
# Density = 2.134203 g / cm^3
# Si number density = 21.390716 Si / 1000 Ang^3
#
#
#
# Elastic Constant Matrix: (Units=GPa)
#
#
# Indices 1 2 3 4 5 6 
#
# 1 140.9176 56.1242 20.1378 0.0070 -13.9343 -0.0112
# 2 56.1242 115.4724 5.3415 0.0051 0.1839 -0.0084
# 3 20.1378 5.3415 53.1241 0.0046 -8.2998 -0.0107
# 4 0.0070 0.0051 0.0046 8.3342 -0.0024 -0.3917
# 5 -13.9343 0.1839 -8.2998 -0.0024 32.9365 0.0072
# 6 -0.0112 -0.0084 -0.0107 -0.3917 0.0072 27.3259
#
#
#
# Elastic Compliance Matrix: (Units=1/GPa)
#
#
# Indices 1 2 3 4 5 6 
#
# 1 0.009633 -0.004565 -0.002657 -0.000003 0.003432 0.000001
# 2 -0.004565 0.010866 0.000340 -0.000003 -0.001906 0.000002
# 3 -0.002657 0.000340 0.020425 -0.000008 0.004021 0.000006
# 4 -0.000003 -0.000003 -0.000008 0.120068 0.000005 0.001721
# 5 0.003432 -0.001906 0.004021 0.000005 0.032837 -0.000006
# 6 0.000001 0.000002 0.000006 0.001721 -0.000006 0.036620
#
#
# Mechanical properties :
#
#
# Convention : Reuss Voigt Hill
#
# Bulk Modulus (GPa) = 36.81673 52.52459 44.67066
# Shear Modulus (GPa) = 19.74207 28.91336 24.32771
#
# Velocity S-wave (km/s) = 3.04127 3.68051 3.37605
# Velocity P-wave (km/s) = 5.43887 6.53220 6.01045
#
# Compressibility (1/GPa) = 0.02716157
#
# Stress axis : x y z
#
# Youngs Moduli (GPa) = 103.80593 92.02972 48.95976
#
# Poissons Ratio (x) = 0.42010 0.13007
# Poissons Ratio (y) = 0.47385 -0.01665
# Poissons Ratio (z) = 0.27577 -0.03129
#
# Static dielectric constant tensor:
#      x y z
#    x 0.000000 0.000000 0.000000 
#    y 0.000000 0.000000 0.000000 
#    z 0.000000 0.000000 0.000000 
# 
# 
# High freq. dielectric constant tensor:
#      x y z
#    x 1.848210 0.000000 -0.011720 
#    y 0.000000 1.842490 0.000000 
#    z -0.011720 0.000000 1.811160 
# 
# From -- ./inp_files/226806.got.cif
#   From: 2010.06.25/outbox.cif.g09.slc.cpg/sg12_114_cif.got.tgz:226806.got - 2010.06.28 00:19:55.
