data_PCOD8109823
_publ_section_title
;
Structure prediction by ZEFSAII (Michael W. Deem and Ramdas Pophale) SiO2 
 PCOD8109823
Probable space group: C 2/M
;
_chemical_formula_sum "Si O2"
_cell_formula_units_Z 64
_cell_length_a 18.651059
_cell_length_b 29.342028
_cell_length_c 8.925614
_cell_angle_alpha 90.000000
_cell_angle_beta 140.285388
_cell_angle_gamma 90.000000
_cell_volume 3121.103169
_symmetry_space_group_name_H-M "C 2/M"
_symmetry_group_IT_number 12
_symmetry_cell_setting 'monoclinic'
loop_
_space_group_symop_operation_xyz
x,y,z
-x,y,-z
-x,-y,-z
x,-y,z
1/2+x,1/2+y,z
1/2-x,1/2+y,-z
1/2-x,1/2-y,-z
1/2+x,1/2-y,z
loop_
_atom_site_type_symbol
_atom_site_label
_atom_site_fract_x
_atom_site_fract_y
_atom_site_fract_z
Si Si1 0.293836 0.051506 0.353871
Si Si2 0.493491 0.917137 0.157477
Si Si3 0.123184 0.724230 0.631219
Si Si4 0.292272 0.051836 0.023405
Si Si5 0.387315 0.600487 0.403981
Si Si6 0.500334 0.188091 0.167883
Si Si7 0.107317 0.947157 0.276558
Si Si8 0.257134 0.187380 0.910619
O O1 0.421508 0.052737 0.610517
O O2 0.290647 0.075416 0.185369
O O3 0.211895 0.072709 0.347956
O O4 0.251645 0.000000 0.262618
O O5 0.371963 0.921483 0.036265
O O6 0.530932 0.865025 0.220135
O O7 0.500000 0.936638 0.000000
O O8 0.165328 0.775799 0.712211
O O9 0.000000 0.718244 0.500000
O O10 0.103283 0.711215 0.425245
O O11 0.213939 0.691509 0.863801
O O12 0.332907 0.000000 0.097969
O O13 0.166010 0.055230 0.756280
O O14 0.500000 0.614764 0.500000
O O15 0.408782 0.588019 0.611724
O O16 0.294065 0.639447 0.223807
O O17 0.500000 0.207902 0.000000
O O18 0.375453 0.198151 0.023903
O O19 0.126602 0.000000 0.359852
O O20 0.000000 0.943935 0.000000
#
# Coordination Sequence:
#
# PCOD8109823 Si02
#       8
#     8   8   8   8   8   8   8   8
#     4  10  22  37  58  84 116 159 205 251 297 352
#     4  11  22  36  57  88 124 159 199 245 299 359
#     4   9  20  40  66  89 118 158 196 241 302 372
#     4  11  23  38  58  87 120 159 206 252 298 353
#     4  12  24  38  60  89 117 154 204 258 304 360
#     4  10  22  38  61  92 122 160 196 240 303 366
#     4  10  22  42  61  81 118 165 207 250 306 363
#     4  10  21  40  63  90 121 154 201 248 301 363
#
# _framework density 20.505569999999999
#
# number of rings (size 3 to 8) (size 9 to 14) (size 15 to 20)
#    0.000    1.625    1.250    3.000    3.500    6.500 
#    0.000    0.625    0.000    0.000    0.000    0.000 
#    0.000    0.000    0.000    0.000    0.000    0.000 
#
# Total GULP energy -396617.448802 kJ/mol
# GULP energy per Si atom -12394.295275 kJ/mol
# Density = 2.045890 g / cm^3
# Si number density = 20.505570 Si / 1000 Ang^3
#
#
#
# Elastic Constant Matrix: (Units=GPa)
#
#
# Indices 1 2 3 4 5 6 
#
# 1 103.0027 21.6421 51.8682 0.0000 -21.3784 0.0000
# 2 21.6421 60.7093 41.9470 0.0000 -10.5718 0.0000
# 3 51.8682 41.9470 140.3397 0.0000 -19.9355 0.0000
# 4 0.0000 0.0000 0.0000 34.4766 0.0000 2.5251
# 5 -21.3784 -10.5718 -19.9355 0.0000 42.5443 0.0000
# 6 0.0000 0.0000 0.0000 2.5251 0.0000 17.6537
#
#
#
# Elastic Compliance Matrix: (Units=1/GPa)
#
#
# Indices 1 2 3 4 5 6 
#
# 1 0.012745 -0.001207 -0.003731 0.000000 0.004356 0.000000
# 2 -0.001207 0.021107 -0.005575 0.000000 0.002026 0.000000
# 3 -0.003731 -0.005575 0.010400 0.000000 0.001613 0.000000
# 4 0.000000 0.000000 0.000000 0.029312 0.000000 -0.004193
# 5 0.004356 0.002026 0.001613 0.000000 0.026953 0.000000
# 6 0.000000 0.000000 0.000000 -0.004193 0.000000 0.057245
#
#
# Mechanical properties :
#
#
# Convention : Reuss Voigt Hill
#
# Bulk Modulus (GPa) = 43.05453 59.44071 51.24762
# Shear Modulus (GPa) = 26.80533 31.50787 29.15660
#
# Velocity S-wave (km/s) = 3.61947 3.92414 3.77488
# Velocity P-wave (km/s) = 6.20561 7.04147 6.63671
#
# Compressibility (1/GPa) = 0.02322636
#
# Stress axis : x y z
#
# Youngs Moduli (GPa) = 78.46263 47.37758 96.15456
#
# Poissons Ratio (x) = 0.05719 0.35874
# Poissons Ratio (y) = 0.09471 0.53605
# Poissons Ratio (z) = 0.29273 0.26413
#
# Static dielectric constant tensor:
#      x y z
#    x 3.863610 0.000000 -0.204210 
#    y 0.000000 3.429860 0.000000 
#    z -0.204210 0.000000 3.928650 
# 
# 
# High freq. dielectric constant tensor:
#      x y z
#    x 1.800990 0.000000 -0.004080 
#    y 0.000000 1.777570 0.000000 
#    z -0.004080 0.000000 1.819240 
# 
# From -- ./inp_files/80767.got.cif
#   From: 2010.06.25/outbox.cif.g09.slc.cpg/sg12_41_cif.got.tgz:80767.got - 2010.06.28 00:19:55.
