data_PCOD8109577
_publ_section_title
;
Structure prediction by ZEFSAII (Michael W. Deem and Ramdas Pophale) SiO2 
 PCOD8109577
Probable space group: C 2/M
;
_chemical_formula_sum "Si O2"
_cell_formula_units_Z 64
_cell_length_a 26.635379
_cell_length_b 27.254017
_cell_length_c 9.248880
_cell_angle_alpha 90.000000
_cell_angle_beta 28.749455
_cell_angle_gamma 90.000000
_cell_volume 3229.281866
_symmetry_space_group_name_H-M "C 2/M"
_symmetry_group_IT_number 12
_symmetry_cell_setting 'monoclinic'
loop_
_space_group_symop_operation_xyz
x,y,z
-x,y,-z
-x,-y,-z
x,-y,z
1/2+x,1/2+y,z
1/2-x,1/2+y,-z
1/2-x,1/2-y,-z
1/2+x,1/2-y,z
loop_
_atom_site_type_symbol
_atom_site_label
_atom_site_fract_x
_atom_site_fract_y
_atom_site_fract_z
Si Si1 0.791277 0.634220 0.200831
Si Si2 0.288553 0.129152 0.755824
Si Si3 0.489835 0.832835 0.860755
Si Si4 0.246006 0.944259 0.087733
Si Si5 0.155217 0.867971 0.818884
Si Si6 0.495262 0.556164 0.346050
Si Si7 0.794928 0.798802 0.817559
Si Si8 0.984999 0.780774 0.872952
O O1 0.798776 0.586463 0.082022
O O2 0.697780 0.626618 0.549832
O O3 0.770942 0.683114 0.156028
O O4 0.901538 0.636761 0.002675
O O5 0.399559 0.156242 0.493780
O O6 0.252670 0.126847 0.681122
O O7 0.288703 0.074656 0.824144
O O8 0.204563 0.159216 0.062309
O O9 0.455390 0.776215 0.938691
O O10 0.500000 0.850419 0.000000
O O11 0.121650 0.938754 0.416336
O O12 0.282315 0.000000 0.011354
O O13 0.069133 0.909827 0.062145
O O14 0.107206 0.813629 0.961411
O O15 0.500000 0.573768 0.500000
O O16 0.535018 0.500000 0.233286
O O17 0.913071 0.790241 0.476938
O O18 0.750000 0.750000 0.000000
O O19 0.000000 0.797342 0.000000
#
# Coordination Sequence:
#
# PCOD8109577 Si02
#       8
#     8   8   8   8   8   8   8   8
#     4  11  25  42  66  92 130 169 219 272 322 378
#     4  11  23  41  64  91 128 168 216 270 321 378
#     4  11  24  43  63  90 127 175 221 268 323 380
#     4  10  23  44  68  96 130 163 207 268 333 396
#     4  12  23  38  65  95 128 169 212 267 318 386
#     4  10  21  39  65  97 130 165 205 257 331 404
#     4  11  23  41  59  91 130 166 213 262 313 382
#     4  11  24  39  63  92 131 172 214 257 322 385
#
# _framework density 19.818649000000001
#
# number of rings (size 3 to 8) (size 9 to 14) (size 15 to 20)
#    0.000    1.125    5.000    1.500    1.750    3.000 
#    0.000    2.500    0.000    0.750    0.000    0.000 
#    0.000    0.000    0.000    0.000    0.000    0.000 
#
# Total GULP energy -396916.083805 kJ/mol
# GULP energy per Si atom -12403.627619 kJ/mol
# Density = 1.977354 g / cm^3
# Si number density = 19.818649 Si / 1000 Ang^3
#
#
#
# Elastic Constant Matrix: (Units=GPa)
#
#
# Indices 1 2 3 4 5 6 
#
# 1 118.3218 62.4511 35.2150 0.0000 1.0735 0.0000
# 2 62.4511 125.8630 41.5461 0.0000 0.8604 0.0000
# 3 35.2150 41.5461 86.0490 0.0002 10.4046 -0.0001
# 4 0.0000 0.0000 0.0002 20.6670 -0.0001 0.9482
# 5 1.0735 0.8604 10.4046 -0.0001 34.7569 0.0001
# 6 0.0000 0.0000 -0.0001 0.9482 0.0001 26.7537
#
#
#
# Elastic Compliance Matrix: (Units=1/GPa)
#
#
# Indices 1 2 3 4 5 6 
#
# 1 0.011858 -0.005074 -0.002463 0.000000 0.000497 0.000000
# 2 -0.005074 0.011669 -0.003675 0.000000 0.000968 0.000000
# 3 -0.002463 -0.003675 0.014923 0.000000 -0.004300 0.000000
# 4 0.000000 0.000000 0.000000 0.048465 0.000000 -0.001718
# 5 0.000497 0.000968 -0.004300 0.000000 0.030019 0.000000
# 6 0.000000 0.000000 0.000000 -0.001718 0.000000 0.037439
#
#
# Mechanical properties :
#
#
# Convention : Reuss Voigt Hill
#
# Bulk Modulus (GPa) = 62.39387 67.62870 65.01128
# Shear Modulus (GPa) = 27.45137 29.17030 28.31083
#
# Velocity S-wave (km/s) = 3.72577 3.84065 3.78364
# Velocity P-wave (km/s) = 7.07525 7.33930 7.20848
#
# Compressibility (1/GPa) = 0.01602722
#
# Stress axis : x y z
#
# Youngs Moduli (GPa) = 84.32905 85.69557 67.00897
#
# Poissons Ratio (x) = 0.43484 0.16505
# Poissons Ratio (y) = 0.42791 0.24623
# Poissons Ratio (z) = 0.20771 0.31489
#
# Static dielectric constant tensor:
#      x y z
#    x 3.648500 0.000000 -0.028140 
#    y 0.000000 3.719700 0.000000 
#    z -0.028140 0.000000 3.971000 
# 
# 
# High freq. dielectric constant tensor:
#      x y z
#    x 1.775060 0.000000 0.008350 
#    y 0.000000 1.769580 0.000000 
#    z 0.008350 0.000000 1.773260 
# 
# From -- ./inp_files/100199.got.cif
#   From: 2010.06.25/outbox.cif.g09.slc.cpg/sg12_51_cif.got.tgz:100199.got - 2010.06.28 00:19:55.
