data_PCOD8109997
_publ_section_title
;
Structure prediction by ZEFSAII (Michael W. Deem and Ramdas Pophale) SiO2 
 PCOD8109997
Probable space group: C 2/M
;
_chemical_formula_sum "Si O2"
_cell_formula_units_Z 56
_cell_length_a 8.904279
_cell_length_b 18.103324
_cell_length_c 26.091976
_cell_angle_alpha 90.000000
_cell_angle_beta 40.477259
_cell_angle_gamma 90.000000
_cell_volume 2730.276085
_symmetry_space_group_name_H-M "C 2/M"
_symmetry_group_IT_number 12
_symmetry_cell_setting 'monoclinic'
loop_
_space_group_symop_operation_xyz
x,y,z
-x,y,-z
-x,-y,-z
x,-y,z
1/2+x,1/2+y,z
1/2-x,1/2+y,-z
1/2-x,1/2-y,-z
1/2+x,1/2-y,z
loop_
_atom_site_type_symbol
_atom_site_label
_atom_site_fract_x
_atom_site_fract_y
_atom_site_fract_z
Si Si1 0.023214 0.587104 0.838878
Si Si2 0.187637 0.334359 0.287064
Si Si3 0.764141 0.584881 0.444221
Si Si4 0.463184 0.682562 0.709396
Si Si5 0.231686 0.681533 0.467119
Si Si6 0.154341 0.085326 0.849142
Si Si7 0.315796 0.670819 0.003439
O O1 0.033664 0.500000 0.846681
O O2 0.282523 0.617163 0.765909
O O3 0.880305 0.605393 0.824319
O O4 0.906412 0.626649 0.918016
O O5 0.337768 0.320379 0.299130
O O6 0.166098 0.261438 0.257251
O O7 0.308520 0.394866 0.219893
O O8 0.931390 0.362828 0.367712
O O9 0.500000 0.602839 0.500000
O O10 0.830380 0.500000 0.417056
O O11 0.790906 0.604015 0.497068
O O12 0.561552 0.673159 0.626727
O O13 0.250000 0.750000 0.500000
O O14 0.000000 0.700524 0.500000
O O15 0.098299 0.000000 0.868420
O O16 0.925984 0.126213 0.927999
O O17 0.500000 0.680723 0.000000
O O18 0.250000 0.750000 0.000000
#
# Coordination Sequence:
#
# PCOD8109997 Si02
#       7
#     8   8   8   8   8   8   8
#     4  10  23  42  66  97 131 170 215 264 320 381
#     4  12  25  43  63  95 128 164 215 262 321 376
#     4  11  26  43  64  91 126 165 209 261 318 385
#     4  12  25  41  66  93 126 167 211 268 315 382
#     4  12  23  43  66  93 123 167 213 263 321 379
#     4  10  22  41  66  92 130 173 210 260 320 380
#     4  10  21  40  65  96 129 168 218 263 313 374
#
# _framework density 20.510746000000001
#
# number of rings (size 3 to 8) (size 9 to 14) (size 15 to 20)
#    0.000    1.000    2.857    3.000    4.000    7.143 
#    0.000    0.000    0.000    2.571    0.000    0.000 
#    0.000    0.000    0.000    0.000    0.000    0.000 
#
# Total GULP energy -347267.017314 kJ/mol
# GULP energy per Si atom -12402.393475 kJ/mol
# Density = 2.046406 g / cm^3
# Si number density = 20.510746 Si / 1000 Ang^3
#
#
#
# Elastic Constant Matrix: (Units=GPa)
#
#
# Indices 1 2 3 4 5 6 
#
# 1 91.6073 47.2188 53.3019 0.0004 3.9647 -0.0037
# 2 47.2188 125.0080 60.2763 -0.0119 -4.5940 -0.0028
# 3 53.3019 60.2763 152.7344 -0.0164 0.3876 -0.0050
# 4 0.0004 -0.0119 -0.0164 42.5423 0.0066 0.2249
# 5 3.9647 -4.5940 0.3876 0.0066 29.2162 0.0041
# 6 -0.0037 -0.0028 -0.0050 0.2249 0.0041 36.0331
#
#
#
# Elastic Compliance Matrix: (Units=1/GPa)
#
#
# Indices 1 2 3 4 5 6 
#
# 1 0.015302 -0.004083 -0.003722 -0.000002 -0.002669 0.000001
# 2 -0.004083 0.011045 -0.002940 0.000002 0.002330 0.000000
# 3 -0.003722 -0.002940 0.009007 0.000003 -0.000077 0.000001
# 4 -0.000002 0.000002 0.000003 0.023507 -0.000005 -0.000147
# 5 -0.002669 0.002330 -0.000077 -0.000005 0.034957 -0.000004
# 6 0.000001 0.000000 0.000001 -0.000147 -0.000004 0.027753
#
#
# Mechanical properties :
#
#
# Convention : Reuss Voigt Hill
#
# Bulk Modulus (GPa) = 72.13201 76.77153 74.45177
# Shear Modulus (GPa) = 33.85652 35.46186 34.65919
#
# Velocity S-wave (km/s) = 4.06725 4.16256 4.11518
# Velocity P-wave (km/s) = 7.56974 7.78548 7.67837
#
# Compressibility (1/GPa) = 0.01386347
#
# Stress axis : x y z
#
# Youngs Moduli (GPa) = 65.35052 90.53855 111.03035
#
# Poissons Ratio (x) = 0.36971 0.41324
# Poissons Ratio (y) = 0.26686 0.32640
# Poissons Ratio (z) = 0.24323 0.26616
#
# Static dielectric constant tensor:
#      x y z
#    x 3.756640 -0.000010 0.073830 
#    y -0.000010 3.806020 0.000030 
#    z 0.073830 0.000030 3.918810 
# 
# 
# High freq. dielectric constant tensor:
#      x y z
#    x 1.798410 0.000000 0.001850 
#    y 0.000000 1.811600 0.000000 
#    z 0.001850 0.000000 1.816700 
# 
# From -- ./inp_files/356685.got.cif
#   From: 2010.06.25/outbox.cif.g09.slc.cpg/sg12_179_cif.got.tgz:356685.got - 2010.06.28 00:19:55.
