data_PCOD8109771
_publ_section_title
;
Structure prediction by ZEFSAII (Michael W. Deem and Ramdas Pophale) SiO2 
 PCOD8109771
Probable space group: C 2/M
;
_chemical_formula_sum "Si O2"
_cell_formula_units_Z 52
_cell_length_a 11.795155
_cell_length_b 19.825313
_cell_length_c 16.861781
_cell_angle_alpha 90.000000
_cell_angle_beta 140.282646
_cell_angle_gamma 90.000000
_cell_volume 2519.582422
_symmetry_space_group_name_H-M "C 2/M"
_symmetry_group_IT_number 12
_symmetry_cell_setting 'monoclinic'
loop_
_space_group_symop_operation_xyz
x,y,z
-x,y,-z
-x,-y,-z
x,-y,z
1/2+x,1/2+y,z
1/2-x,1/2+y,-z
1/2-x,1/2-y,-z
1/2+x,1/2-y,z
loop_
_atom_site_type_symbol
_atom_site_label
_atom_site_fract_x
_atom_site_fract_y
_atom_site_fract_z
Si Si1 0.245714 0.423462 0.496126
Si Si2 0.912046 0.838695 0.281503
Si Si3 0.434227 0.724623 0.135206
Si Si4 0.714577 0.806498 0.742984
Si Si5 0.005041 0.637954 0.763888
Si Si6 0.500000 0.120104 0.500000
Si Si7 0.424015 0.921308 0.876399
O O1 0.316137 0.500000 0.523211
O O2 0.400469 0.370534 0.595530
O O3 0.157696 0.398474 0.367135
O O4 0.103970 0.424623 0.491547
O O5 0.894969 0.835128 0.176486
O O6 0.889610 0.763645 0.302923
O O7 0.763753 0.886257 0.239880
O O8 0.571234 0.699598 0.141565
O O9 0.540428 0.785520 0.235305
O O10 0.250000 0.750000 0.000000
O O11 0.671858 0.857342 0.793182
O O12 0.647013 0.834867 0.623104
O O13 0.050683 0.596396 0.869244
O O14 0.393774 0.000000 0.867205
O O15 0.500000 0.892442 0.000000
#
# Coordination Sequence:
#
# PCOD8109771 Si02
#       7
#     8   8   8   8   8   4   8
#     4  11  23  40  62  91 127 170 213 259 313 381
#     4  11  23  36  63  94 126 164 211 263 317 378
#     4  11  22  40  65  94 130 167 208 264 324 382
#     4  10  22  37  65  95 127 161 204 265 326 374
#     4  10  23  39  61  92 125 162 206 259 316 376
#     4  10  21  40  62  92 127 166 204 260 320 378
#     4  11  23  41  62  86 125 171 213 258 308 376
#
# _framework density 20.638339999999999
#
# number of rings (size 3 to 8) (size 9 to 14) (size 15 to 20)
#    0.000    1.385    3.077    2.077    2.154    4.308 
#    0.000    1.538    0.000    0.000    0.000    5.385 
#    0.000    0.000    0.000    0.000    0.000    0.000 
#
# Total GULP energy -322291.445700 kJ/mol
# GULP energy per Si atom -12395.824835 kJ/mol
# Density = 2.059137 g / cm^3
# Si number density = 20.638340 Si / 1000 Ang^3
#
#
#
# Elastic Constant Matrix: (Units=GPa)
#
#
# Indices 1 2 3 4 5 6 
#
# 1 113.9103 32.0752 62.7746 0.0001 -11.3525 0.0001
# 2 32.0752 85.4202 36.5389 -0.0001 -2.7382 -0.0001
# 3 62.7746 36.5389 112.1854 -0.0002 -7.2256 -0.0001
# 4 0.0001 -0.0001 -0.0002 24.9518 -0.0001 -4.9979
# 5 -11.3525 -2.7382 -7.2256 -0.0001 37.1953 0.0000
# 6 0.0001 -0.0001 -0.0001 -4.9979 0.0000 25.8968
#
#
#
# Elastic Compliance Matrix: (Units=1/GPa)
#
#
# Indices 1 2 3 4 5 6 
#
# 1 0.013243 -0.002081 -0.006564 0.000000 0.002613 0.000000
# 2 -0.002081 0.013930 -0.003390 0.000000 -0.000268 0.000000
# 3 -0.006564 -0.003390 0.013717 0.000000 0.000412 0.000000
# 4 0.000000 0.000000 0.000000 0.041689 0.000000 0.008046
# 5 0.002613 -0.000268 0.000412 0.000000 0.027743 0.000000
# 6 0.000000 0.000000 0.000000 0.008046 0.000000 0.040168
#
#
# Mechanical properties :
#
#
# Convention : Reuss Voigt Hill
#
# Bulk Modulus (GPa) = 59.45238 63.81036 61.63137
# Shear Modulus (GPa) = 27.75237 29.61728 28.68483
#
# Velocity S-wave (km/s) = 3.67099 3.79233 3.73215
# Velocity P-wave (km/s) = 6.84380 7.08245 6.96415
#
# Compressibility (1/GPa) = 0.01682018
#
# Stress axis : x y z
#
# Youngs Moduli (GPa) = 75.51394 71.78952 72.90081
#
# Poissons Ratio (x) = 0.14940 0.47851
# Poissons Ratio (y) = 0.15715 0.24711
# Poissons Ratio (z) = 0.49567 0.24334
#
# Static dielectric constant tensor:
#      x y z
#    x 4.095330 0.000000 -0.201790 
#    y 0.000000 3.626820 0.000000 
#    z -0.201790 0.000000 3.579540 
# 
# 
# High freq. dielectric constant tensor:
#      x y z
#    x 1.825560 0.000000 -0.012570 
#    y 0.000000 1.795480 0.000000 
#    z -0.012570 0.000000 1.792730 
# 
# From -- ./inp_files/265134.got.cif
#   From: 2010.06.25/outbox.cif.g09.slc.cpg/sg12_133_cif.got.tgz:265134.got - 2010.06.28 00:19:55.
