data_PCOD8109411
_publ_section_title
;
Structure prediction by ZEFSAII (Michael W. Deem and Ramdas Pophale) SiO2 
 PCOD8109411
Probable space group: C 2/M
;
_chemical_formula_sum "Si O2"
_cell_formula_units_Z 64
_cell_length_a 32.240786
_cell_length_b 9.201466
_cell_length_c 19.923843
_cell_angle_alpha 90.000000
_cell_angle_beta 31.349407
_cell_angle_gamma 90.000000
_cell_volume 3075.053178
_symmetry_space_group_name_H-M "C 2/M"
_symmetry_group_IT_number 12
_symmetry_cell_setting 'monoclinic'
loop_
_space_group_symop_operation_xyz
x,y,z
-x,y,-z
-x,-y,-z
x,-y,z
1/2+x,1/2+y,z
1/2-x,1/2+y,-z
1/2-x,1/2-y,-z
1/2+x,1/2-y,z
loop_
_atom_site_type_symbol
_atom_site_label
_atom_site_fract_x
_atom_site_fract_y
_atom_site_fract_z
Si Si1 0.942801 0.832928 0.641497
Si Si2 0.276025 0.345877 0.523858
Si Si3 0.682356 0.171671 0.891942
Si Si4 0.261804 0.332563 0.914150
Si Si5 0.975733 0.326866 0.357103
Si Si6 0.686689 0.672675 0.388537
Si Si7 0.518779 0.827685 0.050671
Si Si8 0.459267 0.339570 0.250527
O O1 0.848385 0.812270 0.758543
O O2 0.000000 0.789260 0.500000
O O3 0.958214 0.724322 0.681650
O O4 0.961629 0.000000 0.635501
O O5 0.233554 0.500000 0.569946
O O6 0.250000 0.250000 0.500000
O O7 0.255841 0.290857 0.626512
O O8 0.370132 0.363646 0.397050
O O9 0.694220 0.219275 0.953430
O O10 0.761453 0.227349 0.745287
O O11 0.603064 0.231708 0.964538
O O12 0.678845 0.000000 0.890509
O O13 0.248330 0.500000 0.950273
O O14 0.250000 0.250000 0.000000
O O15 0.973760 0.500000 0.353062
O O16 0.892509 0.267797 0.500776
O O17 0.000777 0.259818 0.250183
O O18 0.665759 0.500000 0.414541
O O19 0.509797 0.000000 0.070725
O O20 0.500000 0.780997 0.000000
O O21 0.455310 0.745097 0.185056
O O22 0.500084 0.500000 0.188146
#
# Coordination Sequence:
#
# PCOD8109411 Si02
#       8
#     8   8   8   8   8   8   8   8
#     4  10  21  39  64  90 119 162 211 252 301 371
#     4   9  19  32  53  81 109 144 186 239 295 350
#     4   9  19  38  62  86 117 158 200 241 292 355
#     4  10  22  39  61  89 122 161 205 253 303 362
#     4  11  22  36  59  90 122 153 192 253 309 355
#     4   9  18  36  59  82 113 156 199 238 290 361
#     4  10  22  38  61  91 120 154 199 249 301 357
#     4  10  22  40  58  80 115 157 201 243 293 363
#
# _framework density 20.812649
#
# number of rings (size 3 to 8) (size 9 to 14) (size 15 to 20)
#    0.000    2.250    0.000    3.000    3.500    5.500 
#    0.000    2.500    0.000    0.000    0.000    0.000 
#    0.000    0.000    0.000    0.000    0.000    0.000 
#
# Total GULP energy -396491.381835 kJ/mol
# GULP energy per Si atom -12390.355682 kJ/mol
# Density = 2.076528 g / cm^3
# Si number density = 20.812649 Si / 1000 Ang^3
#
#
#
# Elastic Constant Matrix: (Units=GPa)
#
#
# Indices 1 2 3 4 5 6 
#
# 1 149.1602 48.5519 33.7045 -0.0021 22.1724 0.0023
# 2 48.5519 84.4442 20.4573 0.0015 14.2211 -0.0008
# 3 33.7045 20.4573 68.4339 -0.0004 22.0078 0.0003
# 4 -0.0021 0.0015 -0.0004 23.5769 -0.0005 3.8136
# 5 22.1724 14.2211 22.0078 -0.0005 35.1740 0.0003
# 6 0.0023 -0.0008 0.0003 3.8136 0.0003 32.8922
#
#
#
# Elastic Compliance Matrix: (Units=1/GPa)
#
#
# Indices 1 2 3 4 5 6 
#
# 1 0.008964 -0.004161 -0.002372 0.000001 -0.002484 -0.000001
# 2 -0.004161 0.015046 -0.001672 -0.000002 -0.002414 0.000001
# 3 -0.002372 -0.001672 0.019508 0.000000 -0.010034 0.000000
# 4 0.000001 -0.000002 0.000000 0.043225 0.000001 -0.005012
# 5 -0.002484 -0.002414 -0.010034 0.000001 0.037250 0.000000
# 6 -0.000001 0.000001 0.000000 -0.005012 0.000000 0.030983
#
#
# Mechanical properties :
#
#
# Convention : Reuss Voigt Hill
#
# Bulk Modulus (GPa) = 36.89028 56.38508 46.63768
# Shear Modulus (GPa) = 27.71274 31.61694 29.66484
#
# Velocity S-wave (km/s) = 3.65298 3.90182 3.77945
# Velocity P-wave (km/s) = 5.96286 6.88836 6.44225
#
# Compressibility (1/GPa) = 0.02710741
#
# Stress axis : x y z
#
# Youngs Moduli (GPa) = 111.55968 66.46234 51.26162
#
# Poissons Ratio (x) = 0.27654 0.12160
# Poissons Ratio (y) = 0.46418 0.08572
# Poissons Ratio (z) = 0.26463 0.11114
#
# Static dielectric constant tensor:
#      x y z
#    x 2.919260 -0.000050 0.071970 
#    y -0.000050 3.568870 0.000010 
#    z 0.071970 0.000010 3.703670 
# 
# 
# High freq. dielectric constant tensor:
#      x y z
#    x 1.824870 0.000000 0.011600 
#    y 0.000000 1.787860 0.000000 
#    z 0.011600 0.000000 1.813390 
# 
# From -- ./inp_files/295598.got.cif
#   From: 2010.06.25/outbox.cif.g09.slc.cpg/sg12_148_cif.got.tgz:295598.got - 2010.06.28 00:19:55.
