data_PCOD8109125
_publ_section_title
;
Structure prediction by ZEFSAII (Michael W. Deem and Ramdas Pophale) SiO2 
 PCOD8109125
Probable space group: C 2/M
;
_chemical_formula_sum "Si O2"
_cell_formula_units_Z 56
_cell_length_a 18.004398
_cell_length_b 8.236205
_cell_length_c 18.524775
_cell_angle_alpha 90.000000
_cell_angle_beta 104.172468
_cell_angle_gamma 90.000000
_cell_volume 2663.390088
_symmetry_space_group_name_H-M "C 2/M"
_symmetry_group_IT_number 12
_symmetry_cell_setting 'monoclinic'
loop_
_space_group_symop_operation_xyz
x,y,z
-x,y,-z
-x,-y,-z
x,-y,z
1/2+x,1/2+y,z
1/2-x,1/2+y,-z
1/2-x,1/2-y,-z
1/2+x,1/2-y,z
loop_
_atom_site_type_symbol
_atom_site_label
_atom_site_fract_x
_atom_site_fract_y
_atom_site_fract_z
Si Si1 0.977244 0.192828 0.572897
Si Si2 0.880369 0.188220 0.862029
Si Si3 0.954083 0.188739 0.139891
Si Si4 0.833120 0.313267 0.001220
Si Si5 0.097274 0.806470 0.718511
Si Si6 0.692750 0.692315 0.425359
Si Si7 0.233507 0.688817 0.279842
O O1 0.892163 0.249513 0.572976
O O2 0.000000 0.263986 0.500000
O O3 0.036515 0.262505 0.646160
O O4 0.982092 0.000000 0.572278
O O5 0.847107 0.291033 0.919987
O O6 0.825948 0.206710 0.780376
O O7 0.963612 0.262125 0.862250
O O8 0.885532 0.000000 0.885805
O O9 0.923931 0.265933 0.207689
O O10 0.965987 0.000000 0.156323
O O11 0.894935 0.214532 0.061427
O O12 0.839898 0.500000 0.024268
O O13 0.750000 0.250000 0.000000
O O14 0.181633 0.745418 0.717519
O O15 0.095374 0.000000 0.718255
O O16 0.697096 0.500000 0.414730
O O17 0.750000 0.750000 0.500000
O O18 0.716530 0.785404 0.359272
O O19 0.225499 0.500000 0.257853
#
# Coordination Sequence:
#
# PCOD8109125 Si02
#       7
#     8   8   8   8   8   8   8
#     4   9  17  32  56  83 109 144 193 241 286 344
#     4  11  23  40  63  90 121 157 197 243 298 359
#     4  10  21  39  62  87 118 157 201 247 297 356
#     4  12  25  41  62  88 120 157 200 249 300 356
#     4   9  18  34  57  84 112 148 195 241 285 341
#     4  11  22  37  59  85 115 151 192 243 300 358
#     4  11  22  37  60  88 119 155 196 243 293 350
#
# _framework density 21.025834
#
# number of rings (size 3 to 8) (size 9 to 14) (size 15 to 20)
#    0.000    1.571    0.000    5.571    0.000    8.571 
#    0.000    0.714    0.000   11.143    0.000    0.000 
#    0.000    0.000    0.000    0.000    0.000    0.000 
#
# Total GULP energy -347338.986097 kJ/mol
# GULP energy per Si atom -12404.963789 kJ/mol
# Density = 2.097798 g / cm^3
# Si number density = 21.025834 Si / 1000 Ang^3
#
#
#
# Elastic Constant Matrix: (Units=GPa)
#
#
# Indices 1 2 3 4 5 6 
#
# 1 203.4552 16.7124 75.8926 0.0000 0.7202 0.0000
# 2 16.7124 32.1513 -2.9951 0.0000 -3.3683 0.0000
# 3 75.8926 -2.9951 151.4114 0.0000 0.3120 0.0000
# 4 0.0000 0.0000 0.0000 27.1601 0.0000 -1.2702
# 5 0.7202 -3.3683 0.3120 0.0000 51.3983 0.0000
# 6 0.0000 0.0000 0.0000 -1.2702 0.0000 25.3309
#
#
#
# Elastic Compliance Matrix: (Units=1/GPa)
#
#
# Indices 1 2 3 4 5 6 
#
# 1 0.006453 -0.003695 -0.003307 0.000000 -0.000313 0.000000
# 2 -0.003695 0.033491 0.002510 0.000000 0.002231 0.000000
# 3 -0.003307 0.002510 0.008311 0.000000 0.000160 0.000000
# 4 0.000000 0.000000 0.000000 0.036905 0.000000 0.001851
# 5 -0.000313 0.002231 0.000160 0.000000 0.019606 0.000000
# 6 0.000000 0.000000 0.000000 0.001851 0.000000 0.039570
#
#
# Mechanical properties :
#
#
# Convention : Reuss Voigt Hill
#
# Bulk Modulus (GPa) = 25.46367 62.91529 44.18948
# Shear Modulus (GPa) = 30.04585 40.60508 35.32546
#
# Velocity S-wave (km/s) = 3.78431 4.39931 4.10335
# Velocity P-wave (km/s) = 5.58852 7.46947 6.59639
#
# Compressibility (1/GPa) = 0.03927163
#
# Stress axis : x y z
#
# Youngs Moduli (GPa) = 154.95857 29.85845 120.31568
#
# Poissons Ratio (x) = 0.11034 0.39789
# Poissons Ratio (y) = 0.57262 -0.30201
# Poissons Ratio (z) = 0.51246 -0.07495
#
# Static dielectric constant tensor:
#      x y z
#    x 4.096720 0.000000 -0.057340 
#    y 0.000000 3.515520 0.000000 
#    z -0.057340 0.000000 3.839990 
# 
# 
# High freq. dielectric constant tensor:
#      x y z
#    x 1.844910 0.000000 -0.001390 
#    y 0.000000 1.793190 0.000000 
#    z -0.001390 0.000000 1.839950 
# 
# From -- ./inp_files/275577.got.cif
#   From: 2010.06.25/outbox.cif.g09.slc.cpg/sg12_138_cif.got.tgz:275577.got - 2010.06.28 00:19:55.
