data_PCOD8109097
_publ_section_title
;
Structure prediction by ZEFSAII (Michael W. Deem and Ramdas Pophale) SiO2 
 PCOD8109097
Probable space group: C 2/M
;
_chemical_formula_sum "Si O2"
_cell_formula_units_Z 40
_cell_length_a 27.117997
_cell_length_b 8.844082
_cell_length_c 8.892597
_cell_angle_alpha 90.000000
_cell_angle_beta 71.438708
_cell_angle_gamma 90.000000
_cell_volume 2021.807669
_symmetry_space_group_name_H-M "C 2/M"
_symmetry_group_IT_number 12
_symmetry_cell_setting 'monoclinic'
loop_
_space_group_symop_operation_xyz
x,y,z
-x,y,-z
-x,-y,-z
x,-y,z
1/2+x,1/2+y,z
1/2-x,1/2+y,-z
1/2-x,1/2-y,-z
1/2+x,1/2-y,z
loop_
_atom_site_type_symbol
_atom_site_label
_atom_site_fract_x
_atom_site_fract_y
_atom_site_fract_z
Si Si1 0.900049 0.826219 0.448428
Si Si2 0.901930 0.323064 0.763822
Si Si3 0.201761 0.321458 0.962173
Si Si4 0.204201 0.174931 0.637060
Si Si5 0.500885 0.678741 0.168268
O O1 0.895779 0.721728 0.597197
O O2 0.848761 0.804565 0.401271
O O3 0.948454 0.769758 0.302232
O O4 0.907412 0.000000 0.491504
O O5 0.911470 0.500000 0.766739
O O6 0.950466 0.240264 0.788841
O O7 0.850159 0.272713 0.900588
O O8 0.209245 0.500000 0.950015
O O9 0.197892 0.259144 0.799275
O O10 0.250000 0.250000 0.000000
O O11 0.250000 0.250000 0.500000
O O12 0.217430 0.000000 0.653019
O O13 0.505616 0.500000 0.158426
O O14 0.500000 0.745145 0.000000
#
# Coordination Sequence:
#
# PCOD8109097 Si02
#       5
#     8   8   8   8   8
#     4  10  22  39  60  86 116 154 197 239 287 349
#     4  11  24  39  58  87 120 153 191 241 296 345
#     4  11  24  41  61  87 119 156 199 244 294 352
#     4  11  23  40  63  90 120 155 196 243 295 349
#     4  10  21  39  62  86 114 152 197 240 286 347
#
# _framework density 19.784276999999999
#
# number of rings (size 3 to 8) (size 9 to 14) (size 15 to 20)
#    0.000    1.400    0.000    4.800    0.000   13.200 
#    0.000    0.000    0.000    0.000    0.000    0.000 
#    0.000    0.000    0.000    0.000    0.000    0.000 
#
# Total GULP energy -248121.551421 kJ/mol
# GULP energy per Si atom -12406.077571 kJ/mol
# Density = 1.973925 g / cm^3
# Si number density = 19.784277 Si / 1000 Ang^3
#
#
#
# Elastic Constant Matrix: (Units=GPa)
#
#
# Indices 1 2 3 4 5 6 
#
# 1 131.1280 41.2659 61.3155 0.0000 -21.6922 0.0000
# 2 41.2659 48.0724 43.2811 0.0000 -15.4044 0.0000
# 3 61.3155 43.2811 167.0076 0.0000 -21.1797 0.0000
# 4 0.0000 0.0000 0.0000 35.3433 0.0000 4.8304
# 5 -21.6922 -15.4044 -21.1797 0.0000 40.2712 0.0000
# 6 0.0000 0.0000 0.0000 4.8304 0.0000 23.2761
#
#
#
# Elastic Compliance Matrix: (Units=1/GPa)
#
#
# Indices 1 2 3 4 5 6 
#
# 1 0.011148 -0.007066 -0.001974 0.000000 0.002263 0.000000
# 2 -0.007066 0.033685 -0.005340 0.000000 0.006270 0.000000
# 3 -0.001974 -0.005340 0.008253 0.000000 0.001234 0.000000
# 4 0.000000 0.000000 0.000000 0.029120 0.000000 -0.006043
# 5 0.002263 0.006270 0.001234 0.000000 0.029098 0.000000
# 6 0.000000 0.000000 0.000000 -0.006043 0.000000 0.044217
#
#
# Mechanical properties :
#
#
# Convention : Reuss Voigt Hill
#
# Bulk Modulus (GPa) = 41.11200 70.88145 55.99672
# Shear Modulus (GPa) = 25.98888 33.13449 29.56169
#
# Velocity S-wave (km/s) = 3.62831 4.09686 3.86968
# Velocity P-wave (km/s) = 6.19501 7.63439 6.95205
#
# Compressibility (1/GPa) = 0.02432380
#
# Stress axis : x y z
#
# Youngs Moduli (GPa) = 89.70586 29.68695 121.16638
#
# Poissons Ratio (x) = 0.20978 0.23924
# Poissons Ratio (y) = 0.63389 0.64704
# Poissons Ratio (z) = 0.17712 0.15853
#
# Static dielectric constant tensor:
#      x y z
#    x 3.780000 0.000000 -0.126450 
#    y 0.000000 3.664670 0.000000 
#    z -0.126450 0.000000 3.867490 
# 
# 
# High freq. dielectric constant tensor:
#      x y z
#    x 1.792290 0.000000 -0.002070 
#    y 0.000000 1.773510 0.000000 
#    z -0.002070 0.000000 1.792760 
# 
# From -- ./inp_files/92746.got.cif
#   From: 2010.06.25/outbox.cif.g09.slc.cpg/sg12_47_cif.got.tgz:92746.got - 2010.06.28 00:19:55.
