data_PCOD8109490
_publ_section_title
;
Structure prediction by ZEFSAII (Michael W. Deem and Ramdas Pophale) SiO2 
 PCOD8109490
Probable space group: C 2/M
;
_chemical_formula_sum "Si O2"
_cell_formula_units_Z 56
_cell_length_a 8.925001
_cell_length_b 25.658012
_cell_length_c 18.009132
_cell_angle_alpha 90.000000
_cell_angle_beta 42.125114
_cell_angle_gamma 90.000000
_cell_volume 2766.214744
_symmetry_space_group_name_H-M "C 2/M"
_symmetry_group_IT_number 12
_symmetry_cell_setting 'monoclinic'
loop_
_space_group_symop_operation_xyz
x,y,z
-x,y,-z
-x,-y,-z
x,-y,z
1/2+x,1/2+y,z
1/2-x,1/2+y,-z
1/2-x,1/2-y,-z
1/2+x,1/2-y,z
loop_
_atom_site_type_symbol
_atom_site_label
_atom_site_fract_x
_atom_site_fract_y
_atom_site_fract_z
Si Si1 0.117266 0.710689 0.881216
Si Si2 0.603613 0.265441 0.738388
Si Si3 0.745782 0.842693 0.617021
Si Si4 0.170528 0.939887 0.996029
Si Si5 0.004878 0.061415 0.213968
Si Si6 0.361614 0.103431 0.194066
Si Si7 0.904897 0.363440 0.615695
O O1 0.384438 0.707364 0.786872
O O2 0.052507 0.753052 0.843196
O O3 0.040599 0.653351 0.885661
O O4 0.000000 0.728715 0.000000
O O5 0.656390 0.213952 0.672402
O O6 0.804155 0.305640 0.656103
O O7 0.730512 0.881922 0.691485
O O8 0.603431 0.866623 0.602271
O O9 0.000000 0.837171 0.500000
O O10 0.425017 0.933758 0.876347
O O11 0.109900 0.000000 0.021193
O O12 0.000000 0.912459 0.000000
O O13 0.130734 0.918158 0.093600
O O14 0.772350 0.091649 0.302453
O O15 0.162870 0.074273 0.225146
O O16 0.953884 0.000000 0.232263
O O17 0.000000 0.374438 0.500000
#
# Coordination Sequence:
#
# PCOD8109490 Si02
#       7
#     8   8   8   8   8   8   8
#     4  11  22  39  59  94 132 167 200 251 308 373
#     4  11  23  40  63  91 127 166 209 252 307 370
#     4  11  25  43  64  93 124 165 214 260 314 371
#     4  10  21  39  64  94 129 166 208 258 310 372
#     4  11  23  41  66  95 127 165 210 258 316 374
#     4  11  22  39  64  95 126 166 210 257 311 373
#     4  12  25  42  66  90 124 164 212 265 312 374
#
# _framework density 20.244271000000001
#
# number of rings (size 3 to 8) (size 9 to 14) (size 15 to 20)
#    0.000    1.000    2.857    4.286    2.000    2.571 
#    0.000    0.714    0.000    3.000    0.000    0.000 
#    0.000    0.000    0.000    0.000    0.000    0.000 
#
# Total GULP energy -347327.139812 kJ/mol
# GULP energy per Si atom -12404.540708 kJ/mol
# Density = 2.019819 g / cm^3
# Si number density = 20.244271 Si / 1000 Ang^3
#
#
#
# Elastic Constant Matrix: (Units=GPa)
#
#
# Indices 1 2 3 4 5 6 
#
# 1 139.3147 19.2524 41.9509 0.0001 -1.2859 0.0000
# 2 19.2524 42.7941 22.9256 0.0001 3.2738 0.0000
# 3 41.9509 22.9256 125.8400 0.0001 9.3334 -0.0001
# 4 0.0001 0.0001 0.0001 18.9121 0.0000 -2.1495
# 5 -1.2859 3.2738 9.3334 0.0000 41.1799 0.0000
# 6 0.0000 0.0000 -0.0001 -2.1495 0.0000 26.2732
#
#
#
# Elastic Compliance Matrix: (Units=1/GPa)
#
#
# Indices 1 2 3 4 5 6 
#
# 1 0.008247 -0.002520 -0.002364 0.000000 0.000994 0.000000
# 2 -0.002520 0.026706 -0.003928 0.000000 -0.001312 0.000000
# 3 -0.002364 -0.003928 0.009594 0.000000 -0.001936 0.000000
# 4 0.000000 0.000000 0.000000 0.053373 0.000000 0.004367
# 5 0.000994 -0.001312 -0.001936 0.000000 0.024858 0.000000
# 6 0.000000 0.000000 0.000000 0.004367 0.000000 0.038419
#
#
# Mechanical properties :
#
#
# Convention : Reuss Voigt Hill
#
# Bulk Modulus (GPa) = 37.14245 52.91185 45.02715
# Shear Modulus (GPa) = 26.62485 32.19435 29.40960
#
# Velocity S-wave (km/s) = 3.63047 3.99218 3.81561
# Velocity P-wave (km/s) = 5.99673 6.88792 6.45772
#
# Compressibility (1/GPa) = 0.02692337
#
# Stress axis : x y z
#
# Youngs Moduli (GPa) = 121.25251 37.44479 104.23327
#
# Poissons Ratio (x) = 0.09436 0.24641
# Poissons Ratio (y) = 0.30554 0.40943
# Poissons Ratio (z) = 0.28664 0.14708
#
# Static dielectric constant tensor:
#      x y z
#    x 3.948240 0.000000 0.188300 
#    y 0.000000 3.528280 0.000000 
#    z 0.188300 0.000000 3.659480 
# 
# 
# High freq. dielectric constant tensor:
#      x y z
#    x 1.811400 0.000000 0.002900 
#    y 0.000000 1.782440 0.000000 
#    z 0.002900 0.000000 1.794230 
# 
# From -- ./inp_files/124260.got.cif
#   From: 2010.06.25/outbox.cif.g09.slc.cpg/sg12_63_cif.got.tgz:124260.got - 2010.06.28 00:19:55.
