data_PCOD8109628
_publ_section_title
;
Structure prediction by ZEFSAII (Michael W. Deem and Ramdas Pophale) SiO2 
 PCOD8109628
Probable space group: C 2/M
;
_chemical_formula_sum "Si O2"
_cell_formula_units_Z 56
_cell_length_a 10.722416
_cell_length_b 19.681288
_cell_length_c 21.315395
_cell_angle_alpha 90.000000
_cell_angle_beta 35.317338
_cell_angle_gamma 90.000000
_cell_volume 2600.434704
_symmetry_space_group_name_H-M "C 2/M"
_symmetry_group_IT_number 12
_symmetry_cell_setting 'monoclinic'
loop_
_space_group_symop_operation_xyz
x,y,z
-x,y,-z
-x,-y,-z
x,-y,z
1/2+x,1/2+y,z
1/2-x,1/2+y,-z
1/2-x,1/2-y,-z
1/2+x,1/2-y,z
loop_
_atom_site_type_symbol
_atom_site_label
_atom_site_fract_x
_atom_site_fract_y
_atom_site_fract_z
Si Si1 0.149059 0.371467 0.386352
Si Si2 0.078720 0.827998 0.272175
Si Si3 0.087152 0.780832 0.397988
Si Si4 0.144833 0.886936 0.997438
Si Si5 0.044338 0.575564 0.911353
Si Si6 0.419458 0.192616 0.798013
Si Si7 0.732173 0.078537 0.222261
O O1 0.395526 0.362793 0.306199
O O2 0.039111 0.299125 0.415706
O O3 0.142486 0.420009 0.329251
O O4 0.000000 0.407269 0.500000
O O5 0.973556 0.815682 0.384633
O O6 0.282157 0.877244 0.193478
O O7 0.161188 0.755863 0.210562
O O8 0.338278 0.793111 0.281224
O O9 0.000000 0.811415 0.500000
O O10 0.334903 0.929518 0.952140
O O11 0.253528 0.817369 0.925276
O O12 0.000000 0.921932 0.000000
O O13 0.962293 0.879945 0.126293
O O14 0.140438 0.500000 0.877994
O O15 0.000000 0.603740 0.000000
O O16 0.425882 0.120416 0.758641
O O17 0.751042 0.000000 0.193116
#
# Coordination Sequence:
#
# PCOD8109628 Si02
#       7
#     8   8   8   8   8   8   8
#     4  10  23  39  64  92 126 167 208 262 315 379
#     4  11  22  41  65  97 127 162 207 267 317 376
#     4  10  21  39  67  94 122 161 210 261 318 375
#     4  10  22  41  64  92 126 170 216 263 311 382
#     4  11  24  42  65  94 131 172 212 260 325 388
#     4  10  22  40  64  96 123 161 212 260 318 374
#     4  11  23  40  62  89 129 168 212 257 309 378
#
# _framework density 21.534860999999999
#
# number of rings (size 3 to 8) (size 9 to 14) (size 15 to 20)
#    0.000    1.571    2.857    1.286    2.000   10.571 
#    0.000    5.000    0.000    0.857    0.000    0.000 
#    0.000    0.000    0.000    0.000    0.000    0.000 
#
# Total GULP energy -346910.446604 kJ/mol
# GULP energy per Si atom -12389.658807 kJ/mol
# Density = 2.148585 g / cm^3
# Si number density = 21.534861 Si / 1000 Ang^3
#
#
#
# Elastic Constant Matrix: (Units=GPa)
#
#
# Indices 1 2 3 4 5 6 
#
# 1 75.6490 14.4841 9.1948 -0.0425 4.7834 0.0199
# 2 14.4841 70.5831 27.6099 -0.0665 6.6255 0.0127
# 3 9.1948 27.6099 94.7737 -0.1288 21.2705 0.0380
# 4 -0.0425 -0.0665 -0.1288 23.5086 0.0159 6.4092
# 5 4.7834 6.6255 21.2705 0.0159 36.6479 -0.0132
# 6 0.0199 0.0127 0.0380 6.4092 -0.0132 20.9105
#
#
#
# Elastic Compliance Matrix: (Units=1/GPa)
#
#
# Indices 1 2 3 4 5 6 
#
# 1 0.013829 -0.002603 -0.000326 0.000022 -0.001145 -0.000018
# 2 -0.002603 0.016481 -0.004549 0.000018 0.000000 -0.000005
# 3 -0.000326 -0.004549 0.013469 0.000079 -0.006952 -0.000050
# 4 0.000022 0.000018 0.000079 0.046417 -0.000077 -0.014227
# 5 -0.001145 0.000000 -0.006952 -0.000077 0.031471 0.000057
# 6 -0.000018 -0.000005 -0.000050 -0.014227 0.000057 0.052184
#
#
# Mechanical properties :
#
#
# Convention : Reuss Voigt Hill
#
# Bulk Modulus (GPa) = 34.69418 38.17595 36.43507
# Shear Modulus (GPa) = 25.19968 28.86121 27.03044
#
# Velocity S-wave (km/s) = 3.42450 3.66486 3.54672
# Velocity P-wave (km/s) = 5.63755 5.97279 5.80759
#
# Compressibility (1/GPa) = 0.02882328
#
# Stress axis : x y z
#
# Youngs Moduli (GPa) = 72.30994 60.67531 74.24553
#
# Poissons Ratio (x) = 0.15792 0.02424
# Poissons Ratio (y) = 0.18820 0.33774
# Poissons Ratio (z) = 0.02361 0.27601
#
# Static dielectric constant tensor:
#      x y z
#    x 3.931820 -0.000010 0.211330 
#    y -0.000010 3.555640 0.000140 
#    z 0.211330 0.000140 4.058990 
# 
# 
# High freq. dielectric constant tensor:
#      x y z
#    x 1.853420 0.000000 0.010360 
#    y 0.000000 1.812410 0.000010 
#    z 0.010360 0.000010 1.849350 
# 
# From -- ./inp_files/336730.got.cif
#   From: 2010.06.25/outbox.cif.g09.slc.cpg/sg12_169_cif.got.tgz:336730.got - 2010.06.28 00:19:55.
