data_PCOD8109092
_publ_section_title
;
Structure prediction by ZEFSAII (Michael W. Deem and Ramdas Pophale) SiO2 
 PCOD8109092
Probable space group: C 2/M
;
_chemical_formula_sum "Si O2"
_cell_formula_units_Z 48
_cell_length_a 29.551090
_cell_length_b 8.865701
_cell_length_c 11.625625
_cell_angle_alpha 90.000000
_cell_angle_beta 118.709197
_cell_angle_gamma 90.000000
_cell_volume 2671.386272
_symmetry_space_group_name_H-M "C 2/M"
_symmetry_group_IT_number 12
_symmetry_cell_setting 'monoclinic'
loop_
_space_group_symop_operation_xyz
x,y,z
-x,y,-z
-x,-y,-z
x,-y,z
1/2+x,1/2+y,z
1/2-x,1/2+y,-z
1/2-x,1/2-y,-z
1/2+x,1/2-y,z
loop_
_atom_site_type_symbol
_atom_site_label
_atom_site_fract_x
_atom_site_fract_y
_atom_site_fract_z
Si Si1 0.695030 0.821688 0.911989
Si Si2 0.427567 0.825937 0.617341
Si Si3 0.623333 0.676413 0.645144
Si Si4 0.445247 0.323044 0.882778
Si Si5 0.041373 0.668963 0.690547
Si Si6 0.391549 0.829167 0.014701
O O1 0.671566 0.756081 0.765644
O O2 0.658728 0.777430 0.975287
O O3 0.699456 0.000000 0.904235
O O4 0.750000 0.750000 0.000000
O O5 0.382663 0.741842 0.491181
O O6 0.432892 0.755490 0.748429
O O7 0.480335 0.805421 0.608820
O O8 0.412990 0.000000 0.613527
O O9 0.634051 0.500000 0.651995
O O10 0.570714 0.707968 0.650617
O O11 0.445757 0.500000 0.862604
O O12 0.500000 0.266390 0.000000
O O13 0.399770 0.279555 0.916103
O O14 0.056391 0.500000 0.664774
O O15 0.058093 0.684812 0.843487
O O16 0.384888 0.000000 0.962027
#
# Coordination Sequence:
#
# PCOD8109092 Si02
#       6
#     8   8   8   8   8   8
#     4  10  21  39  62  86 108 136 177 224 276 327
#     4  11  21  34  52  72 105 150 188 221 263 319
#     4  11  22  34  51  78 110 140 176 224 275 323
#     4  11  22  33  49  77 112 147 186 227 264 310
#     4   9  18  32  50  73 104 144 185 221 262 318
#     4   9  18  34  54  78 107 143 184 220 261 320
#
# _framework density 17.968198999999998
#
# number of rings (size 3 to 8) (size 9 to 14) (size 15 to 20)
#    0.000    1.833    1.667    4.500    0.000    7.333 
#    0.000    0.000    0.000    1.000    0.000    0.000 
#    0.000    0.000    0.000    0.000    0.000    0.000 
#
# Total GULP energy -297634.901220 kJ/mol
# GULP energy per Si atom -12401.454217 kJ/mol
# Density = 1.792730 g / cm^3
# Si number density = 17.968199 Si / 1000 Ang^3
#
#
#
# Elastic Constant Matrix: (Units=GPa)
#
#
# Indices 1 2 3 4 5 6 
#
# 1 66.7054 42.3187 51.7241 0.0000 12.0703 0.0000
# 2 42.3187 110.9435 68.3316 0.0000 2.6975 0.0000
# 3 51.7241 68.3316 136.7058 0.0000 6.8016 0.0000
# 4 0.0000 0.0000 0.0000 34.7923 0.0000 -0.4799
# 5 12.0703 2.6975 6.8016 0.0000 22.8965 0.0000
# 6 0.0000 0.0000 0.0000 -0.4799 0.0000 21.4750
#
#
#
# Elastic Compliance Matrix: (Units=1/GPa)
#
#
# Indices 1 2 3 4 5 6 
#
# 1 0.025331 -0.005530 -0.006281 0.000000 -0.010836 0.000000
# 2 -0.005530 0.014234 -0.005160 0.000000 0.002771 0.000000
# 3 -0.006281 -0.005160 0.012257 0.000000 0.000278 0.000000
# 4 0.000000 0.000000 0.000000 0.028751 0.000000 0.000642
# 5 -0.010836 0.002771 0.000278 0.000000 0.048978 0.000000
# 6 0.000000 0.000000 0.000000 0.000642 0.000000 0.046580
#
#
# Mechanical properties :
#
#
# Convention : Reuss Voigt Hill
#
# Bulk Modulus (GPa) = 55.93151 71.01149 63.47150
# Shear Modulus (GPa) = 23.14462 25.96478 24.55470
#
# Velocity S-wave (km/s) = 3.59289 3.80549 3.70072
# Velocity P-wave (km/s) = 6.95754 7.67564 7.32540
#
# Compressibility (1/GPa) = 0.01787901
#
# Stress axis : x y z
#
# Youngs Moduli (GPa) = 39.47766 70.25441 81.58751
#
# Poissons Ratio (x) = 0.38854 0.51242
# Poissons Ratio (y) = 0.21833 0.42100
# Poissons Ratio (z) = 0.24795 0.36252
#
# Static dielectric constant tensor:
#      x y z
#    x 3.141350 0.000000 0.064520 
#    y 0.000000 3.313010 0.000000 
#    z 0.064520 0.000000 3.400190 
# 
# 
# High freq. dielectric constant tensor:
#      x y z
#    x 1.658530 0.000000 -0.004740 
#    y 0.000000 1.702320 0.000000 
#    z -0.004740 0.000000 1.702270 
# 
# From -- ./inp_files/179198.got.cif
#   From: 2010.06.25/outbox.cif.g09.slc.cpg/sg12_90_cif.got.tgz:179198.got - 2010.06.28 00:19:55.
