data_PCOD8109603
_publ_section_title
;
Structure prediction by ZEFSAII (Michael W. Deem and Ramdas Pophale) SiO2 
 PCOD8109603
Probable space group: C 2/M
;
_chemical_formula_sum "Si O2"
_cell_formula_units_Z 56
_cell_length_a 24.974942
_cell_length_b 8.595588
_cell_length_c 12.564799
_cell_angle_alpha 90.000000
_cell_angle_beta 104.644837
_cell_angle_gamma 90.000000
_cell_volume 2609.707375
_symmetry_space_group_name_H-M "C 2/M"
_symmetry_group_IT_number 12
_symmetry_cell_setting 'monoclinic'
loop_
_space_group_symop_operation_xyz
x,y,z
-x,y,-z
-x,-y,-z
x,-y,z
1/2+x,1/2+y,z
1/2-x,1/2+y,-z
1/2-x,1/2-y,-z
1/2+x,1/2-y,z
loop_
_atom_site_type_symbol
_atom_site_label
_atom_site_fract_x
_atom_site_fract_y
_atom_site_fract_z
Si Si1 0.632444 0.316173 0.591411
Si Si2 0.789031 0.180426 0.105923
Si Si3 0.058876 0.818856 0.753182
Si Si4 0.934956 0.180682 0.645181
Si Si5 0.756253 0.679798 0.304861
Si Si6 0.386711 0.818332 0.039309
Si Si7 0.862619 0.318336 0.787101
O O1 0.635940 0.500000 0.594555
O O2 0.606164 0.262847 0.691803
O O3 0.593412 0.256603 0.476697
O O4 0.694800 0.253611 0.598333
O O5 0.778034 0.290101 0.198754
O O6 0.849982 0.202732 0.092873
O O7 0.776677 0.000000 0.126967
O O8 0.750000 0.250000 0.000000
O O9 0.057497 0.719397 0.865249
O O10 0.000060 0.788327 0.667502
O O11 0.065640 0.000000 0.783562
O O12 0.911816 0.274237 0.733944
O O13 0.921343 0.000000 0.656204
O O14 0.752043 0.500000 0.330311
O O15 0.694786 0.748455 0.285763
O O16 0.371062 0.000000 0.038972
O O17 0.381928 0.760905 0.914990
O O18 0.853593 0.500000 0.787213
#
# Coordination Sequence:
#
# PCOD8109603 Si02
#       7
#     8   8   8   8   8   8   8
#     4  10  21  40  66  94 125 160 205 260 316 371
#     4  12  22  35  58  90 126 163 202 252 310 368
#     4  10  21  39  66  95 124 160 205 260 317 370
#     4  10  23  43  65  90 122 165 214 260 309 370
#     4  12  24  38  62  94 127 162 204 255 311 374
#     4  11  23  38  60  91 126 163 206 255 308 366
#     4  11  25  43  62  87 126 171 210 253 308 372
#
# _framework density 21.458345000000001
#
# number of rings (size 3 to 8) (size 9 to 14) (size 15 to 20)
#    0.000    1.143    2.857    3.857    0.000    5.714 
#    0.000    2.857    0.000    2.571    0.000    0.000 
#    0.000    0.000    0.000    0.000    0.000    0.000 
#
# Total GULP energy -346985.639915 kJ/mol
# GULP energy per Si atom -12392.344283 kJ/mol
# Density = 2.140951 g / cm^3
# Si number density = 21.458345 Si / 1000 Ang^3
#
#
#
# Elastic Constant Matrix: (Units=GPa)
#
#
# Indices 1 2 3 4 5 6 
#
# 1 67.7756 12.2881 21.7804 0.0000 5.9594 0.0000
# 2 12.2881 43.3280 22.1439 0.0000 1.1353 0.0000
# 3 21.7804 22.1439 104.7576 0.0000 17.3575 0.0000
# 4 0.0000 0.0000 0.0000 30.9358 0.0000 3.6046
# 5 5.9594 1.1353 17.3575 0.0000 38.9532 0.0000
# 6 0.0000 0.0000 0.0000 3.6046 0.0000 32.4901
#
#
#
# Elastic Compliance Matrix: (Units=1/GPa)
#
#
# Indices 1 2 3 4 5 6 
#
# 1 0.016262 -0.003318 -0.002466 0.000000 -0.001293 0.000000
# 2 -0.003318 0.026672 -0.005294 0.000000 0.002089 0.000000
# 3 -0.002466 -0.005294 0.011974 0.000000 -0.004804 0.000000
# 4 0.000000 0.000000 0.000000 0.032748 0.000000 -0.003633
# 5 -0.001293 0.002089 -0.004804 0.000000 0.027949 0.000000
# 6 0.000000 0.000000 0.000000 -0.003633 0.000000 0.031182
#
#
# Mechanical properties :
#
#
# Convention : Reuss Voigt Hill
#
# Bulk Modulus (GPa) = 30.53277 36.47622 33.50449
# Shear Modulus (GPa) = 27.79943 31.11909 29.45926
#
# Velocity S-wave (km/s) = 3.60322 3.81229 3.70923
# Velocity P-wave (km/s) = 5.61878 6.03437 5.83028
#
# Compressibility (1/GPa) = 0.03275170
#
# Stress axis : x y z
#
# Youngs Moduli (GPa) = 61.49255 37.49273 83.51747
#
# Poissons Ratio (x) = 0.12440 0.20592
# Poissons Ratio (y) = 0.20404 0.44217
# Poissons Ratio (z) = 0.15161 0.19850
#
# Static dielectric constant tensor:
#      x y z
#    x 3.939010 0.000000 0.292050 
#    y 0.000000 3.696270 0.000000 
#    z 0.292050 0.000000 4.260810 
# 
# 
# High freq. dielectric constant tensor:
#      x y z
#    x 1.838870 0.000000 0.022160 
#    y 0.000000 1.829670 0.000000 
#    z 0.022160 0.000000 1.859330 
# 
# From -- ./inp_files/181069.got.cif
#   From: 2010.06.25/outbox.cif.g09.slc.cpg/sg12_91_cif.got.tgz:181069.got - 2010.06.28 00:19:55.
