data_PCOD8109033
_publ_section_title
;
Structure prediction by ZEFSAII (Michael W. Deem and Ramdas Pophale) SiO2 
 PCOD8109033
Probable space group: C 2/M
;
_chemical_formula_sum "Si O2"
_cell_formula_units_Z 64
_cell_length_a 8.966128
_cell_length_b 17.600048
_cell_length_c 20.681722
_cell_angle_alpha 90.000000
_cell_angle_beta 83.539038
_cell_angle_gamma 90.000000
_cell_volume 3242.935984
_symmetry_space_group_name_H-M "C 2/M"
_symmetry_group_IT_number 12
_symmetry_cell_setting 'monoclinic'
loop_
_space_group_symop_operation_xyz
x,y,z
-x,y,-z
-x,-y,-z
x,-y,z
1/2+x,1/2+y,z
1/2-x,1/2+y,-z
1/2-x,1/2-y,-z
1/2+x,1/2-y,z
loop_
_atom_site_type_symbol
_atom_site_label
_atom_site_fract_x
_atom_site_fract_y
_atom_site_fract_z
Si Si1 0.765159 0.411053 0.173913
Si Si2 0.029838 0.582006 0.072618
Si Si3 0.341107 0.810905 0.537656
Si Si4 0.018665 0.806413 0.148645
Si Si5 0.666710 0.215060 0.739934
Si Si6 0.743305 0.711327 0.929695
Si Si7 0.547623 0.273332 0.346093
Si Si8 0.072170 0.088360 0.566443
O O1 0.764170 0.500000 0.187303
O O2 0.592311 0.387189 0.165824
O O3 0.843289 0.370356 0.231904
O O4 0.875973 0.384850 0.110233
O O5 0.063557 0.500000 0.102855
O O6 0.177067 0.630686 0.074848
O O7 0.000000 0.572944 0.000000
O O8 0.500000 0.833318 0.500000
O O9 0.250000 0.750000 0.500000
O O10 0.367624 0.775438 0.605518
O O11 0.246089 0.887963 0.551042
O O12 0.169998 0.758010 0.130177
O O13 0.905754 0.777593 0.209355
O O14 0.927637 0.804783 0.084956
O O15 0.595934 0.225520 0.671918
O O16 0.845997 0.224185 0.722344
O O17 0.750000 0.750000 0.000000
O O18 0.506059 0.356952 0.376345
O O19 0.000000 0.101869 0.500000
O O20 0.058897 0.000000 0.588740
#
# Coordination Sequence:
#
# PCOD8109033 Si02
#       8
#     8   8   8   8   8   8   8   8
#     4  11  24  43  64  90 128 171 215 271 334 387
#     4  10  21  39  61  87 125 167 206 263 336 396
#     4  12  20  39  69  99 128 169 216 260 315 383
#     4  12  22  40  61  90 128 163 217 268 321 382
#     4  12  23  40  64  91 122 172 219 266 308 384
#     4  12  22  36  64  95 122 161 217 273 325 392
#     4  12  22  39  68  92 122 174 220 259 310 386
#     4  11  24  42  65 100 138 169 209 272 332 373
#
# _framework density 19.735204
#
# number of rings (size 3 to 8) (size 9 to 14) (size 15 to 20)
#    0.000    0.500    7.500    1.875    0.000    1.250 
#    0.000    0.625    0.000    3.750    0.000    0.000 
#    0.000    0.000    0.000    0.000    0.000    0.000 
#
# Total GULP energy -396563.792249 kJ/mol
# GULP energy per Si atom -12392.618508 kJ/mol
# Density = 1.969029 g / cm^3
# Si number density = 19.735204 Si / 1000 Ang^3
#
#
#
# Elastic Constant Matrix: (Units=GPa)
#
#
# Indices 1 2 3 4 5 6 
#
# 1 126.4840 62.4781 44.1566 0.0000 -3.2853 0.0000
# 2 62.4781 117.5781 48.8604 0.0000 6.9018 0.0000
# 3 44.1566 48.8604 89.5652 0.0000 -3.9139 0.0000
# 4 0.0000 0.0000 0.0000 30.8096 0.0000 -0.7188
# 5 -3.2853 6.9018 -3.9139 0.0000 46.7168 0.0000
# 6 0.0000 0.0000 0.0000 -0.7188 0.0000 37.7208
#
#
#
# Elastic Compliance Matrix: (Units=1/GPa)
#
#
# Indices 1 2 3 4 5 6 
#
# 1 0.011374 -0.004930 -0.002862 0.000000 0.001289 0.000000
# 2 -0.004930 0.013352 -0.004973 0.000000 -0.002736 0.000000
# 3 -0.002862 -0.004973 0.015368 0.000000 0.001821 0.000000
# 4 0.000000 0.000000 0.000000 0.032472 0.000000 0.000619
# 5 0.001289 -0.002736 0.001821 0.000000 0.022053 0.000000
# 6 0.000000 0.000000 0.000000 0.000619 0.000000 0.026522
#
#
# Mechanical properties :
#
#
# Convention : Reuss Voigt Hill
#
# Bulk Modulus (GPa) = 68.65839 71.62416 70.14127
# Shear Modulus (GPa) = 32.99781 34.92493 33.96137
#
# Velocity S-wave (km/s) = 4.09348 4.21132 4.15282
# Velocity P-wave (km/s) = 7.56356 7.74715 7.65590
#
# Compressibility (1/GPa) = 0.01456486
#
# Stress axis : x y z
#
# Youngs Moduli (GPa) = 87.91986 74.89583 65.06981
#
# Poissons Ratio (x) = 0.36926 0.18620
# Poissons Ratio (y) = 0.43348 0.32357
# Poissons Ratio (z) = 0.25159 0.37243
#
# Static dielectric constant tensor:
#      x y z
#    x 3.805000 0.000000 -0.105260 
#    y 0.000000 4.020380 0.000000 
#    z -0.105260 0.000000 3.618790 
# 
# 
# High freq. dielectric constant tensor:
#      x y z
#    x 1.785330 0.000000 -0.004600 
#    y 0.000000 1.751520 0.000000 
#    z -0.004600 0.000000 1.777820 
# 
# From -- ./inp_files/300777.got.cif
#   From: 2010.06.25/outbox.cif.g09.slc.cpg/sg12_151_cif.got.tgz:300777.got - 2010.06.28 00:19:55.
