data_PCOD8109972
_publ_section_title
;
Structure prediction by ZEFSAII (Michael W. Deem and Ramdas Pophale) SiO2 
 PCOD8109972
Probable space group: C 2/M
;
_chemical_formula_sum "Si O2"
_cell_formula_units_Z 56
_cell_length_a 19.979503
_cell_length_b 10.937776
_cell_length_c 14.369884
_cell_angle_alpha 90.000000
_cell_angle_beta 71.886320
_cell_angle_gamma 90.000000
_cell_volume 2984.642862
_symmetry_space_group_name_H-M "C 2/M"
_symmetry_group_IT_number 12
_symmetry_cell_setting 'monoclinic'
loop_
_space_group_symop_operation_xyz
x,y,z
-x,y,-z
-x,-y,-z
x,-y,z
1/2+x,1/2+y,z
1/2-x,1/2+y,-z
1/2-x,1/2-y,-z
1/2+x,1/2-y,z
loop_
_atom_site_type_symbol
_atom_site_label
_atom_site_fract_x
_atom_site_fract_y
_atom_site_fract_z
Si Si1 0.554986 0.747237 0.247356
Si Si2 0.542093 0.860461 0.570878
Si Si3 0.397968 0.500000 0.485341
Si Si4 0.191351 0.639166 0.266487
Si Si5 0.682735 0.747098 0.465189
Si Si6 0.781402 0.858905 0.050405
Si Si7 0.459641 0.500000 0.658487
Si Si8 0.056307 0.139963 0.053081
O O1 0.482242 0.790424 0.325932
O O2 0.617283 0.839630 0.246531
O O3 0.575744 0.614571 0.276107
O O4 0.544580 0.736056 0.141562
O O5 0.500000 0.804012 0.500000
O O6 0.625411 0.847790 0.521012
O O7 0.520834 0.000000 0.591595
O O8 0.348832 0.615919 0.502242
O O9 0.440404 0.500000 0.560723
O O10 0.454393 0.500000 0.375498
O O11 0.192424 0.500000 0.302414
O O12 0.202731 0.729307 0.348926
O O13 0.253626 0.663257 0.166538
O O14 0.750000 0.750000 0.500000
O O15 0.761896 0.000000 0.025997
O O16 0.750000 0.750000 0.000000
O O17 0.865154 0.844989 0.019950
O O18 0.042645 0.000000 0.091745
O O19 0.000000 0.178093 0.000000
#
# Coordination Sequence:
#
# PCOD8109972 Si02
#       8
#     8   8   4   8   8   8   4   8
#     4  12  20  36  64  93 118 157 206 250 300 358
#     4  11  22  39  62  89 121 162 209 249 289 359
#     4  11  22  40  58  88 129 156 196 254 302 353
#     4  11  23  40  63  89 121 164 209 247 299 367
#     4  12  26  40  60  90 129 164 199 247 305 361
#     4  10  21  40  65  93 122 157 207 260 307 367
#     4  11  20  36  61  92 118 152 203 256 297 344
#     4  10  22  39  62  92 126 160 198 252 314 367
#
# _framework density 18.762713999999999
#
# number of rings (size 3 to 8) (size 9 to 14) (size 15 to 20)
#    0.000    1.000    6.429    0.857    2.000    1.143 
#    1.286    0.000    0.000    3.857    0.000    0.000 
#    0.000    0.000    0.000    0.000    0.000    0.000 
#
# Total GULP energy -347180.049373 kJ/mol
# GULP energy per Si atom -12399.287478 kJ/mol
# Density = 1.872001 g / cm^3
# Si number density = 18.762714 Si / 1000 Ang^3
#
#
#
# Elastic Constant Matrix: (Units=GPa)
#
#
# Indices 1 2 3 4 5 6 
#
# 1 126.4833 27.2098 51.2975 0.0000 2.5062 0.0000
# 2 27.2098 74.8739 26.1045 0.0000 -2.3545 0.0000
# 3 51.2975 26.1045 121.6876 0.0000 -5.9365 0.0000
# 4 0.0000 0.0000 0.0000 29.4337 0.0000 -2.2077
# 5 2.5062 -2.3545 -5.9365 0.0000 27.7765 0.0000
# 6 0.0000 0.0000 0.0000 -2.2077 0.0000 36.4528
#
#
#
# Elastic Compliance Matrix: (Units=1/GPa)
#
#
# Indices 1 2 3 4 5 6 
#
# 1 0.009994 -0.002368 -0.003798 0.000000 -0.001914 0.000000
# 2 -0.002368 0.015005 -0.002171 0.000000 0.001022 0.000000
# 3 -0.003798 -0.002171 0.010401 0.000000 0.002382 0.000000
# 4 0.000000 0.000000 0.000000 0.034130 0.000000 0.002067
# 5 -0.001914 0.001022 0.002382 0.000000 0.036770 0.000000
# 6 0.000000 0.000000 0.000000 0.002067 0.000000 0.027558
#
#
# Mechanical properties :
#
#
# Convention : Reuss Voigt Hill
#
# Bulk Modulus (GPa) = 53.40216 59.14092 56.27154
# Shear Modulus (GPa) = 31.89301 33.29480 32.59390
#
# Velocity S-wave (km/s) = 4.12735 4.21707 4.17245
# Velocity P-wave (km/s) = 7.15800 7.43643 7.29854
#
# Compressibility (1/GPa) = 0.01872583
#
# Stress axis : x y z
#
# Youngs Moduli (GPa) = 100.06001 66.64317 96.14555
#
# Poissons Ratio (x) = 0.15780 0.36520
# Poissons Ratio (y) = 0.23692 0.20873
# Poissons Ratio (z) = 0.38007 0.14468
#
# Static dielectric constant tensor:
#      x y z
#    x 3.082420 0.000000 -0.012520 
#    y 0.000000 3.639840 0.000000 
#    z -0.012520 0.000000 3.491680 
# 
# 
# High freq. dielectric constant tensor:
#      x y z
#    x 1.708550 0.000000 -0.016140 
#    y 0.000000 1.735410 0.000000 
#    z -0.016140 0.000000 1.737240 
# 
# From -- ./inp_files/223754.got.cif
#   From: 2010.06.25/outbox.cif.g09.slc.cpg/sg12_112_cif.got.tgz:223754.got - 2010.06.28 00:19:55.
