data_PCOD8109898
_publ_section_title
;
Structure prediction by ZEFSAII (Michael W. Deem and Ramdas Pophale) SiO2 
 PCOD8109898
Probable space group: C 2/M
;
_chemical_formula_sum "Si O2"
_cell_formula_units_Z 48
_cell_length_a 18.854145
_cell_length_b 8.418767
_cell_length_c 29.612042
_cell_angle_alpha 90.000000
_cell_angle_beta 150.677016
_cell_angle_gamma 90.000000
_cell_volume 2301.878438
_symmetry_space_group_name_H-M "C 2/M"
_symmetry_group_IT_number 12
_symmetry_cell_setting 'monoclinic'
loop_
_space_group_symop_operation_xyz
x,y,z
-x,y,-z
-x,-y,-z
x,-y,z
1/2+x,1/2+y,z
1/2-x,1/2+y,-z
1/2-x,1/2-y,-z
1/2+x,1/2-y,z
loop_
_atom_site_type_symbol
_atom_site_label
_atom_site_fract_x
_atom_site_fract_y
_atom_site_fract_z
Si Si1 0.948142 0.312058 0.245643
Si Si2 0.364789 0.183664 0.733786
Si Si3 0.559168 0.184259 0.580811
Si Si4 0.911936 0.814337 0.587484
Si Si5 0.367650 0.319638 0.952142
Si Si6 0.096303 0.820277 0.924280
O O1 0.941998 0.500000 0.237511
O O2 0.068912 0.251410 0.276846
O O3 0.989891 0.264224 0.319354
O O4 0.789961 0.239064 0.144539
O O5 0.230194 0.289022 0.674680
O O6 0.482335 0.203358 0.838085
O O7 0.318535 0.000000 0.704329
O O8 0.500000 0.245788 0.500000
O O9 0.481952 0.280918 0.577746
O O10 0.524239 0.000000 0.569224
O O11 0.750000 0.750000 0.500000
O O12 0.907846 0.000000 0.593963
O O13 0.353417 0.500000 0.926443
O O14 0.500000 0.231346 0.000000
O O15 0.422774 0.315236 0.033326
O O16 0.080537 0.000000 0.896881
O O17 0.250000 0.750000 0.000000
#
# Coordination Sequence:
#
# PCOD8109898 Si02
#       6
#     8   8   8   8   8   8
#     4  10  21  40  64  91 128 171 213 258 315 377
#     4  11  23  40  63  94 130 168 211 262 320 376
#     4  11  25  45  69  97 125 161 210 260 314 378
#     4  12  26  44  67  96 129 165 206 256 316 376
#     4   9  19  36  59  88 122 165 212 257 311 371
#     4  11  21  37  61  90 123 168 216 264 317 373
#
# _framework density 20.852536000000001
#
# number of rings (size 3 to 8) (size 9 to 14) (size 15 to 20)
#    0.000    1.333    1.667    4.000    2.333    5.333 
#    0.000    0.000    0.000    2.500    0.000    0.000 
#    0.000    0.000    0.000    0.000    0.000    0.000 
#
# Total GULP energy -297605.600366 kJ/mol
# GULP energy per Si atom -12400.233349 kJ/mol
# Density = 2.080507 g / cm^3
# Si number density = 20.852536 Si / 1000 Ang^3
#
#
#
# Elastic Constant Matrix: (Units=GPa)
#
#
# Indices 1 2 3 4 5 6 
#
# 1 135.4838 14.2613 49.8631 -0.0001 14.2539 0.0000
# 2 14.2613 31.3438 2.2274 -0.0002 3.0914 0.0003
# 3 49.8631 2.2274 112.7623 0.0001 1.1688 0.0000
# 4 -0.0001 -0.0002 0.0001 30.5227 0.0000 -0.3685
# 5 14.2539 3.0914 1.1688 0.0000 42.3054 0.0000
# 6 0.0000 0.0003 0.0000 -0.3685 0.0000 25.8181
#
#
#
# Elastic Compliance Matrix: (Units=1/GPa)
#
#
# Indices 1 2 3 4 5 6 
#
# 1 0.009604 -0.003795 -0.004143 0.000000 -0.002844 0.000000
# 2 -0.003795 0.033677 0.001025 0.000000 -0.001211 0.000000
# 3 -0.004143 0.001025 0.010669 0.000000 0.001026 0.000000
# 4 0.000000 0.000000 0.000000 0.032768 0.000000 0.000468
# 5 -0.002844 -0.001211 0.001026 0.000000 0.024656 0.000000
# 6 0.000000 0.000000 0.000000 0.000468 0.000000 0.038739
#
#
# Mechanical properties :
#
#
# Convention : Reuss Voigt Hill
#
# Bulk Modulus (GPa) = 24.92106 45.81039 35.36572
# Shear Modulus (GPa) = 28.19857 33.94511 31.07184
#
# Velocity S-wave (km/s) = 3.68133 4.03906 3.86434
# Velocity P-wave (km/s) = 5.48148 6.61577 6.07516
#
# Compressibility (1/GPa) = 0.04012671
#
# Stress axis : x y z
#
# Youngs Moduli (GPa) = 104.12045 29.69342 93.72840
#
# Poissons Ratio (x) = 0.11269 0.38827
# Poissons Ratio (y) = 0.39514 -0.09611
# Poissons Ratio (z) = 0.43132 -0.03045
#
# Static dielectric constant tensor:
#      x y z
#    x 3.873380 0.000000 0.136950 
#    y 0.000000 3.607600 0.000000 
#    z 0.136950 0.000000 3.801140 
# 
# 
# High freq. dielectric constant tensor:
#      x y z
#    x 1.830590 0.000000 0.003270 
#    y 0.000000 1.797680 0.000000 
#    z 0.003270 0.000000 1.830290 
# 
# From -- ./inp_files/295890.got.cif
#   From: 2010.06.25/outbox.cif.g09.slc.cpg/sg12_148_cif.got.tgz:295890.got - 2010.06.28 00:19:55.
