data_PCOD8109196
_publ_section_title
;
Structure prediction by ZEFSAII (Michael W. Deem and Ramdas Pophale) SiO2 
 PCOD8109196
Probable space group: C 2/M
;
_chemical_formula_sum "Si O2"
_cell_formula_units_Z 40
_cell_length_a 9.478578
_cell_length_b 16.416863
_cell_length_c 12.255111
_cell_angle_alpha 90.000000
_cell_angle_beta 84.044519
_cell_angle_gamma 90.000000
_cell_volume 1896.707210
_symmetry_space_group_name_H-M "C 2/M"
_symmetry_group_IT_number 12
_symmetry_cell_setting 'monoclinic'
loop_
_space_group_symop_operation_xyz
x,y,z
-x,y,-z
-x,-y,-z
x,-y,z
1/2+x,1/2+y,z
1/2-x,1/2+y,-z
1/2-x,1/2-y,-z
1/2+x,1/2-y,z
loop_
_atom_site_type_symbol
_atom_site_label
_atom_site_fract_x
_atom_site_fract_y
_atom_site_fract_z
Si Si1 0.162997 0.172706 0.959750
Si Si2 0.611923 0.403012 0.740472
Si Si3 0.705008 0.595088 0.283819
Si Si4 0.335671 0.332246 0.490242
Si Si5 0.127830 0.591775 0.923693
O O1 0.182566 0.152323 0.829599
O O2 0.250000 0.250000 0.000000
O O3 0.228739 0.094473 0.015906
O O4 0.000000 0.183016 0.000000
O O5 0.628591 0.500000 0.760536
O O6 0.448515 0.374669 0.744363
O O7 0.689109 0.380318 0.620605
O O8 0.711259 0.500000 0.263379
O O9 0.730909 0.613379 0.408011
O O10 0.830836 0.633557 0.196783
O O11 0.500000 0.314652 0.500000
O O12 0.250000 0.250000 0.500000
O O13 0.077515 0.500000 0.907288
O O14 0.000000 0.637828 0.000000
#
# Coordination Sequence:
#
# PCOD8109196 Si02
#       5
#     8   8   8   8   8
#     4  12  25  39  60  91 127 165 208 260 314 376
#     4  10  21  39  66  93 121 163 216 259 305 372
#     4   9  18  37  65  91 120 158 208 256 302 366
#     4  10  22  39  63  91 124 160 203 255 314 366
#     4  10  21  39  62  90 124 162 204 255 313 370
#
# _framework density 21.089179999999999
#
# number of rings (size 3 to 8) (size 9 to 14) (size 15 to 20)
#    0.000    1.800    2.000    1.800    2.800    3.200 
#    3.600    0.000    0.000    1.200    0.000    0.000 
#    0.000    0.000    0.000    0.000    0.000    0.000 
#
# Total GULP energy -247765.044266 kJ/mol
# GULP energy per Si atom -12388.252213 kJ/mol
# Density = 2.104118 g / cm^3
# Si number density = 21.089180 Si / 1000 Ang^3
#
#
#
# Elastic Constant Matrix: (Units=GPa)
#
#
# Indices 1 2 3 4 5 6 
#
# 1 85.7561 25.2333 66.4659 0.0000 -17.3917 0.0000
# 2 25.2333 60.7232 42.8233 0.0000 1.3751 0.0000
# 3 66.4659 42.8233 231.1586 0.0000 -16.2550 0.0000
# 4 0.0000 0.0000 0.0000 34.8259 0.0000 10.3397
# 5 -17.3917 1.3751 -16.2550 0.0000 39.7619 0.0000
# 6 0.0000 0.0000 0.0000 10.3397 0.0000 30.4400
#
#
#
# Elastic Compliance Matrix: (Units=1/GPa)
#
#
# Indices 1 2 3 4 5 6 
#
# 1 0.017091 -0.004695 -0.003611 0.000000 0.006162 0.000000
# 2 -0.004695 0.020413 -0.002703 0.000000 -0.003865 0.000000
# 3 -0.003611 -0.002703 0.005931 0.000000 0.000939 0.000000
# 4 0.000000 0.000000 0.000000 0.031935 0.000000 -0.010847
# 5 0.006162 -0.003865 0.000939 0.000000 0.028362 0.000000
# 6 0.000000 0.000000 0.000000 -0.010847 0.000000 0.036536
#
#
# Mechanical properties :
#
#
# Convention : Reuss Voigt Hill
#
# Bulk Modulus (GPa) = 46.69363 71.85366 59.27364
# Shear Modulus (GPa) = 29.51137 37.21325 33.36231
#
# Velocity S-wave (km/s) = 3.74486 4.20523 3.98171
# Velocity P-wave (km/s) = 6.39435 7.59763 7.02181
#
# Compressibility (1/GPa) = 0.02141620
#
# Stress axis : x y z
#
# Youngs Moduli (GPa) = 58.51067 48.98794 168.59971
#
# Poissons Ratio (x) = 0.22999 0.60884
# Poissons Ratio (y) = 0.27470 0.45580
# Poissons Ratio (z) = 0.21129 0.13244
#
# Static dielectric constant tensor:
#      x y z
#    x 3.810630 0.000000 0.015990 
#    y 0.000000 3.755490 0.000000 
#    z 0.015990 0.000000 2.640870 
# 
# 
# High freq. dielectric constant tensor:
#      x y z
#    x 1.806760 0.000000 -0.012190 
#    y 0.000000 1.814280 0.000000 
#    z -0.012190 0.000000 1.851120 
# 
# From -- ./inp_files/118938.got.cif
#   From: 2010.06.25/outbox.cif.g09.slc.cpg/sg12_60_cif.got.tgz:118938.got - 2010.06.28 00:19:55.
