data_PCOD8109746
_publ_section_title
;
Structure prediction by ZEFSAII (Michael W. Deem and Ramdas Pophale) SiO2 
 PCOD8109746
Probable space group: C 2/M
;
_chemical_formula_sum "Si O2"
_cell_formula_units_Z 44
_cell_length_a 19.103155
_cell_length_b 22.174286
_cell_length_c 5.056618
_cell_angle_alpha 90.000000
_cell_angle_beta 99.529144
_cell_angle_gamma 90.000000
_cell_volume 2112.421400
_symmetry_space_group_name_H-M "C 2/M"
_symmetry_group_IT_number 12
_symmetry_cell_setting 'monoclinic'
loop_
_space_group_symop_operation_xyz
x,y,z
-x,y,-z
-x,-y,-z
x,-y,z
1/2+x,1/2+y,z
1/2-x,1/2+y,-z
1/2-x,1/2-y,-z
1/2+x,1/2-y,z
loop_
_atom_site_type_symbol
_atom_site_label
_atom_site_fract_x
_atom_site_fract_y
_atom_site_fract_z
Si Si1 0.068321 0.831903 0.893861
Si Si2 0.262143 0.931541 0.320714
Si Si3 0.676267 0.759973 0.097576
Si Si4 0.168622 0.069418 0.764769
Si Si5 0.360947 0.174386 0.432157
Si Si6 0.500000 0.769875 0.500000
O O1 0.040340 0.774434 0.720175
O O2 0.131896 0.802726 0.110297
O O3 0.100357 0.886811 0.742627
O O4 0.000000 0.859628 0.000000
O O5 0.228140 0.913698 0.018575
O O6 0.333378 0.893964 0.423690
O O7 0.288171 0.000000 0.341965
O O8 0.201339 0.919779 0.498339
O O9 0.689060 0.787549 0.397651
O O10 0.750000 0.750000 0.000000
O O11 0.637443 0.805704 0.872699
O O12 0.143800 0.000000 0.787784
O O13 0.441139 0.185353 0.594103
#
# Coordination Sequence:
#
# PCOD8109746 Si02
#       6
#     8   8   8   8   8   4
#     4  11  22  38  57  82 123 156 191 235 287 346
#     4  10  21  40  62  87 112 148 196 247 290 336
#     4  11  22  35  57  86 112 149 198 239 288 340
#     4  10  23  40  61  85 114 150 197 242 285 336
#     4  11  21  37  57  82 117 151 184 241 293 341
#     4  10  24  38  54  88 122 156 192 232 292 358
#
# _framework density 20.829180000000001
#
# number of rings (size 3 to 8) (size 9 to 14) (size 15 to 20)
#    0.000    1.455    1.818    3.818    2.545    1.818 
#    0.000    0.909    0.000    0.000    0.000    7.636 
#    0.000    0.000    0.000    0.000    0.000    0.000 
#
# Total GULP energy -272595.961925 kJ/mol
# GULP energy per Si atom -12390.725542 kJ/mol
# Density = 2.078177 g / cm^3
# Si number density = 20.829180 Si / 1000 Ang^3
#
#
#
# Elastic Constant Matrix: (Units=GPa)
#
#
# Indices 1 2 3 4 5 6 
#
# 1 113.5504 56.0658 -8.6408 0.0000 1.9637 0.0000
# 2 56.0658 85.4904 -2.7833 0.0000 5.5246 0.0000
# 3 -8.6408 -2.7833 49.3211 0.0000 -9.5528 0.0000
# 4 0.0000 0.0000 0.0000 22.5054 0.0000 -0.4775
# 5 1.9637 5.5246 -9.5528 0.0000 22.7379 0.0000
# 6 0.0000 0.0000 0.0000 -0.4775 0.0000 39.7425
#
#
#
# Elastic Compliance Matrix: (Units=1/GPa)
#
#
# Indices 1 2 3 4 5 6 
#
# 1 0.013260 -0.008748 0.002198 0.000000 0.001904 0.000000
# 2 -0.008748 0.017655 -0.001329 0.000000 -0.004093 0.000000
# 3 0.002198 -0.001329 0.022437 0.000000 0.009559 0.000000
# 4 0.000000 0.000000 0.000000 0.044445 0.000000 0.000534
# 5 0.001904 -0.004093 0.009559 0.000000 0.048826 0.000000
# 6 0.000000 0.000000 0.000000 0.000534 0.000000 0.025168
#
#
# Mechanical properties :
#
#
# Convention : Reuss Voigt Hill
#
# Bulk Modulus (GPa) = 26.59879 37.51615 32.05747
# Shear Modulus (GPa) = 24.98997 30.57850 27.78424
#
# Velocity S-wave (km/s) = 3.46751 3.83568 3.65623
# Velocity P-wave (km/s) = 5.36928 6.13735 5.76612
#
# Compressibility (1/GPa) = 0.03759569
#
# Stress axis : x y z
#
# Youngs Moduli (GPa) = 75.41359 56.64024 44.56931
#
# Poissons Ratio (x) = 0.49547 -0.09797
# Poissons Ratio (y) = 0.65970 0.05923
# Poissons Ratio (z) = -0.16578 0.07527
#
# Static dielectric constant tensor:
#      x y z
#    x 4.745240 0.000000 -0.119630 
#    y 0.000000 3.796340 0.000000 
#    z -0.119630 0.000000 4.833140 
# 
# 
# High freq. dielectric constant tensor:
#      x y z
#    x 1.813190 0.000000 -0.007420 
#    y 0.000000 1.804170 0.000000 
#    z -0.007420 0.000000 1.815460 
# 
# From -- ./inp_files/16164.got.cif
#   From: 2010.06.25/outbox.cif.g09.slc.cpg/sg12_9_cif.got.tgz:16164.got - 2010.06.28 00:19:55.
