data_PCOD8109621
_publ_section_title
;
Structure prediction by ZEFSAII (Michael W. Deem and Ramdas Pophale) SiO2 
 PCOD8109621
Probable space group: C 2/M
;
_chemical_formula_sum "Si O2"
_cell_formula_units_Z 64
_cell_length_a 15.617398
_cell_length_b 24.783616
_cell_length_c 11.719382
_cell_angle_alpha 90.000000
_cell_angle_beta 38.070299
_cell_angle_gamma 90.000000
_cell_volume 2797.056270
_symmetry_space_group_name_H-M "C 2/M"
_symmetry_group_IT_number 12
_symmetry_cell_setting 'monoclinic'
loop_
_space_group_symop_operation_xyz
x,y,z
-x,y,-z
-x,-y,-z
x,-y,z
1/2+x,1/2+y,z
1/2-x,1/2+y,-z
1/2-x,1/2-y,-z
1/2+x,1/2-y,z
loop_
_atom_site_type_symbol
_atom_site_label
_atom_site_fract_x
_atom_site_fract_y
_atom_site_fract_z
Si Si1 0.768012 0.217225 0.166880
Si Si2 0.847882 0.439252 0.206236
Si Si3 0.433518 0.559038 0.190908
Si Si4 0.749266 0.306210 0.557337
Si Si5 0.371025 0.939534 0.452153
Si Si6 0.246507 0.156517 0.164693
Si Si7 0.533062 0.345630 0.207858
Si Si8 0.550314 0.152476 0.257078
O O1 0.790725 0.192665 0.267163
O O2 0.771570 0.281952 0.178737
O O3 0.621374 0.193918 0.271637
O O4 0.890678 0.198716 0.952915
O O5 0.794003 0.500000 0.227661
O O6 0.854421 0.434863 0.334181
O O7 0.755338 0.389662 0.252489
O O8 0.000000 0.429721 0.000000
O O9 0.418716 0.500000 0.265574
O O10 0.276434 0.583966 0.344704
O O11 0.545105 0.594351 0.143643
O O12 0.500000 0.552135 0.000000
O O13 0.750000 0.250000 0.500000
O O14 0.630736 0.336981 0.611858
O O15 0.901639 0.327384 0.369898
O O16 0.505197 0.905728 0.357756
O O17 0.396911 0.000000 0.467414
O O18 0.092233 0.155218 0.273303
O O19 0.352063 0.142162 0.952648
#
# Coordination Sequence:
#
# PCOD8109621 Si02
#       8
#     8   8   8   8   8   8   8   8
#     4  11  25  42  60  92 135 174 221 277 334 400
#     4  10  21  39  67 102 136 174 223 280 340 404
#     4  10  21  40  66  94 125 170 222 272 333 402
#     4  12  24  39  63  89 122 173 229 271 333 399
#     4  10  21  40  69 102 131 168 227 285 336 401
#     4  11  24  42  63  95 138 176 217 271 337 405
#     4  11  23  41  62  91 128 172 218 272 331 403
#     4  11  22  40  64  94 131 170 219 285 335 391
#
# _framework density 22.881198000000001
#
# number of rings (size 3 to 8) (size 9 to 14) (size 15 to 20)
#    0.000    1.250    2.500    4.500    1.750    1.500 
#    0.000    3.750    0.000    4.500    0.000    0.000 
#    0.000    0.000    0.000    0.000    0.000    0.000 
#
# Total GULP energy -396517.045579 kJ/mol
# GULP energy per Si atom -12391.157674 kJ/mol
# Density = 2.282912 g / cm^3
# Si number density = 22.881198 Si / 1000 Ang^3
#
#
#
# Elastic Constant Matrix: (Units=GPa)
#
#
# Indices 1 2 3 4 5 6 
#
# 1 68.6944 25.9753 15.8632 -0.0002 -23.0207 0.0003
# 2 25.9753 144.1575 2.8804 0.0001 -17.2121 -0.0002
# 3 15.8632 2.8804 70.3912 -0.0006 -15.8419 0.0012
# 4 -0.0002 0.0001 -0.0006 29.5612 0.0005 -4.4260
# 5 -23.0207 -17.2121 -15.8419 0.0005 35.3409 -0.0009
# 6 0.0003 -0.0002 0.0012 -4.4260 -0.0009 58.4288
#
#
#
# Elastic Compliance Matrix: (Units=1/GPa)
#
#
# Indices 1 2 3 4 5 6 
#
# 1 0.019414 -0.002177 -0.001867 0.000000 0.010749 0.000000
# 2 -0.002177 0.007629 0.000774 0.000000 0.002644 0.000000
# 3 -0.001867 0.000774 0.016023 0.000000 0.006343 0.000000
# 4 0.000000 0.000000 0.000000 0.034216 0.000000 0.002592
# 5 0.010749 0.002644 0.006343 0.000000 0.039428 0.000000
# 6 0.000000 0.000000 0.000000 0.002592 0.000000 0.017311
#
#
# Mechanical properties :
#
#
# Convention : Reuss Voigt Hill
#
# Bulk Modulus (GPa) = 27.37881 41.40899 34.39390
# Shear Modulus (GPa) = 32.73573 40.56781 36.65177
#
# Velocity S-wave (km/s) = 3.78654 4.21524 4.00663
# Velocity P-wave (km/s) = 5.57753 6.46743 6.03889
#
# Compressibility (1/GPa) = 0.03652459
#
# Stress axis : x y z
#
# Youngs Moduli (GPa) = 51.50995 131.07101 62.41057
#
# Poissons Ratio (x) = 0.28540 0.11651
# Poissons Ratio (y) = 0.11216 -0.04828
# Poissons Ratio (z) = 0.09616 -0.10140
#
# Static dielectric constant tensor:
#      x y z
#    x 3.891900 0.000000 0.055370 
#    y 0.000000 4.639150 0.000010 
#    z 0.055370 0.000010 2.401120 
# 
# 
# High freq. dielectric constant tensor:
#      x y z
#    x 1.880530 0.000000 -0.004940 
#    y 0.000000 1.928330 0.000000 
#    z -0.004940 0.000000 1.908270 
# 
# From -- ./inp_files/149767.got.cif
#   From: 2010.06.25/outbox.cif.g09.slc.cpg/sg12_75_cif.got.tgz:149767.got - 2010.06.28 00:19:55.
