data_PCOD8109911
_publ_section_title
;
Structure prediction by ZEFSAII (Michael W. Deem and Ramdas Pophale) SiO2 
 PCOD8109911
Probable space group: C 2/M
;
_chemical_formula_sum "Si O2"
_cell_formula_units_Z 48
_cell_length_a 12.439036
_cell_length_b 28.714373
_cell_length_c 6.832800
_cell_angle_alpha 90.000000
_cell_angle_beta 117.667440
_cell_angle_gamma 90.000000
_cell_volume 2161.477136
_symmetry_space_group_name_H-M "C 2/M"
_symmetry_group_IT_number 12
_symmetry_cell_setting 'monoclinic'
loop_
_space_group_symop_operation_xyz
x,y,z
-x,y,-z
-x,-y,-z
x,-y,z
1/2+x,1/2+y,z
1/2-x,1/2+y,-z
1/2-x,1/2-y,-z
1/2+x,1/2-y,z
loop_
_atom_site_type_symbol
_atom_site_label
_atom_site_fract_x
_atom_site_fract_y
_atom_site_fract_z
Si Si1 0.614989 0.275773 0.679605
Si Si2 0.615527 0.447821 0.238857
Si Si3 0.722083 0.306470 0.131387
Si Si4 0.678703 0.638857 0.481699
Si Si5 0.127401 0.633564 0.037695
Si Si6 0.881263 0.446616 0.270384
O O1 0.500000 0.246818 0.500000
O O2 0.729275 0.242166 0.739214
O O3 0.610125 0.321045 0.537683
O O4 0.604898 0.292889 0.898364
O O5 0.612118 0.500000 0.324767
O O6 0.600277 0.408867 0.395675
O O7 0.749372 0.438650 0.258961
O O8 0.500000 0.441352 0.000000
O O9 0.700030 0.344188 0.277321
O O10 0.817039 0.327081 0.054773
O O11 0.799709 0.625853 0.699954
O O12 0.115081 0.584063 0.921351
O O13 0.000000 0.653657 0.000000
O O14 0.893544 0.500000 0.215217
O O15 0.000000 0.432689 0.500000
#
# Coordination Sequence:
#
# PCOD8109911 Si02
#       6
#     8   8   8   8   8   8
#     4  10  24  40  63  93 122 168 218 265 329 396
#     4  10  22  40  67  98 130 174 219 270 335 394
#     4  10  23  44  58  92 131 160 216 274 322 400
#     4  11  23  40  66  91 127 172 213 268 335 391
#     4  11  24  37  64  96 122 173 219 266 336 395
#     4  10  21  40  64  92 133 175 218 274 333 393
#
# _framework density 22.207034
#
# number of rings (size 3 to 8) (size 9 to 14) (size 15 to 20)
#    0.000    1.667    1.667    1.500    4.667    1.000 
#    0.000    0.000    0.000    3.500    0.000    0.000 
#    0.000    0.000    0.000    0.000    0.000    0.000 
#
# Total GULP energy -297355.553588 kJ/mol
# GULP energy per Si atom -12389.814733 kJ/mol
# Density = 2.215649 g / cm^3
# Si number density = 22.207034 Si / 1000 Ang^3
#
#
#
# Elastic Constant Matrix: (Units=GPa)
#
#
# Indices 1 2 3 4 5 6 
#
# 1 64.2955 9.6136 43.6028 0.0000 22.0830 0.0000
# 2 9.6136 126.6983 63.2714 0.0000 4.4668 0.0000
# 3 43.6028 63.2714 157.0209 0.0000 23.5790 0.0000
# 4 0.0000 0.0000 0.0000 45.6984 0.0000 0.3997
# 5 22.0830 4.4668 23.5790 0.0000 38.8339 0.0000
# 6 0.0000 0.0000 0.0000 0.3997 0.0000 13.3067
#
#
#
# Elastic Compliance Matrix: (Units=1/GPa)
#
#
# Indices 1 2 3 4 5 6 
#
# 1 0.022212 0.001269 -0.005238 0.000000 -0.009596 0.000000
# 2 0.001269 0.010024 -0.004522 0.000000 0.000871 0.000000
# 3 -0.005238 -0.004522 0.010035 0.000000 -0.002594 0.000000
# 4 0.000000 0.000000 0.000000 0.021888 0.000000 -0.000657
# 5 -0.009596 0.000871 -0.002594 0.000000 0.032682 0.000000
# 6 0.000000 0.000000 0.000000 -0.000657 0.000000 0.075170
#
#
# Mechanical properties :
#
#
# Convention : Reuss Voigt Hill
#
# Bulk Modulus (GPa) = 39.54543 64.55446 52.04995
# Shear Modulus (GPa) = 25.32617 35.00295 30.16456
#
# Velocity S-wave (km/s) = 3.38073 3.97446 3.68956
# Velocity P-wave (km/s) = 5.75199 7.08479 6.45289
#
# Compressibility (1/GPa) = 0.02528737
#
# Stress axis : x y z
#
# Youngs Moduli (GPa) = 45.02125 99.75844 99.65106
#
# Poissons Ratio (x) = -0.12658 0.52199
# Poissons Ratio (y) = -0.05712 0.45067
# Poissons Ratio (z) = 0.23583 0.45115
#
# Static dielectric constant tensor:
#      x y z
#    x 3.842080 0.000000 0.304790 
#    y 0.000000 4.202490 0.000000 
#    z 0.304790 0.000000 4.299390 
# 
# 
# High freq. dielectric constant tensor:
#      x y z
#    x 1.851630 0.000000 0.024600 
#    y 0.000000 1.894120 0.000000 
#    z 0.024600 0.000000 1.886510 
# 
# From -- ./inp_files/13237.got.cif
#   From: 2010.06.25/outbox.cif.g09.slc.cpg/sg12_7_cif.got.tgz:13237.got - 2010.06.28 00:19:55.
