data_PCOD8109573
_publ_section_title
;
Structure prediction by ZEFSAII (Michael W. Deem and Ramdas Pophale) SiO2 
 PCOD8109573
Probable space group: C 2/M
;
_chemical_formula_sum "Si O2"
_cell_formula_units_Z 64
_cell_length_a 19.433339
_cell_length_b 18.092613
_cell_length_c 11.797763
_cell_angle_alpha 90.000000
_cell_angle_beta 47.175329
_cell_angle_gamma 90.000000
_cell_volume 3042.365186
_symmetry_space_group_name_H-M "C 2/M"
_symmetry_group_IT_number 12
_symmetry_cell_setting 'monoclinic'
loop_
_space_group_symop_operation_xyz
x,y,z
-x,y,-z
-x,-y,-z
x,-y,z
1/2+x,1/2+y,z
1/2-x,1/2+y,-z
1/2-x,1/2-y,-z
1/2+x,1/2-y,z
loop_
_atom_site_type_symbol
_atom_site_label
_atom_site_fract_x
_atom_site_fract_y
_atom_site_fract_z
Si Si1 0.315452 0.167038 0.540696
Si Si2 0.160835 0.830806 0.542400
Si Si3 0.782450 0.912540 0.728898
Si Si4 0.157025 0.916442 0.094700
Si Si5 0.476636 0.686603 0.897939
Si Si6 0.175883 0.417306 0.249774
Si Si7 0.918147 0.648512 0.003997
Si Si8 0.495821 0.083789 0.701296
O O1 0.240885 0.135949 0.534321
O O2 0.307466 0.255000 0.552149
O O3 0.288191 0.139091 0.695783
O O4 0.418435 0.140100 0.391034
O O5 0.150310 0.889790 0.451900
O O6 0.069254 0.814009 0.717973
O O7 0.838559 0.889037 0.780072
O O8 0.763219 0.000000 0.749611
O O9 0.683729 0.868548 0.828268
O O10 0.092418 0.869231 0.085563
O O11 0.119040 0.000000 0.131564
O O12 0.262739 0.909819 0.931451
O O13 0.426789 0.766156 0.956624
O O14 0.500000 0.660390 0.000000
O O15 0.183225 0.500000 0.292050
O O16 0.068332 0.400303 0.336980
O O17 0.931154 0.595009 0.883079
O O18 0.000000 0.629250 0.000000
O O19 0.533652 0.000000 0.656031
#
# Coordination Sequence:
#
# PCOD8109573 Si02
#       8
#     8   8   8   8   8   8   8   8
#     4  11  23  40  61  92 133 174 210 266 324 390
#     4  11  26  43  63  94 132 175 221 265 322 388
#     4  11  25  45  68  97 133 174 223 274 331 394
#     4  10  23  44  68  94 128 174 224 275 325 382
#     4  11  25  45  68  98 131 175 224 275 326 389
#     4  10  21  39  65  96 130 166 210 268 332 395
#     4  11  23  39  65  99 133 171 215 269 332 397
#     4  11  21  39  64  96 134 166 212 269 330 402
#
# _framework density 21.036263999999999
#
# number of rings (size 3 to 8) (size 9 to 14) (size 15 to 20)
#    0.000    1.250    2.500    2.625    7.000    6.750 
#    2.250    1.250    0.000    0.000    0.000    0.000 
#    0.000    0.000    0.000    0.000    0.000    0.000 
#
# Total GULP energy -396830.619327 kJ/mol
# GULP energy per Si atom -12400.956854 kJ/mol
# Density = 2.098838 g / cm^3
# Si number density = 21.036264 Si / 1000 Ang^3
#
#
#
# Elastic Constant Matrix: (Units=GPa)
#
#
# Indices 1 2 3 4 5 6 
#
# 1 118.1800 66.8122 31.2066 0.0000 14.6912 0.0000
# 2 66.8122 84.5600 36.6878 0.0000 9.7295 0.0000
# 3 31.2066 36.6878 100.1371 0.0000 19.8822 0.0000
# 4 0.0000 0.0000 0.0000 31.5637 0.0000 0.0532
# 5 14.6912 9.7295 19.8822 0.0000 32.7016 0.0000
# 6 0.0000 0.0000 0.0000 0.0532 0.0000 34.2326
#
#
#
# Elastic Compliance Matrix: (Units=1/GPa)
#
#
# Indices 1 2 3 4 5 6 
#
# 1 0.015670 -0.012078 0.000257 0.000000 -0.003602 0.000000
# 2 -0.012078 0.023412 -0.005127 0.000000 0.001577 0.000000
# 3 0.000257 -0.005127 0.013084 0.000000 -0.006545 0.000000
# 4 0.000000 0.000000 0.000000 0.031682 0.000000 -0.000049
# 5 -0.003602 0.001577 -0.006545 0.000000 0.035708 0.000000
# 6 0.000000 0.000000 0.000000 -0.000049 0.000000 0.029212
#
#
# Mechanical properties :
#
#
# Convention : Reuss Voigt Hill
#
# Bulk Modulus (GPa) = 54.73385 63.58781 59.16083
# Shear Modulus (GPa) = 26.48961 30.91093 28.70027
#
# Velocity S-wave (km/s) = 3.55242 3.83745 3.69768
# Velocity P-wave (km/s) = 6.54993 7.06598 6.81284
#
# Compressibility (1/GPa) = 0.01827023
#
# Stress axis : x y z
#
# Youngs Moduli (GPa) = 63.81687 42.71358 76.42886
#
# Poissons Ratio (x) = 0.51589 -0.01964
# Poissons Ratio (y) = 0.77078 0.39183
# Poissons Ratio (z) = -0.01640 0.21898
#
# Static dielectric constant tensor:
#      x y z
#    x 3.833970 0.000000 0.091630 
#    y 0.000000 3.749470 0.000000 
#    z 0.091630 0.000000 3.903150 
# 
# 
# High freq. dielectric constant tensor:
#      x y z
#    x 1.828760 0.000000 0.009580 
#    y 0.000000 1.818000 0.000000 
#    z 0.009580 0.000000 1.834790 
# 
# From -- ./inp_files/168749.got.cif
#   From: 2010.06.25/outbox.cif.g09.slc.cpg/sg12_85_cif.got.tgz:168749.got - 2010.06.28 00:19:55.
