data_PCOD8109739
_publ_section_title
;
Structure prediction by ZEFSAII (Michael W. Deem and Ramdas Pophale) SiO2 
 PCOD8109739
Probable space group: C 2/M
;
_chemical_formula_sum "Si O2"
_cell_formula_units_Z 56
_cell_length_a 19.189626
_cell_length_b 9.109297
_cell_length_c 16.605165
_cell_angle_alpha 90.000000
_cell_angle_beta 74.292084
_cell_angle_gamma 90.000000
_cell_volume 2794.247983
_symmetry_space_group_name_H-M "C 2/M"
_symmetry_group_IT_number 12
_symmetry_cell_setting 'monoclinic'
loop_
_space_group_symop_operation_xyz
x,y,z
-x,y,-z
-x,-y,-z
x,-y,z
1/2+x,1/2+y,z
1/2-x,1/2+y,-z
1/2-x,1/2-y,-z
1/2+x,1/2-y,z
loop_
_atom_site_type_symbol
_atom_site_label
_atom_site_fract_x
_atom_site_fract_y
_atom_site_fract_z
Si Si1 0.595816 0.169421 0.111356
Si Si2 0.041038 0.832982 0.806406
Si Si3 0.579068 0.327621 0.508757
Si Si4 0.132416 0.327611 0.649412
Si Si5 0.770412 0.668861 0.817600
Si Si6 0.291594 0.670799 0.646013
Si Si7 0.377468 0.333111 0.059415
O O1 0.536283 0.256615 0.181917
O O2 0.671629 0.193713 0.130906
O O3 0.573053 0.000000 0.115180
O O4 0.601165 0.228644 0.019671
O O5 0.102538 0.745961 0.739540
O O6 0.058364 0.828645 0.895772
O O7 0.037518 0.000000 0.775649
O O8 0.500000 0.287469 0.500000
O O9 0.586308 0.500000 0.524329
O O10 0.591005 0.240701 0.587067
O O11 0.639828 0.274001 0.426784
O O12 0.116788 0.500000 0.656628
O O13 0.218231 0.293325 0.619560
O O14 0.761576 0.500000 0.795860
O O15 0.794343 0.752172 0.730704
O O16 0.695059 0.729079 0.876100
O O17 0.297830 0.500000 0.661909
O O18 0.365705 0.500000 0.031688
#
# Coordination Sequence:
#
# PCOD8109739 Si02
#       7
#     8   8   8   8   8   8   8
#     4  11  24  38  58  90 126 160 200 256 311 355
#     4  11  23  40  63  87 119 163 206 250 302 363
#     4  10  23  42  64  93 126 159 200 243 295 363
#     4  11  23  40  63  92 123 157 203 252 302 354
#     4  10  22  40  61  88 122 161 204 250 301 359
#     4  10  22  40  63  91 122 160 204 248 296 355
#     4  10  21  40  62  86 116 160 212 250 298 363
#
# _framework density 20.041172
#
# number of rings (size 3 to 8) (size 9 to 14) (size 15 to 20)
#    0.000    1.571    1.429    2.571    2.000    6.000 
#    0.000    0.000    0.000    0.000    0.000    0.000 
#    0.000    0.000    0.000    0.000    0.000    0.000 
#
# Total GULP energy -347355.181990 kJ/mol
# GULP energy per Si atom -12405.542214 kJ/mol
# Density = 1.999556 g / cm^3
# Si number density = 20.041172 Si / 1000 Ang^3
#
#
#
# Elastic Constant Matrix: (Units=GPa)
#
#
# Indices 1 2 3 4 5 6 
#
# 1 91.1340 43.8115 35.0925 0.0000 -10.4245 0.0000
# 2 43.8115 82.8160 43.2314 0.0000 3.1631 0.0000
# 3 35.0925 43.2314 90.6392 0.0000 -0.9398 0.0000
# 4 0.0000 0.0000 0.0000 40.1583 0.0000 -0.2260
# 5 -10.4245 3.1631 -0.9398 0.0000 30.6320 0.0000
# 6 0.0000 0.0000 0.0000 -0.2260 0.0000 28.0805
#
#
#
# Elastic Compliance Matrix: (Units=1/GPa)
#
#
# Indices 1 2 3 4 5 6 
#
# 1 0.016310 -0.007462 -0.002691 0.000000 0.006238 0.000000
# 2 -0.007462 0.019603 -0.006510 0.000000 -0.004763 0.000000
# 3 -0.002691 -0.006510 0.015182 0.000000 0.000222 0.000000
# 4 0.000000 0.000000 0.000000 0.024903 0.000000 0.000200
# 5 0.006238 -0.004763 0.000222 0.000000 0.035267 0.000000
# 6 0.000000 0.000000 0.000000 0.000200 0.000000 0.035614
#
#
# Mechanical properties :
#
#
# Convention : Reuss Voigt Hill
#
# Bulk Modulus (GPa) = 56.27867 56.53999 56.40933
# Shear Modulus (GPa) = 26.86341 29.27108 28.06725
#
# Velocity S-wave (km/s) = 3.66513 3.82586 3.74636
# Velocity P-wave (km/s) = 6.78627 6.91299 6.84992
#
# Compressibility (1/GPa) = 0.01776872
#
# Stress axis : x y z
#
# Youngs Moduli (GPa) = 61.31287 51.01313 65.86737
#
# Poissons Ratio (x) = 0.38065 0.17724
# Poissons Ratio (y) = 0.45750 0.42881
# Poissons Ratio (z) = 0.16499 0.33211
#
# Static dielectric constant tensor:
#      x y z
#    x 3.794730 0.000000 -0.194970 
#    y 0.000000 3.655740 0.000000 
#    z -0.194970 0.000000 3.615120 
# 
# 
# High freq. dielectric constant tensor:
#      x y z
#    x 1.795150 0.000000 -0.007330 
#    y 0.000000 1.781220 0.000000 
#    z -0.007330 0.000000 1.785510 
# 
# From -- ./inp_files/275251.got.cif
#   From: 2010.06.25/outbox.cif.g09.slc.cpg/sg12_138_cif.got.tgz:275251.got - 2010.06.28 00:19:55.
