data_PCOD8109185
_publ_section_title
;
Structure prediction by ZEFSAII (Michael W. Deem and Ramdas Pophale) SiO2 
 PCOD8109185
Probable space group: C 2/M
;
_chemical_formula_sum "Si O2"
_cell_formula_units_Z 56
_cell_length_a 26.569370
_cell_length_b 13.604417
_cell_length_c 9.846432
_cell_angle_alpha 90.000000
_cell_angle_beta 55.154898
_cell_angle_gamma 90.000000
_cell_volume 2920.951551
_symmetry_space_group_name_H-M "C 2/M"
_symmetry_group_IT_number 12
_symmetry_cell_setting 'monoclinic'
loop_
_space_group_symop_operation_xyz
x,y,z
-x,y,-z
-x,-y,-z
x,-y,z
1/2+x,1/2+y,z
1/2-x,1/2+y,-z
1/2-x,1/2-y,-z
1/2+x,1/2-y,z
loop_
_atom_site_type_symbol
_atom_site_label
_atom_site_fract_x
_atom_site_fract_y
_atom_site_fract_z
Si Si1 0.000843 0.114492 0.338887
Si Si2 0.308847 0.388243 0.761091
Si Si3 0.183866 0.886013 0.731393
Si Si4 0.119555 0.798278 0.589010
Si Si5 0.130855 0.196117 0.076178
Si Si6 0.829930 0.390154 0.093514
Si Si7 0.681234 0.112884 0.569932
O O1 0.949974 0.181332 0.345497
O O2 0.000000 0.136212 0.500000
O O3 0.064670 0.146215 0.174750
O O4 0.988267 0.000000 0.328579
O O5 0.329471 0.500000 0.761851
O O6 0.334071 0.359849 0.575365
O O7 0.338526 0.315235 0.824148
O O8 0.236056 0.378785 0.874751
O O9 0.131825 0.831795 0.724152
O O10 0.251324 0.853625 0.580423
O O11 0.174409 0.000000 0.724381
O O12 0.175496 0.857250 0.900846
O O13 0.132789 0.680957 0.563213
O O14 0.125139 0.311834 0.047699
O O15 0.855973 0.500000 0.028685
O O16 0.824285 0.368608 0.261389
O O17 0.667733 0.000000 0.551909
#
# Coordination Sequence:
#
# PCOD8109185 Si02
#       7
#     8   8   8   8   8   8   8
#     4  11  24  42  63  85 119 162 199 237 295 365
#     4  11  21  36  62  91 123 160 196 240 307 368
#     4  11  21  35  61  94 125 153 196 253 302 351
#     4  12  21  38  63  88 118 161 205 238 295 358
#     4  12  23  39  59  91 126 157 199 252 296 344
#     4  10  21  39  62  90 121 160 202 244 298 359
#     4  10  21  39  62  90 123 159 199 246 300 356
#
# _framework density 19.171835000000002
#
# number of rings (size 3 to 8) (size 9 to 14) (size 15 to 20)
#    0.000    1.000    4.286    4.286    0.000    0.571 
#    0.000    4.286    0.000    2.571    0.000    0.000 
#    0.000    0.000    0.000    0.000    0.000    0.000 
#
# Total GULP energy -347311.599951 kJ/mol
# GULP energy per Si atom -12403.985713 kJ/mol
# Density = 1.912820 g / cm^3
# Si number density = 19.171835 Si / 1000 Ang^3
#
#
#
# Elastic Constant Matrix: (Units=GPa)
#
#
# Indices 1 2 3 4 5 6 
#
# 1 96.7982 54.6432 18.1114 0.0000 0.7755 0.0000
# 2 54.6432 119.5770 42.5974 0.0000 -7.2564 0.0000
# 3 18.1114 42.5974 60.4761 0.0000 3.5914 0.0000
# 4 0.0000 0.0000 0.0000 32.4574 0.0000 1.9409
# 5 0.7755 -7.2564 3.5914 0.0000 14.8585 0.0000
# 6 0.0000 0.0000 0.0000 1.9409 0.0000 33.5575
#
#
#
# Elastic Compliance Matrix: (Units=1/GPa)
#
#
# Indices 1 2 3 4 5 6 
#
# 1 0.014196 -0.007127 0.001034 0.000000 -0.004472 0.000000
# 2 -0.007127 0.015621 -0.009480 0.000000 0.010292 0.000000
# 3 0.001034 -0.009480 0.023519 0.000000 -0.010368 0.000000
# 4 0.000000 0.000000 0.000000 0.030917 0.000000 -0.001788
# 5 -0.004472 0.010292 -0.010368 0.000000 0.075067 0.000000
# 6 0.000000 0.000000 0.000000 -0.001788 0.000000 0.029903
#
#
# Mechanical properties :
#
#
# Convention : Reuss Voigt Hill
#
# Bulk Modulus (GPa) = 45.06387 56.39503 50.72945
# Shear Modulus (GPa) = 21.95231 26.94130 24.44681
#
# Velocity S-wave (km/s) = 3.38750 3.75274 3.57479
# Velocity P-wave (km/s) = 6.23350 6.94671 6.59975
#
# Compressibility (1/GPa) = 0.02219073
#
# Stress axis : x y z
#
# Youngs Moduli (GPa) = 70.44048 64.01496 42.51899
#
# Poissons Ratio (x) = 0.45624 -0.04397
# Poissons Ratio (y) = 0.50203 0.40308
# Poissons Ratio (z) = -0.07284 0.60686
#
# Static dielectric constant tensor:
#      x y z
#    x 3.325060 0.000000 0.071640 
#    y 0.000000 3.739690 0.000000 
#    z 0.071640 0.000000 3.451190 
# 
# 
# High freq. dielectric constant tensor:
#      x y z
#    x 1.729820 0.000000 0.013930 
#    y 0.000000 1.757840 0.000000 
#    z 0.013930 0.000000 1.738990 
# 
# From -- ./inp_files/96737.got.cif
#   From: 2010.06.25/outbox.cif.g09.slc.cpg/sg12_49_cif.got.tgz:96737.got - 2010.06.28 00:19:55.
