data_PCOD8109755
_publ_section_title
;
Structure prediction by ZEFSAII (Michael W. Deem and Ramdas Pophale) SiO2 
 PCOD8109755
Probable space group: C 2/M
;
_chemical_formula_sum "Si O2"
_cell_formula_units_Z 56
_cell_length_a 26.192258
_cell_length_b 18.103920
_cell_length_c 9.301826
_cell_angle_alpha 90.000000
_cell_angle_beta 39.673651
_cell_angle_gamma 90.000000
_cell_volume 2815.892828
_symmetry_space_group_name_H-M "C 2/M"
_symmetry_group_IT_number 12
_symmetry_cell_setting 'monoclinic'
loop_
_space_group_symop_operation_xyz
x,y,z
-x,y,-z
-x,-y,-z
x,-y,z
1/2+x,1/2+y,z
1/2-x,1/2+y,-z
1/2-x,1/2-y,-z
1/2+x,1/2-y,z
loop_
_atom_site_type_symbol
_atom_site_label
_atom_site_fract_x
_atom_site_fract_y
_atom_site_fract_z
Si Si1 0.835433 0.411980 0.540852
Si Si2 0.544603 0.703135 0.254446
Si Si3 0.496509 0.842706 0.840466
Si Si4 0.831754 0.413255 0.221324
Si Si5 0.304805 0.584387 0.686814
Si Si6 0.286046 0.679487 0.999237
Si Si7 0.521767 0.415829 0.798113
O O1 0.824398 0.500000 0.590130
O O2 0.926954 0.389832 0.377106
O O3 0.815687 0.387865 0.419973
O O4 0.778406 0.364404 0.766443
O O5 0.500000 0.711407 0.500000
O O6 0.509325 0.766492 0.230419
O O7 0.640261 0.707039 0.063205
O O8 0.524922 0.624780 0.227070
O O9 0.500000 0.823187 0.000000
O O10 0.418760 0.891462 0.975448
O O11 0.824010 0.500000 0.233536
O O12 0.766040 0.379024 0.255170
O O13 0.284855 0.500000 0.767944
O O14 0.318661 0.625555 0.805924
O O15 0.383587 0.591739 0.421250
O O16 0.250000 0.750000 0.000000
O O17 0.492505 0.500000 0.851388
O O18 0.500000 0.381713 0.000000
#
# Coordination Sequence:
#
# PCOD8109755 Si02
#       7
#     8   8   8   8   8   8   8
#     4  10  22  40  66  95 122 158 206 257 305 364
#     4  12  24  41  61  88 124 164 205 247 300 367
#     4  10  21  41  63  92 124 159 202 250 309 367
#     4   9  19  38  65  93 121 155 198 254 310 361
#     4  10  21  40  62  88 122 157 198 249 304 360
#     4  12  25  41  59  88 128 164 202 249 301 362
#     4  10  23  41  63  89 118 156 202 253 303 358
#
# _framework density 19.887121
#
# number of rings (size 3 to 8) (size 9 to 14) (size 15 to 20)
#    0.000    1.571    1.429    3.000    2.000    3.143 
#    0.000    2.143    0.000    4.286    0.000    0.000 
#    0.000    0.000    0.000    0.000    0.000    0.000 
#
# Total GULP energy -347260.627531 kJ/mol
# GULP energy per Si atom -12402.165269 kJ/mol
# Density = 1.984186 g / cm^3
# Si number density = 19.887121 Si / 1000 Ang^3
#
#
#
# Elastic Constant Matrix: (Units=GPa)
#
#
# Indices 1 2 3 4 5 6 
#
# 1 93.9561 26.6190 13.7058 0.0000 -15.5935 0.0000
# 2 26.6190 65.2165 29.0802 0.0000 -2.6507 0.0000
# 3 13.7058 29.0802 101.0237 0.0000 -1.6991 0.0000
# 4 0.0000 0.0000 0.0000 26.6670 0.0000 3.6086
# 5 -15.5935 -2.6507 -1.6991 0.0000 26.5518 0.0000
# 6 0.0000 0.0000 0.0000 3.6086 0.0000 33.3059
#
#
#
# Elastic Compliance Matrix: (Units=1/GPa)
#
#
# Indices 1 2 3 4 5 6 
#
# 1 0.013316 -0.005033 -0.000235 0.000000 0.007303 0.000000
# 2 -0.005033 0.019549 -0.004967 0.000000 -0.001322 0.000000
# 3 -0.000235 -0.004967 0.011362 0.000000 0.000093 0.000000
# 4 0.000000 0.000000 0.000000 0.038058 0.000000 -0.004123
# 5 0.007303 -0.001322 0.000093 0.000000 0.041825 0.000000
# 6 0.000000 0.000000 0.000000 -0.004123 0.000000 0.030471
#
#
# Mechanical properties :
#
#
# Convention : Reuss Voigt Hill
#
# Bulk Modulus (GPa) = 42.09369 44.33403 43.21386
# Shear Modulus (GPa) = 27.32709 30.02434 28.67572
#
# Velocity S-wave (km/s) = 3.71092 3.88975 3.80139
# Velocity P-wave (km/s) = 6.29075 6.52033 6.40657
#
# Compressibility (1/GPa) = 0.02375653
#
# Stress axis : x y z
#
# Youngs Moduli (GPa) = 75.10032 51.15379 88.01450
#
# Poissons Ratio (x) = 0.25748 0.02066
# Poissons Ratio (y) = 0.37801 0.43713
# Poissons Ratio (z) = 0.01763 0.25406
#
# Static dielectric constant tensor:
#      x y z
#    x 3.960490 0.000000 0.002070 
#    y 0.000000 3.638890 0.000000 
#    z 0.002070 0.000000 3.673690 
# 
# 
# High freq. dielectric constant tensor:
#      x y z
#    x 1.785310 0.000000 -0.002800 
#    y 0.000000 1.776800 0.000000 
#    z -0.002800 0.000000 1.783180 
# 
# From -- ./inp_files/64059.got.cif
#   From: 2010.06.25/outbox.cif.g09.slc.cpg/sg12_33_cif.got.tgz:64059.got - 2010.06.28 00:19:55.
