data_PCOD8109632
_publ_section_title
;
Structure prediction by ZEFSAII (Michael W. Deem and Ramdas Pophale) SiO2 
 PCOD8109632
Probable space group: C 2/M
;
_chemical_formula_sum "Si O2"
_cell_formula_units_Z 48
_cell_length_a 10.131392
_cell_length_b 17.553940
_cell_length_c 11.349859
_cell_angle_alpha 90.000000
_cell_angle_beta 80.388964
_cell_angle_gamma 90.000000
_cell_volume 1990.193061
_symmetry_space_group_name_H-M "C 2/M"
_symmetry_group_IT_number 12
_symmetry_cell_setting 'monoclinic'
loop_
_space_group_symop_operation_xyz
x,y,z
-x,y,-z
-x,-y,-z
x,-y,z
1/2+x,1/2+y,z
1/2-x,1/2+y,-z
1/2-x,1/2-y,-z
1/2+x,1/2-y,z
loop_
_atom_site_type_symbol
_atom_site_label
_atom_site_fract_x
_atom_site_fract_y
_atom_site_fract_z
Si Si1 0.731445 0.089942 0.618275
Si Si2 0.270052 0.916629 0.645097
Si Si3 0.410959 0.216753 0.217273
Si Si4 0.304555 0.818394 0.860683
Si Si5 0.132379 0.086156 0.056545
Si Si6 0.512636 0.638510 0.310834
O O1 0.679156 0.103790 0.493565
O O2 0.635962 0.136783 0.720297
O O3 0.883931 0.124133 0.597456
O O4 0.730274 0.000000 0.651712
O O5 0.326577 0.857645 0.730329
O O6 0.107878 0.921665 0.670628
O O7 0.323390 0.000000 0.672578
O O8 0.547778 0.207525 0.121804
O O9 0.298839 0.248552 0.143264
O O10 0.445092 0.277422 0.317042
O O11 0.252426 0.874296 0.968605
O O12 0.106687 0.127996 0.182567
O O13 0.177347 0.000000 0.074542
O O14 0.000000 0.089970 0.000000
#
# Coordination Sequence:
#
# PCOD8109632 Si02
#       6
#     8   8   8   8   8   8
#     4  11  24  43  65  97 137 176 220 276 334 393
#     4  10  21  39  67  96 129 174 221 271 330 397
#     4  11  24  44  64  98 132 177 222 270 336 390
#     4  11  24  43  65  98 132 174 224 274 330 403
#     4  11  21  38  68 100 129 169 219 281 331 389
#     4  11  22  41  67  97 134 173 223 271 328 403
#
# _framework density 24.118264
#
# number of rings (size 3 to 8) (size 9 to 14) (size 15 to 20)
#    0.000    1.167    5.000    2.500    0.000    6.667 
#    9.000    1.667    0.000    2.000    0.000    0.000 
#    0.000    0.000    0.000    0.000    0.000    0.000 
#
# Total GULP energy -297579.407962 kJ/mol
# GULP energy per Si atom -12399.141998 kJ/mol
# Density = 2.406337 g / cm^3
# Si number density = 24.118264 Si / 1000 Ang^3
#
#
#
# Elastic Constant Matrix: (Units=GPa)
#
#
# Indices 1 2 3 4 5 6 
#
# 1 109.4147 23.1255 -2.8187 0.0000 -18.3157 0.0000
# 2 23.1255 108.1665 5.4038 0.0000 -11.2680 0.0000
# 3 -2.8187 5.4038 36.2978 0.0000 -8.3335 0.0000
# 4 0.0000 0.0000 0.0000 28.8556 0.0000 -16.6959
# 5 -18.3157 -11.2680 -8.3335 0.0000 28.0299 0.0000
# 6 0.0000 0.0000 0.0000 -16.6959 0.0000 24.0908
#
#
#
# Elastic Compliance Matrix: (Units=1/GPa)
#
#
# Indices 1 2 3 4 5 6 
#
# 1 0.010768 -0.001692 0.002734 0.000000 0.007169 0.000000
# 2 -0.001692 0.009927 -0.001016 0.000000 0.002583 0.000000
# 3 0.002734 -0.001016 0.030298 0.000000 0.010386 0.000000
# 4 0.000000 0.000000 0.000000 0.057855 0.000000 0.040096
# 5 0.007169 0.002583 0.010386 0.000000 0.044486 0.000000
# 6 0.000000 0.000000 0.000000 0.040096 0.000000 0.069297
#
#
# Mechanical properties :
#
#
# Convention : Reuss Voigt Hill
#
# Bulk Modulus (GPa) = 19.59111 33.92223 26.75667
# Shear Modulus (GPa) = 20.86867 31.40649 26.13758
#
# Velocity S-wave (km/s) = 2.94473 3.61250 3.29557
# Velocity P-wave (km/s) = 4.43875 5.61210 5.05955
#
# Compressibility (1/GPa) = 0.05104356
#
# Stress axis : x y z
#
# Youngs Moduli (GPa) = 92.87168 100.74000 33.00559
#
# Poissons Ratio (x) = 0.17044 -0.09023
# Poissons Ratio (y) = 0.15713 0.03354
# Poissons Ratio (z) = -0.25390 0.10237
#
# Static dielectric constant tensor:
#      x y z
#    x 4.406240 0.000000 0.207600 
#    y 0.000000 4.434030 0.000000 
#    z 0.207600 0.000000 4.429610 
# 
# 
# High freq. dielectric constant tensor:
#      x y z
#    x 1.952270 0.000000 -0.002480 
#    y 0.000000 1.963070 0.000000 
#    z -0.002480 0.000000 1.948580 
# 
# From -- ./inp_files/131028.got.cif
#   From: 2010.06.25/outbox.cif.g09.slc.cpg/sg12_66_cif.got.tgz:131028.got - 2010.06.28 00:19:55.
