data_PCOD8109285
_publ_section_title
;
Structure prediction by ZEFSAII (Michael W. Deem and Ramdas Pophale) SiO2 
 PCOD8109285
Probable space group: C 2/M
;
_chemical_formula_sum "Si O2"
_cell_formula_units_Z 48
_cell_length_a 28.139967
_cell_length_b 8.832730
_cell_length_c 18.506720
_cell_angle_alpha 90.000000
_cell_angle_beta 31.440957
_cell_angle_gamma 90.000000
_cell_volume 2399.396016
_symmetry_space_group_name_H-M "C 2/M"
_symmetry_group_IT_number 12
_symmetry_cell_setting 'monoclinic'
loop_
_space_group_symop_operation_xyz
x,y,z
-x,y,-z
-x,-y,-z
x,-y,z
1/2+x,1/2+y,z
1/2-x,1/2+y,-z
1/2-x,1/2-y,-z
1/2+x,1/2-y,z
loop_
_atom_site_type_symbol
_atom_site_label
_atom_site_fract_x
_atom_site_fract_y
_atom_site_fract_z
Si Si1 0.909756 0.824904 0.446197
Si Si2 0.588125 0.676411 0.841784
Si Si3 0.753951 0.323481 0.731708
Si Si4 0.617123 0.326700 0.179511
Si Si5 0.224491 0.675886 0.919435
Si Si6 0.151663 0.678190 0.619611
O O1 0.845378 0.767667 0.594128
O O2 0.894584 0.728959 0.394144
O O3 0.013244 0.799775 0.337765
O O4 0.888917 0.000000 0.457084
O O5 0.581553 0.500000 0.830853
O O6 0.678613 0.713384 0.769302
O O7 0.587998 0.770653 0.768164
O O8 0.500000 0.730196 0.000000
O O9 0.776590 0.500000 0.704590
O O10 0.715949 0.271761 0.857880
O O11 0.634721 0.500000 0.133469
O O12 0.679497 0.284340 0.167098
O O13 0.641786 0.222111 0.079283
O O14 0.216081 0.500000 0.911229
O O15 0.163121 0.500000 0.604045
O O16 0.250000 0.750000 0.500000
#
# Coordination Sequence:
#
# PCOD8109285 Si02
#       6
#     8   8   8   8   8   8
#     4  11  23  40  63  88 119 158 201 245 295 353
#     4  10  23  42  62  86 119 160 201 243 293 350
#     4  11  23  39  60  88 122 157 199 246 297 355
#     4   9  21  41  63  88 118 158 200 241 298 360
#     4  10  21  39  63  89 121 156 197 247 297 353
#     4  12  24  40  62  89 122 158 198 243 295 351
#
# _framework density 20.005033999999998
#
# number of rings (size 3 to 8) (size 9 to 14) (size 15 to 20)
#    0.000    1.500    1.667    3.000    2.333    3.667 
#    0.000    3.333    0.000    0.000    0.000    0.000 
#    0.000    0.000    0.000    0.000    0.000    0.000 
#
# Total GULP energy -297760.702371 kJ/mol
# GULP energy per Si atom -12406.695932 kJ/mol
# Density = 1.995950 g / cm^3
# Si number density = 20.005034 Si / 1000 Ang^3
#
#
#
# Elastic Constant Matrix: (Units=GPa)
#
#
# Indices 1 2 3 4 5 6 
#
# 1 28.5613 21.5662 0.6955 -0.0145 8.7447 0.0020
# 2 21.5662 91.1084 37.4600 -0.0222 1.3725 0.0095
# 3 0.6955 37.4600 93.5015 -0.0304 -2.8258 0.0113
# 4 -0.0145 -0.0222 -0.0304 38.7123 0.0137 6.1933
# 5 8.7447 1.3725 -2.8258 0.0137 35.7916 -0.0046
# 6 0.0020 0.0095 0.0113 6.1933 -0.0046 30.3847
#
#
#
# Elastic Compliance Matrix: (Units=1/GPa)
#
#
# Indices 1 2 3 4 5 6 
#
# 1 0.048134 -0.013106 0.004563 0.000019 -0.010897 -0.000006
# 2 -0.013106 0.016739 -0.006547 -0.000001 0.002043 -0.000001
# 3 0.004563 -0.006547 0.013290 0.000009 0.000185 -0.000005
# 4 0.000019 -0.000001 0.000009 0.026702 -0.000015 -0.005443
# 5 -0.010897 0.002043 0.000185 -0.000015 0.030538 0.000008
# 6 -0.000006 -0.000001 -0.000005 -0.005443 0.000008 0.034021
#
#
# Mechanical properties :
#
#
# Convention : Reuss Voigt Hill
#
# Bulk Modulus (GPa) = 20.84050 36.95715 28.89882
# Shear Modulus (GPa) = 23.19134 31.20769 27.19952
#
# Velocity S-wave (km/s) = 3.40851 3.95396 3.69132
# Velocity P-wave (km/s) = 5.09223 6.27368 5.71358
#
# Compressibility (1/GPa) = 0.04798350
#
# Stress axis : x y z
#
# Youngs Moduli (GPa) = 20.77547 59.73962 75.24633
#
# Poissons Ratio (x) = 0.78293 -0.34337
# Poissons Ratio (y) = 0.27228 0.49265
# Poissons Ratio (z) = -0.09480 0.39112
#
# Static dielectric constant tensor:
#      x y z
#    x 3.650880 -0.000010 -0.046950 
#    y -0.000010 3.689250 0.000030 
#    z -0.046950 0.000030 3.706380 
# 
# 
# High freq. dielectric constant tensor:
#      x y z
#    x 1.778710 0.000000 0.000080 
#    y 0.000000 1.787000 0.000000 
#    z 0.000080 0.000000 1.789060 
# 
# From -- ./inp_files/244661.got.cif
#   From: 2010.06.25/outbox.cif.g09.slc.cpg/sg12_123_cif.got.tgz:244661.got - 2010.06.28 00:19:55.
