data_PCOD8109879
_publ_section_title
;
Structure prediction by ZEFSAII (Michael W. Deem and Ramdas Pophale) SiO2 
 PCOD8109879
Probable space group: C 2/M
;
_chemical_formula_sum "Si O2"
_cell_formula_units_Z 64
_cell_length_a 11.320517
_cell_length_b 17.384798
_cell_length_c 16.009217
_cell_angle_alpha 90.000000
_cell_angle_beta 92.567896
_cell_angle_gamma 90.000000
_cell_volume 3147.528543
_symmetry_space_group_name_H-M "C 2/M"
_symmetry_group_IT_number 12
_symmetry_cell_setting 'monoclinic'
loop_
_space_group_symop_operation_xyz
x,y,z
-x,y,-z
-x,-y,-z
x,-y,z
1/2+x,1/2+y,z
1/2-x,1/2+y,-z
1/2-x,1/2-y,-z
1/2+x,1/2-y,z
loop_
_atom_site_type_symbol
_atom_site_label
_atom_site_fract_x
_atom_site_fract_y
_atom_site_fract_z
Si Si1 0.937158 0.672661 0.682354
Si Si2 0.047006 0.844121 0.909444
Si Si3 0.132873 0.584554 0.471952
Si Si4 0.182119 0.590023 0.652905
Si Si5 0.330293 0.812427 0.115440
Si Si6 0.863160 0.823138 0.764166
Si Si7 0.731096 0.913733 0.033551
Si Si8 0.542169 0.087100 0.162548
O O1 0.856231 0.648934 0.600309
O O2 0.925667 0.763527 0.701926
O O3 0.073221 0.645819 0.674938
O O4 0.885828 0.630696 0.762717
O O5 0.081895 0.754720 0.908534
O O6 0.160909 0.898881 0.898999
O O7 0.957232 0.861634 0.830645
O O8 0.000000 0.865106 0.000000
O O9 0.167347 0.500000 0.437182
O O10 0.212307 0.604909 0.555540
O O11 0.000000 0.581672 0.500000
O O12 0.148538 0.500000 0.665748
O O13 0.300268 0.610537 0.707895
O O14 0.236934 0.782368 0.181290
O O15 0.408943 0.881818 0.153195
O O16 0.257403 0.847332 0.035542
O O17 0.607120 0.902858 0.076554
O O18 0.737997 0.000000 0.996263
O O19 0.532261 0.000000 0.190035
#
# Coordination Sequence:
#
# PCOD8109879 Si02
#       8
#     8   8   8   8   8   8   8   8
#     4  11  20  35  58  91 126 155 200 256 310 366
#     4  12  24  40  58  79 117 165 198 246 306 367
#     4   8  16  33  60  90 122 161 200 248 312 371
#     4  10  21  40  64  90 124 166 209 252 306 373
#     4  12  23  40  60  82 117 156 204 255 308 363
#     4  12  24  37  58  93 122 165 206 252 306 371
#     4  11  25  41  59  84 114 155 213 260 303 360
#     4  11  21  36  61  89 116 155 203 260 310 356
#
# _framework density 20.333414999999999
#
# number of rings (size 3 to 8) (size 9 to 14) (size 15 to 20)
#    0.000    1.125    3.750    4.500    0.000    2.750 
#    0.000    0.000    0.000    0.000    0.000    0.000 
#    0.000   20.500    0.000    0.000    0.000    0.000 
#
# Total GULP energy -396641.581387 kJ/mol
# GULP energy per Si atom -12395.049418 kJ/mol
# Density = 2.028714 g / cm^3
# Si number density = 20.333415 Si / 1000 Ang^3
#
#
#
# Elastic Constant Matrix: (Units=GPa)
#
#
# Indices 1 2 3 4 5 6 
#
# 1 79.9233 25.2995 35.3429 0.0000 18.2812 0.0000
# 2 25.2995 60.1894 28.0859 0.0000 5.2262 0.0000
# 3 35.3429 28.0859 113.6730 0.0000 28.3671 0.0000
# 4 0.0000 0.0000 0.0000 32.5606 0.0000 3.3765
# 5 18.2812 5.2262 28.3671 0.0000 29.9754 0.0000
# 6 0.0000 0.0000 0.0000 3.3765 0.0000 26.3948
#
#
#
# Elastic Compliance Matrix: (Units=1/GPa)
#
#
# Indices 1 2 3 4 5 6 
#
# 1 0.016839 -0.005486 -0.002037 0.000000 -0.007385 0.000000
# 2 -0.005486 0.020616 -0.004354 0.000000 0.003872 0.000000
# 3 -0.002037 -0.004354 0.013101 0.000000 -0.010396 0.000000
# 4 0.000000 0.000000 0.000000 0.031125 0.000000 -0.003982
# 5 -0.007385 0.003872 -0.010396 0.000000 0.047028 0.000000
# 6 0.000000 0.000000 0.000000 -0.003982 0.000000 0.038396
#
#
# Mechanical properties :
#
#
# Convention : Reuss Voigt Hill
#
# Bulk Modulus (GPa) = 37.31249 47.91579 42.61414
# Shear Modulus (GPa) = 25.02604 28.78997 26.90801
#
# Velocity S-wave (km/s) = 3.51206 3.76692 3.64172
# Velocity P-wave (km/s) = 5.90222 6.52195 6.21981
#
# Compressibility (1/GPa) = 0.02680067
#
# Stress axis : x y z
#
# Youngs Moduli (GPa) = 59.38729 48.50656 76.33158
#
# Poissons Ratio (x) = 0.26611 0.15548
# Poissons Ratio (y) = 0.32580 0.33237
# Poissons Ratio (z) = 0.12097 0.21121
#
# Static dielectric constant tensor:
#      x y z
#    x 3.519360 0.000000 0.214720 
#    y 0.000000 3.509650 0.000000 
#    z 0.214720 0.000000 4.164000 
# 
# 
# High freq. dielectric constant tensor:
#      x y z
#    x 1.770720 0.000000 0.015770 
#    y 0.000000 1.782890 0.000000 
#    z 0.015770 0.000000 1.800910 
# 
# From -- ./inp_files/263901.got.cif
#   From: 2010.06.25/outbox.cif.g09.slc.cpg/sg12_132_cif.got.tgz:263901.got - 2010.06.28 00:19:55.
