data_PCOD8109606
_publ_section_title
;
Structure prediction by ZEFSAII (Michael W. Deem and Ramdas Pophale) SiO2 
 PCOD8109606
Probable space group: C 2/M
;
_chemical_formula_sum "Si O2"
_cell_formula_units_Z 36
_cell_length_a 15.490095
_cell_length_b 26.586753
_cell_length_c 9.512526
_cell_angle_alpha 90.000000
_cell_angle_beta 154.012828
_cell_angle_gamma 90.000000
_cell_volume 1716.555238
_symmetry_space_group_name_H-M "C 2/M"
_symmetry_group_IT_number 12
_symmetry_cell_setting 'monoclinic'
loop_
_space_group_symop_operation_xyz
x,y,z
-x,y,-z
-x,-y,-z
x,-y,z
1/2+x,1/2+y,z
1/2-x,1/2+y,-z
1/2-x,1/2-y,-z
1/2+x,1/2-y,z
loop_
_atom_site_type_symbol
_atom_site_label
_atom_site_fract_x
_atom_site_fract_y
_atom_site_fract_z
Si Si1 0.383219 0.349850 0.185059
Si Si2 0.586164 0.555177 0.468347
Si Si3 0.500000 0.899520 0.000000
Si Si4 0.345644 0.274745 0.890790
Si Si5 0.014379 0.324378 0.787283
O O1 0.500000 0.341312 0.500000
O O2 0.461077 0.399588 0.214228
O O3 0.411055 0.301568 0.129318
O O4 0.153059 0.356204 0.885551
O O5 0.500000 0.554171 0.500000
O O6 0.549423 0.500000 0.345876
O O7 0.820053 0.566950 0.796994
O O8 0.416687 0.863805 0.752800
O O9 0.136603 0.293042 0.527666
O O10 0.500000 0.290044 0.000000
O O11 0.348996 0.215025 0.925199
#
# Coordination Sequence:
#
# PCOD8109606 Si02
#       5
#     8   8   4   8   8
#     4  11  22  43  63  91 129 169 217 262 322 380
#     4  10  21  39  66  95 125 165 219 272 321 380
#     4  12  21  40  66  96 132 168 217 264 326 382
#     4  12  25  39  62  93 134 175 220 260 318 384
#     4  12  24  39  62  93 133 176 215 262 318 388
#
# _framework density 20.972235000000001
#
# number of rings (size 3 to 8) (size 9 to 14) (size 15 to 20)
#    0.000    0.667    5.556    5.000    0.000    0.000 
#    0.000    0.000    0.000   10.000    0.000    0.000 
#    0.000    0.000    0.000    0.000    0.000    0.000 
#
# Total GULP energy -223026.069305 kJ/mol
# GULP energy per Si atom -12390.337184 kJ/mol
# Density = 2.092450 g / cm^3
# Si number density = 20.972235 Si / 1000 Ang^3
#
#
#
# Elastic Constant Matrix: (Units=GPa)
#
#
# Indices 1 2 3 4 5 6 
#
# 1 104.6454 48.3628 31.4428 -0.0001 23.2183 0.0001
# 2 48.3628 104.5957 35.0486 0.0000 11.8685 0.0000
# 3 31.4428 35.0486 94.8105 -0.0002 19.6645 0.0002
# 4 -0.0001 0.0000 -0.0002 7.5556 -0.0002 23.2138
# 5 23.2183 11.8685 19.6645 -0.0002 40.8706 0.0001
# 6 0.0001 0.0000 0.0002 23.2138 0.0001 -10.8557
#
#
#
# Elastic Compliance Matrix: (Units=1/GPa)
#
#
# Indices 1 2 3 4 5 6 
#
# 1 0.013614 -0.005180 -0.001453 0.000000 -0.005531 0.000000
# 2 -0.005180 0.012953 -0.003222 0.000000 0.000732 0.000000
# 3 -0.001453 -0.003222 0.013169 0.000000 -0.004575 0.000000
# 4 0.000000 0.000000 0.000000 0.017484 0.000000 0.037387
# 5 -0.005531 0.000732 -0.004575 0.000000 0.029598 0.000000
# 6 0.000000 0.000000 0.000000 0.037387 0.000000 -0.012169
#
#
# Mechanical properties :
#
#
# Convention : Reuss Voigt Hill
#
# Bulk Modulus (GPa) = 49.93662 59.30666 54.62164
# Shear Modulus (GPa) = 49.48822 20.12725 34.80774
#
# Velocity S-wave (km/s) = 4.86295 3.10128 4.07837
# Velocity P-wave (km/s) = 7.44268 6.41591 6.94829
#
# Compressibility (1/GPa) = 0.02002539
#
# Stress axis : x y z
#
# Youngs Moduli (GPa) = 73.45446 77.20511 75.93507
#
# Poissons Ratio (x) = 0.39995 0.11031
# Poissons Ratio (y) = 0.38052 0.24466
# Poissons Ratio (z) = 0.10671 0.24875
#
# Static dielectric constant tensor:
#      x y z
#    x 4.596680 0.000000 -0.944840 
#    y 0.000000 4.413720 0.000000 
#    z -0.944840 0.000000 6.165490 
# 
# 
# High freq. dielectric constant tensor:
#      x y z
#    x 1.836560 0.000000 0.027660 
#    y 0.000000 1.822560 0.000000 
#    z 0.027660 0.000000 1.789810 
# 
# From -- ./inp_files/67481.got.cif
#   From: 2010.06.25/outbox.cif.g09.slc.cpg/sg12_34_cif.got.tgz:67481.got - 2010.06.28 00:19:55.
