data_PCOD8109548
_publ_section_title
;
Structure prediction by ZEFSAII (Michael W. Deem and Ramdas Pophale) SiO2 
 PCOD8109548
Probable space group: C 2/M
;
_chemical_formula_sum "Si O2"
_cell_formula_units_Z 24
_cell_length_a 9.186405
_cell_length_b 5.310751
_cell_length_c 23.195872
_cell_angle_alpha 90.000000
_cell_angle_beta 129.157344
_cell_angle_gamma 90.000000
_cell_volume 877.498381
_symmetry_space_group_name_H-M "C 2/M"
_symmetry_group_IT_number 12
_symmetry_cell_setting 'monoclinic'
loop_
_space_group_symop_operation_xyz
x,y,z
-x,y,-z
-x,-y,-z
x,-y,z
1/2+x,1/2+y,z
1/2-x,1/2+y,-z
1/2-x,1/2-y,-z
1/2+x,1/2-y,z
loop_
_atom_site_type_symbol
_atom_site_label
_atom_site_fract_x
_atom_site_fract_y
_atom_site_fract_z
Si Si1 0.625755 0.500000 0.474605
Si Si2 0.360724 0.000000 0.690546
Si Si3 0.209447 0.000000 0.025877
Si Si4 0.239546 0.500000 0.836814
Si Si5 0.701057 0.000000 0.191104
Si Si6 0.920925 0.000000 0.662479
O O1 0.500000 0.500000 0.500000
O O2 0.750000 0.750000 0.500000
O O3 0.495073 0.500000 0.382822
O O4 0.590674 0.000000 0.746937
O O5 0.291374 0.249443 0.638660
O O6 0.329739 0.000000 0.749677
O O7 0.343440 0.000000 0.117547
O O8 0.250000 0.750000 0.000000
O O9 0.000000 0.000000 0.000000
O O10 0.369087 0.750264 0.860607
O O11 0.931025 0.000000 0.247556
#
# Coordination Sequence:
#
# PCOD8109548 Si02
#       6
#     4   4   4   4   4   4
#     4  12  28  49  73 105 142 192 235 289 349 424
#     4  10  21  39  65  93 127 170 221 290 343 402
#     4  12  28  47  73 105 144 194 237 291 349 422
#     4  10  23  39  63  96 129 174 230 279 346 408
#     4  10  21  39  65  93 127 170 221 290 343 402
#     4  10  23  39  63  96 127 172 228 279 346 408
#
# _framework density 27.350477999999999
#
# number of rings (size 3 to 8) (size 9 to 14) (size 15 to 20)
#    0.000    1.333    0.000    4.000    9.333    0.000 
#    0.000    0.000    0.000    0.000    0.000    0.000 
#    0.000    0.000    0.000    0.000    0.000    0.000 
#
# Total GULP energy -148666.739099 kJ/mol
# GULP energy per Si atom -12388.894925 kJ/mol
# Density = 2.728823 g / cm^3
# Si number density = 27.350478 Si / 1000 Ang^3
#
#
#
# Elastic Constant Matrix: (Units=GPa)
#
#
# Indices 1 2 3 4 5 6 
#
# 1 105.4041 82.2735 31.0158 0.0000 -52.0209 0.0000
# 2 82.2735 354.4047 58.2955 0.0000 -66.2932 0.0000
# 3 31.0158 58.2955 151.6751 0.0000 -38.4765 0.0000
# 4 0.0000 0.0000 0.0000 28.0607 0.0000 -21.5683
# 5 -52.0209 -66.2932 -38.4765 0.0000 73.5877 0.0000
# 6 0.0000 0.0000 0.0000 -21.5683 0.0000 26.8313
#
#
#
# Elastic Compliance Matrix: (Units=1/GPa)
#
#
# Indices 1 2 3 4 5 6 
#
# 1 0.015536 -0.001857 -0.000117 0.000000 0.009248 0.000000
# 2 -0.001857 0.003665 -0.000605 0.000000 0.001673 0.000000
# 3 -0.000117 -0.000605 0.007713 0.000000 0.003406 0.000000
# 4 0.000000 0.000000 0.000000 0.093257 0.000000 0.074965
# 5 0.009248 0.001673 0.003406 0.000000 0.023415 0.000000
# 6 0.000000 0.000000 0.000000 0.074965 0.000000 0.097530
#
#
# Mechanical properties :
#
#
# Convention : Reuss Voigt Hill
#
# Bulk Modulus (GPa) = 45.96333 106.07262 76.01798
# Shear Modulus (GPa) = 19.72181 55.02254 37.37217
#
# Velocity S-wave (km/s) = 2.68820 4.49013 3.70052
# Velocity P-wave (km/s) = 5.14558 8.10855 6.79064
#
# Compressibility (1/GPa) = 0.02175647
#
# Stress axis : x y z
#
# Youngs Moduli (GPa) = 64.36710 272.84013 129.64696
#
# Poissons Ratio (x) = 0.50678 0.01516
# Poissons Ratio (y) = 0.11956 0.07838
# Poissons Ratio (z) = 0.00753 0.16494
#
# Static dielectric constant tensor:
#      x y z
#    x 5.412840 0.000000 1.627940 
#    y 0.000000 6.052730 0.000000 
#    z 1.627940 0.000000 8.318600 
# 
# 
# High freq. dielectric constant tensor:
#      x y z
#    x 2.094880 0.000000 -0.005860 
#    y 0.000000 2.131760 0.000000 
#    z -0.005860 0.000000 2.115020 
# 
# From -- ./inp_files/298594.got.cif
#   From: 2010.06.25/outbox.cif.g09.slc.cpg/sg12_150_cif.got.tgz:298594.got - 2010.06.28 00:19:55.
