data_PCOD8109686
_publ_section_title
;
Structure prediction by ZEFSAII (Michael W. Deem and Ramdas Pophale) SiO2 
 PCOD8109686
Probable space group: C 2/M
;
_chemical_formula_sum "Si O2"
_cell_formula_units_Z 44
_cell_length_a 20.990346
_cell_length_b 20.950004
_cell_length_c 5.019439
_cell_angle_alpha 90.000000
_cell_angle_beta 99.180939
_cell_angle_gamma 90.000000
_cell_volume 2179.010744
_symmetry_space_group_name_H-M "C 2/M"
_symmetry_group_IT_number 12
_symmetry_cell_setting 'monoclinic'
loop_
_space_group_symop_operation_xyz
x,y,z
-x,y,-z
-x,-y,-z
x,-y,z
1/2+x,1/2+y,z
1/2-x,1/2+y,-z
1/2-x,1/2-y,-z
1/2+x,1/2-y,z
loop_
_atom_site_type_symbol
_atom_site_label
_atom_site_fract_x
_atom_site_fract_y
_atom_site_fract_z
Si Si1 0.454080 0.500000 0.216794
Si Si2 0.240845 0.426573 0.908272
Si Si3 0.543596 0.831407 0.284188
Si Si4 0.571045 0.691493 0.441332
Si Si5 0.657372 0.926665 0.360645
Si Si6 0.621912 0.625448 0.956010
O O1 0.500000 0.500000 0.500000
O O2 0.408028 0.561177 0.184617
O O3 0.500000 0.500000 0.000000
O O4 0.259474 0.500000 0.867009
O O5 0.186434 0.404847 0.662319
O O6 0.213223 0.415885 0.182881
O O7 0.304132 0.384083 0.910680
O O8 0.500000 0.855437 0.500000
O O9 0.579606 0.765748 0.379716
O O10 0.595376 0.885031 0.248575
O O11 0.500000 0.818378 0.000000
O O12 0.500000 0.674759 0.500000
O O13 0.620196 0.676759 0.715161
O O14 0.583184 0.648962 0.188637
O O15 0.634447 0.000000 0.349209
#
# Coordination Sequence:
#
# PCOD8109686 Si02
#       6
#     4   8   8   8   8   8
#     4  12  24  34  54  86 116 146 202 260 280 326
#     4  10  21  40  60  86 121 160 197 242 299 348
#     4  11  23  41  64  90 120 154 193 241 304 364
#     4  11  23  39  59  83 121 161 197 241 301 354
#     4  10  22  40  65  90 119 152 195 245 298 358
#     4  12  22  39  59  85 117 163 204 240 296 342
#
# _framework density 20.192647999999998
#
# number of rings (size 3 to 8) (size 9 to 14) (size 15 to 20)
#    0.000    1.091    0.909    7.636    0.000    0.727 
#    0.000    5.455    0.000    0.000    0.000    0.000 
#    0.000    0.000    0.000    0.000    0.000    0.000 
#
# Total GULP energy -272947.024656 kJ/mol
# GULP energy per Si atom -12406.682939 kJ/mol
# Density = 2.014669 g / cm^3
# Si number density = 20.192648 Si / 1000 Ang^3
#
#
#
# Elastic Constant Matrix: (Units=GPa)
#
#
# Indices 1 2 3 4 5 6 
#
# 1 81.3865 62.5622 26.4070 0.0000 3.6984 0.0000
# 2 62.5622 106.7901 42.5837 0.0000 4.7914 0.0000
# 3 26.4070 42.5837 125.0610 0.0000 -4.4763 0.0000
# 4 0.0000 0.0000 0.0000 2.2526 0.0000 -17.8607
# 5 3.6984 4.7914 -4.4763 0.0000 27.9983 0.0000
# 6 0.0000 0.0000 0.0000 -17.8607 0.0000 9.5391
#
#
#
# Elastic Compliance Matrix: (Units=1/GPa)
#
#
# Indices 1 2 3 4 5 6 
#
# 1 0.022381 -0.012937 -0.000349 0.000000 -0.000798 0.000000
# 2 -0.012937 0.018484 -0.003635 0.000000 -0.002035 0.000000
# 3 -0.000349 -0.003635 0.009385 0.000000 0.002169 0.000000
# 4 0.000000 0.000000 0.000000 -0.032063 0.000000 -0.060033
# 5 -0.000798 -0.002035 0.002169 0.000000 0.036517 0.000000
# 6 0.000000 0.000000 0.000000 -0.060033 0.000000 -0.007571
#
#
# Mechanical properties :
#
#
# Convention : Reuss Voigt Hill
#
# Bulk Modulus (GPa) = 60.94609 64.03816 62.49213
# Shear Modulus (GPa) = 57.84001 20.07031 38.95516
#
# Velocity S-wave (km/s) = 5.35782 3.15610 4.39700
# Velocity P-wave (km/s) = 8.27785 6.71296 7.53613
#
# Compressibility (1/GPa) = 0.01640794
#
# Stress axis : x y z
#
# Youngs Moduli (GPa) = 44.68026 54.10116 106.55003
#
# Poissons Ratio (x) = 0.69989 0.03723
# Poissons Ratio (y) = 0.57802 0.38732
# Poissons Ratio (z) = 0.01561 0.19666
#
# Static dielectric constant tensor:
#      x y z
#    x 3.479550 0.000000 -0.080330 
#    y 0.000000 3.656960 0.000000 
#    z -0.080330 0.000000 3.927940 
# 
# 
# High freq. dielectric constant tensor:
#      x y z
#    x 1.779540 0.000000 -0.004000 
#    y 0.000000 1.781960 0.000000 
#    z -0.004000 0.000000 1.811470 
# 
# From -- ./inp_files/16127.got.cif
#   From: 2010.06.25/outbox.cif.g09.slc.cpg/sg12_9_cif.got.tgz:16127.got - 2010.06.28 00:19:55.
