data_PCOD8109593
_publ_section_title
;
Structure prediction by ZEFSAII (Michael W. Deem and Ramdas Pophale) SiO2 
 PCOD8109593
Probable space group: C 2/M
;
_chemical_formula_sum "Si O2"
_cell_formula_units_Z 56
_cell_length_a 18.792449
_cell_length_b 15.471203
_cell_length_c 11.337118
_cell_angle_alpha 90.000000
_cell_angle_beta 124.879122
_cell_angle_gamma 90.000000
_cell_volume 2704.050325
_symmetry_space_group_name_H-M "C 2/M"
_symmetry_group_IT_number 12
_symmetry_cell_setting 'monoclinic'
loop_
_space_group_symop_operation_xyz
x,y,z
-x,y,-z
-x,-y,-z
x,-y,z
1/2+x,1/2+y,z
1/2-x,1/2+y,-z
1/2-x,1/2-y,-z
1/2+x,1/2-y,z
loop_
_atom_site_type_symbol
_atom_site_label
_atom_site_fract_x
_atom_site_fract_y
_atom_site_fract_z
Si Si1 0.869646 0.598424 0.770201
Si Si2 0.910794 0.749644 0.483728
Si Si3 0.300960 0.097335 0.450139
Si Si4 0.879785 0.903265 0.826970
Si Si5 0.338425 0.324812 0.016858
Si Si6 0.267293 0.676210 0.191184
Si Si7 0.477488 0.257789 0.801327
O O1 0.905376 0.500000 0.816716
O O2 0.809043 0.607260 0.598273
O O3 0.811140 0.620903 0.828382
O O4 0.950010 0.665347 0.832615
O O5 0.870785 0.653875 0.446328
O O6 0.844284 0.816138 0.359809
O O7 0.927641 0.778948 0.633218
O O8 0.000000 0.746147 0.500000
O O9 0.204525 0.127039 0.325615
O O10 0.317682 0.000000 0.423254
O O11 0.954368 0.834834 0.868852
O O12 0.909081 0.000000 0.819505
O O13 0.863127 0.902042 0.951894
O O14 0.304503 0.367761 0.106651
O O15 0.419160 0.259891 0.120366
O O16 0.264189 0.270659 0.879375
#
# Coordination Sequence:
#
# PCOD8109593 Si02
#       7
#     8   8   8   8   8   8   8
#     4  10  21  39  66  93 124 163 207 255 307 362
#     4  11  20  37  63  88 115 165 208 248 309 363
#     4   9  19  36  59  91 122 154 204 258 303 362
#     4  11  22  38  63  90 119 160 206 251 309 363
#     4  11  23  38  59  87 128 162 196 250 303 366
#     4  11  22  39  60  87 122 164 202 243 306 369
#     4  11  22  39  63  92 123 157 208 261 299 359
#
# _framework density 20.709672999999999
#
# number of rings (size 3 to 8) (size 9 to 14) (size 15 to 20)
#    0.000    1.429    4.286    1.286    0.000    4.286 
#    0.000    1.429    0.000    1.714    0.000    0.000 
#    0.000    0.000    0.000    0.000    0.000    0.000 
#
# Total GULP energy -347175.209126 kJ/mol
# GULP energy per Si atom -12399.114612 kJ/mol
# Density = 2.066254 g / cm^3
# Si number density = 20.709673 Si / 1000 Ang^3
#
#
#
# Elastic Constant Matrix: (Units=GPa)
#
#
# Indices 1 2 3 4 5 6 
#
# 1 99.1884 33.0882 17.3228 0.0000 -8.5937 0.0000
# 2 33.0882 75.6155 11.5699 0.0000 -9.6276 0.0000
# 3 17.3228 11.5699 75.3387 0.0000 -3.7167 0.0000
# 4 0.0000 0.0000 0.0000 18.4237 0.0000 -9.7090
# 5 -8.5937 -9.6276 -3.7167 0.0000 37.9584 0.0000
# 6 0.0000 0.0000 0.0000 -9.7090 0.0000 9.7719
#
#
#
# Elastic Compliance Matrix: (Units=1/GPa)
#
#
# Indices 1 2 3 4 5 6 
#
# 1 0.012161 -0.004848 -0.001986 0.000000 0.001329 0.000000
# 2 -0.004848 0.015886 -0.001186 0.000000 0.002816 0.000000
# 3 -0.001986 -0.001186 0.013943 0.000000 0.000615 0.000000
# 4 0.000000 0.000000 0.000000 0.113931 0.000000 0.113197
# 5 0.001329 0.002816 0.000615 0.000000 0.027420 0.000000
# 6 0.000000 0.000000 0.000000 0.113197 0.000000 0.214801
#
#
# Mechanical properties :
#
#
# Convention : Reuss Voigt Hill
#
# Bulk Modulus (GPa) = 38.53709 41.56714 40.05212
# Shear Modulus (GPa) = 11.82501 25.77492 18.79997
#
# Velocity S-wave (km/s) = 2.39213 3.53169 3.01622
# Velocity P-wave (km/s) = 5.12624 6.06180 5.61355
#
# Compressibility (1/GPa) = 0.02594903
#
# Stress axis : x y z
#
# Youngs Moduli (GPa) = 82.22847 62.94707 71.72308
#
# Poissons Ratio (x) = 0.30520 0.14245
# Poissons Ratio (y) = 0.39868 0.08506
# Poissons Ratio (z) = 0.16331 0.07465
#
# Static dielectric constant tensor:
#      x y z
#    x 3.748280 0.000000 -0.083410 
#    y 0.000000 3.462740 0.000000 
#    z -0.083410 0.000000 4.003370 
# 
# 
# High freq. dielectric constant tensor:
#      x y z
#    x 1.808330 0.000000 -0.001740 
#    y 0.000000 1.781160 0.000000 
#    z -0.001740 0.000000 1.831480 
# 
# From -- ./inp_files/156720.got.cif
#   From: 2010.06.25/outbox.cif.g09.slc.cpg/sg12_79_cif.got.tgz:156720.got - 2010.06.28 00:19:55.
