data_PCOD8109002
_publ_section_title
;
Structure prediction by ZEFSAII (Michael W. Deem and Ramdas Pophale) SiO2 
 PCOD8109002
Probable space group: C 2/M
;
_chemical_formula_sum "Si O2"
_cell_formula_units_Z 64
_cell_length_a 9.606400
_cell_length_b 15.550606
_cell_length_c 28.737521
_cell_angle_alpha 90.000000
_cell_angle_beta 132.200427
_cell_angle_gamma 90.000000
_cell_volume 3180.226259
_symmetry_space_group_name_H-M "C 2/M"
_symmetry_group_IT_number 12
_symmetry_cell_setting 'monoclinic'
loop_
_space_group_symop_operation_xyz
x,y,z
-x,y,-z
-x,-y,-z
x,-y,z
1/2+x,1/2+y,z
1/2-x,1/2+y,-z
1/2-x,1/2-y,-z
1/2+x,1/2-y,z
loop_
_atom_site_type_symbol
_atom_site_label
_atom_site_fract_x
_atom_site_fract_y
_atom_site_fract_z
Si Si1 0.958167 0.823488 0.150397
Si Si2 0.522074 0.596309 0.938288
Si Si3 0.720649 0.755873 0.348354
Si Si4 0.700561 0.095568 0.168729
Si Si5 0.696132 0.153167 0.926620
Si Si6 0.961204 0.401435 0.437389
Si Si7 0.213074 0.901945 0.561904
Si Si8 0.800472 0.773995 0.263427
O O1 0.977481 0.900200 0.117575
O O2 0.810276 0.845926 0.156712
O O3 0.883638 0.746679 0.101852
O O4 0.159781 0.803649 0.218684
O O5 0.568413 0.500000 0.964530
O O6 0.315579 0.622034 0.909232
O O7 0.678962 0.655554 0.998517
O O8 0.802749 0.665908 0.385936
O O9 0.738349 0.835147 0.387184
O O10 0.825240 0.781993 0.324402
O O11 0.503005 0.744352 0.286934
O O12 0.481938 0.090807 0.105761
O O13 0.722179 0.136965 0.224802
O O14 0.785918 0.000000 0.188545
O O15 0.890371 0.500000 0.413520
O O16 0.000000 0.384432 0.500000
O O17 0.153713 0.384839 0.452532
O O18 0.000000 0.884840 0.500000
O O19 0.239507 0.000000 0.585951
#
# Coordination Sequence:
#
# PCOD8109002 Si02
#       8
#     8   8   8   8   8   8   8   8
#     4  11  23  41  60  85 119 160 199 247 306 367
#     4  11  22  38  60  89 118 152 197 248 309 366
#     4  12  23  43  67  91 126 168 211 257 300 368
#     4  11  23  41  62  88 121 156 203 260 306 358
#     4  10  21  39  61  86 118 153 197 248 304 371
#     4  10  23  42  66  97 130 166 206 253 312 367
#     4  10  23  42  65  97 131 164 206 256 308 365
#     4  11  25  42  61  89 122 163 211 248 305 362
#
# _framework density 20.124354
#
# number of rings (size 3 to 8) (size 9 to 14) (size 15 to 20)
#    0.000    1.250    2.500    4.125    3.500    3.500 
#    0.000    2.500    0.000    0.000    0.000    0.000 
#    0.000    0.000    0.000    0.000    0.000    0.000 
#
# Total GULP energy -396867.533701 kJ/mol
# GULP energy per Si atom -12402.110428 kJ/mol
# Density = 2.007855 g / cm^3
# Si number density = 20.124354 Si / 1000 Ang^3
#
#
#
# Elastic Constant Matrix: (Units=GPa)
#
#
# Indices 1 2 3 4 5 6 
#
# 1 94.5648 26.6343 49.8458 0.0000 1.1564 0.0000
# 2 26.6343 82.5285 42.1486 0.0000 2.0163 0.0000
# 3 49.8458 42.1486 98.7559 0.0000 3.8004 0.0000
# 4 0.0000 0.0000 0.0000 19.9968 0.0000 -3.1744
# 5 1.1564 2.0163 3.8004 0.0000 47.1456 0.0000
# 6 0.0000 0.0000 0.0000 -3.1744 0.0000 9.8776
#
#
#
# Elastic Compliance Matrix: (Units=1/GPa)
#
#
# Indices 1 2 3 4 5 6 
#
# 1 0.014504 -0.001206 -0.006815 0.000000 0.000245 0.000000
# 2 -0.001206 0.015595 -0.006042 0.000000 -0.000150 0.000000
# 3 -0.006815 -0.006042 0.016178 0.000000 -0.000879 0.000000
# 4 0.000000 0.000000 0.000000 0.052696 0.000000 0.016935
# 5 0.000245 -0.000150 -0.000879 0.000000 0.021282 0.000000
# 6 0.000000 0.000000 0.000000 0.016935 0.000000 0.106682
#
#
# Mechanical properties :
#
#
# Convention : Reuss Voigt Hill
#
# Bulk Modulus (GPa) = 55.09141 57.01186 56.05163
# Shear Modulus (GPa) = 19.14869 25.88535 22.51702
#
# Velocity S-wave (km/s) = 3.08801 3.59035 3.34862
# Velocity P-wave (km/s) = 6.33635 6.75121 6.54707
#
# Compressibility (1/GPa) = 0.01815165
#
# Stress axis : x y z
#
# Youngs Moduli (GPa) = 68.94709 64.12126 61.81148
#
# Poissons Ratio (x) = 0.07734 0.42127
# Poissons Ratio (y) = 0.08316 0.37344
# Poissons Ratio (z) = 0.46990 0.38739
#
# Static dielectric constant tensor:
#      x y z
#    x 3.809790 0.000000 0.055200 
#    y 0.000000 3.640120 0.000000 
#    z 0.055200 0.000000 3.609660 
# 
# 
# High freq. dielectric constant tensor:
#      x y z
#    x 1.800210 0.000000 0.000860 
#    y 0.000000 1.786200 0.000000 
#    z 0.000860 0.000000 1.782090 
# 
# From -- ./inp_files/372613.got.cif
#   From: 2010.06.25/outbox.cif.g09.slc.cpg/sg12_187_cif.got.tgz:372613.got - 2010.06.28 00:19:55.
