data_PCOD8109778
_publ_section_title
;
Structure prediction by ZEFSAII (Michael W. Deem and Ramdas Pophale) SiO2 
 PCOD8109778
Probable space group: C 2/M
;
_chemical_formula_sum "Si O2"
_cell_formula_units_Z 64
_cell_length_a 9.917349
_cell_length_b 14.819493
_cell_length_c 30.566864
_cell_angle_alpha 90.000000
_cell_angle_beta 43.909895
_cell_angle_gamma 90.000000
_cell_volume 3115.607465
_symmetry_space_group_name_H-M "C 2/M"
_symmetry_group_IT_number 12
_symmetry_cell_setting 'monoclinic'
loop_
_space_group_symop_operation_xyz
x,y,z
-x,y,-z
-x,-y,-z
x,-y,z
1/2+x,1/2+y,z
1/2-x,1/2+y,-z
1/2-x,1/2-y,-z
1/2+x,1/2-y,z
loop_
_atom_site_type_symbol
_atom_site_label
_atom_site_fract_x
_atom_site_fract_y
_atom_site_fract_z
Si Si1 0.525819 0.397990 0.943813
Si Si2 0.506111 0.330953 0.269199
Si Si3 0.160673 0.400252 0.756680
Si Si4 0.654336 0.757812 0.151990
Si Si5 0.026078 0.736701 0.543547
Si Si6 0.176334 0.659431 0.653776
Si Si7 0.775291 0.396888 0.058105
Si Si8 0.898514 0.599206 0.645659
O O1 0.610387 0.500000 0.920027
O O2 0.665536 0.325686 0.889106
O O3 0.318675 0.391868 0.968048
O O4 0.500000 0.370553 0.000000
O O5 0.627350 0.400524 0.270410
O O6 0.650367 0.290125 0.199526
O O7 0.432653 0.254945 0.319754
O O8 0.320934 0.375348 0.287823
O O9 0.069146 0.500000 0.785398
O O10 0.184155 0.385240 0.699491
O O11 0.035479 0.321481 0.809279
O O12 0.670139 0.677934 0.112653
O O13 0.250000 0.750000 0.500000
O O14 0.000000 0.705126 0.500000
O O15 0.895647 0.826349 0.583815
O O16 0.958198 0.659579 0.591533
O O17 0.048475 0.599883 0.650899
O O18 0.751811 0.500000 0.082501
O O19 0.000000 0.371562 0.000000
O O20 0.895539 0.500000 0.626954
#
# Coordination Sequence:
#
# PCOD8109778 Si02
#       8
#     8   8   8   8   8   8   8   8
#     4  10  22  40  62  89 122 160 201 249 302 361
#     4  10  22  39  60  87 119 158 202 247 299 354
#     4  11  23  39  61  91 123 157 201 252 301 355
#     4  11  22  38  63  90 121 159 203 248 302 366
#     4  11  22  40  65  90 121 160 202 245 297 361
#     4  10  21  40  63  84 120 164 200 239 300 362
#     4  10  23  42  62  87 120 159 202 249 304 363
#     4  11  23  40  61  89 121 155 199 250 301 353
#
# _framework density 20.541740999999998
#
# number of rings (size 3 to 8) (size 9 to 14) (size 15 to 20)
#    0.000    1.500    1.250    4.500    1.750    5.250 
#    0.000    5.625    0.000    0.000    0.000    0.000 
#    0.000    0.000    0.000    0.000    0.000    0.000 
#
# Total GULP energy -396698.469673 kJ/mol
# GULP energy per Si atom -12396.827177 kJ/mol
# Density = 2.049499 g / cm^3
# Si number density = 20.541741 Si / 1000 Ang^3
#
#
#
# Elastic Constant Matrix: (Units=GPa)
#
#
# Indices 1 2 3 4 5 6 
#
# 1 148.4716 49.3363 68.6788 -0.0006 -4.7765 0.0002
# 2 49.3363 119.0677 52.5846 0.0008 -0.4007 -0.0001
# 3 68.6788 52.5846 118.3266 0.0026 -1.7211 -0.0011
# 4 -0.0006 0.0008 0.0026 11.8450 0.0004 -2.7843
# 5 -4.7765 -0.4007 -1.7211 0.0004 26.3548 -0.0002
# 6 0.0002 -0.0001 -0.0011 -2.7843 -0.0002 20.5194
#
#
#
# Elastic Compliance Matrix: (Units=1/GPa)
#
#
# Indices 1 2 3 4 5 6 
#
# 1 0.009583 -0.001890 -0.004702 0.000002 0.001401 0.000000
# 2 -0.001890 0.010823 -0.003719 0.000000 -0.000421 0.000000
# 3 -0.004702 -0.003719 0.012832 -0.000003 -0.000071 0.000000
# 4 0.000002 0.000000 -0.000003 0.087205 -0.000001 0.011833
# 5 0.001401 -0.000421 -0.000071 -0.000001 0.038187 0.000000
# 6 0.000000 0.000000 0.000000 0.011833 0.000000 0.050340
#
#
# Mechanical properties :
#
#
# Convention : Reuss Voigt Hill
#
# Bulk Modulus (GPa) = 79.26099 80.78503 80.02301
# Shear Modulus (GPa) = 21.38610 26.09494 23.74052
#
# Velocity S-wave (km/s) = 3.23012 3.56805 3.40328
# Velocity P-wave (km/s) = 7.25125 7.50914 7.38132
#
# Compressibility (1/GPa) = 0.01261655
#
# Stress axis : x y z
#
# Youngs Moduli (GPa) = 104.34729 92.39988 77.92925
#
# Poissons Ratio (x) = 0.17459 0.36644
# Poissons Ratio (y) = 0.19717 0.28982
# Poissons Ratio (z) = 0.49067 0.34363
#
# Static dielectric constant tensor:
#      x y z
#    x 3.858160 0.000000 -0.173950 
#    y 0.000000 3.782950 0.000000 
#    z -0.173950 0.000000 3.707110 
# 
# 
# High freq. dielectric constant tensor:
#      x y z
#    x 1.814440 0.000000 -0.005160 
#    y 0.000000 1.805560 0.000000 
#    z -0.005160 0.000000 1.796100 
# 
# From -- ./inp_files/372565.got.cif
#   From: 2010.06.25/outbox.cif.g09.slc.cpg/sg12_187_cif.got.tgz:372565.got - 2010.06.28 00:19:55.
