data_PCOD8109398
_publ_section_title
;
Structure prediction by ZEFSAII (Michael W. Deem and Ramdas Pophale) SiO2 
 PCOD8109398
Probable space group: C 2/M
;
_chemical_formula_sum "Si O2"
_cell_formula_units_Z 56
_cell_length_a 24.462029
_cell_length_b 13.503644
_cell_length_c 10.129539
_cell_angle_alpha 90.000000
_cell_angle_beta 58.955106
_cell_angle_gamma 90.000000
_cell_volume 2866.778139
_symmetry_space_group_name_H-M "C 2/M"
_symmetry_group_IT_number 12
_symmetry_cell_setting 'monoclinic'
loop_
_space_group_symop_operation_xyz
x,y,z
-x,y,-z
-x,-y,-z
x,-y,z
1/2+x,1/2+y,z
1/2-x,1/2+y,-z
1/2-x,1/2-y,-z
1/2+x,1/2-y,z
loop_
_atom_site_type_symbol
_atom_site_label
_atom_site_fract_x
_atom_site_fract_y
_atom_site_fract_z
Si Si1 0.532643 0.388320 0.140960
Si Si2 0.420379 0.115083 0.860499
Si Si3 0.226970 0.886907 0.815550
Si Si4 0.843611 0.890583 0.834657
Si Si5 0.383694 0.257708 0.128433
Si Si6 0.361910 0.196939 0.667186
Si Si7 0.552657 0.782907 0.690852
O O1 0.511744 0.500000 0.134563
O O2 0.588530 0.383769 0.178610
O O3 0.473389 0.329723 0.277785
O O4 0.558941 0.335615 0.975050
O O5 0.395054 0.145492 0.749488
O O6 0.495118 0.139817 0.781302
O O7 0.409302 0.000000 0.898562
O O8 0.379890 0.174224 0.020047
O O9 0.183457 0.815285 0.779846
O O10 0.300695 0.864849 0.697589
O O11 0.211378 0.000000 0.795502
O O12 0.211646 0.869741 0.989349
O O13 0.839904 0.809394 0.724390
O O14 0.834554 0.000000 0.783097
O O15 0.397823 0.205251 0.250023
O O16 0.412809 0.194333 0.487804
#
# Coordination Sequence:
#
# PCOD8109398 Si02
#       7
#     8   8   8   8   8   8   8
#     4   9  17  34  60  87 115 153 196 238 289 348
#     4  11  23  40  63  87 115 158 205 241 288 354
#     4  10  21  39  64  87 114 155 203 247 290 347
#     4   9  18  34  59  87 115 148 192 247 294 340
#     4  10  21  40  61  86 115 154 201 248 291 344
#     4  12  22  38  59  89 124 156 195 243 298 350
#     4  11  24  36  57  89 126 156 190 241 300 349
#
# _framework density 19.534123999999998
#
# number of rings (size 3 to 8) (size 9 to 14) (size 15 to 20)
#    0.000    1.714    4.286    4.286    0.000    5.714 
#    0.000    1.429    0.000    0.000    0.000    0.000 
#    0.000    0.000    0.000    0.000    0.000    0.000 
#
# Total GULP energy -347268.448080 kJ/mol
# GULP energy per Si atom -12402.444574 kJ/mol
# Density = 1.948966 g / cm^3
# Si number density = 19.534124 Si / 1000 Ang^3
#
#
#
# Elastic Constant Matrix: (Units=GPa)
#
#
# Indices 1 2 3 4 5 6 
#
# 1 87.5214 28.2767 24.7171 0.0000 1.5779 0.0000
# 2 28.2767 121.3213 21.9555 0.0000 0.5263 0.0000
# 3 24.7171 21.9555 34.6543 0.0000 -6.2062 0.0000
# 4 0.0000 0.0000 0.0000 9.9688 0.0000 -6.9387
# 5 1.5779 0.5263 -6.2062 0.0000 20.5390 0.0000
# 6 0.0000 0.0000 0.0000 -6.9387 0.0000 24.4740
#
#
#
# Elastic Compliance Matrix: (Units=1/GPa)
#
#
# Indices 1 2 3 4 5 6 
#
# 1 0.014959 -0.001580 -0.010431 0.000000 -0.004261 0.000000
# 2 -0.001580 0.009567 -0.005239 0.000000 -0.001707 0.000000
# 3 -0.010431 -0.005239 0.042060 0.000000 0.013645 0.000000
# 4 0.000000 0.000000 0.000000 0.124975 0.000000 0.035432
# 5 -0.004261 -0.001707 0.013645 0.000000 0.053182 0.000000
# 6 0.000000 0.000000 0.000000 0.035432 0.000000 0.050905
#
#
# Mechanical properties :
#
#
# Convention : Reuss Voigt Hill
#
# Bulk Modulus (GPa) = 31.16913 43.71064 37.43989
# Shear Modulus (GPa) = 14.66947 22.23287 18.45117
#
# Velocity S-wave (km/s) = 2.74335 3.37732 3.07671
# Velocity P-wave (km/s) = 5.10152 6.13461 5.64176
#
# Compressibility (1/GPa) = 0.03208302
#
# Stress axis : x y z
#
# Youngs Moduli (GPa) = 66.84890 104.53141 23.77568
#
# Poissons Ratio (x) = 0.16519 0.24801
# Poissons Ratio (y) = 0.10564 0.12457
# Poissons Ratio (z) = 0.69733 0.54769
#
# Static dielectric constant tensor:
#      x y z
#    x 3.470750 0.000000 -0.043320 
#    y 0.000000 3.770670 0.000000 
#    z -0.043320 0.000000 3.289130 
# 
# 
# High freq. dielectric constant tensor:
#      x y z
#    x 1.757950 0.000000 -0.004220 
#    y 0.000000 1.767490 0.000000 
#    z -0.004220 0.000000 1.730270 
# 
# From -- ./inp_files/96797.got.cif
#   From: 2010.06.25/outbox.cif.g09.slc.cpg/sg12_49_cif.got.tgz:96797.got - 2010.06.28 00:19:55.
