data_PCOD8109974
_publ_section_title
;
Structure prediction by ZEFSAII (Michael W. Deem and Ramdas Pophale) SiO2 
 PCOD8109974
Probable space group: C 2/M
;
_chemical_formula_sum "Si O2"
_cell_formula_units_Z 64
_cell_length_a 18.705157
_cell_length_b 17.026303
_cell_length_c 15.145700
_cell_angle_alpha 90.000000
_cell_angle_beta 141.402469
_cell_angle_gamma 90.000000
_cell_volume 3009.181645
_symmetry_space_group_name_H-M "C 2/M"
_symmetry_group_IT_number 12
_symmetry_cell_setting 'monoclinic'
loop_
_space_group_symop_operation_xyz
x,y,z
-x,y,-z
-x,-y,-z
x,-y,z
1/2+x,1/2+y,z
1/2-x,1/2+y,-z
1/2-x,1/2-y,-z
1/2+x,1/2-y,z
loop_
_atom_site_type_symbol
_atom_site_label
_atom_site_fract_x
_atom_site_fract_y
_atom_site_fract_z
Si Si1 0.183074 0.850051 0.254747
Si Si2 0.576912 0.661747 0.489110
Si Si3 0.623147 0.908228 0.820680
Si Si4 0.026830 0.088765 0.255677
Si Si5 0.829276 0.331271 0.773025
Si Si6 0.076170 0.329873 0.950969
Si Si7 0.653624 0.650861 0.035047
Si Si8 0.933429 0.347070 0.523286
O O1 0.106213 0.861601 0.266148
O O2 0.200579 0.759600 0.248348
O O3 0.127220 0.881950 0.109085
O O4 0.307634 0.885706 0.395734
O O5 0.500000 0.638307 0.500000
O O6 0.524225 0.621798 0.351744
O O7 0.708557 0.629607 0.626493
O O8 0.571562 0.754084 0.466425
O O9 0.635219 0.881018 0.932934
O O10 0.709687 0.854895 0.846174
O O11 0.495422 0.888031 0.665393
O O12 0.650448 0.000000 0.837880
O O13 0.070731 0.000000 0.300373
O O14 0.900694 0.093539 0.091125
O O15 0.937842 0.343653 0.812858
O O16 0.868346 0.363368 0.905889
O O17 0.103959 0.237623 0.969356
O O18 0.000000 0.370564 0.500000
#
# Coordination Sequence:
#
# PCOD8109974 Si02
#       8
#     8   8   8   8   8   8   8   8
#     4  10  21  40  65  93 123 157 212 264 309 369
#     4  10  24  42  67  93 124 161 215 269 309 367
#     4  12  26  39  60  96 133 168 205 256 320 380
#     4  12  26  40  61  94 128 170 208 252 322 380
#     4   9  20  41  67  96 116 157 214 267 313 354
#     4  10  21  40  70  92 121 161 216 263 303 373
#     4  11  22  43  66  91 125 168 214 260 305 371
#     4  10  21  42  64  90 120 164 209 255 312 373
#
# _framework density 21.268241
#
# number of rings (size 3 to 8) (size 9 to 14) (size 15 to 20)
#    0.000    1.500    2.500    1.875    5.250    3.500 
#    0.000    1.875    0.000    0.000    0.000    0.000 
#    0.000    0.000    0.000    0.000    0.000    0.000 
#
# Total GULP energy -396683.177135 kJ/mol
# GULP energy per Si atom -12396.349285 kJ/mol
# Density = 2.121983 g / cm^3
# Si number density = 21.268241 Si / 1000 Ang^3
#
#
#
# Elastic Constant Matrix: (Units=GPa)
#
#
# Indices 1 2 3 4 5 6 
#
# 1 108.9073 19.3472 53.2148 0.0000 -11.2703 0.0000
# 2 19.3472 36.0194 25.1767 0.0000 -8.8585 0.0000
# 3 53.2148 25.1767 130.9492 0.0000 -3.3281 0.0000
# 4 0.0000 0.0000 0.0000 3.4849 0.0000 3.5058
# 5 -11.2703 -8.8585 -3.3281 0.0000 42.4311 0.0000
# 6 0.0000 0.0000 0.0000 3.5058 0.0000 10.5840
#
#
#
# Elastic Compliance Matrix: (Units=1/GPa)
#
#
# Indices 1 2 3 4 5 6 
#
# 1 0.012018 -0.002921 -0.004265 0.000000 0.002248 0.000000
# 2 -0.002921 0.034512 -0.005295 0.000000 0.006014 0.000000
# 3 -0.004265 -0.005295 0.010352 0.000000 -0.001426 0.000000
# 4 0.000000 0.000000 0.000000 0.430359 0.000000 -0.142552
# 5 0.002248 0.006014 -0.001426 0.000000 0.025308 0.000000
# 6 0.000000 0.000000 0.000000 -0.142552 0.000000 0.141701
#
#
# Mechanical properties :
#
#
# Convention : Reuss Voigt Hill
#
# Bulk Modulus (GPa) = 31.32998 52.37258 41.85128
# Shear Modulus (GPa) = 7.24792 23.17580 15.21186
#
# Velocity S-wave (km/s) = 1.84804 3.30463 2.67730
# Velocity P-wave (km/s) = 4.39506 6.26410 5.41089
#
# Compressibility (1/GPa) = 0.03191831
#
# Stress axis : x y z
#
# Youngs Moduli (GPa) = 83.21116 28.97516 96.60352
#
# Poissons Ratio (x) = 0.08464 0.41201
# Poissons Ratio (y) = 0.24308 0.51156
# Poissons Ratio (z) = 0.35489 0.15344
#
# Static dielectric constant tensor:
#      x y z
#    x 3.783460 0.000000 0.080510 
#    y 0.000000 3.364810 0.000000 
#    z 0.080510 0.000000 4.284300 
# 
# 
# High freq. dielectric constant tensor:
#      x y z
#    x 1.838840 0.000000 0.002530 
#    y 0.000000 1.790860 0.000000 
#    z 0.002530 0.000000 1.853390 
# 
# From -- ./inp_files/226886.got.cif
#   From: 2010.06.25/outbox.cif.g09.slc.cpg/sg12_114_cif.got.tgz:226886.got - 2010.06.28 00:19:55.
