data_PCOD8109119
_publ_section_title
;
Structure prediction by ZEFSAII (Michael W. Deem and Ramdas Pophale) SiO2 
 PCOD8109119
Probable space group: C 2/M
;
_chemical_formula_sum "Si O2"
_cell_formula_units_Z 64
_cell_length_a 30.183169
_cell_length_b 8.906245
_cell_length_c 16.150757
_cell_angle_alpha 90.000000
_cell_angle_beta 132.487397
_cell_angle_gamma 90.000000
_cell_volume 3201.627174
_symmetry_space_group_name_H-M "C 2/M"
_symmetry_group_IT_number 12
_symmetry_cell_setting 'monoclinic'
loop_
_space_group_symop_operation_xyz
x,y,z
-x,y,-z
-x,-y,-z
x,-y,z
1/2+x,1/2+y,z
1/2-x,1/2+y,-z
1/2-x,1/2-y,-z
1/2+x,1/2-y,z
loop_
_atom_site_type_symbol
_atom_site_label
_atom_site_fract_x
_atom_site_fract_y
_atom_site_fract_z
Si Si1 0.010687 0.175851 0.756288
Si Si2 0.338164 0.822261 0.772905
Si Si3 0.238902 0.171859 0.072105
Si Si4 0.703996 0.323514 0.582652
Si Si5 0.838323 0.824113 0.295780
Si Si6 0.045168 0.677550 0.628182
Si Si7 0.617270 0.329672 0.007735
Si Si8 0.882219 0.823013 0.667566
O O1 0.944663 0.218779 0.703394
O O2 0.023060 0.264395 0.688150
O O3 0.017561 0.000000 0.745814
O O4 0.056615 0.225596 0.886431
O O5 0.270597 0.753300 0.678362
O O6 0.368686 0.774643 0.896886
O O7 0.378978 0.760788 0.750439
O O8 0.336769 0.000000 0.767982
O O9 0.273923 0.264595 0.185647
O O10 0.168787 0.181256 0.003776
O O11 0.261369 0.000000 0.097746
O O12 0.250000 0.250000 0.000000
O O13 0.711891 0.500000 0.585538
O O14 0.659963 0.286968 0.604276
O O15 0.671667 0.262030 0.459346
O O16 0.889487 0.740315 0.309935
O O17 0.843810 0.000000 0.284546
O O18 0.048813 0.500000 0.635693
O O19 0.000000 0.734366 0.500000
O O20 0.610570 0.500000 0.031793
O O21 0.877122 0.000000 0.676094
#
# Coordination Sequence:
#
# PCOD8109119 Si02
#       8
#     8   8   8   8   8   8   8   8
#     4  10  22  41  64  88 117 159 209 252 298 359
#     4  11  22  38  60  88 120 155 198 247 305 364
#     4  11  22  36  57  86 119 155 198 246 301 360
#     4   9  19  36  59  88 119 152 196 247 301 363
#     4  11  21  37  61  87 118 156 201 247 298 360
#     4  11  24  40  59  89 127 162 201 248 301 361
#     4  10  22  40  60  85 118 157 200 247 298 358
#     4  10  21  39  62  87 116 153 200 252 304 361
#
# _framework density 19.989834999999999
#
# number of rings (size 3 to 8) (size 9 to 14) (size 15 to 20)
#    0.000    1.625    1.250    3.375    0.000    5.000 
#    0.000    4.375    0.000    0.000    0.000    0.000 
#    0.000    0.000    0.000    0.000    0.000    0.000 
#
# Total GULP energy -396904.646183 kJ/mol
# GULP energy per Si atom -12403.270193 kJ/mol
# Density = 1.994434 g / cm^3
# Si number density = 19.989835 Si / 1000 Ang^3
#
#
#
# Elastic Constant Matrix: (Units=GPa)
#
#
# Indices 1 2 3 4 5 6 
#
# 1 100.8642 47.0315 45.5997 0.0000 -7.9667 0.0000
# 2 47.0315 59.5348 41.7286 0.0000 -9.4848 0.0000
# 3 45.5997 41.7286 125.0416 0.0000 -2.3040 0.0000
# 4 0.0000 0.0000 0.0000 31.2694 0.0000 -4.2862
# 5 -7.9667 -9.4848 -2.3040 0.0000 36.2237 0.0000
# 6 0.0000 0.0000 0.0000 -4.2862 0.0000 28.5789
#
#
#
# Elastic Compliance Matrix: (Units=1/GPa)
#
#
# Indices 1 2 3 4 5 6 
#
# 1 0.016126 -0.011155 -0.002149 0.000000 0.000489 0.000000
# 2 -0.011155 0.030700 -0.006081 0.000000 0.005198 0.000000
# 3 -0.002149 -0.006081 0.010785 0.000000 -0.001379 0.000000
# 4 0.000000 0.000000 0.000000 0.032651 0.000000 0.004897
# 5 0.000489 0.005198 -0.001379 0.000000 0.028987 0.000000
# 6 0.000000 0.000000 0.000000 0.004897 0.000000 0.035725
#
#
# Mechanical properties :
#
#
# Convention : Reuss Voigt Hill
#
# Bulk Modulus (GPa) = 53.07855 61.57335 57.32595
# Shear Modulus (GPa) = 24.99681 29.28646 27.14164
#
# Velocity S-wave (km/s) = 3.54004 3.83177 3.68879
# Velocity P-wave (km/s) = 6.58176 7.10252 6.84710
#
# Compressibility (1/GPa) = 0.01884000
#
# Stress axis : x y z
#
# Youngs Moduli (GPa) = 62.01190 32.57352 92.72045
#
# Poissons Ratio (x) = 0.36336 0.19927
# Poissons Ratio (y) = 0.69174 0.56386
# Poissons Ratio (z) = 0.13327 0.19809
#
# Static dielectric constant tensor:
#      x y z
#    x 3.635450 0.000000 0.086920 
#    y 0.000000 3.545830 0.000000 
#    z 0.086920 0.000000 3.894730 
# 
# 
# High freq. dielectric constant tensor:
#      x y z
#    x 1.788360 0.000000 -0.001780 
#    y 0.000000 1.767440 0.000000 
#    z -0.001780 0.000000 1.792050 
# 
# From -- ./inp_files/249934.got.cif
#   From: 2010.06.25/outbox.cif.g09.slc.cpg/sg12_125_cif.got.tgz:249934.got - 2010.06.28 00:19:55.
