data_PCOD8109030
_publ_section_title
;
Structure prediction by ZEFSAII (Michael W. Deem and Ramdas Pophale) SiO2 
 PCOD8109030
Probable space group: C 2/M
;
_chemical_formula_sum "Si O2"
_cell_formula_units_Z 48
_cell_length_a 14.786904
_cell_length_b 10.753290
_cell_length_c 26.380447
_cell_angle_alpha 90.000000
_cell_angle_beta 34.322172
_cell_angle_gamma 90.000000
_cell_volume 2365.162711
_symmetry_space_group_name_H-M "C 2/M"
_symmetry_group_IT_number 12
_symmetry_cell_setting 'monoclinic'
loop_
_space_group_symop_operation_xyz
x,y,z
-x,y,-z
-x,-y,-z
x,-y,z
1/2+x,1/2+y,z
1/2-x,1/2+y,-z
1/2-x,1/2-y,-z
1/2+x,1/2-y,z
loop_
_atom_site_type_symbol
_atom_site_label
_atom_site_fract_x
_atom_site_fract_y
_atom_site_fract_z
Si Si1 0.863059 0.858758 0.026981
Si Si2 0.440405 0.716200 0.797089
Si Si3 0.761638 0.353541 0.379865
Si Si4 0.077010 0.861894 0.835996
Si Si5 0.314931 0.638882 0.753778
Si Si6 0.006066 0.143471 0.572368
O O1 0.692536 0.794983 0.112213
O O2 0.837824 0.000000 0.055814
O O3 0.000000 0.798605 0.000000
O O4 0.916512 0.846973 0.943800
O O5 0.562260 0.798792 0.708111
O O6 0.532623 0.638754 0.797263
O O7 0.356073 0.630077 0.794083
O O8 0.786526 0.500000 0.368507
O O9 0.649796 0.305110 0.385428
O O10 0.674596 0.302841 0.472244
O O11 0.191953 0.749100 0.798624
O O12 0.153109 0.000000 0.811672
O O13 0.248058 0.500000 0.769547
O O14 0.476218 0.666914 0.645897
O O15 0.015832 0.000000 0.553622
#
# Coordination Sequence:
#
# PCOD8109030 Si02
#       6
#     8   8   8   8   8   8
#     4  10  21  39  61  87 123 163 202 246 297 359
#     4  12  22  36  63  93 119 154 203 252 306 354
#     4   9  17  31  59  91 118 157 204 243 290 361
#     4  11  24  43  62  87 126 162 198 251 306 355
#     4  11  23  40  63  91 124 161 201 247 300 359
#     4   8  16  34  56  85 123 158 196 245 293 350
#
# _framework density 20.294588000000001
#
# number of rings (size 3 to 8) (size 9 to 14) (size 15 to 20)
#    0.000    1.833    3.333    2.500    0.000    2.000 
#    0.000    2.500    0.000    3.000    0.000    0.000 
#    0.000    0.000    0.000    0.000    0.000    0.000 
#
# Total GULP energy -297331.327369 kJ/mol
# GULP energy per Si atom -12388.805307 kJ/mol
# Density = 2.024840 g / cm^3
# Si number density = 20.294588 Si / 1000 Ang^3
#
#
#
# Elastic Constant Matrix: (Units=GPa)
#
#
# Indices 1 2 3 4 5 6 
#
# 1 90.1074 30.5562 26.3278 0.0000 20.1777 0.0000
# 2 30.5562 101.1820 56.4048 0.0000 -1.0883 0.0000
# 3 26.3278 56.4048 130.9115 -0.0003 7.8686 -0.0001
# 4 0.0000 0.0000 -0.0003 26.6945 0.0000 -0.6757
# 5 20.1777 -1.0883 7.8686 0.0000 35.7427 0.0000
# 6 0.0000 0.0000 -0.0001 -0.6757 0.0000 18.1448
#
#
#
# Elastic Compliance Matrix: (Units=1/GPa)
#
#
# Indices 1 2 3 4 5 6 
#
# 1 0.014512 -0.004103 -0.000660 0.000000 -0.008172 0.000000
# 2 -0.004103 0.014264 -0.005560 0.000000 0.003974 0.000000
# 3 -0.000660 -0.005560 0.010291 0.000000 -0.002062 0.000000
# 4 0.000000 0.000000 0.000000 0.037496 0.000000 0.001396
# 5 -0.008172 0.003974 -0.002062 0.000000 0.033166 0.000000
# 6 0.000000 0.000000 0.000000 0.001396 0.000000 0.055164
#
#
# Mechanical properties :
#
#
# Convention : Reuss Voigt Hill
#
# Bulk Modulus (GPa) = 54.28030 60.97539 57.62784
# Shear Modulus (GPa) = 26.08537 30.04387 28.06462
#
# Velocity S-wave (km/s) = 3.58905 3.85176 3.72272
# Velocity P-wave (km/s) = 6.63169 7.06341 6.85095
#
# Compressibility (1/GPa) = 0.01842289
#
# Stress axis : x y z
#
# Youngs Moduli (GPa) = 68.90951 70.10557 97.17386
#
# Poissons Ratio (x) = 0.28762 0.06410
# Poissons Ratio (y) = 0.28271 0.54026
# Poissons Ratio (z) = 0.04545 0.38977
#
# Static dielectric constant tensor:
#      x y z
#    x 3.601800 0.000000 0.257650 
#    y 0.000000 3.401650 0.000000 
#    z 0.257650 0.000000 3.883220 
# 
# 
# High freq. dielectric constant tensor:
#      x y z
#    x 1.780250 0.000000 0.023970 
#    y 0.000000 1.765140 0.000000 
#    z 0.023970 0.000000 1.807420 
# 
# From -- ./inp_files/212540.got.cif
#   From: 2010.06.25/outbox.cif.g09.slc.cpg/sg12_107_cif.got.tgz:212540.got - 2010.06.28 00:19:55.
