data_PCOD8109199
_publ_section_title
;
Structure prediction by ZEFSAII (Michael W. Deem and Ramdas Pophale) SiO2 
 PCOD8109199
Probable space group: C 2/M
;
_chemical_formula_sum "Si O2"
_cell_formula_units_Z 64
_cell_length_a 29.595779
_cell_length_b 8.577061
_cell_length_c 18.424237
_cell_angle_alpha 90.000000
_cell_angle_beta 40.493560
_cell_angle_gamma 90.000000
_cell_volume 3037.001744
_symmetry_space_group_name_H-M "C 2/M"
_symmetry_group_IT_number 12
_symmetry_cell_setting 'monoclinic'
loop_
_space_group_symop_operation_xyz
x,y,z
-x,y,-z
-x,-y,-z
x,-y,z
1/2+x,1/2+y,z
1/2-x,1/2+y,-z
1/2-x,1/2-y,-z
1/2+x,1/2-y,z
loop_
_atom_site_type_symbol
_atom_site_label
_atom_site_fract_x
_atom_site_fract_y
_atom_site_fract_z
Si Si1 0.543732 0.819458 0.592971
Si Si2 0.811950 0.684372 0.216210
Si Si3 0.083951 0.182468 0.310524
Si Si4 0.159952 0.183368 0.362284
Si Si5 0.825469 0.316732 0.924894
Si Si6 0.685407 0.183535 0.623928
Si Si7 0.042783 0.819185 0.745605
Si Si8 0.405647 0.182840 0.972546
O O1 0.489915 0.771683 0.594976
O O2 0.620987 0.776511 0.473405
O O3 0.521238 0.719075 0.689943
O O4 0.538208 0.000000 0.619492
O O5 0.816474 0.500000 0.214880
O O6 0.739563 0.735447 0.268421
O O7 0.816889 0.754148 0.291411
O O8 0.873290 0.743967 0.088242
O O9 0.131669 0.236309 0.318886
O O10 0.120734 0.227938 0.191352
O O11 0.069182 0.000000 0.331784
O O12 0.149975 0.000000 0.388217
O O13 0.826527 0.500000 0.907142
O O14 0.849334 0.281922 0.978135
O O15 0.750000 0.250000 0.000000
O O16 0.750000 0.250000 0.500000
O O17 0.612351 0.222773 0.676510
O O18 0.695886 0.000000 0.613723
O O19 0.978545 0.771724 0.875138
O O20 0.059074 0.000000 0.736005
O O21 0.422298 0.000000 0.954280
#
# Coordination Sequence:
#
# PCOD8109199 Si02
#       8
#     8   8   8   8   8   8   8   8
#     4  12  24  39  60  89 124 164 211 265 317 378
#     4   9  20  40  66  92 122 161 206 254 312 376
#     4  11  22  37  59  88 124 164 210 259 315 379
#     4  10  21  39  62  90 124 166 209 256 315 383
#     4  11  22  36  59  87 123 167 216 267 314 371
#     4  11  23  42  69  99 129 165 210 261 315 380
#     4  12  25  42  65  92 126 168 211 263 323 383
#     4  10  21  41  65  91 123 164 212 261 311 375
#
# _framework density 21.073416999999999
#
# number of rings (size 3 to 8) (size 9 to 14) (size 15 to 20)
#    0.000    1.250    1.250    5.250    0.000    6.500 
#    0.000    5.000    0.000    0.000    0.000    0.000 
#    0.000    0.000    0.000    0.000    0.000    0.000 
#
# Total GULP energy -396903.895375 kJ/mol
# GULP energy per Si atom -12403.246730 kJ/mol
# Density = 2.102545 g / cm^3
# Si number density = 21.073417 Si / 1000 Ang^3
#
#
#
# Elastic Constant Matrix: (Units=GPa)
#
#
# Indices 1 2 3 4 5 6 
#
# 1 103.2553 20.8073 48.7265 -0.0038 -4.2530 0.0038
# 2 20.8073 58.6950 34.9537 -0.0102 1.9675 0.0135
# 3 48.7265 34.9537 150.4106 -0.0022 0.1913 0.0022
# 4 -0.0038 -0.0102 -0.0022 36.9700 0.0050 -4.6125
# 5 -4.2530 1.9675 0.1913 0.0050 40.2552 -0.0041
# 6 0.0038 0.0135 0.0022 -4.6125 -0.0041 26.9188
#
#
#
# Elastic Compliance Matrix: (Units=1/GPa)
#
#
# Indices 1 2 3 4 5 6 
#
# 1 0.011744 -0.002254 -0.003282 0.000000 0.001367 0.000000
# 2 -0.002254 0.020242 -0.003972 0.000004 -0.001209 -0.000009
# 3 -0.003282 -0.003972 0.008635 -0.000001 -0.000194 0.000002
# 4 0.000000 0.000004 -0.000001 0.027640 -0.000003 0.004736
# 5 0.001367 -0.001209 -0.000194 -0.000003 0.025046 0.000004
# 6 0.000000 -0.000009 0.000002 0.004736 0.000004 0.037960
#
#
# Mechanical properties :
#
#
# Convention : Reuss Voigt Hill
#
# Bulk Modulus (GPa) = 46.28835 57.92623 52.10729
# Shear Modulus (GPa) = 31.74855 34.68702 33.21778
#
# Velocity S-wave (km/s) = 3.88566 4.06150 3.97456
# Velocity P-wave (km/s) = 6.49185 7.03860 6.77075
#
# Compressibility (1/GPa) = 0.02160371
#
# Stress axis : x y z
#
# Youngs Moduli (GPa) = 85.14747 49.40112 115.80496
#
# Poissons Ratio (x) = 0.11137 0.38013
# Poissons Ratio (y) = 0.19196 0.46001
# Poissons Ratio (z) = 0.27950 0.19623
#
# Static dielectric constant tensor:
#      x y z
#    x 3.945330 -0.000060 0.089980 
#    y -0.000060 3.610240 0.000090 
#    z 0.089980 0.000090 4.016170 
# 
# 
# High freq. dielectric constant tensor:
#      x y z
#    x 1.832410 0.000000 -0.003220 
#    y 0.000000 1.809450 0.000010 
#    z -0.003220 0.000010 1.840320 
# 
# From -- ./inp_files/295651.got.cif
#   From: 2010.06.25/outbox.cif.g09.slc.cpg/sg12_148_cif.got.tgz:295651.got - 2010.06.28 00:19:55.
