data_PCOD8109188
_publ_section_title
;
Structure prediction by ZEFSAII (Michael W. Deem and Ramdas Pophale) SiO2 
 PCOD8109188
Probable space group: C 2/M
;
_chemical_formula_sum "Si O2"
_cell_formula_units_Z 48
_cell_length_a 20.083358
_cell_length_b 18.134864
_cell_length_c 14.621788
_cell_angle_alpha 90.000000
_cell_angle_beta 26.644310
_cell_angle_gamma 90.000000
_cell_volume 2388.171893
_symmetry_space_group_name_H-M "C 2/M"
_symmetry_group_IT_number 12
_symmetry_cell_setting 'monoclinic'
loop_
_space_group_symop_operation_xyz
x,y,z
-x,y,-z
-x,-y,-z
x,-y,z
1/2+x,1/2+y,z
1/2-x,1/2+y,-z
1/2-x,1/2-y,-z
1/2+x,1/2-y,z
loop_
_atom_site_type_symbol
_atom_site_label
_atom_site_fract_x
_atom_site_fract_y
_atom_site_fract_z
Si Si1 0.352497 0.856801 0.234474
Si Si2 0.934153 0.197916 0.181025
Si Si3 0.150527 0.586500 0.097181
Si Si4 0.331125 0.337724 0.712532
Si Si5 0.725192 0.703646 0.938164
Si Si6 0.184659 0.417454 0.534471
O O1 0.365977 0.779383 0.271805
O O2 0.220158 0.855077 0.326001
O O3 0.316286 0.918103 0.354135
O O4 0.500000 0.878813 0.000000
O O5 0.807887 0.137179 0.345385
O O6 0.000000 0.185930 0.000000
O O7 0.055713 0.191634 0.113050
O O8 0.177921 0.500000 0.070993
O O9 0.239605 0.616330 0.899808
O O10 0.207317 0.623237 0.122474
O O11 0.977788 0.607015 0.300459
O O12 0.500000 0.362194 0.500000
O O13 0.311460 0.249608 0.753852
O O14 0.750000 0.750000 0.000000
O O15 0.222327 0.500000 0.454587
#
# Coordination Sequence:
#
# PCOD8109188 Si02
#       6
#     8   8   8   8   8   8
#     4  11  20  40  65  93 124 161 207 263 318 371
#     4  11  23  42  67  94 122 162 216 267 312 365
#     4  10  23  42  60  88 130 169 205 250 314 380
#     4  11  23  37  62  96 125 159 207 260 312 373
#     4  10  21  39  62  90 122 161 208 257 307 366
#     4  11  25  41  63  93 128 170 209 255 316 380
#
# _framework density 20.099056000000001
#
# number of rings (size 3 to 8) (size 9 to 14) (size 15 to 20)
#    0.000    1.333    5.000    1.500    7.000    2.333 
#    0.000    0.000    0.000    2.500    0.000    0.000 
#    0.000    0.000    0.000    0.000    0.000    0.000 
#
# Total GULP energy -297530.811599 kJ/mol
# GULP energy per Si atom -12397.117150 kJ/mol
# Density = 2.005331 g / cm^3
# Si number density = 20.099056 Si / 1000 Ang^3
#
#
#
# Elastic Constant Matrix: (Units=GPa)
#
#
# Indices 1 2 3 4 5 6 
#
# 1 91.3916 26.3714 27.4577 0.0054 -44.6523 -0.0031
# 2 26.3714 93.1441 44.9914 0.0034 -13.9708 -0.0009
# 3 27.4577 44.9914 94.3369 -0.0030 -30.1644 -0.0085
# 4 0.0054 0.0034 -0.0030 22.5111 0.0004 -13.6902
# 5 -44.6523 -13.9708 -30.1644 0.0004 34.0899 0.0021
# 6 -0.0031 -0.0009 -0.0085 -13.6902 0.0021 3.4110
#
#
#
# Elastic Compliance Matrix: (Units=1/GPa)
#
#
# Indices 1 2 3 4 5 6 
#
# 1 0.035629 -0.006902 0.009677 -0.000005 0.052403 0.000003
# 2 -0.006902 0.015288 -0.008604 0.000008 -0.010388 0.000017
# 3 0.009677 -0.008604 0.020657 -0.000018 0.027428 -0.000032
# 4 -0.000005 0.000008 -0.000018 -0.030831 -0.000012 -0.123740
# 5 0.052403 -0.010388 0.027428 -0.000012 0.117985 -0.000004
# 6 0.000003 0.000017 -0.000032 -0.123740 -0.000004 -0.203468
#
#
# Mechanical properties :
#
#
# Convention : Reuss Voigt Hill
#
# Bulk Modulus (GPa) = 16.68974 52.94594 34.81784
# Shear Modulus (GPa) = -381.38081 24.00589 -178.68746
#
# Velocity S-wave (km/s) = -13.78994 3.45973 -9.43909
# Velocity P-wave (km/s) = 15.65977 6.50840 10.07147
#
# Compressibility (1/GPa) = 0.05991704
#
# Stress axis : x y z
#
# Youngs Moduli (GPa) = 28.06705 65.41095 48.40927
#
# Poissons Ratio (x) = 0.45146 -0.46847
# Poissons Ratio (y) = 0.19372 0.41651
# Poissons Ratio (z) = -0.27161 0.56279
#
# Static dielectric constant tensor:
#      x y z
#    x 244.867360 0.001030 44.646120 
#    y 0.001030 3.815810 0.000190 
#    z 44.646120 0.000190 11.853670 
# 
# 
# High freq. dielectric constant tensor:
#      x y z
#    x 1.796040 0.000000 -0.013070 
#    y 0.000000 1.778850 0.000000 
#    z -0.013070 0.000000 1.777670 
# 
# From -- ./inp_files/290527.got.cif
#   From: 2010.06.25/outbox.cif.g09.slc.cpg/sg12_146_cif.got.tgz:290527.got - 2010.06.28 00:19:55.
