data_PCOD8109287
_publ_section_title
;
Structure prediction by ZEFSAII (Michael W. Deem and Ramdas Pophale) SiO2 
 PCOD8109287
Probable space group: C 2/M
;
_chemical_formula_sum "Si O2"
_cell_formula_units_Z 36
_cell_length_a 15.574661
_cell_length_b 9.948999
_cell_length_c 11.471754
_cell_angle_alpha 90.000000
_cell_angle_beta 104.793278
_cell_angle_gamma 90.000000
_cell_volume 1718.653877
_symmetry_space_group_name_H-M "C 2/M"
_symmetry_group_IT_number 12
_symmetry_cell_setting 'monoclinic'
loop_
_space_group_symop_operation_xyz
x,y,z
-x,y,-z
-x,-y,-z
x,-y,z
1/2+x,1/2+y,z
1/2-x,1/2+y,-z
1/2-x,1/2-y,-z
1/2+x,1/2-y,z
loop_
_atom_site_type_symbol
_atom_site_label
_atom_site_fract_x
_atom_site_fract_y
_atom_site_fract_z
Si Si1 0.797430 0.343058 0.308292
Si Si2 0.170375 0.345765 0.933683
Si Si3 0.584616 0.850880 0.450437
Si Si4 0.500000 0.745875 0.000000
Si Si5 0.403297 0.348108 0.747053
O O1 0.805600 0.500000 0.332572
O O2 0.850407 0.305565 0.208171
O O3 0.840205 0.280155 0.440704
O O4 0.695860 0.297576 0.257467
O O5 0.204433 0.500000 0.952468
O O6 0.081131 0.335129 0.979165
O O7 0.250000 0.250000 0.000000
O O8 0.500000 0.869809 0.500000
O O9 0.559361 0.753231 0.336094
O O10 0.612085 0.000000 0.412229
O O11 0.463087 0.653718 0.883509
O O12 0.403736 0.500000 0.698474
#
# Coordination Sequence:
#
# PCOD8109287 Si02
#       5
#     8   8   8   4   8
#     4   9  19  39  62  87 124 165 207 260 322 381
#     4  11  23  42  66  95 131 171 216 267 320 382
#     4  10  21  39  63  89 121 162 210 265 325 384
#     4  12  24  40  66  96 132 174 220 262 318 384
#     4  11  23  39  62  90 125 169 215 265 320 379
#
# _framework density 20.946625999999998
#
# number of rings (size 3 to 8) (size 9 to 14) (size 15 to 20)
#    0.000    1.556    2.222    2.667    0.000    4.889 
#    0.000    1.111    0.000    0.000    0.000    0.000 
#    0.000    0.000    0.000    0.000    0.000    0.000 
#
# Total GULP energy -223103.766575 kJ/mol
# GULP energy per Si atom -12394.653699 kJ/mol
# Density = 2.089895 g / cm^3
# Si number density = 20.946626 Si / 1000 Ang^3
#
#
#
# Elastic Constant Matrix: (Units=GPa)
#
#
# Indices 1 2 3 4 5 6 
#
# 1 96.4988 34.0930 40.4274 0.0000 1.8584 0.0000
# 2 34.0930 100.2790 55.1876 0.0000 -6.1373 0.0000
# 3 40.4274 55.1876 145.5539 0.0000 8.4658 0.0000
# 4 0.0000 0.0000 0.0000 26.2976 0.0000 1.7516
# 5 1.8584 -6.1373 8.4658 0.0000 41.1030 0.0000
# 6 0.0000 0.0000 0.0000 1.7516 0.0000 24.0182
#
#
#
# Elastic Compliance Matrix: (Units=1/GPa)
#
#
# Indices 1 2 3 4 5 6 
#
# 1 0.012383 -0.002991 -0.002274 0.000000 -0.000538 0.000000
# 2 -0.002991 0.013676 -0.004535 0.000000 0.003111 0.000000
# 3 -0.002274 -0.004535 0.009367 0.000000 -0.002504 0.000000
# 4 0.000000 0.000000 0.000000 0.038212 0.000000 -0.002787
# 5 -0.000538 0.003111 -0.002504 0.000000 0.025334 0.000000
# 6 0.000000 0.000000 0.000000 -0.002787 0.000000 0.041838
#
#
# Mechanical properties :
#
#
# Convention : Reuss Voigt Hill
#
# Bulk Modulus (GPa) = 63.19392 66.86087 65.02740
# Shear Modulus (GPa) = 30.17777 32.45867 31.31822
#
# Velocity S-wave (km/s) = 3.79977 3.94075 3.87090
# Velocity P-wave (km/s) = 7.03460 7.25913 7.14774
#
# Compressibility (1/GPa) = 0.01582431
#
# Stress axis : x y z
#
# Youngs Moduli (GPa) = 80.75824 73.12304 106.75755
#
# Poissons Ratio (x) = 0.21875 0.24274
# Poissons Ratio (y) = 0.24159 0.48417
# Poissons Ratio (z) = 0.18362 0.33163
#
# Static dielectric constant tensor:
#      x y z
#    x 3.871170 0.000000 0.111680 
#    y 0.000000 3.480460 0.000000 
#    z 0.111680 0.000000 4.089550 
# 
# 
# High freq. dielectric constant tensor:
#      x y z
#    x 1.822930 0.000000 0.005160 
#    y 0.000000 1.792130 0.000000 
#    z 0.005160 0.000000 1.835430 
# 
# From -- ./inp_files/151551.got.cif
#   From: 2010.06.25/outbox.cif.g09.slc.cpg/sg12_76_cif.got.tgz:151551.got - 2010.06.28 00:19:55.
