data_PCOD8109732
_publ_section_title
;
Structure prediction by ZEFSAII (Michael W. Deem and Ramdas Pophale) SiO2 
 PCOD8109732
Probable space group: C 2/M
;
_chemical_formula_sum "Si O2"
_cell_formula_units_Z 48
_cell_length_a 14.822689
_cell_length_b 14.010815
_cell_length_c 10.721734
_cell_angle_alpha 90.000000
_cell_angle_beta 88.788434
_cell_angle_gamma 90.000000
_cell_volume 2226.169970
_symmetry_space_group_name_H-M "C 2/M"
_symmetry_group_IT_number 12
_symmetry_cell_setting 'monoclinic'
loop_
_space_group_symop_operation_xyz
x,y,z
-x,y,-z
-x,-y,-z
x,-y,z
1/2+x,1/2+y,z
1/2-x,1/2+y,-z
1/2-x,1/2-y,-z
1/2+x,1/2-y,z
loop_
_atom_site_type_symbol
_atom_site_label
_atom_site_fract_x
_atom_site_fract_y
_atom_site_fract_z
Si Si1 0.220008 0.111578 0.180922
Si Si2 0.921074 0.265667 0.783547
Si Si3 0.608472 0.791540 0.694480
Si Si4 0.209830 0.606502 0.089674
Si Si5 0.116875 0.606544 0.449471
Si Si6 0.194037 0.104004 0.651243
O O1 0.125274 0.160783 0.223682
O O2 0.304900 0.163563 0.241304
O O3 0.217015 0.000000 0.218177
O O4 0.229749 0.126985 0.032636
O O5 0.875483 0.322589 0.899443
O O6 0.909351 0.318409 0.653576
O O7 0.029738 0.267022 0.797612
O O8 0.576558 0.863578 0.585404
O O9 0.628257 0.691322 0.623574
O O10 0.169760 0.500000 0.085986
O O11 0.270680 0.621510 0.209357
O O12 0.081909 0.500000 0.417392
O O13 0.225910 0.605679 0.452562
O O14 0.145390 0.000000 0.645450
#
# Coordination Sequence:
#
# PCOD8109732 Si02
#       6
#     8   8   8   8   8   8
#     4  11  24  41  61  89 126 159 194 251 305 349
#     4  11  23  38  62  88 119 159 200 245 297 361
#     4  12  23  37  61  91 120 154 202 249 297 352
#     4   9  19  40  63  83 117 158 196 242 300 353
#     4  10  21  40  62  85 118 156 197 246 298 355
#     4   9  19  37  63  85 112 159 202 238 289 358
#
# _framework density 21.561696999999999
#
# number of rings (size 3 to 8) (size 9 to 14) (size 15 to 20)
#    0.000    1.667    3.333    3.500    0.000    4.667 
#    0.000    1.667    0.000    5.000    0.000    0.000 
#    0.000    0.000    0.000    0.000    0.000    0.000 
#
# Total GULP energy -297446.715879 kJ/mol
# GULP energy per Si atom -12393.613162 kJ/mol
# Density = 2.151262 g / cm^3
# Si number density = 21.561697 Si / 1000 Ang^3
#
#
#
# Elastic Constant Matrix: (Units=GPa)
#
#
# Indices 1 2 3 4 5 6 
#
# 1 64.1341 45.2222 22.0319 0.0000 -25.7819 0.0000
# 2 45.2222 158.4996 33.0838 0.0000 -23.8231 0.0000
# 3 22.0319 33.0838 71.2957 0.0000 -15.9686 0.0000
# 4 0.0000 0.0000 0.0000 31.5562 0.0000 -0.4390
# 5 -25.7819 -23.8231 -15.9686 0.0000 27.5700 0.0000
# 6 0.0000 0.0000 0.0000 -0.4390 0.0000 13.5628
#
#
#
# Elastic Compliance Matrix: (Units=1/GPa)
#
#
# Indices 1 2 3 4 5 6 
#
# 1 0.027815 -0.004372 -0.001823 0.000000 0.021176 0.000000
# 2 -0.004372 0.008268 -0.002070 0.000000 0.001857 0.000000
# 3 -0.001823 -0.002070 0.016969 0.000000 0.006335 0.000000
# 4 0.000000 0.000000 0.000000 0.031704 0.000000 0.001026
# 5 0.021176 0.001857 0.006335 0.000000 0.061348 0.000000
# 6 0.000000 0.000000 0.000000 0.001026 0.000000 0.073764
#
#
# Mechanical properties :
#
#
# Convention : Reuss Voigt Hill
#
# Bulk Modulus (GPa) = 27.38184 54.95615 41.16900
# Shear Modulus (GPa) = 20.11500 27.44391 23.77946
#
# Velocity S-wave (km/s) = 3.05766 3.57151 3.32453
# Velocity P-wave (km/s) = 5.01922 6.52310 5.81994
#
# Compressibility (1/GPa) = 0.03652055
#
# Stress axis : x y z
#
# Youngs Moduli (GPa) = 35.95224 120.95253 58.93182
#
# Poissons Ratio (x) = 0.52886 0.10745
# Poissons Ratio (y) = 0.15720 0.12196
# Poissons Ratio (z) = 0.06555 0.25031
#
# Static dielectric constant tensor:
#      x y z
#    x 3.785320 0.000000 -0.342130 
#    y 0.000000 4.220810 0.000000 
#    z -0.342130 0.000000 3.931030 
# 
# 
# High freq. dielectric constant tensor:
#      x y z
#    x 1.812910 0.000000 -0.021610 
#    y 0.000000 1.865550 0.000000 
#    z -0.021610 0.000000 1.842990 
# 
# From -- ./inp_files/142704.got.cif
#   From: 2010.06.25/outbox.cif.g09.slc.cpg/sg12_72_cif.got.tgz:142704.got - 2010.06.28 00:19:55.
