data_PCOD8109691
_publ_section_title
;
Structure prediction by ZEFSAII (Michael W. Deem and Ramdas Pophale) SiO2 
 PCOD8109691
Probable space group: C 2/M
;
_chemical_formula_sum "Si O2"
_cell_formula_units_Z 32
_cell_length_a 14.411598
_cell_length_b 19.571615
_cell_length_c 13.304626
_cell_angle_alpha 90.000000
_cell_angle_beta 160.186205
_cell_angle_gamma 90.000000
_cell_volume 1272.024920
_symmetry_space_group_name_H-M "C 2/M"
_symmetry_group_IT_number 12
_symmetry_cell_setting 'monoclinic'
loop_
_space_group_symop_operation_xyz
x,y,z
-x,y,-z
-x,-y,-z
x,-y,z
1/2+x,1/2+y,z
1/2-x,1/2+y,-z
1/2-x,1/2-y,-z
1/2+x,1/2-y,z
loop_
_atom_site_type_symbol
_atom_site_label
_atom_site_fract_x
_atom_site_fract_y
_atom_site_fract_z
Si Si1 0.129355 0.129980 0.525700
Si Si2 0.895552 0.500000 0.722688
Si Si3 0.837297 0.284865 0.434618
Si Si4 0.831457 0.145477 0.014207
Si Si5 0.632861 0.500000 0.936533
O O1 0.353730 0.070574 0.741083
O O2 0.253474 0.206150 0.657691
O O3 0.000000 0.111867 0.500000
O O4 0.922272 0.132747 0.221046
O O5 0.209800 0.500000 0.010531
O O6 0.691774 0.500000 0.418354
O O7 0.552591 0.322277 0.164091
O O8 0.000000 0.307403 0.500000
O O9 0.056815 0.307978 0.743661
O O10 0.777452 0.069177 0.913285
#
# Coordination Sequence:
#
# PCOD8109691 Si02
#       5
#     8   4   8   8   4
#     4  10  22  40  65  96 128 164 203 248 309 378
#     4  10  21  40  60  92 128 162 198 248 306 374
#     4  11  24  41  64  93 124 163 212 257 304 362
#     4  11  22  43  64  90 126 165 203 259 310 360
#     4  10  22  40  64  90 121 162 209 252 306 370
#
# _framework density 25.156739000000002
#
# number of rings (size 3 to 8) (size 9 to 14) (size 15 to 20)
#    0.000    1.500    0.000    5.625    0.000    4.000 
#    0.000   27.500    0.000    0.000    0.000    0.000 
#    0.000    0.000    0.000    0.000    0.000    0.000 
#
# Total GULP energy -198250.382524 kJ/mol
# GULP energy per Si atom -12390.648908 kJ/mol
# Density = 2.509948 g / cm^3
# Si number density = 25.156739 Si / 1000 Ang^3
#
#
#
# Elastic Constant Matrix: (Units=GPa)
#
#
# Indices 1 2 3 4 5 6 
#
# 1 64.3191 53.9915 0.7392 0.0017 8.4983 0.0043
# 2 53.9915 178.8514 17.4149 0.0010 37.9955 -0.0017
# 3 0.7392 17.4149 54.8479 0.0119 25.1940 -0.0009
# 4 0.0017 0.0010 0.0119 -13.9434 0.0025 22.6243
# 5 8.4983 37.9955 25.1940 0.0025 33.5010 0.0019
# 6 0.0043 -0.0017 -0.0009 22.6243 0.0019 23.1949
#
#
#
# Elastic Compliance Matrix: (Units=1/GPa)
#
#
# Indices 1 2 3 4 5 6 
#
# 1 0.021027 -0.006771 0.001206 -0.000001 0.001438 -0.000003
# 2 -0.006771 0.009739 0.001961 0.000002 -0.010803 0.000001
# 3 0.001206 0.001961 0.028654 0.000010 -0.024079 -0.000007
# 4 -0.000001 0.000002 0.000010 -0.027769 -0.000008 0.027086
# 5 0.001438 -0.010803 -0.024079 -0.000008 0.059846 0.000001
# 6 -0.000003 0.000001 -0.000007 0.027086 0.000001 0.016693
#
#
# Mechanical properties :
#
#
# Convention : Reuss Voigt Hill
#
# Bulk Modulus (GPa) = 19.15230 49.14550 34.14890
# Shear Modulus (GPa) = 37.65020 23.60867 30.62943
#
# Velocity S-wave (km/s) = 3.87282 3.06676 3.49312
# Velocity P-wave (km/s) = 5.25624 5.66729 5.46563
#
# Compressibility (1/GPa) = 0.05221306
#
# Stress axis : x y z
#
# Youngs Moduli (GPa) = 47.55787 102.67758 34.89945
#
# Poissons Ratio (x) = 0.69518 -0.04208
# Poissons Ratio (y) = 0.32199 -0.06845
# Poissons Ratio (z) = -0.05734 -0.20139
#
# Static dielectric constant tensor:
#      x y z
#    x 4.348140 0.000000 0.003280 
#    y 0.000000 5.426270 -0.000010 
#    z 0.003280 -0.000010 4.287610 
# 
# 
# High freq. dielectric constant tensor:
#      x y z
#    x 1.985680 0.000000 0.016680 
#    y 0.000000 2.037400 0.000000 
#    z 0.016680 0.000000 1.984970 
# 
# From -- ./inp_files/10725.got.cif
#   From: 2010.06.25/outbox.cif.g09.slc.cpg/sg12_6_cif.got.tgz:10725.got - 2010.06.28 00:19:55.
