data_PCOD8109224
_publ_section_title
;
Structure prediction by ZEFSAII (Michael W. Deem and Ramdas Pophale) SiO2 
 PCOD8109224
Probable space group: C 2/M
;
_chemical_formula_sum "Si O2"
_cell_formula_units_Z 48
_cell_length_a 14.729202
_cell_length_b 8.495617
_cell_length_c 28.811073
_cell_angle_alpha 90.000000
_cell_angle_beta 41.319805
_cell_angle_gamma 90.000000
_cell_volume 2380.397180
_symmetry_space_group_name_H-M "C 2/M"
_symmetry_group_IT_number 12
_symmetry_cell_setting 'monoclinic'
loop_
_space_group_symop_operation_xyz
x,y,z
-x,y,-z
-x,-y,-z
x,-y,z
1/2+x,1/2+y,z
1/2-x,1/2+y,-z
1/2-x,1/2-y,-z
1/2+x,1/2-y,z
loop_
_atom_site_type_symbol
_atom_site_label
_atom_site_fract_x
_atom_site_fract_y
_atom_site_fract_z
Si Si1 0.335589 0.183609 0.509360
Si Si2 0.908357 0.180032 0.632429
Si Si3 0.824120 0.677201 0.345330
Si Si4 0.398467 0.683322 0.739346
Si Si5 0.152624 0.312098 0.896831
Si Si6 0.144511 0.812880 0.001682
O O1 0.250000 0.250000 0.500000
O O2 0.495521 0.218463 0.438592
O O3 0.285199 0.268748 0.574672
O O4 0.310100 0.000000 0.525261
O O5 0.752181 0.187786 0.674641
O O6 0.908571 0.256008 0.683756
O O7 0.963068 0.000000 0.611999
O O8 0.871090 0.500000 0.338588
O O9 0.958616 0.784377 0.289576
O O10 0.372737 0.500000 0.744208
O O11 0.271370 0.753157 0.817151
O O12 0.149310 0.500000 0.902168
O O13 0.188624 0.242477 0.933488
O O14 0.008875 0.252673 0.930618
O O15 0.142567 0.000000 0.004638
O O16 0.250000 0.750000 0.000000
#
# Coordination Sequence:
#
# PCOD8109224 Si02
#       6
#     8   8   8   8   8   8
#     4  12  23  37  59  84 111 149 197 251 304 354
#     4  10  22  40  59  83 116 153 194 242 296 354
#     4  11  23  38  59  86 116 155 198 244 296 352
#     4  10  22  40  61  85 120 160 194 239 292 348
#     4  10  21  39  62  92 126 160 198 244 295 353
#     4  11  22  39  64  93 123 160 201 246 294 348
#
# _framework density 20.164701999999998
#
# number of rings (size 3 to 8) (size 9 to 14) (size 15 to 20)
#    0.000    1.333    1.667    5.500    0.000    6.000 
#    0.000    1.667    0.000    0.000    0.000    0.000 
#    0.000    0.000    0.000    0.000    0.000    0.000 
#
# Total GULP energy -297635.007181 kJ/mol
# GULP energy per Si atom -12401.458633 kJ/mol
# Density = 2.011881 g / cm^3
# Si number density = 20.164702 Si / 1000 Ang^3
#
#
#
# Elastic Constant Matrix: (Units=GPa)
#
#
# Indices 1 2 3 4 5 6 
#
# 1 123.3577 20.1315 41.7392 0.0001 -15.4873 0.0011
# 2 20.1315 50.0180 9.9847 0.0003 4.3450 0.0030
# 3 41.7392 9.9847 143.7704 0.0000 -15.2093 0.0005
# 4 0.0001 0.0003 0.0000 27.4220 -0.0001 -4.9583
# 5 -15.4873 4.3450 -15.2093 -0.0001 17.1488 -0.0004
# 6 0.0011 0.0030 0.0005 -4.9583 -0.0004 33.5556
#
#
#
# Elastic Compliance Matrix: (Units=1/GPa)
#
#
# Indices 1 2 3 4 5 6 
#
# 1 0.010640 -0.004727 -0.001785 0.000000 0.009224 0.000000
# 2 -0.004727 0.023176 -0.001446 -0.000001 -0.011424 -0.000002
# 3 -0.001785 -0.001446 0.008213 0.000000 0.006038 0.000000
# 4 0.000000 -0.000001 0.000000 0.037468 0.000001 0.005536
# 5 0.009224 -0.011424 0.006038 0.000001 0.074893 0.000002
# 6 0.000000 -0.000002 0.000000 0.005536 0.000002 0.030619
#
#
# Mechanical properties :
#
#
# Convention : Reuss Voigt Hill
#
# Bulk Modulus (GPa) = 38.29433 51.20631 44.75032
# Shear Modulus (GPa) = 23.85153 31.97800 27.91476
#
# Velocity S-wave (km/s) = 3.44297 3.98658 3.72471
# Velocity P-wave (km/s) = 5.90232 6.82932 6.38267
#
# Compressibility (1/GPa) = 0.02611352
#
# Stress axis : x y z
#
# Youngs Moduli (GPa) = 93.98530 43.14725 121.75957
#
# Poissons Ratio (x) = 0.20397 0.21733
# Poissons Ratio (y) = 0.44430 0.17602
# Poissons Ratio (z) = 0.16775 0.06237
#
# Static dielectric constant tensor:
#      x y z
#    x 3.786740 0.000000 0.054980 
#    y 0.000000 3.897510 0.000000 
#    z 0.054980 0.000000 3.865090 
# 
# 
# High freq. dielectric constant tensor:
#      x y z
#    x 1.797520 0.000000 -0.003310 
#    y 0.000000 1.788540 0.000000 
#    z -0.003310 0.000000 1.784370 
# 
# From -- ./inp_files/374912.got.cif
#   From: 2010.06.25/outbox.cif.g09.slc.cpg/sg12_188_cif.got.tgz:374912.got - 2010.06.28 00:19:55.
