data_PCOD8109719
_publ_section_title
;
Structure prediction by ZEFSAII (Michael W. Deem and Ramdas Pophale) SiO2 
 PCOD8109719
Probable space group: C 2/M
;
_chemical_formula_sum "Si O2"
_cell_formula_units_Z 64
_cell_length_a 9.062708
_cell_length_b 27.778208
_cell_length_c 24.458643
_cell_angle_alpha 90.000000
_cell_angle_beta 30.916872
_cell_angle_gamma 90.000000
_cell_volume 3163.614225
_symmetry_space_group_name_H-M "C 2/M"
_symmetry_group_IT_number 12
_symmetry_cell_setting 'monoclinic'
loop_
_space_group_symop_operation_xyz
x,y,z
-x,y,-z
-x,-y,-z
x,-y,z
1/2+x,1/2+y,z
1/2-x,1/2+y,-z
1/2-x,1/2-y,-z
1/2+x,1/2-y,z
loop_
_atom_site_type_symbol
_atom_site_label
_atom_site_fract_x
_atom_site_fract_y
_atom_site_fract_z
Si Si1 0.816010 0.710144 0.613088
Si Si2 0.735275 0.717166 0.280169
Si Si3 0.141593 0.618296 0.703750
Si Si4 0.304272 0.721803 0.928283
Si Si5 0.167765 0.884257 0.091704
Si Si6 0.874921 0.380833 0.671427
Si Si7 0.640200 0.446562 0.514285
Si Si8 0.121261 0.945631 0.901438
O O1 0.483843 0.712577 0.700609
O O2 0.897678 0.756189 0.624470
O O3 0.883104 0.663021 0.626809
O O4 0.000000 0.710554 0.500000
O O5 0.841539 0.665007 0.263966
O O6 0.003618 0.748536 0.174850
O O7 0.447742 0.591126 0.609540
O O8 0.047164 0.632939 0.672320
O O9 0.915556 0.582980 0.803304
O O10 0.434380 0.668634 0.897527
O O11 0.250000 0.750000 0.000000
O O12 0.000000 0.711008 0.000000
O O13 0.955279 0.895576 0.210494
O O14 0.121983 0.923340 0.059626
O O15 0.500000 0.887573 0.000000
O O16 0.035374 0.426102 0.592636
O O17 0.500000 0.451765 0.500000
O O18 0.652454 0.500000 0.537547
O O19 0.182669 0.000000 0.863216
O O20 0.000000 0.942985 0.000000
#
# Coordination Sequence:
#
# PCOD8109719 Si02
#       8
#     8   8   8   8   8   8   8   8
#     4  12  25  41  60  86 129 167 212 253 318 375
#     4  12  25  40  63  91 125 170 211 261 313 387
#     4  10  22  38  66  92 126 164 210 261 326 373
#     4  11  25  39  62  91 126 167 215 263 313 381
#     4  10  23  41  63  89 129 167 212 266 314 384
#     4  10  21  40  61  90 128 157 214 260 311 382
#     4   9  18  36  64  93 118 155 209 265 316 368
#     4  10  23  41  64  95 130 165 213 267 319 378
#
# _framework density 20.230027
#
# number of rings (size 3 to 8) (size 9 to 14) (size 15 to 20)
#    0.000    1.500    1.250    3.000    8.750    4.750 
#    0.000    0.000    0.000    4.125    0.000    0.000 
#    0.000    0.000    0.000    0.000    0.000    0.000 
#
# Total GULP energy -396797.004226 kJ/mol
# GULP energy per Si atom -12399.906382 kJ/mol
# Density = 2.018398 g / cm^3
# Si number density = 20.230027 Si / 1000 Ang^3
#
#
#
# Elastic Constant Matrix: (Units=GPa)
#
#
# Indices 1 2 3 4 5 6 
#
# 1 67.8408 59.3031 31.8448 0.0001 2.3547 0.0000
# 2 59.3031 168.1377 63.8822 -0.0025 3.4260 0.0008
# 3 31.8448 63.8822 128.0020 -0.0017 -8.4169 0.0063
# 4 0.0001 -0.0025 -0.0017 31.4920 0.0002 2.6415
# 5 2.3547 3.4260 -8.4169 0.0002 32.3094 -0.0004
# 6 0.0000 0.0008 0.0063 2.6415 -0.0004 27.6849
#
#
#
# Elastic Compliance Matrix: (Units=1/GPa)
#
#
# Indices 1 2 3 4 5 6 
#
# 1 0.021759 -0.006854 -0.002085 -0.000001 -0.001402 0.000001
# 2 -0.006854 0.009598 -0.003173 0.000001 -0.001345 0.000000
# 3 -0.002085 -0.003173 0.010120 0.000000 0.003125 -0.000002
# 4 -0.000001 0.000001 0.000000 0.032010 0.000000 -0.003054
# 5 -0.001402 -0.001345 0.003125 0.000000 0.032010 0.000000
# 6 0.000001 0.000000 -0.000002 -0.003054 0.000000 0.036412
#
#
# Mechanical properties :
#
#
# Convention : Reuss Voigt Hill
#
# Bulk Modulus (GPa) = 57.96093 74.89341 66.42717
# Shear Modulus (GPa) = 29.08926 32.22729 30.65827
#
# Velocity S-wave (km/s) = 3.79611 3.99562 3.89714
# Velocity P-wave (km/s) = 6.92294 7.64120 7.29092
#
# Compressibility (1/GPa) = 0.01725300
#
# Stress axis : x y z
#
# Youngs Moduli (GPa) = 45.95798 104.18851 98.81109
#
# Poissons Ratio (x) = 0.71409 0.20602
# Poissons Ratio (y) = 0.31499 0.31357
# Poissons Ratio (z) = 0.09582 0.33063
#
# Static dielectric constant tensor:
#      x y z
#    x 3.387920 -0.000010 -0.222580 
#    y -0.000010 3.938460 -0.000010 
#    z -0.222580 -0.000010 3.693780 
# 
# 
# High freq. dielectric constant tensor:
#      x y z
#    x 1.770660 0.000000 -0.004070 
#    y 0.000000 1.799880 0.000000 
#    z -0.004070 0.000000 1.806230 
# 
# From -- ./inp_files/334340.got.cif
#   From: 2010.06.25/outbox.cif.g09.slc.cpg/sg12_168_cif.got.tgz:334340.got - 2010.06.28 00:19:55.
