data_PCOD8109315
_publ_section_title
;
Structure prediction by ZEFSAII (Michael W. Deem and Ramdas Pophale) SiO2 
 PCOD8109315
Probable space group: C 2/M
;
_chemical_formula_sum "Si O2"
_cell_formula_units_Z 48
_cell_length_a 24.247515
_cell_length_b 8.860327
_cell_length_c 19.557879
_cell_angle_alpha 90.000000
_cell_angle_beta 33.423819
_cell_angle_gamma 90.000000
_cell_volume 2314.485997
_symmetry_space_group_name_H-M "C 2/M"
_symmetry_group_IT_number 12
_symmetry_cell_setting 'monoclinic'
loop_
_space_group_symop_operation_xyz
x,y,z
-x,y,-z
-x,-y,-z
x,-y,z
1/2+x,1/2+y,z
1/2-x,1/2+y,-z
1/2-x,1/2-y,-z
1/2+x,1/2-y,z
loop_
_atom_site_type_symbol
_atom_site_label
_atom_site_fract_x
_atom_site_fract_y
_atom_site_fract_z
Si Si1 0.196626 0.674701 0.843667
Si Si2 0.866213 0.177811 0.221035
Si Si3 0.545015 0.827849 0.113147
Si Si4 0.093582 0.325262 0.357231
Si Si5 0.707266 0.677336 0.476294
Si Si6 0.000500 0.327414 0.310620
O O1 0.195224 0.500000 0.825330
O O2 0.123177 0.763259 0.867526
O O3 0.309623 0.731700 0.721984
O O4 0.150766 0.703785 0.966589
O O5 0.764442 0.253568 0.352854
O O6 0.959515 0.221141 0.171515
O O7 0.854513 0.000000 0.234085
O O8 0.559408 0.795630 0.178884
O O9 0.510302 0.000000 0.136546
O O10 0.115539 0.500000 0.349722
O O11 0.000000 0.269991 0.500000
O O12 0.074223 0.295640 0.297215
O O13 0.724498 0.500000 0.461729
O O14 0.750000 0.750000 0.500000
O O15 0.591050 0.713284 0.588533
O O16 0.960890 0.500000 0.354192
#
# Coordination Sequence:
#
# PCOD8109315 Si02
#       6
#     8   8   8   8   8   8
#     4  11  24  41  62  89 122 164 208 256 312 369
#     4  12  24  39  62  91 123 163 208 258 311 368
#     4  10  22  40  61  88 125 165 206 253 311 371
#     4  10  22  41  64  90 121 159 206 258 310 365
#     4  12  23  37  60  92 126 160 201 251 304 362
#     4  10  21  39  63  90 125 167 207 252 306 365
#
# _framework density 20.738945000000001
#
# number of rings (size 3 to 8) (size 9 to 14) (size 15 to 20)
#    0.000    1.167    1.667    5.000    0.000    6.333 
#    0.000    0.000    0.000    0.000    0.000    0.000 
#    0.000    0.000    0.000    0.000    0.000    0.000 
#
# Total GULP energy -297716.547923 kJ/mol
# GULP energy per Si atom -12404.856163 kJ/mol
# Density = 2.069174 g / cm^3
# Si number density = 20.738945 Si / 1000 Ang^3
#
#
#
# Elastic Constant Matrix: (Units=GPa)
#
#
# Indices 1 2 3 4 5 6 
#
# 1 107.3520 39.7317 34.0946 0.0026 16.9605 -0.0001
# 2 39.7317 131.0328 42.5355 0.0050 4.7778 -0.0029
# 3 34.0946 42.5355 109.1951 0.0035 14.3106 -0.0033
# 4 0.0026 0.0050 0.0035 28.8200 -0.0009 -3.8745
# 5 16.9605 4.7778 14.3106 -0.0009 33.6802 0.0000
# 6 -0.0001 -0.0029 -0.0033 -3.8745 0.0000 32.0567
#
#
#
# Elastic Compliance Matrix: (Units=1/GPa)
#
#
# Indices 1 2 3 4 5 6 
#
# 1 0.011690 -0.002734 -0.001974 -0.000001 -0.004660 0.000000
# 2 -0.002734 0.009377 -0.002971 -0.000001 0.001309 0.000000
# 3 -0.001974 -0.002971 0.011380 -0.000001 -0.003420 0.000001
# 4 -0.000001 -0.000001 -0.000001 0.035271 0.000002 0.004263
# 5 -0.004660 0.001309 -0.003420 0.000002 0.033305 0.000000
# 6 0.000000 0.000000 0.000001 0.004263 0.000000 0.031710
#
#
# Mechanical properties :
#
#
# Convention : Reuss Voigt Hill
#
# Bulk Modulus (GPa) = 58.51610 64.47816 61.49713
# Shear Modulus (GPa) = 32.51228 34.32592 33.41910
#
# Velocity S-wave (km/s) = 3.96370 4.07276 4.01860
# Velocity P-wave (km/s) = 7.01604 7.29893 7.15888
#
# Compressibility (1/GPa) = 0.01708931
#
# Stress axis : x y z
#
# Youngs Moduli (GPa) = 85.54094 106.64100 87.87540
#
# Poissons Ratio (x) = 0.29154 0.17351
# Poissons Ratio (y) = 0.23386 0.26105
# Poissons Ratio (z) = 0.16890 0.31680
#
# Static dielectric constant tensor:
#      x y z
#    x 3.793980 0.000010 0.242840 
#    y 0.000010 3.849550 0.000000 
#    z 0.242840 0.000000 3.955360 
# 
# 
# High freq. dielectric constant tensor:
#      x y z
#    x 1.812460 0.000000 0.017690 
#    y 0.000000 1.810590 0.000000 
#    z 0.017690 0.000000 1.818240 
# 
# From -- ./inp_files/327180.got.cif
#   From: 2010.06.25/outbox.cif.g09.slc.cpg/sg12_164_cif.got.tgz:327180.got - 2010.06.28 00:19:55.
