data_PCOD8109784
_publ_section_title
;
Structure prediction by ZEFSAII (Michael W. Deem and Ramdas Pophale) SiO2 
 PCOD8109784
Probable space group: C 2/M
;
_chemical_formula_sum "Si O2"
_cell_formula_units_Z 64
_cell_length_a 24.257613
_cell_length_b 9.352187
_cell_length_c 14.923350
_cell_angle_alpha 90.000000
_cell_angle_beta 108.639991
_cell_angle_gamma 90.000000
_cell_volume 3207.950571
_symmetry_space_group_name_H-M "C 2/M"
_symmetry_group_IT_number 12
_symmetry_cell_setting 'monoclinic'
loop_
_space_group_symop_operation_xyz
x,y,z
-x,y,-z
-x,-y,-z
x,-y,z
1/2+x,1/2+y,z
1/2-x,1/2+y,-z
1/2-x,1/2-y,-z
1/2+x,1/2-y,z
loop_
_atom_site_type_symbol
_atom_site_label
_atom_site_fract_x
_atom_site_fract_y
_atom_site_fract_z
Si Si1 0.342671 0.667118 0.809374
Si Si2 0.412579 0.338794 0.522496
Si Si3 0.722554 0.350858 0.553796
Si Si4 0.599481 0.330425 0.680967
Si Si5 0.233198 0.161018 0.757766
Si Si6 0.455948 0.836324 0.188151
Si Si7 0.938684 0.835751 0.009077
Si Si8 0.585639 0.165034 0.297864
O O1 0.333832 0.500000 0.781736
O O2 0.282678 0.731515 0.821115
O O3 0.389368 0.690624 0.910875
O O4 0.365565 0.745504 0.730705
O O5 0.434047 0.500000 0.558805
O O6 0.344895 0.333919 0.468290
O O7 0.432399 0.294130 0.431613
O O8 0.427181 0.229960 0.609763
O O9 0.737214 0.500000 0.515803
O O10 0.750000 0.250000 0.500000
O O11 0.752626 0.340233 0.664878
O O12 0.596582 0.500000 0.694738
O O13 0.666967 0.281174 0.731006
O O14 0.560927 0.246397 0.731147
O O15 0.238630 0.000000 0.801577
O O16 0.525466 0.826978 0.212197
O O17 0.434866 0.000000 0.183438
O O18 0.424926 0.762398 0.087535
O O19 0.940569 0.000000 0.042066
O O20 0.000000 0.788863 0.000000
O O21 0.605996 0.000000 0.318862
#
# Coordination Sequence:
#
# PCOD8109784 Si02
#       8
#     8   8   8   8   8   8   8   8
#     4  11  22  36  59  89 116 145 186 235 284 341
#     4   9  19  35  54  78 108 148 196 237 273 326
#     4   9  17  29  46  71 104 141 184 227 271 323
#     4   9  20  40  62  82 112 155 198 235 276 330
#     4   9  19  36  56  80 112 149 185 229 284 334
#     4  11  24  39  59  86 115 149 189 236 287 340
#     4  10  21  40  63  86 113 146 185 231 285 342
#     4  11  23  36  53  83 120 153 186 233 291 341
#
# _framework density 19.950431999999999
#
# number of rings (size 3 to 8) (size 9 to 14) (size 15 to 20)
#    0.000    2.125    1.250    3.375    0.000    7.250 
#    0.000    5.625    0.000    0.000    0.000    0.000 
#    0.000    0.000    0.000    0.000    0.000    0.000 
#
# Total GULP energy -396487.533999 kJ/mol
# GULP energy per Si atom -12390.235437 kJ/mol
# Density = 1.990502 g / cm^3
# Si number density = 19.950432 Si / 1000 Ang^3
#
#
#
# Elastic Constant Matrix: (Units=GPa)
#
#
# Indices 1 2 3 4 5 6 
#
# 1 45.7440 22.4560 8.7518 0.0000 4.8880 0.0000
# 2 22.4560 98.6239 40.5816 0.0000 -5.4586 0.0000
# 3 8.7518 40.5816 78.8991 0.0000 -4.9548 0.0000
# 4 0.0000 0.0000 0.0000 27.9491 0.0000 -0.5819
# 5 4.8880 -5.4586 -4.9548 0.0000 32.2946 0.0000
# 6 0.0000 0.0000 0.0000 -0.5819 0.0000 31.0846
#
#
#
# Elastic Compliance Matrix: (Units=1/GPa)
#
#
# Indices 1 2 3 4 5 6 
#
# 1 0.025345 -0.006035 -0.000013 0.000000 -0.004858 0.000000
# 2 -0.006035 0.014342 -0.006561 0.000000 0.002331 0.000000
# 3 -0.000013 -0.006561 0.016137 0.000000 0.001369 0.000000
# 4 0.000000 0.000000 0.000000 0.035793 0.000000 0.000670
# 5 -0.004858 0.002331 0.001369 0.000000 0.032304 0.000000
# 6 0.000000 0.000000 0.000000 0.000670 0.000000 0.032183
#
#
# Mechanical properties :
#
#
# Convention : Reuss Voigt Hill
#
# Bulk Modulus (GPa) = 32.67232 40.76065 36.71649
# Shear Modulus (GPa) = 26.10658 28.36419 27.23538
#
# Velocity S-wave (km/s) = 3.62134 3.77468 3.69881
# Velocity P-wave (km/s) = 5.82218 6.28275 6.05684
#
# Compressibility (1/GPa) = 0.03060694
#
# Stress axis : x y z
#
# Youngs Moduli (GPa) = 39.45604 69.72356 61.97126
#
# Poissons Ratio (x) = 0.42075 0.00078
# Poissons Ratio (y) = 0.23810 0.40661
# Poissons Ratio (z) = 0.00050 0.45747
#
# Static dielectric constant tensor:
#      x y z
#    x 3.543740 0.000000 0.123310 
#    y 0.000000 3.663440 0.000000 
#    z 0.123310 0.000000 3.539900 
# 
# 
# High freq. dielectric constant tensor:
#      x y z
#    x 1.776680 0.000000 0.009100 
#    y 0.000000 1.775640 0.000000 
#    z 0.009100 0.000000 1.770150 
# 
# From -- ./inp_files/244209.got.cif
#   From: 2010.06.25/outbox.cif.g09.slc.cpg/sg12_123_cif.got.tgz:244209.got - 2010.06.28 00:19:55.
