data_PCOD8109872
_publ_section_title
;
Structure prediction by ZEFSAII (Michael W. Deem and Ramdas Pophale) SiO2 
 PCOD8109872
Probable space group: C 2/M
;
_chemical_formula_sum "Si O2"
_cell_formula_units_Z 32
_cell_length_a 23.821180
_cell_length_b 8.718718
_cell_length_c 9.860627
_cell_angle_alpha 90.000000
_cell_angle_beta 127.838268
_cell_angle_gamma 90.000000
_cell_volume 1617.363278
_symmetry_space_group_name_H-M "C 2/M"
_symmetry_group_IT_number 12
_symmetry_cell_setting 'monoclinic'
loop_
_space_group_symop_operation_xyz
x,y,z
-x,y,-z
-x,-y,-z
x,-y,z
1/2+x,1/2+y,z
1/2-x,1/2+y,-z
1/2-x,1/2-y,-z
1/2+x,1/2-y,z
loop_
_atom_site_type_symbol
_atom_site_label
_atom_site_fract_x
_atom_site_fract_y
_atom_site_fract_z
Si Si1 0.800349 0.675155 0.684112
Si Si2 0.033837 0.820113 0.686284
Si Si3 0.956987 0.326031 0.809755
Si Si4 0.189059 0.817417 0.005006
O O1 0.778171 0.500000 0.680540
O O2 0.750000 0.750000 0.500000
O O3 0.875345 0.685323 0.722800
O O4 0.798357 0.765187 0.822400
O O5 0.112350 0.754197 0.838645
O O6 0.000000 0.747210 0.500000
O O7 0.975942 0.782435 0.713728
O O8 0.041614 0.000000 0.681074
O O9 0.980662 0.500000 0.811315
O O10 0.000000 0.260492 0.000000
O O11 0.192340 0.000000 0.004798
O O12 0.250000 0.750000 0.000000
#
# Coordination Sequence:
#
# PCOD8109872 Si02
#       4
#     8   8   8   8
#     4  11  24  42  64  92 125 162 206 255 308 368
#     4  10  23  41  62  91 123 160 204 251 304 361
#     4  10  21  40  64  90 120 157 202 253 306 360
#     4  11  24  42  63  90 126 167 207 252 307 365
#
# _framework density 19.785288000000001
#
# number of rings (size 3 to 8) (size 9 to 14) (size 15 to 20)
#    0.000    1.500    2.500    1.500    3.500    4.000 
#    0.000    0.000    0.000    0.000    0.000    0.000 
#    0.000    0.000    0.000    0.000    0.000    0.000 
#
# Total GULP energy -198403.954156 kJ/mol
# GULP energy per Si atom -12400.247135 kJ/mol
# Density = 1.974026 g / cm^3
# Si number density = 19.785288 Si / 1000 Ang^3
#
#
#
# Elastic Constant Matrix: (Units=GPa)
#
#
# Indices 1 2 3 4 5 6 
#
# 1 108.0556 37.5536 64.1919 0.0000 -12.3589 0.0000
# 2 37.5536 62.9427 45.0369 0.0000 4.6060 0.0000
# 3 64.1919 45.0369 192.2833 0.0000 -4.5838 0.0000
# 4 0.0000 0.0000 0.0000 17.5339 0.0000 -1.3460
# 5 -12.3589 4.6060 -4.5838 0.0000 30.9770 0.0000
# 6 0.0000 0.0000 0.0000 -1.3460 0.0000 36.0303
#
#
#
# Elastic Compliance Matrix: (Units=1/GPa)
#
#
# Indices 1 2 3 4 5 6 
#
# 1 0.014059 -0.006711 -0.002975 0.000000 0.006167 0.000000
# 2 -0.006711 0.022678 -0.003227 0.000000 -0.006527 0.000000
# 3 -0.002975 -0.003227 0.006957 0.000000 0.000322 0.000000
# 4 0.000000 0.000000 0.000000 0.057196 0.000000 0.002137
# 5 0.006167 -0.006527 0.000322 0.000000 0.035761 0.000000
# 6 0.000000 0.000000 0.000000 0.002137 0.000000 0.027834
#
#
# Mechanical properties :
#
#
# Convention : Reuss Voigt Hill
#
# Bulk Modulus (GPa) = 55.96171 72.98294 64.47233
# Shear Modulus (GPa) = 25.47543 31.34152 28.40848
#
# Velocity S-wave (km/s) = 3.59220 3.98437 3.79336
# Velocity P-wave (km/s) = 6.74916 7.62460 7.20020
#
# Compressibility (1/GPa) = 0.01786936
#
# Stress axis : x y z
#
# Youngs Moduli (GPa) = 71.12699 44.09550 143.73566
#
# Poissons Ratio (x) = 0.29593 0.42757
# Poissons Ratio (y) = 0.47734 0.46381
# Poissons Ratio (z) = 0.21158 0.14229
#
# Static dielectric constant tensor:
#      x y z
#    x 3.610120 0.000000 0.099030 
#    y 0.000000 3.661580 0.000000 
#    z 0.099030 0.000000 3.874760 
# 
# 
# High freq. dielectric constant tensor:
#      x y z
#    x 1.781740 0.000000 0.001930 
#    y 0.000000 1.767210 0.000000 
#    z 0.001930 0.000000 1.789900 
# 
# From -- ./inp_files/81654.got.cif
#   From: 2010.06.25/outbox.cif.g09.slc.cpg/sg12_41_cif.got.tgz:81654.got - 2010.06.28 00:19:55.
