data_PCOD8109882
_publ_section_title
;
Structure prediction by ZEFSAII (Michael W. Deem and Ramdas Pophale) SiO2 
 PCOD8109882
Probable space group: C 2/M
;
_chemical_formula_sum "Si O2"
_cell_formula_units_Z 44
_cell_length_a 8.513807
_cell_length_b 12.393413
_cell_length_c 19.624110
_cell_angle_alpha 90.000000
_cell_angle_beta 76.944100
_cell_angle_gamma 90.000000
_cell_volume 2017.114660
_symmetry_space_group_name_H-M "C 2/M"
_symmetry_group_IT_number 12
_symmetry_cell_setting 'monoclinic'
loop_
_space_group_symop_operation_xyz
x,y,z
-x,y,-z
-x,-y,-z
x,-y,z
1/2+x,1/2+y,z
1/2-x,1/2+y,-z
1/2-x,1/2-y,-z
1/2+x,1/2-y,z
loop_
_atom_site_type_symbol
_atom_site_label
_atom_site_fract_x
_atom_site_fract_y
_atom_site_fract_z
Si Si1 0.500000 0.819887 0.000000
Si Si2 0.994264 0.000000 0.110054
Si Si3 0.268331 0.000000 0.983086
Si Si4 0.351275 0.703262 0.551015
Si Si5 0.986085 0.625223 0.788082
Si Si6 0.148958 0.788949 0.857563
Si Si7 0.027967 0.378405 0.627119
O O1 0.401260 0.743779 0.060963
O O2 0.378911 0.893814 0.968078
O O3 0.963294 0.109502 0.156076
O O4 0.175742 0.000000 0.064655
O O5 0.858435 0.000000 0.064697
O O6 0.500000 0.637883 0.500000
O O7 0.250000 0.750000 0.500000
O O8 0.224483 0.632426 0.606313
O O9 0.428888 0.798390 0.588699
O O10 0.008614 0.500000 0.804088
O O11 0.831787 0.672613 0.841263
O O12 0.135300 0.691231 0.805086
O O13 0.972135 0.644079 0.709128
O O14 0.983766 0.500000 0.609167
#
# Coordination Sequence:
#
# PCOD8109882 Si02
#       7
#     4   4   4   8   8   8   8
#     4  11  24  37  62  92 118 159 197 280 328 380
#     4  11  22  38  60  86 116 156 195 255 321 391
#     4  10  22  38  58  88 120 144 200 245 336 399
#     4   9  19  36  63  99 131 161 204 249 298 358
#     4  11  25  44  65  90 124 170 217 258 312 378
#     4  12  24  42  64  90 124 161 212 270 327 380
#     4  10  21  40  64  90 128 173 207 252 305 360
#
# _framework density 21.813336
#
# number of rings (size 3 to 8) (size 9 to 14) (size 15 to 20)
#    0.000    1.455    0.909    4.364    2.545    5.818 
#    1.636    2.727    2.000    0.000    0.000    0.000 
#    0.000    0.000    0.000    0.000    0.000    0.000 
#
# Total GULP energy -272726.156455 kJ/mol
# GULP energy per Si atom -12396.643475 kJ/mol
# Density = 2.176369 g / cm^3
# Si number density = 21.813336 Si / 1000 Ang^3
#
#
#
# Elastic Constant Matrix: (Units=GPa)
#
#
# Indices 1 2 3 4 5 6 
#
# 1 67.7825 22.1200 27.1060 0.0000 -10.2860 0.0000
# 2 22.1200 122.8111 47.4920 0.0000 5.2314 0.0000
# 3 27.1060 47.4920 88.4783 0.0000 -5.6736 0.0000
# 4 0.0000 0.0000 0.0000 11.9427 0.0000 4.2002
# 5 -10.2860 5.2314 -5.6736 0.0000 35.3533 0.0000
# 6 0.0000 0.0000 0.0000 4.2002 0.0000 35.3882
#
#
#
# Elastic Compliance Matrix: (Units=1/GPa)
#
#
# Indices 1 2 3 4 5 6 
#
# 1 0.017723 -0.001783 -0.004168 0.000000 0.004751 0.000000
# 2 -0.001783 0.010666 -0.005369 0.000000 -0.002959 0.000000
# 3 -0.004168 -0.005369 0.015594 0.000000 0.002084 0.000000
# 4 0.000000 0.000000 0.000000 0.087381 0.000000 -0.010371
# 5 0.004751 -0.002959 0.002084 0.000000 0.030441 0.000000
# 6 0.000000 0.000000 0.000000 -0.010371 0.000000 0.029489
#
#
# Mechanical properties :
#
#
# Convention : Reuss Voigt Hill
#
# Bulk Modulus (GPa) = 46.85068 52.50087 49.67578
# Shear Modulus (GPa) = 22.61971 28.69377 25.65674
#
# Velocity S-wave (km/s) = 3.22369 3.63081 3.43329
# Velocity P-wave (km/s) = 5.94818 6.45736 6.20800
#
# Compressibility (1/GPa) = 0.02134441
#
# Stress axis : x y z
#
# Youngs Moduli (GPa) = 56.42524 93.75782 64.12560
#
# Poissons Ratio (x) = 0.16714 0.26727
# Poissons Ratio (y) = 0.10059 0.34426
# Poissons Ratio (z) = 0.23517 0.50335
#
# Static dielectric constant tensor:
#      x y z
#    x 4.385580 0.000000 -0.539210 
#    y 0.000000 5.603480 0.000000 
#    z -0.539210 0.000000 4.076160 
# 
# 
# High freq. dielectric constant tensor:
#      x y z
#    x 1.861340 0.000000 -0.016040 
#    y 0.000000 1.861870 0.000000 
#    z -0.016040 0.000000 1.851640 
# 
# From -- ./inp_files/299330.got.cif
#   From: 2010.06.25/outbox.cif.g09.slc.cpg/sg12_150_cif.got.tgz:299330.got - 2010.06.28 00:19:55.
