data_PCOD8109325
_publ_section_title
;
Structure prediction by ZEFSAII (Michael W. Deem and Ramdas Pophale) SiO2 
 PCOD8109325
Probable space group: C 2/M
;
_chemical_formula_sum "Si O2"
_cell_formula_units_Z 56
_cell_length_a 19.873222
_cell_length_b 8.848129
_cell_length_c 25.246044
_cell_angle_alpha 90.000000
_cell_angle_beta 140.230360
_cell_angle_gamma 90.000000
_cell_volume 2839.822000
_symmetry_space_group_name_H-M "C 2/M"
_symmetry_group_IT_number 12
_symmetry_cell_setting 'monoclinic'
loop_
_space_group_symop_operation_xyz
x,y,z
-x,y,-z
-x,-y,-z
x,-y,z
1/2+x,1/2+y,z
1/2-x,1/2+y,-z
1/2-x,1/2-y,-z
1/2+x,1/2-y,z
loop_
_atom_site_type_symbol
_atom_site_label
_atom_site_fract_x
_atom_site_fract_y
_atom_site_fract_z
Si Si1 0.065125 0.676581 0.988714
Si Si2 0.226162 0.676106 0.736108
Si Si3 0.775398 0.677174 0.142928
Si Si4 0.637425 0.325449 0.432580
Si Si5 0.420148 0.176107 0.801704
Si Si6 0.993706 0.178552 0.250102
Si Si7 0.021532 0.826618 0.573658
O O1 0.088800 0.500000 0.009294
O O2 0.174719 0.764101 0.049928
O O3 0.000757 0.714755 0.897208
O O4 0.000000 0.736390 0.000000
O O5 0.250609 0.500000 0.742066
O O6 0.238901 0.723344 0.804739
O O7 0.303619 0.778055 0.748525
O O8 0.108520 0.712020 0.647167
O O9 0.786346 0.500000 0.141798
O O10 0.878309 0.751569 0.180710
O O11 0.656207 0.500000 0.432614
O O12 0.750000 0.250000 0.500000
O O13 0.561569 0.259155 0.340803
O O14 0.584812 0.296586 0.457818
O O15 0.448617 0.274381 0.768368
O O16 0.421789 0.000000 0.788025
O O17 0.982022 0.000000 0.246047
O O18 0.000000 0.788698 0.500000
O O19 0.059000 0.000000 0.604099
#
# Coordination Sequence:
#
# PCOD8109325 Si02
#       7
#     8   8   8   8   8   8   8
#     4  10  21  39  63  91 122 160 205 253 308 363
#     4  11  23  39  62  93 126 162 204 252 305 361
#     4  11  23  39  64  93 123 163 206 251 304 363
#     4  10  23  41  62  89 123 162 201 247 304 362
#     4  11  24  41  64  92 124 162 206 254 305 364
#     4  11  24  43  64  89 125 165 206 251 303 365
#     4  10  22  41  64  92 122 159 206 252 303 361
#
# _framework density 19.719545
#
# number of rings (size 3 to 8) (size 9 to 14) (size 15 to 20)
#    0.000    1.429    2.857    1.714    2.000    5.143 
#    0.000    0.000    0.000    0.000    0.000    0.000 
#    0.000    0.000    0.000    0.000    0.000    0.000 
#
# Total GULP energy -347382.978902 kJ/mol
# GULP energy per Si atom -12406.534961 kJ/mol
# Density = 1.967466 g / cm^3
# Si number density = 19.719545 Si / 1000 Ang^3
#
#
#
# Elastic Constant Matrix: (Units=GPa)
#
#
# Indices 1 2 3 4 5 6 
#
# 1 107.4633 26.3364 37.8198 0.0000 4.6724 0.0000
# 2 26.3364 45.6645 31.0208 0.0000 2.1881 0.0002
# 3 37.8198 31.0208 97.9728 0.0000 12.1000 0.0000
# 4 0.0000 0.0000 0.0000 35.0789 0.0000 5.8076
# 5 4.6724 2.1881 12.1000 0.0000 38.7822 0.0000
# 6 0.0000 0.0002 0.0000 5.8076 0.0000 35.2298
#
#
#
# Elastic Compliance Matrix: (Units=1/GPa)
#
#
# Indices 1 2 3 4 5 6 
#
# 1 0.011481 -0.004610 -0.002947 0.000000 -0.000204 0.000000
# 2 -0.004610 0.029807 -0.007821 0.000000 0.001314 0.000000
# 3 -0.002947 -0.007821 0.014272 0.000000 -0.003657 0.000000
# 4 0.000000 0.000000 0.000000 0.029307 0.000000 -0.004831
# 5 -0.000204 0.001314 -0.003657 0.000000 0.026876 0.000000
# 6 0.000000 0.000000 0.000000 -0.004831 0.000000 0.029181
#
#
# Mechanical properties :
#
#
# Convention : Reuss Voigt Hill
#
# Bulk Modulus (GPa) = 40.31329 49.05052 44.68190
# Shear Modulus (GPa) = 27.78554 32.21309 29.99931
#
# Velocity S-wave (km/s) = 3.75778 4.04612 3.90461
# Velocity P-wave (km/s) = 6.27022 6.83785 6.56017
#
# Compressibility (1/GPa) = 0.02480572
#
# Stress axis : x y z
#
# Youngs Moduli (GPa) = 87.09770 33.54894 70.06501
#
# Poissons Ratio (x) = 0.15465 0.20651
# Poissons Ratio (y) = 0.40150 0.54795
# Poissons Ratio (z) = 0.25671 0.26237
#
# Static dielectric constant tensor:
#      x y z
#    x 3.652890 0.000000 -0.065650 
#    y 0.000000 3.525490 0.000000 
#    z -0.065650 0.000000 3.690030 
# 
# 
# High freq. dielectric constant tensor:
#      x y z
#    x 1.777850 0.000000 0.002950 
#    y 0.000000 1.768410 0.000000 
#    z 0.002950 0.000000 1.775940 
# 
# From -- ./inp_files/363181.got.cif
#   From: 2010.06.25/outbox.cif.g09.slc.cpg/sg12_182_cif.got.tgz:363181.got - 2010.06.28 00:19:55.
