data_PCOD8109850
_publ_section_title
;
Structure prediction by ZEFSAII (Michael W. Deem and Ramdas Pophale) SiO2 
 PCOD8109850
Probable space group: C 2/M
;
_chemical_formula_sum "Si O2"
_cell_formula_units_Z 64
_cell_length_a 24.433724
_cell_length_b 8.658427
_cell_length_c 18.946556
_cell_angle_alpha 90.000000
_cell_angle_beta 127.082817
_cell_angle_gamma 90.000000
_cell_volume 3197.671223
_symmetry_space_group_name_H-M "C 2/M"
_symmetry_group_IT_number 12
_symmetry_cell_setting 'monoclinic'
loop_
_space_group_symop_operation_xyz
x,y,z
-x,y,-z
-x,-y,-z
x,-y,z
1/2+x,1/2+y,z
1/2-x,1/2+y,-z
1/2-x,1/2-y,-z
1/2+x,1/2-y,z
loop_
_atom_site_type_symbol
_atom_site_label
_atom_site_fract_x
_atom_site_fract_y
_atom_site_fract_z
Si Si1 0.670514 0.321523 0.745275
Si Si2 0.737435 0.318076 0.066640
Si Si3 0.347503 0.319461 0.669468
Si Si4 0.902958 0.816264 0.978047
Si Si5 0.028807 0.677329 0.597002
Si Si6 0.048702 0.817006 0.133988
Si Si7 0.211150 0.179068 0.622833
Si Si8 0.611039 0.824470 0.440755
O O1 0.675610 0.500000 0.769918
O O2 0.700620 0.223340 0.832966
O O3 0.591312 0.280665 0.671779
O O4 0.713793 0.284239 0.708224
O O5 0.732574 0.500000 0.055845
O O6 0.666150 0.247201 0.041600
O O7 0.750000 0.250000 0.000000
O O8 0.332776 0.500000 0.669620
O O9 0.411936 0.259902 0.765808
O O10 0.281977 0.223362 0.641687
O O11 0.364058 0.289003 0.601173
O O12 0.911398 0.754986 0.904365
O O13 0.898618 0.000000 0.975138
O O14 0.969762 0.758448 0.074149
O O15 0.052819 0.500000 0.607091
O O16 0.969935 0.693448 0.610222
O O17 0.000000 0.739635 0.500000
O O18 0.047728 0.000000 0.129250
O O19 0.149802 0.279408 0.542625
O O20 0.195508 0.000000 0.596996
O O21 0.629828 0.000000 0.435204
#
# Coordination Sequence:
#
# PCOD8109850 Si02
#       8
#     8   8   8   8   8   8   8   8
#     4  11  24  40  63  91 119 155 201 251 303 359
#     4  11  23  39  60  87 122 159 198 244 299 360
#     4  11  22  35  55  85 120 156 194 237 293 356
#     4   8  15  31  56  83 110 142 185 236 287 339
#     4  10  21  40  64  88 116 153 198 247 301 361
#     4   8  15  30  54  83 110 140 183 235 287 340
#     4  11  23  39  59  84 116 153 196 245 295 352
#     4  11  23  39  59  83 115 153 193 243 299 356
#
# _framework density 20.014565999999999
#
# number of rings (size 3 to 8) (size 9 to 14) (size 15 to 20)
#    0.000    1.875    1.250    3.750    0.000    4.750 
#    0.000    1.250    0.000    2.250    0.000    8.750 
#    0.000    0.000    0.000    0.000    0.000    0.000 
#
# Total GULP energy -396863.847359 kJ/mol
# GULP energy per Si atom -12401.995230 kJ/mol
# Density = 1.996901 g / cm^3
# Si number density = 20.014566 Si / 1000 Ang^3
#
#
#
# Elastic Constant Matrix: (Units=GPa)
#
#
# Indices 1 2 3 4 5 6 
#
# 1 108.9941 28.9040 53.2893 0.0000 2.0587 0.0000
# 2 28.9040 44.9294 23.1086 0.0000 -1.2602 0.0000
# 3 53.2893 23.1086 109.1079 0.0000 -0.8574 0.0000
# 4 0.0000 0.0000 0.0000 22.8153 0.0000 -0.0528
# 5 2.0587 -1.2602 -0.8574 0.0000 31.3910 0.0000
# 6 0.0000 0.0000 0.0000 -0.0528 0.0000 26.2362
#
#
#
# Elastic Compliance Matrix: (Units=1/GPa)
#
#
# Indices 1 2 3 4 5 6 
#
# 1 0.013345 -0.005906 -0.005277 0.000000 -0.001256 0.000000
# 2 -0.005906 0.027615 -0.002953 0.000000 0.001415 0.000000
# 3 -0.005277 -0.002953 0.012372 0.000000 0.000565 0.000000
# 4 0.000000 0.000000 0.000000 0.043830 0.000000 0.000088
# 5 -0.001256 0.001415 0.000565 0.000000 0.032011 0.000000
# 6 0.000000 0.000000 0.000000 0.000088 0.000000 0.038115
#
#
# Mechanical properties :
#
#
# Convention : Reuss Voigt Hill
#
# Bulk Modulus (GPa) = 39.90346 52.62614 46.26480
# Shear Modulus (GPa) = 24.52013 26.60380 25.56196
#
# Velocity S-wave (km/s) = 3.50396 3.64980 3.57763
# Velocity P-wave (km/s) = 6.02916 6.64172 6.34284
#
# Compressibility (1/GPa) = 0.02506048
#
# Stress axis : x y z
#
# Youngs Moduli (GPa) = 74.93652 36.21189 80.82593
#
# Poissons Ratio (x) = 0.21387 0.42649
# Poissons Ratio (y) = 0.44259 0.23868
# Poissons Ratio (z) = 0.39541 0.10693
#
# Static dielectric constant tensor:
#      x y z
#    x 3.738500 0.000000 0.103200 
#    y 0.000000 3.367940 0.000000 
#    z 0.103200 0.000000 3.875250 
# 
# 
# High freq. dielectric constant tensor:
#      x y z
#    x 1.787290 0.000000 0.004900 
#    y 0.000000 1.759550 0.000000 
#    z 0.004900 0.000000 1.786410 
# 
# From -- ./inp_files/324289.got.cif
#   From: 2010.06.25/outbox.cif.g09.slc.cpg/sg12_163_cif.got.tgz:324289.got - 2010.06.28 00:19:55.
