data_PCOD8109054
_publ_section_title
;
Structure prediction by ZEFSAII (Michael W. Deem and Ramdas Pophale) SiO2 
 PCOD8109054
Probable space group: C 2/M
;
_chemical_formula_sum "Si O2"
_cell_formula_units_Z 40
_cell_length_a 14.135263
_cell_length_b 9.755356
_cell_length_c 16.792742
_cell_angle_alpha 90.000000
_cell_angle_beta 122.489086
_cell_angle_gamma 90.000000
_cell_volume 1953.217088
_symmetry_space_group_name_H-M "C 2/M"
_symmetry_group_IT_number 12
_symmetry_cell_setting 'monoclinic'
loop_
_space_group_symop_operation_xyz
x,y,z
-x,y,-z
-x,-y,-z
x,-y,z
1/2+x,1/2+y,z
1/2-x,1/2+y,-z
1/2-x,1/2-y,-z
1/2+x,1/2-y,z
loop_
_atom_site_type_symbol
_atom_site_label
_atom_site_fract_x
_atom_site_fract_y
_atom_site_fract_z
Si Si1 0.802114 0.343731 0.755142
Si Si2 0.144603 0.855049 0.903040
Si Si3 0.048413 0.158489 0.607593
Si Si4 0.876611 0.717027 0.953083
Si Si5 0.995269 0.339787 0.267071
O O1 0.809825 0.500000 0.790569
O O2 0.680379 0.310074 0.666455
O O3 0.832176 0.246910 0.844172
O O4 0.886149 0.318886 0.721355
O O5 0.280239 0.868680 0.955939
O O6 0.101410 0.729613 0.829943
O O7 0.094330 0.000000 0.849165
O O8 0.107798 0.845202 0.979505
O O9 0.000000 0.195466 0.500000
O O10 0.990810 0.261285 0.643493
O O11 0.023519 0.000000 0.618583
O O12 0.000000 0.644468 0.000000
O O13 0.966033 0.500000 0.266383
#
# Coordination Sequence:
#
# PCOD8109054 Si02
#       5
#     8   8   8   8   8
#     4  10  21  39  61  89 123 163 202 241 298 370
#     4  11  24  40  60  89 125 162 209 251 292 352
#     4  10  22  44  69  90 117 156 201 252 308 360
#     4  11  22  39  58  90 123 166 200 246 295 359
#     4  11  23  40  63  91 124 159 202 248 301 361
#
# _framework density 20.479035
#
# number of rings (size 3 to 8) (size 9 to 14) (size 15 to 20)
#    0.000    1.400    4.000    1.200    0.000    7.200 
#    0.000    2.000    0.000    0.000    0.000    0.000 
#    0.000    0.000    0.000    0.000    0.000    0.000 
#
# Total GULP energy -247792.954963 kJ/mol
# GULP energy per Si atom -12389.647748 kJ/mol
# Density = 2.043242 g / cm^3
# Si number density = 20.479035 Si / 1000 Ang^3
#
#
#
# Elastic Constant Matrix: (Units=GPa)
#
#
# Indices 1 2 3 4 5 6 
#
# 1 133.4242 46.0789 70.8884 0.0000 -11.4356 0.0000
# 2 46.0789 115.1487 62.9416 0.0000 -20.9915 0.0000
# 3 70.8884 62.9416 172.5569 0.0000 -11.1199 0.0000
# 4 0.0000 0.0000 0.0000 27.3240 0.0000 -5.6303
# 5 -11.4356 -20.9915 -11.1199 0.0000 32.9013 0.0000
# 6 0.0000 0.0000 0.0000 -5.6303 0.0000 12.9280
#
#
#
# Elastic Compliance Matrix: (Units=1/GPa)
#
#
# Indices 1 2 3 4 5 6 
#
# 1 0.010048 -0.002004 -0.003327 0.000000 0.001090 0.000000
# 2 -0.002004 0.012407 -0.003309 0.000000 0.006101 0.000000
# 3 -0.003327 -0.003309 0.008340 0.000000 -0.000449 0.000000
# 4 0.000000 0.000000 0.000000 0.040206 0.000000 0.017510
# 5 0.001090 0.006101 -0.000449 0.000000 0.034514 0.000000
# 6 0.000000 0.000000 0.000000 0.017510 0.000000 0.084977
#
#
# Mechanical properties :
#
#
# Convention : Reuss Voigt Hill
#
# Bulk Modulus (GPa) = 73.98849 86.77196 80.38023
# Shear Modulus (GPa) = 23.55416 30.71205 27.13311
#
# Velocity S-wave (km/s) = 3.39508 3.87677 3.64390
# Velocity P-wave (km/s) = 7.18165 7.90584 7.55243
#
# Compressibility (1/GPa) = 0.01351562
#
# Stress axis : x y z
#
# Youngs Moduli (GPa) = 99.52495 80.59665 119.90413
#
# Poissons Ratio (x) = 0.16150 0.39887
# Poissons Ratio (y) = 0.19943 0.39681
# Poissons Ratio (z) = 0.33108 0.26672
#
# Static dielectric constant tensor:
#      x y z
#    x 3.970590 0.000000 -0.061260 
#    y 0.000000 3.631580 0.000000 
#    z -0.061260 0.000000 3.619710 
# 
# 
# High freq. dielectric constant tensor:
#      x y z
#    x 1.817280 0.000000 -0.005300 
#    y 0.000000 1.773460 0.000000 
#    z -0.005300 0.000000 1.795170 
# 
# From -- ./inp_files/267926.got.cif
#   From: 2010.06.25/outbox.cif.g09.slc.cpg/sg12_134_cif.got.tgz:267926.got - 2010.06.28 00:19:55.
