data_PCOD8109238
_publ_section_title
;
Structure prediction by ZEFSAII (Michael W. Deem and Ramdas Pophale) SiO2 
 PCOD8109238
Probable space group: C 2/M
;
_chemical_formula_sum "Si O2"
_cell_formula_units_Z 40
_cell_length_a 14.026420
_cell_length_b 21.687540
_cell_length_c 9.735916
_cell_angle_alpha 90.000000
_cell_angle_beta 30.360982
_cell_angle_gamma 90.000000
_cell_volume 1496.955727
_symmetry_space_group_name_H-M "C 2/M"
_symmetry_group_IT_number 12
_symmetry_cell_setting 'monoclinic'
loop_
_space_group_symop_operation_xyz
x,y,z
-x,y,-z
-x,-y,-z
x,-y,z
1/2+x,1/2+y,z
1/2-x,1/2+y,-z
1/2-x,1/2-y,-z
1/2+x,1/2-y,z
loop_
_atom_site_type_symbol
_atom_site_label
_atom_site_fract_x
_atom_site_fract_y
_atom_site_fract_z
Si Si1 0.392156 0.931054 0.443553
Si Si2 0.186086 0.069843 0.419072
Si Si3 0.732802 0.192655 0.375363
Si Si4 0.567347 0.730096 0.128891
Si Si5 0.787021 0.117606 0.905550
O O1 0.337408 0.921734 0.351961
O O2 0.277656 0.877956 0.669694
O O3 0.341688 0.000000 0.558288
O O4 0.612768 0.917902 0.191834
O O5 0.233983 0.115033 0.233085
O O6 0.972435 0.083482 0.733053
O O7 0.197565 0.000000 0.349181
O O8 0.519766 0.208056 0.693600
O O9 0.877742 0.192325 0.323050
O O10 0.805408 0.238960 0.166352
O O11 0.692812 0.691468 0.083227
#
# Coordination Sequence:
#
# PCOD8109238 Si02
#       5
#     8   8   8   8   8
#     4  11  23  42  70 104 146 193 240 298 360 436
#     4  10  21  39  63 101 148 192 241 296 354 428
#     4  10  23  48  72 107 142 189 247 303 369 437
#     4  10  23  45  76 101 143 190 244 309 367 431
#     4  11  21  38  65 102 138 188 240 295 357 428
#
# _framework density 26.720897000000001
#
# number of rings (size 3 to 8) (size 9 to 14) (size 15 to 20)
#    0.000    1.600    2.000    3.000    0.000    6.400 
#    7.200    6.000    0.000    0.000    0.000    1.400 
#    0.000    0.000    0.000    0.000    0.000    0.000 
#
# Total GULP energy -247910.664404 kJ/mol
# GULP energy per Si atom -12395.533220 kJ/mol
# Density = 2.666008 g / cm^3
# Si number density = 26.720897 Si / 1000 Ang^3
#
#
#
# Elastic Constant Matrix: (Units=GPa)
#
#
# Indices 1 2 3 4 5 6 
#
# 1 103.1788 2.0355 6.2933 -0.0001 -17.6042 0.0005
# 2 2.0355 120.8846 11.5655 0.0006 9.5791 -0.0002
# 3 6.2933 11.5655 83.8202 0.0029 -8.5081 0.0000
# 4 -0.0001 0.0006 0.0029 30.3371 0.0001 2.4824
# 5 -17.6042 9.5791 -8.5081 0.0001 38.1044 -0.0005
# 6 0.0005 -0.0002 0.0000 2.4824 -0.0005 41.4586
#
#
#
# Elastic Compliance Matrix: (Units=1/GPa)
#
#
# Indices 1 2 3 4 5 6 
#
# 1 0.010564 -0.000552 -0.000212 0.000000 0.004972 0.000000
# 2 -0.000552 0.008636 -0.001429 0.000000 -0.002745 0.000000
# 3 -0.000212 -0.001429 0.012452 -0.000001 0.003041 0.000000
# 4 0.000000 0.000000 -0.000001 0.033125 0.000000 -0.001983
# 5 0.004972 -0.002745 0.003041 0.000000 0.029910 0.000000
# 6 0.000000 0.000000 0.000000 -0.001983 0.000000 0.024239
#
#
# Mechanical properties :
#
#
# Convention : Reuss Voigt Hill
#
# Bulk Modulus (GPa) = 36.67494 38.63023 37.65259
# Shear Modulus (GPa) = 37.76422 41.17930 39.47176
#
# Velocity S-wave (km/s) = 3.76345 3.92993 3.84759
# Velocity P-wave (km/s) = 5.71312 5.92290 5.81896
#
# Compressibility (1/GPa) = 0.02726657
#
# Stress axis : x y z
#
# Youngs Moduli (GPa) = 94.66081 115.79651 80.30771
#
# Poissons Ratio (x) = 0.06387 0.01706
# Poissons Ratio (y) = 0.05221 0.11474
# Poissons Ratio (z) = 0.02011 0.16545
#
# Static dielectric constant tensor:
#      x y z
#    x 4.832380 -0.000010 -0.433080 
#    y -0.000010 4.943750 0.000010 
#    z -0.433080 0.000010 4.595330 
# 
# 
# High freq. dielectric constant tensor:
#      x y z
#    x 2.087870 0.000000 -0.033620 
#    y 0.000000 2.074280 0.000000 
#    z -0.033620 0.000000 2.060870 
# 
# From -- ./inp_files/159404.got.cif
#   From: 2010.06.25/outbox.cif.g09.slc.cpg/sg12_80_cif.got.tgz:159404.got - 2010.06.28 00:19:55.
