data_PCOD8109114
_publ_section_title
;
Structure prediction by ZEFSAII (Michael W. Deem and Ramdas Pophale) SiO2 
 PCOD8109114
Probable space group: C 2/M
;
_chemical_formula_sum "Si O2"
_cell_formula_units_Z 56
_cell_length_a 15.336801
_cell_length_b 8.708951
_cell_length_c 27.047195
_cell_angle_alpha 90.000000
_cell_angle_beta 57.755399
_cell_angle_gamma 90.000000
_cell_volume 3055.478961
_symmetry_space_group_name_H-M "C 2/M"
_symmetry_group_IT_number 12
_symmetry_cell_setting 'monoclinic'
loop_
_space_group_symop_operation_xyz
x,y,z
-x,y,-z
-x,-y,-z
x,-y,z
1/2+x,1/2+y,z
1/2-x,1/2+y,-z
1/2-x,1/2-y,-z
1/2+x,1/2-y,z
loop_
_atom_site_type_symbol
_atom_site_label
_atom_site_fract_x
_atom_site_fract_y
_atom_site_fract_z
Si Si1 0.759614 0.179776 0.240919
Si Si2 0.487373 0.322785 0.169531
Si Si3 0.325066 0.672791 0.826763
Si Si4 0.879781 0.820528 0.633998
Si Si5 0.787076 0.677951 0.565542
Si Si6 0.101577 0.678310 0.569446
Si Si7 0.317620 0.676300 0.937604
O O1 0.713811 0.201925 0.200119
O O2 0.696006 0.277843 0.298952
O O3 0.875072 0.253699 0.206564
O O4 0.756403 0.000000 0.256012
O O5 0.466778 0.500000 0.164252
O O6 0.551068 0.304991 0.201903
O O7 0.563411 0.258532 0.102429
O O8 0.303677 0.500000 0.813559
O O9 0.268156 0.696969 0.897412
O O10 0.826497 0.778991 0.598694
O O11 0.984135 0.726949 0.610539
O O12 0.904877 0.000000 0.627382
O O13 0.788408 0.500000 0.580447
O O14 0.863044 0.712255 0.497079
O O15 0.670915 0.725715 0.586756
O O16 0.113985 0.500000 0.578668
O O17 0.323977 0.500000 0.949767
O O18 0.250000 0.750000 0.000000
#
# Coordination Sequence:
#
# PCOD8109114 Si02
#       7
#     8   8   8   8   8   8   8
#     4  11  21  36  56  78 104 141 189 232 272 327
#     4   7  16  34  54  73 103 142 174 213 268 322
#     4   8  17  35  54  74 106 142 174 217 273 327
#     4  12  25  38  55  81 115 152 190 233 280 333
#     4  10  21  39  62  87 115 146 182 231 286 335
#     4  10  21  39  62  87 114 145 186 232 280 337
#     4   8  15  31  55  79 105 138 176 217 266 324
#
# _framework density 18.327732000000001
#
# number of rings (size 3 to 8) (size 9 to 14) (size 15 to 20)
#    0.857    1.714    0.000    3.000    0.000    5.143 
#    0.000    7.857    0.000    4.286    0.000    0.000 
#    0.000    0.000    0.000    0.000    0.000    0.000 
#
# Total GULP energy -346891.462491 kJ/mol
# GULP energy per Si atom -12388.980803 kJ/mol
# Density = 1.828602 g / cm^3
# Si number density = 18.327732 Si / 1000 Ang^3
#
#
#
# Elastic Constant Matrix: (Units=GPa)
#
#
# Indices 1 2 3 4 5 6 
#
# 1 92.1918 8.8104 53.2073 0.0000 -4.5037 0.0001
# 2 8.8104 47.9939 21.5001 0.0000 -3.5030 0.0001
# 3 53.2073 21.5001 99.6496 0.0000 -4.3576 0.0001
# 4 0.0000 0.0000 0.0000 31.4747 0.0000 3.0701
# 5 -4.5037 -3.5030 -4.3576 0.0000 52.5152 0.0000
# 6 0.0001 0.0001 0.0001 3.0701 0.0000 29.3018
#
#
#
# Elastic Compliance Matrix: (Units=1/GPa)
#
#
# Indices 1 2 3 4 5 6 
#
# 1 0.015745 0.001011 -0.008594 0.000000 0.000705 0.000000
# 2 0.001011 0.023197 -0.005493 0.000000 0.001178 0.000000
# 3 -0.008594 -0.005493 0.015818 0.000000 0.000209 0.000000
# 4 0.000000 0.000000 0.000000 0.032100 0.000000 -0.003363
# 5 0.000705 0.001178 0.000209 0.000000 0.019198 0.000000
# 6 0.000000 0.000000 0.000000 -0.003363 0.000000 0.034480
#
#
# Mechanical properties :
#
#
# Convention : Reuss Voigt Hill
#
# Bulk Modulus (GPa) = 34.95579 45.20789 40.08184
# Shear Modulus (GPa) = 28.37251 33.07951 30.72601
#
# Velocity S-wave (km/s) = 3.93881 4.25301 4.09892
# Velocity P-wave (km/s) = 6.30870 6.98837 6.65722
#
# Compressibility (1/GPa) = 0.02860757
#
# Stress axis : x y z
#
# Youngs Moduli (GPa) = 63.51332 43.10854 63.21790
#
# Poissons Ratio (x) = -0.04359 0.54330
# Poissons Ratio (y) = -0.06422 0.34728
# Poissons Ratio (z) = 0.54584 0.23681
#
# Static dielectric constant tensor:
#      x y z
#    x 3.505750 0.000000 -0.168050 
#    y 0.000000 3.220270 0.000000 
#    z -0.168050 0.000000 3.529250 
# 
# 
# High freq. dielectric constant tensor:
#      x y z
#    x 1.707350 0.000000 -0.006220 
#    y 0.000000 1.702300 0.000000 
#    z -0.006220 0.000000 1.703470 
# 
# From -- ./inp_files/359654.got.cif
#   From: 2010.06.25/outbox.cif.g09.slc.cpg/sg12_180_cif.got.tgz:359654.got - 2010.06.28 00:19:55.
