data_PCOD8109342
_publ_section_title
;
Structure prediction by ZEFSAII (Michael W. Deem and Ramdas Pophale) SiO2 
 PCOD8109342
Probable space group: C 2/M
;
_chemical_formula_sum "Si O2"
_cell_formula_units_Z 48
_cell_length_a 17.452640
_cell_length_b 12.938405
_cell_length_c 10.636560
_cell_angle_alpha 90.000000
_cell_angle_beta 102.179475
_cell_angle_gamma 90.000000
_cell_volume 2347.772822
_symmetry_space_group_name_H-M "C 2/M"
_symmetry_group_IT_number 12
_symmetry_cell_setting 'monoclinic'
loop_
_space_group_symop_operation_xyz
x,y,z
-x,y,-z
-x,-y,-z
x,-y,z
1/2+x,1/2+y,z
1/2-x,1/2+y,-z
1/2-x,1/2-y,-z
1/2+x,1/2-y,z
loop_
_atom_site_type_symbol
_atom_site_label
_atom_site_fract_x
_atom_site_fract_y
_atom_site_fract_z
Si Si1 0.061442 0.246729 0.341759
Si Si2 0.696085 0.384912 0.263215
Si Si3 0.404280 0.376323 0.269641
Si Si4 0.319345 0.759423 0.423106
Si Si5 0.666062 0.288079 0.006909
Si Si6 0.072347 0.614214 0.114794
O O1 0.131564 0.174092 0.320953
O O2 0.098168 0.295059 0.483728
O O3 0.044042 0.338318 0.237872
O O4 0.985769 0.176078 0.340329
O O5 0.695056 0.500000 0.313105
O O6 0.785174 0.342218 0.312018
O O7 0.673319 0.381356 0.108560
O O8 0.412079 0.500000 0.267227
O O9 0.337579 0.344900 0.348291
O O10 0.385018 0.330527 0.125616
O O11 0.250000 0.750000 0.500000
O O12 0.631845 0.189093 0.066315
O O13 0.750000 0.250000 0.000000
O O14 0.109838 0.500000 0.151396
O O15 0.000000 0.600326 0.000000
#
# Coordination Sequence:
#
# PCOD8109342 Si02
#       6
#     8   8   8   8   8   8
#     4  10  22  41  64  96 130 160 213 266 306 374
#     4  10  21  39  63  91 128 169 203 253 318 369
#     4  12  24  41  68  96 125 166 211 265 326 376
#     4  10  23  42  59  87 128 165 206 257 305 375
#     4  11  22  41  60  97 132 159 210 266 307 375
#     4  10  21  40  67  91 125 171 207 253 317 375
#
# _framework density 20.444908000000002
#
# number of rings (size 3 to 8) (size 9 to 14) (size 15 to 20)
#    0.000    1.500    3.333    1.500    0.000    6.000 
#    0.000    3.333    0.000    2.000    0.000    0.000 
#    0.000    0.000    0.000    0.000    0.000    0.000 
#
# Total GULP energy -297378.022408 kJ/mol
# GULP energy per Si atom -12390.750934 kJ/mol
# Density = 2.039837 g / cm^3
# Si number density = 20.444908 Si / 1000 Ang^3
#
#
#
# Elastic Constant Matrix: (Units=GPa)
#
#
# Indices 1 2 3 4 5 6 
#
# 1 82.3374 37.2902 29.8033 0.0000 7.6333 0.0000
# 2 37.2902 137.3530 40.2586 0.0000 1.3967 0.0000
# 3 29.8033 40.2586 111.9905 0.0000 15.6402 0.0000
# 4 0.0000 0.0000 0.0000 11.9440 0.0000 -4.2006
# 5 7.6333 1.3967 15.6402 0.0000 37.3798 0.0000
# 6 0.0000 0.0000 0.0000 -4.2006 0.0000 22.6061
#
#
#
# Elastic Compliance Matrix: (Units=1/GPa)
#
#
# Indices 1 2 3 4 5 6 
#
# 1 0.014682 -0.003239 -0.002487 0.000000 -0.001837 0.000000
# 2 -0.003239 0.008886 -0.002526 0.000000 0.001386 0.000000
# 3 -0.002487 -0.002526 0.011061 0.000000 -0.004026 0.000000
# 4 0.000000 0.000000 0.000000 0.089578 0.000000 0.016645
# 5 -0.001837 0.001386 -0.004026 0.000000 0.028760 0.000000
# 6 0.000000 0.000000 0.000000 0.016645 0.000000 0.047329
#
#
# Mechanical properties :
#
#
# Convention : Reuss Voigt Hill
#
# Bulk Modulus (GPa) = 55.16573 60.70943 57.93758
# Shear Modulus (GPa) = 22.43747 29.34122 25.88934
#
# Velocity S-wave (km/s) = 3.31639 3.79243 3.56237
# Velocity P-wave (km/s) = 6.45800 6.99538 6.73205
#
# Compressibility (1/GPa) = 0.01812720
#
# Stress axis : x y z
#
# Youngs Moduli (GPa) = 68.10953 112.53550 90.40427
#
# Poissons Ratio (x) = 0.36446 0.22479
# Poissons Ratio (y) = 0.22058 0.22837
# Poissons Ratio (z) = 0.16936 0.28428
#
# Static dielectric constant tensor:
#      x y z
#    x 3.679510 0.000000 0.186130 
#    y 0.000000 4.415230 0.000000 
#    z 0.186130 0.000000 3.505410 
# 
# 
# High freq. dielectric constant tensor:
#      x y z
#    x 1.797360 0.000000 0.007880 
#    y 0.000000 1.781350 0.000000 
#    z 0.007880 0.000000 1.824690 
# 
# From -- ./inp_files/154286.got.cif
#   From: 2010.06.25/outbox.cif.g09.slc.cpg/sg12_78_cif.got.tgz:154286.got - 2010.06.28 00:19:55.
