data_PCOD8109095
_publ_section_title
;
Structure prediction by ZEFSAII (Michael W. Deem and Ramdas Pophale) SiO2 
 PCOD8109095
Probable space group: C 2/M
;
_chemical_formula_sum "Si O2"
_cell_formula_units_Z 32
_cell_length_a 27.336305
_cell_length_b 8.801707
_cell_length_c 8.890031
_cell_angle_alpha 90.000000
_cell_angle_beta 48.963260
_cell_angle_gamma 90.000000
_cell_volume 1613.420673
_symmetry_space_group_name_H-M "C 2/M"
_symmetry_group_IT_number 12
_symmetry_cell_setting 'monoclinic'
loop_
_space_group_symop_operation_xyz
x,y,z
-x,y,-z
-x,-y,-z
x,-y,z
1/2+x,1/2+y,z
1/2-x,1/2+y,-z
1/2-x,1/2-y,-z
1/2+x,1/2-y,z
loop_
_atom_site_type_symbol
_atom_site_label
_atom_site_fract_x
_atom_site_fract_y
_atom_site_fract_z
Si Si1 0.311072 0.178926 0.296051
Si Si2 0.934165 0.822849 0.549300
Si Si3 0.312081 0.820444 0.952776
Si Si4 0.936901 0.324281 0.225930
O O1 0.250000 0.250000 0.500000
O O2 0.375547 0.229169 0.252693
O O3 0.302671 0.000000 0.314283
O O4 0.315716 0.239541 0.116346
O O5 0.876429 0.727332 0.736756
O O6 0.941583 0.781951 0.360564
O O7 0.000000 0.776942 0.500000
O O8 0.918487 0.000000 0.598198
O O9 0.305742 0.000000 0.959171
O O10 0.250000 0.750000 0.000000
O O11 0.931012 0.500000 0.287224
O O12 0.000000 0.296274 0.000000
#
# Coordination Sequence:
#
# PCOD8109095 Si02
#       4
#     8   8   8   8
#     4  10  22  38  58  85 115 149 189 236 288 343
#     4  11  24  40  59  87 121 156 196 242 292 346
#     4  11  23  40  62  88 119 155 196 241 292 349
#     4  10  21  39  62  86 113 150 197 243 290 345
#
# _framework density 19.833635999999998
#
# number of rings (size 3 to 8) (size 9 to 14) (size 15 to 20)
#    0.000    1.500    0.000    4.500    0.000   11.500 
#    0.000    0.000    0.000    0.000    0.000    0.000 
#    0.000    0.000    0.000    0.000    0.000    0.000 
#
# Total GULP energy -198499.218113 kJ/mol
# GULP energy per Si atom -12406.201132 kJ/mol
# Density = 1.978849 g / cm^3
# Si number density = 19.833636 Si / 1000 Ang^3
#
#
#
# Elastic Constant Matrix: (Units=GPa)
#
#
# Indices 1 2 3 4 5 6 
#
# 1 191.2406 47.8951 75.3776 0.0000 -0.8221 0.0000
# 2 47.8951 46.7511 29.7550 0.0000 -0.0839 0.0000
# 3 75.3776 29.7550 126.2781 0.0000 -3.1803 0.0000
# 4 0.0000 0.0000 0.0000 38.2999 0.0000 -0.4322
# 5 -0.8221 -0.0839 -3.1803 0.0000 44.9272 0.0000
# 6 0.0000 0.0000 0.0000 -0.4322 0.0000 31.4922
#
#
#
# Elastic Compliance Matrix: (Units=1/GPa)
#
#
# Indices 1 2 3 4 5 6 
#
# 1 0.008104 -0.006144 -0.003393 0.000000 -0.000103 0.000000
# 2 -0.006144 0.029827 -0.003368 0.000000 -0.000295 0.000000
# 3 -0.003393 -0.003368 0.010755 0.000000 0.000693 0.000000
# 4 0.000000 0.000000 0.000000 0.026114 0.000000 0.000358
# 5 -0.000103 -0.000295 0.000693 0.000000 0.022305 0.000000
# 6 0.000000 0.000000 0.000000 0.000358 0.000000 0.031759
#
#
# Mechanical properties :
#
#
# Convention : Reuss Voigt Hill
#
# Bulk Modulus (GPa) = 43.71096 74.48058 59.09577
# Shear Modulus (GPa) = 30.80723 37.02666 33.91694
#
# Velocity S-wave (km/s) = 3.94545 4.32541 4.13979
# Velocity P-wave (km/s) = 6.54538 7.91073 7.26023
#
# Compressibility (1/GPa) = 0.02287756
#
# Stress axis : x y z
#
# Youngs Moduli (GPa) = 123.38938 33.52646 92.97744
#
# Poissons Ratio (x) = 0.20598 0.31544
# Poissons Ratio (y) = 0.75806 0.31318
# Poissons Ratio (z) = 0.41862 0.11293
#
# Static dielectric constant tensor:
#      x y z
#    x 3.856760 0.000000 0.062270 
#    y 0.000000 3.564520 0.000000 
#    z 0.062270 0.000000 3.714740 
# 
# 
# High freq. dielectric constant tensor:
#      x y z
#    x 1.796000 0.000000 -0.000580 
#    y 0.000000 1.770950 0.000000 
#    z -0.000580 0.000000 1.791140 
# 
# From -- ./inp_files/81652.got.cif
#   From: 2010.06.25/outbox.cif.g09.slc.cpg/sg12_41_cif.got.tgz:81652.got - 2010.06.28 00:19:55.
