data_PCOD8109639
_publ_section_title
;
Structure prediction by ZEFSAII (Michael W. Deem and Ramdas Pophale) SiO2 
 PCOD8109639
Probable space group: C 2/M
;
_chemical_formula_sum "Si O2"
_cell_formula_units_Z 56
_cell_length_a 17.552514
_cell_length_b 14.932489
_cell_length_c 10.253269
_cell_angle_alpha 90.000000
_cell_angle_beta 68.162907
_cell_angle_gamma 90.000000
_cell_volume 2494.575199
_symmetry_space_group_name_H-M "C 2/M"
_symmetry_group_IT_number 12
_symmetry_cell_setting 'monoclinic'
loop_
_space_group_symop_operation_xyz
x,y,z
-x,y,-z
-x,-y,-z
x,-y,z
1/2+x,1/2+y,z
1/2-x,1/2+y,-z
1/2-x,1/2-y,-z
1/2+x,1/2-y,z
loop_
_atom_site_type_symbol
_atom_site_label
_atom_site_fract_x
_atom_site_fract_y
_atom_site_fract_z
Si Si1 0.837670 0.662471 0.834662
Si Si2 0.323058 0.402727 0.700828
Si Si3 0.086128 0.746853 0.749279
Si Si4 0.667550 0.601997 0.834471
Si Si5 0.089574 0.837140 0.128580
Si Si6 0.906976 0.263452 0.540574
Si Si7 0.361273 0.900867 0.092510
O O1 0.749347 0.621773 0.862242
O O2 0.837874 0.763624 0.890755
O O3 0.886551 0.661721 0.664162
O O4 0.878266 0.604408 0.925422
O O5 0.323000 0.500000 0.629757
O O6 0.391097 0.410432 0.773223
O O7 0.347581 0.323095 0.587993
O O8 0.233659 0.382330 0.816885
O O9 0.153058 0.826410 0.728585
O O10 0.106764 0.699222 0.597537
O O11 0.085836 0.673224 0.863976
O O12 0.997213 0.790664 0.796165
O O13 0.665930 0.500000 0.782614
O O14 0.593435 0.618477 0.983961
O O15 0.000000 0.231358 0.500000
O O16 0.388481 0.000000 0.120962
#
# Coordination Sequence:
#
# PCOD8109639 Si02
#       7
#     8   8   8   8   8   8   8
#     4  11  22  43  71  94 127 176 230 271 321 395
#     4  10  21  39  68 100 131 172 227 274 323 398
#     4  12  25  43  66 102 143 176 217 273 340 402
#     4  12  25  40  67 105 139 173 221 280 337 395
#     4  11  21  39  68  96 134 175 218 279 333 387
#     4  11  24  43  66  95 135 186 218 264 339 406
#     4  11  24  45  74 103 130 170 229 289 335 386
#
# _framework density 22.448713000000001
#
# number of rings (size 3 to 8) (size 9 to 14) (size 15 to 20)
#    0.000    0.857    5.714    3.429    0.000    4.857 
#    0.000    5.000    0.000    2.143    0.000    0.000 
#    0.000    0.000    0.000    0.000    0.000    0.000 
#
# Total GULP energy -346974.653715 kJ/mol
# GULP energy per Si atom -12391.951918 kJ/mol
# Density = 2.239762 g / cm^3
# Si number density = 22.448713 Si / 1000 Ang^3
#
#
#
# Elastic Constant Matrix: (Units=GPa)
#
#
# Indices 1 2 3 4 5 6 
#
# 1 65.4970 26.0700 27.7744 0.0000 11.1600 0.0000
# 2 26.0700 105.8004 18.3499 0.0000 4.3325 0.0000
# 3 27.7744 18.3499 126.4724 0.0000 19.7242 0.0000
# 4 0.0000 0.0000 0.0000 19.1303 0.0000 -1.4346
# 5 11.1600 4.3325 19.7242 0.0000 31.9303 0.0000
# 6 0.0000 0.0000 0.0000 -1.4346 0.0000 16.3378
#
#
#
# Elastic Compliance Matrix: (Units=1/GPa)
#
#
# Indices 1 2 3 4 5 6 
#
# 1 0.018791 -0.003955 -0.002891 0.000000 -0.004245 0.000000
# 2 -0.003955 0.010535 -0.000722 0.000000 0.000399 0.000000
# 3 -0.002891 -0.000722 0.009377 0.000000 -0.004684 0.000000
# 4 0.000000 0.000000 0.000000 0.052620 0.000000 0.004620
# 5 -0.004245 0.000399 -0.004684 0.000000 0.035641 0.000000
# 6 0.000000 0.000000 0.000000 0.004620 0.000000 0.061613
#
#
# Mechanical properties :
#
#
# Convention : Reuss Voigt Hill
#
# Bulk Modulus (GPa) = 42.43151 49.12872 45.78012
# Shear Modulus (GPa) = 23.63284 28.51806 26.07545
#
# Velocity S-wave (km/s) = 3.24813 3.56808 3.41186
# Velocity P-wave (km/s) = 5.74541 6.23758 5.99654
#
# Compressibility (1/GPa) = 0.02356739
#
# Stress axis : x y z
#
# Youngs Moduli (GPa) = 53.21590 94.91945 106.64396
#
# Poissons Ratio (x) = 0.37542 0.30829
# Poissons Ratio (y) = 0.21047 0.07702
# Poissons Ratio (z) = 0.15384 0.06855
#
# Static dielectric constant tensor:
#      x y z
#    x 3.991820 0.000000 0.139610 
#    y 0.000000 3.998820 0.000000 
#    z 0.139610 0.000000 4.279160 
# 
# 
# High freq. dielectric constant tensor:
#      x y z
#    x 1.884440 0.000000 0.007030 
#    y 0.000000 1.865370 0.000000 
#    z 0.007030 0.000000 1.876650 
# 
# From -- ./inp_files/156002.got.cif
#   From: 2010.06.25/outbox.cif.g09.slc.cpg/sg12_79_cif.got.tgz:156002.got - 2010.06.28 00:19:55.
