data_PCOD8109042
_publ_section_title
;
Structure prediction by ZEFSAII (Michael W. Deem and Ramdas Pophale) SiO2 
 PCOD8109042
Probable space group: C 2/M
;
_chemical_formula_sum "Si O2"
_cell_formula_units_Z 64
_cell_length_a 29.165738
_cell_length_b 18.297048
_cell_length_c 9.435750
_cell_angle_alpha 90.000000
_cell_angle_beta 40.545408
_cell_angle_gamma 90.000000
_cell_volume 3273.237417
_symmetry_space_group_name_H-M "C 2/M"
_symmetry_group_IT_number 12
_symmetry_cell_setting 'monoclinic'
loop_
_space_group_symop_operation_xyz
x,y,z
-x,y,-z
-x,-y,-z
x,-y,z
1/2+x,1/2+y,z
1/2-x,1/2+y,-z
1/2-x,1/2-y,-z
1/2+x,1/2-y,z
loop_
_atom_site_type_symbol
_atom_site_label
_atom_site_fract_x
_atom_site_fract_y
_atom_site_fract_z
Si Si1 0.304820 0.582158 0.558818
Si Si2 0.059798 0.296028 0.621612
Si Si3 0.660072 0.084307 0.435047
Si Si4 0.712429 0.830173 0.575554
Si Si5 0.100174 0.267899 0.015927
Si Si6 0.169733 0.770646 0.143565
Si Si7 0.221734 0.919619 0.064350
Si Si8 0.424854 0.678927 0.183868
O O1 0.328109 0.500000 0.475332
O O2 0.258053 0.607434 0.539237
O O3 0.375109 0.629973 0.396583
O O4 0.263367 0.591561 0.803605
O O5 0.082887 0.381003 0.586173
O O6 0.112514 0.257409 0.388573
O O7 0.065811 0.256915 0.759554
O O8 0.979126 0.292125 0.755685
O O9 0.700986 0.140236 0.443771
O O10 0.702803 0.087346 0.188075
O O11 0.653094 0.000000 0.505965
O O12 0.750000 0.750000 0.500000
O O13 0.637662 0.829610 0.832380
O O14 0.149192 0.258146 0.037497
O O15 0.101144 0.194176 0.916220
O O16 0.250000 0.750000 0.000000
O O17 0.166041 0.858966 0.143574
O O18 0.188562 0.000000 0.112855
O O19 0.500000 0.638305 0.000000
#
# Coordination Sequence:
#
# PCOD8109042 Si02
#       8
#     8   8   8   8   8   8   8   8
#     4  11  22  38  59  89 123 161 204 254 308 369
#     4  11  22  41  63  92 123 162 208 257 303 367
#     4  11  23  40  61  90 126 165 204 255 318 373
#     4  12  22  38  62  91 122 159 210 258 309 364
#     4  11  24  38  63  92 126 154 208 262 308 361
#     4  12  22  38  66  96 118 163 216 253 310 369
#     4  10  22  38  59  89 126 159 201 258 311 362
#     4  10  21  39  61  88 122 160 203 254 307 368
#
# _framework density 19.552508
#
# number of rings (size 3 to 8) (size 9 to 14) (size 15 to 20)
#    0.000    1.000    5.000    2.250    0.000    0.250 
#    0.000    1.875    0.000    4.500    0.000    0.000 
#    0.000    0.000    0.000    0.000    0.000    0.000 
#
# Total GULP energy -396597.146756 kJ/mol
# GULP energy per Si atom -12393.660836 kJ/mol
# Density = 1.950801 g / cm^3
# Si number density = 19.552508 Si / 1000 Ang^3
#
#
#
# Elastic Constant Matrix: (Units=GPa)
#
#
# Indices 1 2 3 4 5 6 
#
# 1 114.8615 41.4929 50.7456 0.0000 0.6972 0.0000
# 2 41.4929 114.4291 38.4745 0.0000 -9.7402 0.0000
# 3 50.7456 38.4745 120.8613 0.0000 -8.1789 0.0000
# 4 0.0000 0.0000 0.0000 22.3006 0.0000 7.0427
# 5 0.6972 -9.7402 -8.1789 0.0000 32.3910 0.0000
# 6 0.0000 0.0000 0.0000 7.0427 0.0000 20.9408
#
#
#
# Elastic Compliance Matrix: (Units=1/GPa)
#
#
# Indices 1 2 3 4 5 6 
#
# 1 0.011606 -0.003031 -0.004056 0.000000 -0.002185 0.000000
# 2 -0.003031 0.010734 -0.001955 0.000000 0.002799 0.000000
# 3 -0.004056 -0.001955 0.010749 0.000000 0.002214 0.000000
# 4 0.000000 0.000000 0.000000 0.050170 0.000000 -0.016873
# 5 -0.002185 0.002799 0.002214 0.000000 0.032321 0.000000
# 6 0.000000 0.000000 0.000000 -0.016873 0.000000 0.053428
#
#
# Mechanical properties :
#
#
# Convention : Reuss Voigt Hill
#
# Bulk Modulus (GPa) = 66.64333 67.95311 67.29822
# Shear Modulus (GPa) = 26.02899 29.75574 27.89236
#
# Velocity S-wave (km/s) = 3.65257 3.90531 3.78105
# Velocity P-wave (km/s) = 7.20740 7.42730 7.31818
#
# Compressibility (1/GPa) = 0.01500525
#
# Stress axis : x y z
#
# Youngs Moduli (GPa) = 86.16056 93.16552 93.03078
#
# Poissons Ratio (x) = 0.28236 0.37735
# Poissons Ratio (y) = 0.26113 0.18187
# Poissons Ratio (z) = 0.34948 0.18213
#
# Static dielectric constant tensor:
#      x y z
#    x 3.564540 0.000000 0.002010 
#    y 0.000000 3.741550 0.000000 
#    z 0.002010 0.000000 3.889240 
# 
# 
# High freq. dielectric constant tensor:
#      x y z
#    x 1.750980 0.000000 0.009640 
#    y 0.000000 1.751530 0.000000 
#    z 0.009640 0.000000 1.777460 
# 
# From -- ./inp_files/112828.got.cif
#   From: 2010.06.25/outbox.cif.g09.slc.cpg/sg12_57_cif.got.tgz:112828.got - 2010.06.28 00:19:55.
