data_PCOD8109821
_publ_section_title
;
Structure prediction by ZEFSAII (Michael W. Deem and Ramdas Pophale) SiO2 
 PCOD8109821
Probable space group: C 2/M
;
_chemical_formula_sum "Si O2"
_cell_formula_units_Z 48
_cell_length_a 20.349669
_cell_length_b 23.694459
_cell_length_c 7.887063
_cell_angle_alpha 90.000000
_cell_angle_beta 34.868508
_cell_angle_gamma 90.000000
_cell_volume 2174.121697
_symmetry_space_group_name_H-M "C 2/M"
_symmetry_group_IT_number 12
_symmetry_cell_setting 'monoclinic'
loop_
_space_group_symop_operation_xyz
x,y,z
-x,y,-z
-x,-y,-z
x,-y,z
1/2+x,1/2+y,z
1/2-x,1/2+y,-z
1/2-x,1/2-y,-z
1/2+x,1/2-y,z
loop_
_atom_site_type_symbol
_atom_site_label
_atom_site_fract_x
_atom_site_fract_y
_atom_site_fract_z
Si Si1 0.785536 0.854420 0.201065
Si Si2 0.433067 0.937542 0.800069
Si Si3 0.692121 0.563905 0.152045
Si Si4 0.264051 0.733975 0.669130
Si Si5 0.035408 0.159961 0.609411
Si Si6 0.106110 0.347343 0.869678
O O1 0.749282 0.792604 0.199094
O O2 0.709602 0.867064 0.527229
O O3 0.766577 0.903611 0.104919
O O4 0.920909 0.850316 0.964133
O O5 0.500000 0.910115 0.500000
O O6 0.483436 0.000000 0.725880
O O7 0.297479 0.939285 0.056895
O O8 0.456483 0.901422 0.917758
O O9 0.650431 0.500000 0.196279
O O10 0.592427 0.598622 0.457623
O O11 0.250000 0.750000 0.500000
O O12 0.382670 0.703995 0.467813
O O13 0.157530 0.690348 0.916278
O O14 0.000000 0.185110 0.500000
O O15 0.000000 0.315081 0.000000
#
# Coordination Sequence:
#
# PCOD8109821 Si02
#       6
#     8   8   8   8   8   8
#     4  10  24  39  65  95 129 171 217 266 328 384
#     4  10  21  40  63  89 127 171 218 273 325 384
#     4  10  21  42  65  94 131 171 217 272 328 387
#     4  10  23  41  62  93 136 169 212 265 331 388
#     4  10  22  42  66  98 131 175 219 270 324 393
#     4  11  23  40  62  95 129 172 220 268 328 395
#
# _framework density 22.077881000000001
#
# number of rings (size 3 to 8) (size 9 to 14) (size 15 to 20)
#    0.000    1.833    1.667    1.000    4.667    8.667 
#    0.000    0.000    0.000    2.000    0.000    0.000 
#    0.000    0.000    0.000    0.000    0.000    0.000 
#
# Total GULP energy -297405.705324 kJ/mol
# GULP energy per Si atom -12391.904389 kJ/mol
# Density = 2.202763 g / cm^3
# Si number density = 22.077881 Si / 1000 Ang^3
#
#
#
# Elastic Constant Matrix: (Units=GPa)
#
#
# Indices 1 2 3 4 5 6 
#
# 1 88.6380 35.7354 19.2931 -0.0001 -18.4545 0.0000
# 2 35.7354 145.2927 42.1789 0.0000 7.5553 0.0000
# 3 19.2931 42.1789 130.5149 -0.0001 -2.5225 0.0000
# 4 -0.0001 0.0000 -0.0001 24.9464 0.0001 3.0261
# 5 -18.4545 7.5553 -2.5225 0.0001 29.1992 0.0000
# 6 0.0000 0.0000 0.0000 3.0261 0.0000 32.7831
#
#
#
# Elastic Compliance Matrix: (Units=1/GPa)
#
#
# Indices 1 2 3 4 5 6 
#
# 1 0.015324 -0.004113 -0.000729 0.000000 0.010686 0.000000
# 2 -0.004113 0.008840 -0.002347 0.000000 -0.005090 0.000000
# 3 -0.000729 -0.002347 0.008545 0.000000 0.000885 0.000000
# 4 0.000000 0.000000 0.000000 0.040540 0.000000 -0.003742
# 5 0.010686 -0.005090 0.000885 0.000000 0.042395 0.000000
# 6 0.000000 0.000000 0.000000 -0.003742 0.000000 0.030849
#
#
# Mechanical properties :
#
#
# Convention : Reuss Voigt Hill
#
# Bulk Modulus (GPa) = 54.55511 62.09560 58.32535
# Shear Modulus (GPa) = 29.94332 35.20162 32.57247
#
# Velocity S-wave (km/s) = 3.68674 3.99736 3.84519
# Velocity P-wave (km/s) = 6.54879 7.03505 6.79627
#
# Compressibility (1/GPa) = 0.01833009
#
# Stress axis : x y z
#
# Youngs Moduli (GPa) = 65.25891 113.11806 117.02072
#
# Poissons Ratio (x) = 0.46523 0.08537
# Poissons Ratio (y) = 0.26840 0.27469
# Poissons Ratio (z) = 0.04761 0.26553
#
# Static dielectric constant tensor:
#      x y z
#    x 3.935180 0.000000 -0.243010 
#    y 0.000000 4.672360 0.000000 
#    z -0.243010 0.000000 3.948930 
# 
# 
# High freq. dielectric constant tensor:
#      x y z
#    x 1.858010 0.000000 -0.020710 
#    y 0.000000 1.871230 0.000000 
#    z -0.020710 0.000000 1.867890 
# 
# From -- ./inp_files/99752.got.cif
#   From: 2010.06.25/outbox.cif.g09.slc.cpg/sg12_50_cif.got.tgz:99752.got - 2010.06.28 00:19:55.
