data_PCOD8109756
_publ_section_title
;
Structure prediction by ZEFSAII (Michael W. Deem and Ramdas Pophale) SiO2 
 PCOD8109756
Probable space group: C 2/M
;
_chemical_formula_sum "Si O2"
_cell_formula_units_Z 56
_cell_length_a 18.448623
_cell_length_b 8.897142
_cell_length_c 18.176971
_cell_angle_alpha 90.000000
_cell_angle_beta 67.937202
_cell_angle_gamma 90.000000
_cell_volume 2765.089752
_symmetry_space_group_name_H-M "C 2/M"
_symmetry_group_IT_number 12
_symmetry_cell_setting 'monoclinic'
loop_
_space_group_symop_operation_xyz
x,y,z
-x,y,-z
-x,-y,-z
x,-y,z
1/2+x,1/2+y,z
1/2-x,1/2+y,-z
1/2-x,1/2-y,-z
1/2+x,1/2-y,z
loop_
_atom_site_type_symbol
_atom_site_label
_atom_site_fract_x
_atom_site_fract_y
_atom_site_fract_z
Si Si1 0.460344 0.334218 0.437468
Si Si2 0.280966 0.173582 0.707559
Si Si3 0.630317 0.674541 0.853448
Si Si4 0.027808 0.674719 0.138432
Si Si5 0.580584 0.322930 0.267900
Si Si6 0.308467 0.175268 0.532985
Si Si7 0.820778 0.324259 0.016885
O O1 0.500000 0.350965 0.500000
O O2 0.427939 0.500000 0.426352
O O3 0.522274 0.273878 0.354970
O O4 0.393554 0.210733 0.469171
O O5 0.189787 0.194444 0.762366
O O6 0.333662 0.260020 0.746972
O O7 0.295521 0.240079 0.620297
O O8 0.305853 0.000000 0.701598
O O9 0.612027 0.500000 0.874996
O O10 0.550358 0.759666 0.867406
O O11 0.673106 0.744558 0.907231
O O12 0.014776 0.500000 0.159279
O O13 0.046783 0.757114 0.206368
O O14 0.098162 0.702625 0.055723
O O15 0.587128 0.500000 0.257263
O O16 0.250000 0.250000 0.500000
O O17 0.293095 0.000000 0.539479
O O18 0.803048 0.500000 0.034181
O O19 0.750000 0.250000 0.000000
#
# Coordination Sequence:
#
# PCOD8109756 Si02
#       7
#     8   8   8   8   8   8   8
#     4  10  21  40  62  88 122 159 203 257 310 362
#     4  10  23  42  61  87 124 161 201 254 309 361
#     4  11  24  42  65  93 126 164 205 252 305 362
#     4  11  25  43  63  92 129 163 200 251 306 362
#     4  11  23  39  64  92 121 160 207 255 304 365
#     4  11  24  40  61  88 122 163 207 256 309 367
#     4  11  24  43  67  95 127 163 203 250 303 362
#
# _framework density 20.252507000000001
#
# number of rings (size 3 to 8) (size 9 to 14) (size 15 to 20)
#    0.000    1.286    1.429    3.429    2.000   10.571 
#    0.000    0.000    0.000    0.000    0.000    0.000 
#    0.000    0.000    0.000    0.000    0.000    0.000 
#
# Total GULP energy -347323.675941 kJ/mol
# GULP energy per Si atom -12404.416998 kJ/mol
# Density = 2.020641 g / cm^3
# Si number density = 20.252507 Si / 1000 Ang^3
#
#
#
# Elastic Constant Matrix: (Units=GPa)
#
#
# Indices 1 2 3 4 5 6 
#
# 1 120.4193 37.6798 20.1659 0.0000 0.8625 0.0000
# 2 37.6798 77.1264 25.9614 0.0000 -7.5030 -0.0001
# 3 20.1659 25.9614 72.2847 0.0000 -2.7930 0.0000
# 4 0.0000 0.0000 0.0000 37.7055 0.0000 0.3275
# 5 0.8625 -7.5030 -2.7930 0.0000 37.6422 0.0000
# 6 0.0000 -0.0001 0.0000 0.3275 0.0000 43.8926
#
#
#
# Elastic Compliance Matrix: (Units=1/GPa)
#
#
# Indices 1 2 3 4 5 6 
#
# 1 0.009944 -0.004582 -0.001176 0.000000 -0.001228 0.000000
# 2 -0.004582 0.017109 -0.004744 0.000000 0.003163 0.000000
# 3 -0.001176 -0.004744 0.015876 0.000000 0.000259 0.000000
# 4 0.000000 0.000000 0.000000 0.026523 0.000000 -0.000198
# 5 -0.001228 0.003163 0.000259 0.000000 0.027244 0.000000
# 6 0.000000 0.000000 0.000000 -0.000198 0.000000 0.022784
#
#
# Mechanical properties :
#
#
# Convention : Reuss Voigt Hill
#
# Bulk Modulus (GPa) = 45.61043 48.60495 47.10769
# Shear Modulus (GPa) = 33.83134 36.24960 35.04047
#
# Velocity S-wave (km/s) = 4.09158 4.23529 4.16406
# Velocity P-wave (km/s) = 6.70009 6.92593 6.81394
#
# Compressibility (1/GPa) = 0.02192481
#
# Stress axis : x y z
#
# Youngs Moduli (GPa) = 100.56656 58.44968 62.98724
#
# Poissons Ratio (x) = 0.26779 0.07408
# Poissons Ratio (y) = 0.46075 0.29883
# Poissons Ratio (z) = 0.11827 0.27730
#
# Static dielectric constant tensor:
#      x y z
#    x 3.532660 0.000000 -0.016870 
#    y 0.000000 4.096670 0.000000 
#    z -0.016870 0.000000 3.792450 
# 
# 
# High freq. dielectric constant tensor:
#      x y z
#    x 1.800160 0.000000 -0.001730 
#    y 0.000000 1.798590 0.000000 
#    z -0.001730 0.000000 1.805450 
# 
# From -- ./inp_files/275170.got.cif
#   From: 2010.06.25/outbox.cif.g09.slc.cpg/sg12_138_cif.got.tgz:275170.got - 2010.06.28 00:19:55.
