data_PCOD8109599
_publ_section_title
;
Structure prediction by ZEFSAII (Michael W. Deem and Ramdas Pophale) SiO2 
 PCOD8109599
Probable space group: C 2/M
;
_chemical_formula_sum "Si O2"
_cell_formula_units_Z 40
_cell_length_a 16.789942
_cell_length_b 24.777884
_cell_length_c 9.449598
_cell_angle_alpha 90.000000
_cell_angle_beta 150.906764
_cell_angle_gamma 90.000000
_cell_volume 1911.483188
_symmetry_space_group_name_H-M "C 2/M"
_symmetry_group_IT_number 12
_symmetry_cell_setting 'monoclinic'
loop_
_space_group_symop_operation_xyz
x,y,z
-x,y,-z
-x,-y,-z
x,-y,z
1/2+x,1/2+y,z
1/2-x,1/2+y,-z
1/2-x,1/2-y,-z
1/2+x,1/2-y,z
loop_
_atom_site_type_symbol
_atom_site_label
_atom_site_fract_x
_atom_site_fract_y
_atom_site_fract_z
Si Si1 0.359238 0.276926 0.551501
Si Si2 0.162151 0.602584 0.836734
Si Si3 0.323806 0.500000 0.151752
Si Si4 0.324701 0.000000 0.795492
Si Si5 0.227271 0.785217 0.101433
Si Si6 0.330623 0.116793 0.818103
O O1 0.250000 0.250000 0.500000
O O2 0.547114 0.280109 0.891141
O O3 0.297136 0.336475 0.414524
O O4 0.357862 0.237068 0.415615
O O5 0.000000 0.585651 0.500000
O O6 0.295978 0.554720 0.020427
O O7 0.240115 0.653065 0.879720
O O8 0.131399 0.615411 0.954903
O O9 0.500000 0.500000 0.500000
O O10 0.173717 0.500000 0.031741
O O11 0.248136 0.940944 0.636788
O O12 0.500000 0.000000 0.000000
O O13 0.250000 0.750000 0.000000
O O14 0.500000 0.128222 0.000000
#
# Coordination Sequence:
#
# PCOD8109599 Si02
#       6
#     8   8   4   4   8   8
#     4  12  26  43  63  91 128 172 218 268 322 387
#     4  11  24  41  66  98 133 171 214 266 325 386
#     4  10  23  39  70  99 131 166 215 268 320 377
#     4   8  18  37  62  91 118 166 207 252 305 377
#     4  12  25  41  65  92 128 168 214 265 325 382
#     4  10  21  39  66  94 127 168 219 260 318 388
#
# _framework density 20.926158000000001
#
# number of rings (size 3 to 8) (size 9 to 14) (size 15 to 20)
#    0.000    1.200    2.000    3.900    8.400    0.000 
#    0.000    0.000    0.000    0.000    0.000   11.200 
#    0.000    0.000    0.000    0.000    0.000    0.000 
#
# Total GULP energy -247807.290565 kJ/mol
# GULP energy per Si atom -12390.364528 kJ/mol
# Density = 2.087853 g / cm^3
# Si number density = 20.926158 Si / 1000 Ang^3
#
#
#
# Elastic Constant Matrix: (Units=GPa)
#
#
# Indices 1 2 3 4 5 6 
#
# 1 68.9179 22.3931 8.1515 0.0000 1.3536 0.0000
# 2 22.3931 189.1554 41.6981 0.0000 4.5145 0.0000
# 3 8.1515 41.6981 94.9570 0.0000 10.1059 0.0000
# 4 0.0000 0.0000 0.0000 26.9605 0.0000 3.2736
# 5 1.3536 4.5145 10.1059 0.0000 31.2837 0.0000
# 6 0.0000 0.0000 0.0000 3.2736 0.0000 34.8220
#
#
#
# Elastic Compliance Matrix: (Units=1/GPa)
#
#
# Indices 1 2 3 4 5 6 
#
# 1 0.015120 -0.001665 -0.000541 0.000000 -0.000239 0.000000
# 2 -0.001665 0.006037 -0.002509 0.000000 0.000011 0.000000
# 3 -0.000541 -0.002509 0.012053 0.000000 -0.003508 0.000000
# 4 0.000000 0.000000 0.000000 0.037520 0.000000 -0.003527
# 5 -0.000239 0.000011 -0.003508 0.000000 0.033107 0.000000
# 6 0.000000 0.000000 0.000000 -0.003527 0.000000 0.029049
#
#
# Mechanical properties :
#
#
# Convention : Reuss Voigt Hill
#
# Bulk Modulus (GPa) = 42.05532 55.27952 48.66742
# Shear Modulus (GPa) = 33.27960 37.33239 35.30599
#
# Velocity S-wave (km/s) = 3.99223 4.22833 4.11197
# Velocity P-wave (km/s) = 6.43359 7.09311 6.77139
#
# Compressibility (1/GPa) = 0.02377821
#
# Stress axis : x y z
#
# Youngs Moduli (GPa) = 66.13884 165.65602 82.96873
#
# Poissons Ratio (x) = 0.27580 0.04492
# Poissons Ratio (y) = 0.11011 0.20818
# Poissons Ratio (z) = 0.03581 0.41565
#
# Static dielectric constant tensor:
#      x y z
#    x 3.761510 0.000000 -0.075030 
#    y 0.000000 4.509860 0.000000 
#    z -0.075030 0.000000 3.700650 
# 
# 
# High freq. dielectric constant tensor:
#      x y z
#    x 1.822780 0.000000 0.005680 
#    y 0.000000 1.855320 0.000000 
#    z 0.005680 0.000000 1.790150 
# 
# From -- ./inp_files/79344.got.cif
#   From: 2010.06.25/outbox.cif.g09.slc.cpg/sg12_40_cif.got.tgz:79344.got - 2010.06.28 00:19:55.
