data_PCOD8109932
_publ_section_title
;
Structure prediction by ZEFSAII (Michael W. Deem and Ramdas Pophale) SiO2 
 PCOD8109932
Probable space group: C 2/M
;
_chemical_formula_sum "Si O2"
_cell_formula_units_Z 48
_cell_length_a 28.153393
_cell_length_b 8.874297
_cell_length_c 15.710248
_cell_angle_alpha 90.000000
_cell_angle_beta 37.732808
_cell_angle_gamma 90.000000
_cell_volume 2402.066202
_symmetry_space_group_name_H-M "C 2/M"
_symmetry_group_IT_number 12
_symmetry_cell_setting 'monoclinic'
loop_
_space_group_symop_operation_xyz
x,y,z
-x,y,-z
-x,-y,-z
x,-y,z
1/2+x,1/2+y,z
1/2-x,1/2+y,-z
1/2-x,1/2-y,-z
1/2+x,1/2-y,z
loop_
_atom_site_type_symbol
_atom_site_label
_atom_site_fract_x
_atom_site_fract_y
_atom_site_fract_z
Si Si1 0.235461 0.172901 0.610037
Si Si2 0.140715 0.174885 0.449671
Si Si3 0.514048 0.177442 0.737894
Si Si4 0.701822 0.672657 0.181231
Si Si5 0.940568 0.827497 0.155107
Si Si6 0.355639 0.325057 0.920698
O O1 0.250000 0.250000 0.500000
O O2 0.283405 0.255791 0.614732
O O3 0.145190 0.185777 0.762579
O O4 0.262661 0.000000 0.565953
O O5 0.146970 0.200904 0.339799
O O6 0.061794 0.252849 0.591871
O O7 0.136630 0.000000 0.479795
O O8 0.554244 0.226004 0.768621
O O9 0.425971 0.232303 0.860507
O O10 0.516708 0.000000 0.726213
O O11 0.730471 0.500000 0.136092
O O12 0.651630 0.713162 0.169088
O O13 0.777334 0.777718 0.080316
O O14 0.960061 0.000000 0.152293
O O15 0.000000 0.766673 0.000000
O O16 0.371132 0.500000 0.915338
#
# Coordination Sequence:
#
# PCOD8109932 Si02
#       6
#     8   8   8   8   8   8
#     4  11  22  38  61  88 121 158 197 243 294 351
#     4  11  23  40  62  88 122 159 201 247 298 354
#     4  12  25  40  60  89 123 157 202 249 297 354
#     4   9  21  41  64  92 120 155 200 244 295 358
#     4  10  23  42  62  87 119 157 201 244 295 354
#     4  10  21  40  65  89 122 159 195 244 301 355
#
# _framework density 19.982797000000001
#
# number of rings (size 3 to 8) (size 9 to 14) (size 15 to 20)
#    0.000    1.500    1.667    3.000    2.333    3.667 
#    0.000    3.333    0.000    0.000    0.000    0.000 
#    0.000    0.000    0.000    0.000    0.000    0.000 
#
# Total GULP energy -297753.680668 kJ/mol
# GULP energy per Si atom -12406.403361 kJ/mol
# Density = 1.993732 g / cm^3
# Si number density = 19.982797 Si / 1000 Ang^3
#
#
#
# Elastic Constant Matrix: (Units=GPa)
#
#
# Indices 1 2 3 4 5 6 
#
# 1 44.7748 21.7203 0.7061 -0.0039 -7.4137 0.0008
# 2 21.7203 121.4167 32.1242 0.0010 -2.5322 -0.0002
# 3 0.7061 32.1242 88.2560 -0.0003 2.8308 0.0002
# 4 -0.0039 0.0010 -0.0003 31.0477 -0.0021 -4.5874
# 5 -7.4137 -2.5322 2.8308 -0.0021 31.7664 0.0003
# 6 0.0008 -0.0002 0.0002 -4.5874 0.0003 31.1315
#
#
#
# Elastic Compliance Matrix: (Units=1/GPa)
#
#
# Indices 1 2 3 4 5 6 
#
# 1 0.025555 -0.004822 0.001376 0.000004 0.005457 0.000000
# 2 -0.004822 0.010057 -0.003622 -0.000001 -0.000001 0.000000
# 3 0.001376 -0.003622 0.012673 0.000000 -0.001097 0.000000
# 4 0.000004 -0.000001 0.000000 0.032925 0.000003 0.004852
# 5 0.005457 -0.000001 -0.001097 0.000003 0.032851 0.000000
# 6 0.000000 0.000000 0.000000 0.004852 0.000000 0.032837
#
#
# Mechanical properties :
#
#
# Convention : Reuss Voigt Hill
#
# Bulk Modulus (GPa) = 29.28361 40.39432 34.83897
# Shear Modulus (GPa) = 28.99940 32.11559 30.55749
#
# Velocity S-wave (km/s) = 3.81362 4.01329 3.91473
# Velocity P-wave (km/s) = 5.83762 6.46017 6.15677
#
# Compressibility (1/GPa) = 0.03414879
#
# Stress axis : x y z
#
# Youngs Moduli (GPa) = 39.13145 99.43389 78.90653
#
# Poissons Ratio (x) = 0.47944 -0.10854
# Poissons Ratio (y) = 0.18868 0.28580
# Poissons Ratio (z) = -0.05383 0.36015
#
# Static dielectric constant tensor:
#      x y z
#    x 3.563520 0.000000 -0.072140 
#    y 0.000000 3.751600 0.000000 
#    z -0.072140 0.000000 3.643300 
# 
# 
# High freq. dielectric constant tensor:
#      x y z
#    x 1.777970 0.000000 -0.002340 
#    y 0.000000 1.786820 0.000000 
#    z -0.002340 0.000000 1.786760 
# 
# From -- ./inp_files/244682.got.cif
#   From: 2010.06.25/outbox.cif.g09.slc.cpg/sg12_123_cif.got.tgz:244682.got - 2010.06.28 00:19:55.
