data_PCOD8109038
_publ_section_title
;
Structure prediction by ZEFSAII (Michael W. Deem and Ramdas Pophale) SiO2 
 PCOD8109038
Probable space group: C 2/M
;
_chemical_formula_sum "Si O2"
_cell_formula_units_Z 56
_cell_length_a 20.303926
_cell_length_b 8.786807
_cell_length_c 29.991694
_cell_angle_alpha 90.000000
_cell_angle_beta 33.683179
_cell_angle_gamma 90.000000
_cell_volume 2967.509335
_symmetry_space_group_name_H-M "C 2/M"
_symmetry_group_IT_number 12
_symmetry_cell_setting 'monoclinic'
loop_
_space_group_symop_operation_xyz
x,y,z
-x,y,-z
-x,-y,-z
x,-y,z
1/2+x,1/2+y,z
1/2-x,1/2+y,-z
1/2-x,1/2-y,-z
1/2+x,1/2-y,z
loop_
_atom_site_type_symbol
_atom_site_label
_atom_site_fract_x
_atom_site_fract_y
_atom_site_fract_z
Si Si1 0.297547 0.677612 0.259919
Si Si2 0.926083 0.178795 0.763181
Si Si3 0.046122 0.179162 0.907631
Si Si4 0.814940 0.180230 0.084797
Si Si5 0.151267 0.323045 0.677215
Si Si6 0.320097 0.322251 0.501140
Si Si7 0.556721 0.822625 0.343506
O O1 0.308188 0.500000 0.266408
O O2 0.407380 0.732767 0.166799
O O3 0.297551 0.779484 0.303646
O O4 0.177600 0.712003 0.300947
O O5 0.807114 0.232128 0.855534
O O6 0.937880 0.258938 0.709156
O O7 0.035161 0.223964 0.733115
O O8 0.924884 0.000000 0.756576
O O9 0.130729 0.242208 0.899246
O O10 0.058642 0.000000 0.904552
O O11 0.908564 0.225099 0.992879
O O12 0.790550 0.000000 0.099621
O O13 0.117353 0.500000 0.694708
O O14 0.253314 0.283373 0.584391
O O15 0.329387 0.500000 0.487007
O O16 0.250000 0.250000 0.500000
O O17 0.451472 0.253869 0.430793
O O18 0.530316 0.000000 0.354326
#
# Coordination Sequence:
#
# PCOD8109038 Si02
#       7
#     8   8   8   8   8   8   8
#     4  10  21  39  61  88 120 155 195 238 289 349
#     4  12  23  36  58  88 119 153 196 244 290 345
#     4   8  15  31  58  87 116 153 192 235 287 344
#     4   9  16  32  59  87 116 151 194 239 288 342
#     4  11  25  42  60  83 117 158 195 239 295 351
#     4  11  23  39  61  87 117 152 196 246 293 343
#     4  11  22  38  63  89 118 153 194 241 291 348
#
# _framework density 18.871044000000001
#
# number of rings (size 3 to 8) (size 9 to 14) (size 15 to 20)
#    0.000    1.714    2.857    3.429    0.000    3.429 
#    0.000    5.714    0.000    0.000    0.000    0.000 
#    0.000    0.000    0.000    0.000    0.000    0.000 
#
# Total GULP energy -347243.461334 kJ/mol
# GULP energy per Si atom -12401.552190 kJ/mol
# Density = 1.882809 g / cm^3
# Si number density = 18.871044 Si / 1000 Ang^3
#
#
#
# Elastic Constant Matrix: (Units=GPa)
#
#
# Indices 1 2 3 4 5 6 
#
# 1 68.8180 24.0233 39.5237 0.0074 8.6018 -0.0153
# 2 24.0233 61.1757 41.1426 0.0186 -0.4623 -0.0097
# 3 39.5237 41.1426 144.4010 -0.0005 -1.4899 -0.0026
# 4 0.0074 0.0186 -0.0005 29.7890 -0.0014 -2.2615
# 5 8.6018 -0.4623 -1.4899 -0.0014 31.7138 -0.0005
# 6 -0.0153 -0.0097 -0.0026 -2.2615 -0.0005 29.9230
#
#
#
# Elastic Compliance Matrix: (Units=1/GPa)
#
#
# Indices 1 2 3 4 5 6 
#
# 1 0.019179 -0.004954 -0.003894 -0.000001 -0.005457 0.000008
# 2 -0.004954 0.021501 -0.004755 -0.000012 0.001434 0.000003
# 3 -0.003894 -0.004755 0.009361 0.000004 0.001427 -0.000002
# 4 -0.000001 -0.000012 0.000004 0.033763 0.000002 0.002552
# 5 -0.005457 0.001434 0.001427 0.000002 0.033100 -0.000002
# 6 0.000008 0.000003 -0.000002 0.002552 -0.000002 0.033612
#
#
# Mechanical properties :
#
#
# Convention : Reuss Voigt Hill
#
# Bulk Modulus (GPa) = 43.79495 53.75266 48.77380
# Shear Modulus (GPa) = 26.97842 29.59882 28.28862
#
# Velocity S-wave (km/s) = 3.78513 3.96470 3.87596
# Velocity P-wave (km/s) = 6.50852 7.03594 6.77736
#
# Compressibility (1/GPa) = 0.02283368
#
# Stress axis : x y z
#
# Youngs Moduli (GPa) = 52.14023 46.51047 106.82989
#
# Poissons Ratio (x) = 0.23040 0.41604
# Poissons Ratio (y) = 0.25828 0.50801
# Poissons Ratio (z) = 0.20305 0.22117
#
# Static dielectric constant tensor:
#      x y z
#    x 3.296150 -0.000010 -0.030680 
#    y -0.000010 3.361840 0.000040 
#    z -0.030680 0.000040 4.072350 
# 
# 
# High freq. dielectric constant tensor:
#      x y z
#    x 1.715030 0.000000 -0.006140 
#    y 0.000000 1.723500 0.000000 
#    z -0.006140 0.000000 1.752870 
# 
# From -- ./inp_files/362942.got.cif
#   From: 2010.06.25/outbox.cif.g09.slc.cpg/sg12_182_cif.got.tgz:362942.got - 2010.06.28 00:19:55.
