data_PCOD8109399
_publ_section_title
;
Structure prediction by ZEFSAII (Michael W. Deem and Ramdas Pophale) SiO2 
 PCOD8109399
Probable space group: C 2/M
;
_chemical_formula_sum "Si O2"
_cell_formula_units_Z 48
_cell_length_a 23.402722
_cell_length_b 9.053072
_cell_length_c 11.845359
_cell_angle_alpha 90.000000
_cell_angle_beta 90.669848
_cell_angle_gamma 90.000000
_cell_volume 2509.463568
_symmetry_space_group_name_H-M "C 2/M"
_symmetry_group_IT_number 12
_symmetry_cell_setting 'monoclinic'
loop_
_space_group_symop_operation_xyz
x,y,z
-x,y,-z
-x,-y,-z
x,-y,z
1/2+x,1/2+y,z
1/2-x,1/2+y,-z
1/2-x,1/2-y,-z
1/2+x,1/2-y,z
loop_
_atom_site_type_symbol
_atom_site_label
_atom_site_fract_x
_atom_site_fract_y
_atom_site_fract_z
Si Si1 0.591785 0.331615 0.530904
Si Si2 0.954047 0.673166 0.905209
Si Si3 0.338402 0.327212 0.972273
Si Si4 0.224749 0.671985 0.837695
Si Si5 0.015258 0.168476 0.317155
Si Si6 0.206457 0.673429 0.582049
O O1 0.614049 0.500000 0.538885
O O2 0.545338 0.301534 0.626187
O O3 0.565556 0.301799 0.407391
O O4 0.642547 0.218019 0.549599
O O5 0.941882 0.500000 0.906211
O O6 0.895372 0.756600 0.925647
O O7 0.978981 0.719081 0.785194
O O8 0.000000 0.719223 0.000000
O O9 0.348182 0.500000 0.987220
O O10 0.288074 0.290667 0.882908
O O11 0.322935 0.260591 0.093675
O O12 0.210478 0.500000 0.851164
O O13 0.221102 0.724655 0.708971
O O14 0.018824 0.000000 0.273378
O O15 0.213409 0.500000 0.568738
O O16 0.250000 0.750000 0.500000
#
# Coordination Sequence:
#
# PCOD8109399 Si02
#       6
#     8   8   8   8   8   8
#     4   9  20  40  63  88 118 152 193 244 295 344
#     4  11  25  40  57  86 124 157 191 241 293 343
#     4  10  21  39  64  88 113 153 199 241 289 348
#     4   9  21  41  61  85 119 154 190 241 297 343
#     4   9  20  40  64  87 116 154 195 241 292 347
#     4  11  24  39  59  88 122 157 195 241 291 346
#
# _framework density 19.127594999999999
#
# number of rings (size 3 to 8) (size 9 to 14) (size 15 to 20)
#    0.000    2.167    0.000    2.500    4.667    4.667 
#    0.000    1.667    0.000    0.000    0.000    0.000 
#    0.000    0.000    0.000    0.000    0.000    0.000 
#
# Total GULP energy -297710.989364 kJ/mol
# GULP energy per Si atom -12404.624557 kJ/mol
# Density = 1.908406 g / cm^3
# Si number density = 19.127595 Si / 1000 Ang^3
#
#
#
# Elastic Constant Matrix: (Units=GPa)
#
#
# Indices 1 2 3 4 5 6 
#
# 1 94.8135 36.6501 49.3873 0.0000 -1.8376 0.0000
# 2 36.6501 58.4419 46.3092 0.0000 -3.6291 0.0000
# 3 49.3873 46.3092 135.3196 0.0000 -6.5294 0.0000
# 4 0.0000 0.0000 0.0000 36.0614 0.0000 -3.2241
# 5 -1.8376 -3.6291 -6.5294 0.0000 21.0125 0.0000
# 6 0.0000 0.0000 0.0000 -3.2241 0.0000 37.6557
#
#
#
# Elastic Compliance Matrix: (Units=1/GPa)
#
#
# Indices 1 2 3 4 5 6 
#
# 1 0.014801 -0.006890 -0.003085 0.000000 -0.000854 0.000000
# 2 -0.006890 0.026737 -0.006540 0.000000 0.001983 0.000000
# 3 -0.003085 -0.006540 0.010849 0.000000 0.001972 0.000000
# 4 0.000000 0.000000 0.000000 0.027944 0.000000 0.002393
# 5 -0.000854 0.001983 0.001972 0.000000 0.048471 0.000000
# 6 0.000000 0.000000 0.000000 0.002393 0.000000 0.026761
#
#
# Mechanical properties :
#
#
# Convention : Reuss Voigt Hill
#
# Bulk Modulus (GPa) = 51.66075 61.47424 56.56749
# Shear Modulus (GPa) = 25.63491 29.36114 27.49802
#
# Velocity S-wave (km/s) = 3.66485 3.92218 3.79570
# Velocity P-wave (km/s) = 6.70636 7.26086 6.98911
#
# Compressibility (1/GPa) = 0.01935706
#
# Stress axis : x y z
#
# Youngs Moduli (GPa) = 67.56341 37.40104 92.17466
#
# Poissons Ratio (x) = 0.25771 0.28436
# Poissons Ratio (y) = 0.46554 0.60278
# Poissons Ratio (z) = 0.20843 0.24459
#
# Static dielectric constant tensor:
#      x y z
#    x 3.508180 0.000000 0.037290 
#    y 0.000000 3.522360 0.000000 
#    z 0.037290 0.000000 3.617990 
# 
# 
# High freq. dielectric constant tensor:
#      x y z
#    x 1.750930 0.000000 -0.001490 
#    y 0.000000 1.746310 0.000000 
#    z -0.001490 0.000000 1.753150 
# 
# From -- ./inp_files/172283.got.cif
#   From: 2010.06.25/outbox.cif.g09.slc.cpg/sg12_87_cif.got.tgz:172283.got - 2010.06.28 00:19:55.
