data_PCOD8109180
_publ_section_title
;
Structure prediction by ZEFSAII (Michael W. Deem and Ramdas Pophale) SiO2 
 PCOD8109180
Probable space group: C 2/M
;
_chemical_formula_sum "Si O2"
_cell_formula_units_Z 48
_cell_length_a 14.727467
_cell_length_b 15.414582
_cell_length_c 29.481098
_cell_angle_alpha 90.000000
_cell_angle_beta 161.359963
_cell_angle_gamma 90.000000
_cell_volume 2139.141261
_symmetry_space_group_name_H-M "C 2/M"
_symmetry_group_IT_number 12
_symmetry_cell_setting 'monoclinic'
loop_
_space_group_symop_operation_xyz
x,y,z
-x,y,-z
-x,-y,-z
x,-y,z
1/2+x,1/2+y,z
1/2-x,1/2+y,-z
1/2-x,1/2-y,-z
1/2+x,1/2-y,z
loop_
_atom_site_type_symbol
_atom_site_label
_atom_site_fract_x
_atom_site_fract_y
_atom_site_fract_z
Si Si1 0.046899 0.782706 0.100481
Si Si2 0.192987 0.902203 0.347300
Si Si3 0.020139 0.784621 0.188635
Si Si4 0.238799 0.093726 0.780528
Si Si5 0.608824 0.634433 0.619765
Si Si6 0.041924 0.402434 0.302541
O O1 0.076819 0.678019 0.120415
O O2 0.284199 0.832672 0.183478
O O3 0.032125 0.825725 0.143601
O O4 0.740054 0.785804 0.930486
O O5 0.500000 0.857473 0.500000
O O6 0.996776 0.856814 0.216329
O O7 0.049813 0.896117 0.328257
O O8 0.233701 0.000000 0.349276
O O9 0.316779 0.735309 0.337997
O O10 0.161536 0.084769 0.691325
O O11 0.384239 0.000000 0.862686
O O12 0.816109 0.595860 0.679562
O O13 0.278725 0.625626 0.450970
O O14 0.930044 0.500000 0.260060
#
# Coordination Sequence:
#
# PCOD8109180 Si02
#       6
#     8   8   8   8   8   8
#     4  10  24  42  64  96 124 172 219 259 329 392
#     4  10  23  38  61  97 129 167 216 267 326 387
#     4  10  23  43  64  90 132 167 213 271 318 389
#     4  10  21  39  62  89 127 167 210 265 323 387
#     4  10  22  39  64  92 125 168 217 266 324 387
#     4  11  23  40  63  94 127 166 216 269 327 384
#
# _framework density 22.43891
#
# number of rings (size 3 to 8) (size 9 to 14) (size 15 to 20)
#    0.000    1.833    0.000    3.000    7.000    5.333 
#    0.000   10.833    0.000    0.000    0.000    0.000 
#    0.000    0.000    0.000    0.000    0.000    0.000 
#
# Total GULP energy -297423.679614 kJ/mol
# GULP energy per Si atom -12392.653317 kJ/mol
# Density = 2.238784 g / cm^3
# Si number density = 22.438910 Si / 1000 Ang^3
#
#
#
# Elastic Constant Matrix: (Units=GPa)
#
#
# Indices 1 2 3 4 5 6 
#
# 1 110.9484 39.7802 37.2303 0.0691 -2.5214 -0.0182
# 2 39.7802 97.9343 36.4929 -0.0082 -7.1400 0.0043
# 3 37.2303 36.4929 76.5867 0.0538 -2.1701 -0.0474
# 4 0.0691 -0.0082 0.0538 23.2091 -0.0143 1.5544
# 5 -2.5214 -7.1400 -2.1701 -0.0143 32.6235 0.0216
# 6 -0.0182 0.0043 -0.0474 1.5544 0.0216 20.8790
#
#
#
# Elastic Compliance Matrix: (Units=1/GPa)
#
#
# Indices 1 2 3 4 5 6 
#
# 1 0.011518 -0.003157 -0.004097 -0.000026 -0.000073 0.000003
# 2 -0.003157 0.013460 -0.004811 0.000028 0.002382 -0.000021
# 3 -0.004097 -0.004811 0.017335 -0.000032 -0.000217 0.000039
# 4 -0.000026 0.000028 -0.000032 0.043303 0.000023 -0.003224
# 5 -0.000073 0.002382 -0.000217 0.000023 0.031154 -0.000035
# 6 0.000003 -0.000021 0.000039 -0.003224 -0.000035 0.048135
#
#
# Mechanical properties :
#
#
# Convention : Reuss Voigt Hill
#
# Bulk Modulus (GPa) = 54.99836 56.94181 55.97008
# Shear Modulus (GPa) = 25.62828 26.80672 26.21750
#
# Velocity S-wave (km/s) = 3.38322 3.46013 3.42189
# Velocity P-wave (km/s) = 6.31071 6.43388 6.37259
#
# Compressibility (1/GPa) = 0.01818236
#
# Stress axis : x y z
#
# Youngs Moduli (GPa) = 86.81752 74.29490 57.68655
#
# Poissons Ratio (x) = 0.23458 0.23634
# Poissons Ratio (y) = 0.27412 0.27754
# Poissons Ratio (z) = 0.35568 0.35744
#
# Static dielectric constant tensor:
#      x y z
#    x 4.090360 0.000040 -0.027610 
#    y 0.000040 4.051980 -0.000200 
#    z -0.027610 -0.000200 4.011370 
# 
# 
# High freq. dielectric constant tensor:
#      x y z
#    x 1.894160 0.000010 -0.003490 
#    y 0.000010 1.877400 -0.000020 
#    z -0.003490 -0.000020 1.872160 
# 
# From -- ./inp_files/376643.got.cif
#   From: 2010.06.25/outbox.cif.g09.slc.cpg/sg12_189_cif.got.tgz:376643.got - 2010.06.28 00:19:55.
