data_PCOD8109466
_publ_section_title
;
Structure prediction by ZEFSAII (Michael W. Deem and Ramdas Pophale) SiO2 
 PCOD8109466
Probable space group: C 2/M
;
_chemical_formula_sum "Si O2"
_cell_formula_units_Z 36
_cell_length_a 9.039157
_cell_length_b 26.391520
_cell_length_c 7.304449
_cell_angle_alpha 90.000000
_cell_angle_beta 72.124633
_cell_angle_gamma 90.000000
_cell_volume 1658.410111
_symmetry_space_group_name_H-M "C 2/M"
_symmetry_group_IT_number 12
_symmetry_cell_setting 'monoclinic'
loop_
_space_group_symop_operation_xyz
x,y,z
-x,y,-z
-x,-y,-z
x,-y,z
1/2+x,1/2+y,z
1/2-x,1/2+y,-z
1/2-x,1/2-y,-z
1/2+x,1/2-y,z
loop_
_atom_site_type_symbol
_atom_site_label
_atom_site_fract_x
_atom_site_fract_y
_atom_site_fract_z
Si Si1 0.320611 0.500000 0.041786
Si Si2 0.806107 0.396050 0.885003
Si Si3 0.274816 0.682272 0.367464
Si Si4 0.669183 0.896522 0.699970
Si Si5 0.500000 0.743527 0.500000
Si Si6 0.682433 0.500000 0.380603
O O1 0.251150 0.450562 0.164510
O O2 0.500000 0.500000 0.000000
O O3 0.278102 0.500000 0.847065
O O4 0.707061 0.353425 0.816561
O O5 0.984475 0.393995 0.759550
O O6 0.774757 0.389722 0.112401
O O7 0.231851 0.650748 0.564241
O O8 0.437605 0.709831 0.352624
O O9 0.141623 0.722945 0.370476
O O10 0.735457 0.948257 0.581025
O O11 0.500000 0.500000 0.500000
#
# Coordination Sequence:
#
# PCOD8109466 Si02
#       6
#     4   8   8   8   4   4
#     4  10  23  37  56  92 132 160 204 252 301 373
#     4  10  21  40  64  90 127 165 210 250 305 378
#     4  11  22  43  65  91 124 165 209 264 321 366
#     4  10  21  39  64  93 123 170 207 248 308 378
#     4  10  24  42  64  92 126 156 214 278 314 366
#     4  10  23  37  58  94 134 163 200 251 307 369
#
# _framework density 21.707539000000001
#
# number of rings (size 3 to 8) (size 9 to 14) (size 15 to 20)
#    0.000    1.778    2.222    0.667    4.667    4.444 
#    0.000    8.889    0.000    0.000    0.000    0.000 
#    0.000    0.000    0.000    0.000    0.000    0.000 
#
# Total GULP energy -223179.553068 kJ/mol
# GULP energy per Si atom -12398.864059 kJ/mol
# Density = 2.165813 g / cm^3
# Si number density = 21.707539 Si / 1000 Ang^3
#
#
#
# Elastic Constant Matrix: (Units=GPa)
#
#
# Indices 1 2 3 4 5 6 
#
# 1 104.4863 69.2210 21.8690 0.0000 16.6656 0.0000
# 2 69.2210 166.1087 48.1843 0.0000 15.7617 0.0000
# 3 21.8690 48.1843 76.4285 0.0000 8.9122 0.0000
# 4 0.0000 0.0000 0.0000 14.3463 0.0000 30.4338
# 5 16.6656 15.7617 8.9122 0.0000 22.3701 0.0000
# 6 0.0000 0.0000 0.0000 30.4338 0.0000 -69.2216
#
#
#
# Elastic Compliance Matrix: (Units=1/GPa)
#
#
# Indices 1 2 3 4 5 6 
#
# 1 0.014133 -0.005260 0.000071 0.000000 -0.006851 0.000000
# 2 -0.005260 0.009597 -0.004419 0.000000 -0.001082 0.000000
# 3 0.000071 -0.004419 0.016248 0.000000 -0.003413 0.000000
# 4 0.000000 0.000000 0.000000 0.036066 0.000000 0.015857
# 5 -0.006851 -0.001082 -0.003413 0.000000 0.051929 0.000000
# 6 0.000000 0.000000 0.000000 0.015857 0.000000 -0.007475
#
#
# Mechanical properties :
#
#
# Convention : Reuss Voigt Hill
#
# Bulk Modulus (GPa) = 48.16543 69.50802 58.83673
# Shear Modulus (GPa) = 34.09836 7.34890 20.72363
#
# Velocity S-wave (km/s) = 3.96764 1.84195 3.09313
# Velocity P-wave (km/s) = 6.57465 6.05090 6.31821
#
# Compressibility (1/GPa) = 0.02076178
#
# Stress axis : x y z
#
# Youngs Moduli (GPa) = 70.75453 104.20237 61.54759
#
# Poissons Ratio (x) = 0.54812 -0.00438
# Poissons Ratio (y) = 0.37218 0.27197
# Poissons Ratio (z) = -0.00503 0.46046
#
# Static dielectric constant tensor:
#      x y z
#    x 3.993430 0.000000 0.133790 
#    y 0.000000 4.309660 0.000000 
#    z 0.133790 0.000000 3.591270 
# 
# 
# High freq. dielectric constant tensor:
#      x y z
#    x 1.859140 0.000000 0.009990 
#    y 0.000000 1.870990 0.000000 
#    z 0.009990 0.000000 1.831930 
# 
# From -- ./inp_files/39101.got.cif
#   From: 2010.06.25/outbox.cif.g09.slc.cpg/sg12_20_cif.got.tgz:39101.got - 2010.06.28 00:19:55.
