data_PCOD8109485
_publ_section_title
;
Structure prediction by ZEFSAII (Michael W. Deem and Ramdas Pophale) SiO2 
 PCOD8109485
Probable space group: C 2/M
;
_chemical_formula_sum "Si O2"
_cell_formula_units_Z 64
_cell_length_a 30.761132
_cell_length_b 8.788256
_cell_length_c 17.182299
_cell_angle_alpha 90.000000
_cell_angle_beta 137.081694
_cell_angle_gamma 90.000000
_cell_volume 3163.039551
_symmetry_space_group_name_H-M "C 2/M"
_symmetry_group_IT_number 12
_symmetry_cell_setting 'monoclinic'
loop_
_space_group_symop_operation_xyz
x,y,z
-x,y,-z
-x,-y,-z
x,-y,z
1/2+x,1/2+y,z
1/2-x,1/2+y,-z
1/2-x,1/2-y,-z
1/2+x,1/2-y,z
loop_
_atom_site_type_symbol
_atom_site_label
_atom_site_fract_x
_atom_site_fract_y
_atom_site_fract_z
Si Si1 0.584006 0.675164 0.185767
Si Si2 0.876281 0.323091 0.206898
Si Si3 0.637813 0.319681 0.527243
Si Si4 0.165291 0.324153 0.017284
Si Si5 0.791132 0.679050 0.239222
Si Si6 0.181570 0.678841 0.424903
Si Si7 0.503332 0.679863 0.417074
Si Si8 0.939402 0.824918 0.023168
O O1 0.600082 0.500000 0.226237
O O2 0.635814 0.783904 0.292635
O O3 0.586998 0.703860 0.097810
O O4 0.513996 0.716476 0.126220
O O5 0.890964 0.500000 0.234973
O O6 0.835433 0.262441 0.226457
O O7 0.943463 0.237456 0.289247
O O8 0.836677 0.288569 0.077091
O O9 0.641428 0.500000 0.524499
O O10 0.689922 0.265230 0.657597
O O11 0.650915 0.246145 0.461939
O O12 0.568131 0.262231 0.462320
O O13 0.181513 0.500000 0.053850
O O14 0.218234 0.218164 0.125453
O O15 0.097103 0.284381 0.965285
O O16 0.797760 0.500000 0.260796
O O17 0.189385 0.500000 0.443762
O O18 0.250000 0.750000 0.500000
O O19 0.500000 0.747287 0.500000
O O20 0.501488 0.500000 0.416841
O O21 0.928740 0.000000 0.032988
#
# Coordination Sequence:
#
# PCOD8109485 Si02
#       8
#     8   8   8   8   8   8   8   8
#     4   9  20  42  67  91 123 159 203 255 309 368
#     4  10  23  40  60  89 126 165 208 257 310 365
#     4  11  24  43  66  94 127 165 211 261 316 378
#     4  11  24  39  59  90 126 162 206 260 309 364
#     4  11  23  41  63  88 121 167 213 256 311 371
#     4  12  27  45  67  95 129 168 210 260 317 376
#     4  10  21  39  64  94 125 164 210 257 313 375
#     4   9  20  40  66  92 120 160 204 252 309 369
#
# _framework density 20.233702000000001
#
# number of rings (size 3 to 8) (size 9 to 14) (size 15 to 20)
#    0.000    1.625    1.250    3.375    3.500    3.750 
#    0.000    1.250    0.000    0.000    0.000    0.000 
#    0.000    0.000    0.000    0.000    0.000    0.000 
#
# Total GULP energy -396991.549766 kJ/mol
# GULP energy per Si atom -12405.985930 kJ/mol
# Density = 2.018765 g / cm^3
# Si number density = 20.233702 Si / 1000 Ang^3
#
#
#
# Elastic Constant Matrix: (Units=GPa)
#
#
# Indices 1 2 3 4 5 6 
#
# 1 91.1173 34.7341 24.3905 0.0000 6.4810 0.0000
# 2 34.7341 73.3832 32.2450 0.0000 1.7714 0.0000
# 3 24.3905 32.2450 100.6190 0.0000 10.0376 0.0000
# 4 0.0000 0.0000 0.0000 38.1059 0.0000 -0.7572
# 5 6.4810 1.7714 10.0376 0.0000 29.2070 0.0000
# 6 0.0000 0.0000 0.0000 -0.7572 0.0000 32.4449
#
#
#
# Elastic Compliance Matrix: (Units=1/GPa)
#
#
# Indices 1 2 3 4 5 6 
#
# 1 0.013710 -0.005905 -0.001204 0.000000 -0.002270 0.000000
# 2 -0.005905 0.018423 -0.004651 0.000000 0.001791 0.000000
# 3 -0.001204 -0.004651 0.012080 0.000000 -0.003602 0.000000
# 4 0.000000 0.000000 0.000000 0.026255 0.000000 0.000613
# 5 -0.002270 0.001791 -0.003602 0.000000 0.035871 0.000000
# 6 0.000000 0.000000 0.000000 0.000613 0.000000 0.030836
#
#
# Mechanical properties :
#
#
# Convention : Reuss Voigt Hill
#
# Bulk Modulus (GPa) = 48.32941 49.76208 49.04574
# Shear Modulus (GPa) = 29.83409 31.53486 30.68448
#
# Velocity S-wave (km/s) = 3.84406 3.95211 3.89846
# Velocity P-wave (km/s) = 6.60604 6.74334 6.67504
#
# Compressibility (1/GPa) = 0.02069134
#
# Stress axis : x y z
#
# Youngs Moduli (GPa) = 72.94047 54.28101 82.77924
#
# Poissons Ratio (x) = 0.32054 0.09970
# Poissons Ratio (y) = 0.43072 0.38502
# Poissons Ratio (z) = 0.08785 0.25247
#
# Static dielectric constant tensor:
#      x y z
#    x 3.820550 0.000000 0.014430 
#    y 0.000000 3.564810 0.000000 
#    z 0.014430 0.000000 3.652450 
# 
# 
# High freq. dielectric constant tensor:
#      x y z
#    x 1.799280 0.000000 0.000940 
#    y 0.000000 1.785810 0.000000 
#    z 0.000940 0.000000 1.799310 
# 
# From -- ./inp_files/295877.got.cif
#   From: 2010.06.25/outbox.cif.g09.slc.cpg/sg12_148_cif.got.tgz:295877.got - 2010.06.28 00:19:55.
