data_PCOD8109783
_publ_section_title
;
Structure prediction by ZEFSAII (Michael W. Deem and Ramdas Pophale) SiO2 
 PCOD8109783
Probable space group: C 2/M
;
_chemical_formula_sum "Si O2"
_cell_formula_units_Z 64
_cell_length_a 10.149054
_cell_length_b 14.745630
_cell_length_c 31.760678
_cell_angle_alpha 90.000000
_cell_angle_beta 136.891993
_cell_angle_gamma 90.000000
_cell_volume 3248.166325
_symmetry_space_group_name_H-M "C 2/M"
_symmetry_group_IT_number 12
_symmetry_cell_setting 'monoclinic'
loop_
_space_group_symop_operation_xyz
x,y,z
-x,y,-z
-x,-y,-z
x,-y,z
1/2+x,1/2+y,z
1/2-x,1/2+y,-z
1/2-x,1/2-y,-z
1/2+x,1/2-y,z
loop_
_atom_site_type_symbol
_atom_site_label
_atom_site_fract_x
_atom_site_fract_y
_atom_site_fract_z
Si Si1 0.066177 0.392207 0.970680
Si Si2 0.473568 0.248636 0.263000
Si Si3 0.591038 0.238353 0.655774
Si Si4 0.167043 0.394118 0.165116
Si Si5 0.127174 0.605077 0.828229
Si Si6 0.812353 0.104022 0.577077
Si Si7 0.023682 0.395934 0.437247
Si Si8 0.977875 0.107751 0.041231
O O1 0.074595 0.500000 0.972916
O O2 0.920263 0.361346 0.899914
O O3 0.000000 0.352842 0.000000
O O4 0.280350 0.352779 0.013925
O O5 0.407944 0.220593 0.294298
O O6 0.697100 0.273469 0.313773
O O7 0.355948 0.335502 0.218872
O O8 0.444914 0.160317 0.228249
O O9 0.506158 0.337811 0.626608
O O10 0.460907 0.164119 0.601262
O O11 0.226916 0.500000 0.177841
O O12 0.005809 0.376321 0.162546
O O13 0.122947 0.500000 0.814744
O O14 0.343403 0.638787 0.888560
O O15 0.660536 0.132000 0.577653
O O16 0.717552 0.119793 0.509319
O O17 0.874646 0.000000 0.597177
O O18 0.006698 0.500000 0.419397
O O19 0.972717 0.000000 0.037195
O O20 0.000000 0.149152 0.000000
#
# Coordination Sequence:
#
# PCOD8109783 Si02
#       8
#     8   8   8   8   8   8   8   8
#     4   9  17  31  56  89 116 143 190 250 310 366
#     4  12  26  40  59  89 123 161 212 249 281 355
#     4  12  23  40  61  89 126 163 199 249 297 342
#     4  10  21  41  64  83 117 163 200 246 305 363
#     4  10  21  40  63  85 117 159 201 250 304 360
#     4   9  19  38  66  95 122 159 202 242 296 362
#     4   9  19  38  65  96 125 155 199 249 297 354
#     4   9  15  29  58  86 106 143 195 243 301 365
#
# _framework density 19.703423000000001
#
# number of rings (size 3 to 8) (size 9 to 14) (size 15 to 20)
#    0.000    2.000    3.750    1.125    0.000    3.000 
#    0.000    2.500    0.000    1.500    0.000    0.000 
#    0.000    0.000    0.000    0.000    0.000    0.000 
#
# Total GULP energy -396826.645169 kJ/mol
# GULP energy per Si atom -12400.832662 kJ/mol
# Density = 1.965858 g / cm^3
# Si number density = 19.703423 Si / 1000 Ang^3
#
#
#
# Elastic Constant Matrix: (Units=GPa)
#
#
# Indices 1 2 3 4 5 6 
#
# 1 90.9886 30.1372 46.0673 0.0000 0.2155 0.0000
# 2 30.1372 78.1174 51.4767 0.0000 -6.0566 0.0000
# 3 46.0673 51.4767 114.7419 0.0000 -10.9337 0.0000
# 4 0.0000 0.0000 0.0000 -13.4797 0.0000 11.6918
# 5 0.2155 -6.0566 -10.9337 0.0000 39.4164 0.0000
# 6 0.0000 0.0000 0.0000 11.6918 0.0000 19.6548
#
#
#
# Elastic Compliance Matrix: (Units=1/GPa)
#
#
# Indices 1 2 3 4 5 6 
#
# 1 0.014233 -0.002487 -0.004768 0.000000 -0.001783 0.000000
# 2 -0.002487 0.018620 -0.007273 0.000000 0.000857 0.000000
# 3 -0.004768 -0.007273 0.014163 0.000000 0.002837 0.000000
# 4 0.000000 0.000000 0.000000 -0.048936 0.000000 0.029110
# 5 -0.001783 0.000857 0.002837 0.000000 0.026299 0.000000
# 6 0.000000 0.000000 0.000000 0.029110 0.000000 0.033562
#
#
# Mechanical properties :
#
#
# Convention : Reuss Voigt Hill
#
# Bulk Modulus (GPa) = 55.68421 59.91225 57.79823
# Shear Modulus (GPa) = 53.77335 19.52941 36.65138
#
# Velocity S-wave (km/s) = 5.22978 3.15170 4.31763
# Velocity P-wave (km/s) = 8.04923 6.61191 7.36571
#
# Compressibility (1/GPa) = 0.01795841
#
# Stress axis : x y z
#
# Youngs Moduli (GPa) = 70.26169 53.70566 70.60625
#
# Poissons Ratio (x) = 0.13356 0.33668
# Poissons Ratio (y) = 0.17473 0.51355
# Poissons Ratio (z) = 0.33503 0.39062
#
# Static dielectric constant tensor:
#      x y z
#    x 3.598640 0.000000 -0.008880 
#    y 0.000000 3.378470 0.000000 
#    z -0.008880 0.000000 3.675770 
# 
# 
# High freq. dielectric constant tensor:
#      x y z
#    x 1.758950 0.000000 -0.001600 
#    y 0.000000 1.760520 0.000000 
#    z -0.001600 0.000000 1.778470 
# 
# From -- ./inp_files/372611.got.cif
#   From: 2010.06.25/outbox.cif.g09.slc.cpg/sg12_187_cif.got.tgz:372611.got - 2010.06.28 00:19:55.
