data_PCOD8109409
_publ_section_title
;
Structure prediction by ZEFSAII (Michael W. Deem and Ramdas Pophale) SiO2 
 PCOD8109409
Probable space group: C 2/M
;
_chemical_formula_sum "Si O2"
_cell_formula_units_Z 48
_cell_length_a 27.932882
_cell_length_b 8.799142
_cell_length_c 15.536205
_cell_angle_alpha 90.000000
_cell_angle_beta 141.591984
_cell_angle_gamma 90.000000
_cell_volume 2372.316356
_symmetry_space_group_name_H-M "C 2/M"
_symmetry_group_IT_number 12
_symmetry_cell_setting 'monoclinic'
loop_
_space_group_symop_operation_xyz
x,y,z
-x,y,-z
-x,-y,-z
x,-y,z
1/2+x,1/2+y,z
1/2-x,1/2+y,-z
1/2-x,1/2-y,-z
1/2+x,1/2-y,z
loop_
_atom_site_type_symbol
_atom_site_label
_atom_site_fract_x
_atom_site_fract_y
_atom_site_fract_z
Si Si1 0.345478 0.675753 0.562465
Si Si2 0.772807 0.178165 0.122161
Si Si3 0.693629 0.676004 0.298956
Si Si4 0.518285 0.321815 0.762351
Si Si5 0.430957 0.820581 0.341869
Si Si6 0.132815 0.677560 0.047965
O O1 0.325811 0.500000 0.518082
O O2 0.343356 0.712007 0.660733
O O3 0.283144 0.775308 0.423675
O O4 0.428644 0.720135 0.643245
O O5 0.853433 0.245439 0.269204
O O6 0.709484 0.220450 0.103520
O O7 0.781210 0.000000 0.120901
O O8 0.750000 0.250000 0.000000
O O9 0.688091 0.500000 0.266519
O O10 0.644328 0.773131 0.162362
O O11 0.530592 0.500000 0.765307
O O12 0.555113 0.230841 0.735744
O O13 0.560639 0.270002 0.908837
O O14 0.500000 0.764694 0.500000
O O15 0.421159 0.000000 0.329529
O O16 0.114229 0.500000 0.016789
#
# Coordination Sequence:
#
# PCOD8109409 Si02
#       6
#     8   8   8   8   8   8
#     4   9  21  41  62  89 122 155 196 247 297 352
#     4  11  23  40  63  87 119 160 200 246 294 349
#     4  10  21  39  64  90 119 157 199 242 296 357
#     4  11  23  40  63  88 119 157 199 246 297 352
#     4  11  25  42  60  88 124 157 197 246 296 354
#     4  11  24  40  60  89 123 156 199 247 294 351
#
# _framework density 20.233388999999999
#
# number of rings (size 3 to 8) (size 9 to 14) (size 15 to 20)
#    0.000    1.500    1.667    2.500    2.333    6.000 
#    0.000    3.333    0.000    0.000    0.000    0.000 
#    0.000    0.000    0.000    0.000    0.000    0.000 
#
# Total GULP energy -297772.356162 kJ/mol
# GULP energy per Si atom -12407.181507 kJ/mol
# Density = 2.018734 g / cm^3
# Si number density = 20.233389 Si / 1000 Ang^3
#
#
#
# Elastic Constant Matrix: (Units=GPa)
#
#
# Indices 1 2 3 4 5 6 
#
# 1 32.2126 10.1047 -5.3004 0.0000 4.4678 0.0000
# 2 10.1047 58.2595 17.6196 0.0000 4.9941 0.0000
# 3 -5.3004 17.6196 81.0451 0.0000 -2.7922 0.0000
# 4 0.0000 0.0000 0.0000 40.6728 0.0000 1.0699
# 5 4.4678 4.9941 -2.7922 0.0000 33.2165 0.0000
# 6 0.0000 0.0000 0.0000 1.0699 0.0000 29.8335
#
#
#
# Elastic Compliance Matrix: (Units=1/GPa)
#
#
# Indices 1 2 3 4 5 6 
#
# 1 0.034203 -0.006736 0.003588 0.000000 -0.003286 0.000000
# 2 -0.006736 0.020025 -0.004881 0.000000 -0.002515 0.000000
# 3 0.003588 -0.004881 0.013683 0.000000 0.001401 0.000000
# 4 0.000000 0.000000 0.000000 0.024610 0.000000 -0.000883
# 5 -0.003286 -0.002515 0.001401 0.000000 0.031043 0.000000
# 6 0.000000 0.000000 0.000000 -0.000883 0.000000 0.033551
#
#
# Mechanical properties :
#
#
# Convention : Reuss Voigt Hill
#
# Bulk Modulus (GPa) = 19.28503 24.04054 21.66279
# Shear Modulus (GPa) = 26.25287 30.68412 28.46850
#
# Velocity S-wave (km/s) = 3.60599 3.89846 3.75508
# Velocity P-wave (km/s) = 5.18552 5.67199 5.43420
#
# Compressibility (1/GPa) = 0.05185369
#
# Stress axis : x y z
#
# Youngs Moduli (GPa) = 29.23731 49.93881 73.08439
#
# Poissons Ratio (x) = 0.33637 -0.26223
# Poissons Ratio (y) = 0.19693 0.35669
# Poissons Ratio (z) = -0.10491 0.24373
#
# Static dielectric constant tensor:
#      x y z
#    x 3.727990 0.000000 0.136340 
#    y 0.000000 3.696910 0.000000 
#    z 0.136340 0.000000 3.816490 
# 
# 
# High freq. dielectric constant tensor:
#      x y z
#    x 1.788430 0.000000 0.003030 
#    y 0.000000 1.799120 0.000000 
#    z 0.003030 0.000000 1.801500 
# 
# From -- ./inp_files/244877.got.cif
#   From: 2010.06.25/outbox.cif.g09.slc.cpg/sg12_123_cif.got.tgz:244877.got - 2010.06.28 00:19:55.
