data_PCOD8109523
_publ_section_title
;
Structure prediction by ZEFSAII (Michael W. Deem and Ramdas Pophale) SiO2 
 PCOD8109523
Probable space group: C 2/M
;
_chemical_formula_sum "Si O2"
_cell_formula_units_Z 64
_cell_length_a 19.475720
_cell_length_b 8.883675
_cell_length_c 31.107769
_cell_angle_alpha 90.000000
_cell_angle_beta 143.453617
_cell_angle_gamma 90.000000
_cell_volume 3204.921333
_symmetry_space_group_name_H-M "C 2/M"
_symmetry_group_IT_number 12
_symmetry_cell_setting 'monoclinic'
loop_
_space_group_symop_operation_xyz
x,y,z
-x,y,-z
-x,-y,-z
x,-y,z
1/2+x,1/2+y,z
1/2-x,1/2+y,-z
1/2-x,1/2-y,-z
1/2+x,1/2-y,z
loop_
_atom_site_type_symbol
_atom_site_label
_atom_site_fract_x
_atom_site_fract_y
_atom_site_fract_z
Si Si1 0.925048 0.323297 0.830943
Si Si2 0.015612 0.671621 0.380328
Si Si3 0.332986 0.176610 0.622187
Si Si4 0.770650 0.327281 0.216796
Si Si5 0.206451 0.329012 0.869141
Si Si6 0.848422 0.173075 0.021832
Si Si7 0.429248 0.677864 0.505267
Si Si8 0.472658 0.323246 0.767494
O O1 0.944043 0.500000 0.837093
O O2 0.807426 0.286919 0.796110
O O3 0.911353 0.256016 0.776666
O O4 0.030564 0.253206 0.910229
O O5 0.021533 0.500000 0.398757
O O6 0.125435 0.710810 0.405548
O O7 0.011677 0.771899 0.420872
O O8 0.902539 0.703004 0.295379
O O9 0.202531 0.235257 0.562351
O O10 0.413745 0.268944 0.694418
O O11 0.345448 0.000000 0.638827
O O12 0.734990 0.500000 0.208350
O O13 0.753054 0.286985 0.158096
O O14 0.157616 0.500000 0.845727
O O15 0.107231 0.217857 0.835479
O O16 0.316540 0.312422 0.955545
O O17 0.859355 0.000000 0.041645
O O18 0.750000 0.250000 0.000000
O O19 0.500000 0.743706 0.500000
O O20 0.431966 0.500000 0.505356
O O21 0.457951 0.500000 0.764900
#
# Coordination Sequence:
#
# PCOD8109523 Si02
#       8
#     8   8   8   8   8   8   8   8
#     4  12  26  42  61  88 127 169 207 260 320 369
#     4  10  21  39  65  90 121 164 205 253 305 368
#     4  10  21  41  64  88 124 168 208 249 309 372
#     4  10  22  42  64  91 125 162 208 256 311 375
#     4  10  21  41  67  91 125 165 203 252 314 375
#     4  11  22  38  64  94 123 165 211 257 312 371
#     4  10  23  40  60  91 127 163 205 254 306 366
#     4  12  24  38  63  95 124 158 211 265 306 368
#
# _framework density 19.969289
#
# number of rings (size 3 to 8) (size 9 to 14) (size 15 to 20)
#    0.000    1.375    2.500    3.000    1.750    3.250 
#    0.000    2.500    0.000    0.000    0.000    0.000 
#    0.000    0.000    0.000    0.000    0.000    0.000 
#
# Total GULP energy -396969.694129 kJ/mol
# GULP energy per Si atom -12405.302942 kJ/mol
# Density = 1.992384 g / cm^3
# Si number density = 19.969289 Si / 1000 Ang^3
#
#
#
# Elastic Constant Matrix: (Units=GPa)
#
#
# Indices 1 2 3 4 5 6 
#
# 1 128.7439 40.5219 35.8525 0.0001 -3.7772 0.0000
# 2 40.5219 93.5922 26.2042 0.0002 -2.9840 -0.0004
# 3 35.8525 26.2042 73.0177 0.0000 -8.3448 -0.0001
# 4 0.0001 0.0002 0.0000 29.9056 0.0000 0.0116
# 5 -3.7772 -2.9840 -8.3448 0.0000 36.1799 0.0001
# 6 0.0000 -0.0004 -0.0001 0.0116 0.0001 30.9205
#
#
#
# Elastic Compliance Matrix: (Units=1/GPa)
#
#
# Indices 1 2 3 4 5 6 
#
# 1 0.009799 -0.003219 -0.003666 0.000000 -0.000088 0.000000
# 2 -0.003219 0.012936 -0.003059 0.000000 0.000025 0.000000
# 3 -0.003666 -0.003059 0.016968 0.000000 0.003279 0.000000
# 4 0.000000 0.000000 0.000000 0.033439 0.000000 -0.000013
# 5 -0.000088 0.000025 0.003279 0.000000 0.028389 0.000000
# 6 0.000000 0.000000 0.000000 -0.000013 0.000000 0.032341
#
#
# Mechanical properties :
#
#
# Convention : Reuss Voigt Hill
#
# Bulk Modulus (GPa) = 50.46836 55.61234 53.04035
# Shear Modulus (GPa) = 31.17919 32.25289 31.71604
#
# Velocity S-wave (km/s) = 3.95569 4.02322 3.98960
# Velocity P-wave (km/s) = 6.79641 7.03499 6.91673
#
# Compressibility (1/GPa) = 0.01981440
#
# Stress axis : x y z
#
# Youngs Moduli (GPa) = 102.05246 77.30651 58.93475
#
# Poissons Ratio (x) = 0.24884 0.21607
# Poissons Ratio (y) = 0.32849 0.18027
# Poissons Ratio (z) = 0.37415 0.23647
#
# Static dielectric constant tensor:
#      x y z
#    x 3.723990 0.000000 -0.078140 
#    y 0.000000 3.618370 0.000000 
#    z -0.078140 0.000000 3.680280 
# 
# 
# High freq. dielectric constant tensor:
#      x y z
#    x 1.785170 0.000000 -0.007000 
#    y 0.000000 1.773070 0.000000 
#    z -0.007000 0.000000 1.787020 
# 
# From -- ./inp_files/378406.got.cif
#   From: 2010.06.25/outbox.cif.g09.slc.cpg/sg12_190_cif.got.tgz:378406.got - 2010.06.28 00:19:55.
