data_PCOD8109868
_publ_section_title
;
Structure prediction by ZEFSAII (Michael W. Deem and Ramdas Pophale) SiO2 
 PCOD8109868
Probable space group: C 2/M
;
_chemical_formula_sum "Si O2"
_cell_formula_units_Z 64
_cell_length_a 19.141672
_cell_length_b 8.745345
_cell_length_c 30.435251
_cell_angle_alpha 90.000000
_cell_angle_beta 38.676435
_cell_angle_gamma 90.000000
_cell_volume 3183.898810
_symmetry_space_group_name_H-M "C 2/M"
_symmetry_group_IT_number 12
_symmetry_cell_setting 'monoclinic'
loop_
_space_group_symop_operation_xyz
x,y,z
-x,y,-z
-x,-y,-z
x,-y,z
1/2+x,1/2+y,z
1/2-x,1/2+y,-z
1/2-x,1/2-y,-z
1/2+x,1/2-y,z
loop_
_atom_site_type_symbol
_atom_site_label
_atom_site_fract_x
_atom_site_fract_y
_atom_site_fract_z
Si Si1 0.715555 0.677539 0.718376
Si Si2 0.781864 0.180486 0.438122
Si Si3 0.625630 0.181315 0.436639
Si Si4 0.258793 0.320662 0.786860
Si Si5 0.870320 0.180399 0.068603
Si Si6 0.775185 0.678753 0.941256
Si Si7 0.986099 0.672978 0.697182
Si Si8 0.494319 0.171772 0.212116
O O1 0.723921 0.500000 0.727232
O O2 0.819772 0.728604 0.636720
O O3 0.703874 0.781678 0.767062
O O4 0.603796 0.705824 0.745117
O O5 0.750000 0.250000 0.500000
O O6 0.698765 0.247020 0.441300
O O7 0.907749 0.224375 0.365286
O O8 0.771539 0.000000 0.445820
O O9 0.500000 0.249339 0.500000
O O10 0.623083 0.000000 0.441956
O O11 0.274703 0.500000 0.784906
O O12 0.178414 0.260753 0.864455
O O13 0.378767 0.239884 0.725676
O O14 0.806045 0.243349 0.057051
O O15 0.852439 0.000000 0.083293
O O16 0.000000 0.223775 0.000000
O O17 0.755208 0.500000 0.954104
O O18 0.903217 0.720445 0.868801
O O19 0.750000 0.750000 0.000000
O O20 0.007365 0.500000 0.670059
O O21 0.958465 0.677030 0.762004
O O22 0.451848 0.000000 0.221961
#
# Coordination Sequence:
#
# PCOD8109868 Si02
#       8
#     8   8   8   8   8   8   8   8
#     4  11  23  40  65  92 123 165 211 255 311 374
#     4  11  23  40  63  95 128 165 213 261 314 374
#     4   9  20  39  61  88 123 163 208 253 302 367
#     4  12  26  42  63  94 129 163 209 263 314 375
#     4  10  22  43  66  90 124 167 212 255 308 376
#     4  10  22  40  61  91 124 161 205 254 309 370
#     4  11  22  42  68  90 122 167 211 263 320 370
#     4  10  21  40  64  89 124 160 204 261 315 366
#
# _framework density 20.101143
#
# number of rings (size 3 to 8) (size 9 to 14) (size 15 to 20)
#    0.000    1.500    2.500    2.250    3.500    1.750 
#    0.000    0.000    0.000    3.000    0.000    0.000 
#    0.000    0.000    0.000    0.000    0.000    0.000 
#
# Total GULP energy -396907.343845 kJ/mol
# GULP energy per Si atom -12403.354495 kJ/mol
# Density = 2.005539 g / cm^3
# Si number density = 20.101143 Si / 1000 Ang^3
#
#
#
# Elastic Constant Matrix: (Units=GPa)
#
#
# Indices 1 2 3 4 5 6 
#
# 1 91.9940 29.8025 41.0520 0.0024 4.8793 -0.0049
# 2 29.8025 58.4366 39.2596 0.0052 1.6489 0.0073
# 3 41.0520 39.2596 126.3633 0.0008 8.4708 0.0007
# 4 0.0024 0.0052 0.0008 34.1917 0.0002 1.6017
# 5 4.8793 1.6489 8.4708 0.0002 37.4292 0.0030
# 6 -0.0049 0.0073 0.0007 1.6017 0.0030 29.6642
#
#
#
# Elastic Compliance Matrix: (Units=1/GPa)
#
#
# Indices 1 2 3 4 5 6 
#
# 1 0.013850 -0.005126 -0.002844 0.000000 -0.000936 0.000004
# 2 -0.005126 0.023536 -0.005709 -0.000003 0.000923 -0.000006
# 3 -0.002844 -0.005709 0.010732 0.000001 -0.001807 0.000001
# 4 0.000000 -0.000003 0.000001 0.029321 0.000000 -0.001583
# 5 -0.000936 0.000923 -0.001807 0.000000 0.027207 -0.000003
# 6 0.000004 -0.000006 0.000001 -0.001583 -0.000003 0.033796
#
#
# Mechanical properties :
#
#
# Convention : Reuss Voigt Hill
#
# Bulk Modulus (GPa) = 48.16932 55.22469 51.69701
# Shear Modulus (GPa) = 28.94831 31.36899 30.15865
#
# Velocity S-wave (km/s) = 3.79902 3.95467 3.87763
# Velocity P-wave (km/s) = 6.57715 6.95598 6.76922
#
# Compressibility (1/GPa) = 0.02076010
#
# Stress axis : x y z
#
# Youngs Moduli (GPa) = 72.20352 42.48743 93.17523
#
# Poissons Ratio (x) = 0.21780 0.26499
# Poissons Ratio (y) = 0.37013 0.53194
# Poissons Ratio (z) = 0.20535 0.24256
#
# Static dielectric constant tensor:
#      x y z
#    x 3.693290 -0.000120 0.149530 
#    y -0.000120 3.113720 0.000750 
#    z 0.149530 0.000750 2.781370 
# 
# 
# High freq. dielectric constant tensor:
#      x y z
#    x 1.794710 0.000000 0.000000 
#    y 0.000000 1.769080 0.000000 
#    z 0.000000 0.000000 1.797630 
# 
# From -- ./inp_files/377975.got.cif
#   From: 2010.06.25/outbox.cif.g09.slc.cpg/sg12_189_cif.got.tgz:377975.got - 2010.06.28 00:19:55.
