data_PCOD8109551
_publ_section_title
;
Structure prediction by ZEFSAII (Michael W. Deem and Ramdas Pophale) SiO2 
 PCOD8109551
Probable space group: C 2/M
;
_chemical_formula_sum "Si O2"
_cell_formula_units_Z 64
_cell_length_a 17.297311
_cell_length_b 14.271143
_cell_length_c 16.274482
_cell_angle_alpha 90.000000
_cell_angle_beta 129.566049
_cell_angle_gamma 90.000000
_cell_volume 3096.972854
_symmetry_space_group_name_H-M "C 2/M"
_symmetry_group_IT_number 12
_symmetry_cell_setting 'monoclinic'
loop_
_space_group_symop_operation_xyz
x,y,z
-x,y,-z
-x,-y,-z
x,-y,z
1/2+x,1/2+y,z
1/2-x,1/2+y,-z
1/2-x,1/2-y,-z
1/2+x,1/2-y,z
loop_
_atom_site_type_symbol
_atom_site_label
_atom_site_fract_x
_atom_site_fract_y
_atom_site_fract_z
Si Si1 0.957585 0.109932 0.554750
Si Si2 0.249064 0.390832 0.005029
Si Si3 0.043001 0.888413 0.783156
Si Si4 0.534579 0.895833 0.930576
Si Si5 0.234347 0.110001 0.170924
Si Si6 0.399142 0.722307 0.799356
Si Si7 0.782753 0.234436 0.432353
Si Si8 0.117952 0.602277 0.585349
O O1 0.841081 0.136232 0.473598
O O2 0.000000 0.155863 0.500000
O O3 0.016957 0.150264 0.674223
O O4 0.969060 0.000000 0.561334
O O5 0.265809 0.500000 0.012405
O O6 0.242576 0.353876 0.906300
O O7 0.150952 0.367099 0.993267
O O8 0.348137 0.347507 0.116129
O O9 0.955246 0.856793 0.785161
O O10 0.042316 0.000000 0.783017
O O11 0.471279 0.810688 0.853863
O O12 0.516329 0.000000 0.877346
O O13 0.500000 0.905593 0.000000
O O14 0.141202 0.172029 0.144515
O O15 0.335333 0.126664 0.293028
O O16 0.203318 0.000000 0.150028
O O17 0.306459 0.769746 0.691642
O O18 0.750000 0.250000 0.500000
O O19 0.853339 0.322039 0.461854
O O20 0.161460 0.500000 0.589719
O O21 0.000000 0.598145 0.500000
#
# Coordination Sequence:
#
# PCOD8109551 Si02
#       8
#     8   8   8   8   8   8   8   8
#     4  10  22  41  64  88 120 164 211 256 303 363
#     4   9  20  40  65  91 121 157 201 254 306 362
#     4  10  21  39  65  94 123 157 202 258 317 369
#     4  10  24  45  62  83 123 166 206 249 292 356
#     4   9  19  37  62  95 128 156 197 255 312 370
#     4  11  23  38  61  92 123 163 202 248 313 366
#     4  11  22  38  56  87 123 155 200 252 305 359
#     4   9  19  36  59  86 120 162 201 246 306 363
#
# _framework density 20.665341999999999
#
# number of rings (size 3 to 8) (size 9 to 14) (size 15 to 20)
#    0.000    2.125    1.250    0.750    1.750    4.000 
#    4.500    5.625    0.000    0.000    0.000    0.000 
#    0.000    0.000    0.000    0.000    0.000    0.000 
#
# Total GULP energy -396460.794733 kJ/mol
# GULP energy per Si atom -12389.399835 kJ/mol
# Density = 2.061831 g / cm^3
# Si number density = 20.665342 Si / 1000 Ang^3
#
#
#
# Elastic Constant Matrix: (Units=GPa)
#
#
# Indices 1 2 3 4 5 6 
#
# 1 145.5824 24.5548 72.6481 0.0000 -6.3750 0.0000
# 2 24.5548 43.7548 33.9452 0.0000 4.7528 0.0000
# 3 72.6481 33.9452 117.0740 0.0000 1.3419 0.0000
# 4 0.0000 0.0000 0.0000 20.6238 0.0000 -1.9078
# 5 -6.3750 4.7528 1.3419 0.0000 38.4359 0.0000
# 6 0.0000 0.0000 0.0000 -1.9078 0.0000 -18.3936
#
#
#
# Elastic Compliance Matrix: (Units=1/GPa)
#
#
# Indices 1 2 3 4 5 6 
#
# 1 0.010143 -0.001308 -0.005938 0.000000 0.002051 0.000000
# 2 -0.001308 0.030094 -0.007872 0.000000 -0.003663 0.000000
# 3 -0.005938 -0.007872 0.014515 0.000000 -0.000518 0.000000
# 4 0.000000 0.000000 0.000000 0.048027 0.000000 -0.004981
# 5 0.002051 -0.003663 -0.000518 0.000000 0.026829 0.000000
# 6 0.000000 0.000000 0.000000 -0.004981 0.000000 -0.053850
#
#
# Mechanical properties :
#
#
# Convention : Reuss Voigt Hill
#
# Bulk Modulus (GPa) = 40.79123 63.18971 51.99047
# Shear Modulus (GPa) = 43.79662 19.81743 31.80703
#
# Velocity S-wave (km/s) = 4.60861 3.10008 3.92745
# Velocity P-wave (km/s) = 6.93548 6.59227 6.76605
#
# Compressibility (1/GPa) = 0.02451507
#
# Stress axis : x y z
#
# Youngs Moduli (GPa) = 98.59405 33.22957 68.89543
#
# Poissons Ratio (x) = 0.04346 0.40911
# Poissons Ratio (y) = 0.12896 0.54234
# Poissons Ratio (z) = 0.58546 0.26158
#
# Static dielectric constant tensor:
#      x y z
#    x 3.969400 0.000000 -0.063650 
#    y 0.000000 2.012580 0.000000 
#    z -0.063650 0.000000 3.966770 
# 
# 
# High freq. dielectric constant tensor:
#      x y z
#    x 1.813220 0.000000 0.001250 
#    y 0.000000 1.813000 0.000000 
#    z 0.001250 0.000000 1.807160 
# 
# From -- ./inp_files/225740.got.cif
#   From: 2010.06.25/outbox.cif.g09.slc.cpg/sg12_113_cif.got.tgz:225740.got - 2010.06.28 00:19:55.
