data_PCOD8109145
_publ_section_title
;
Structure prediction by ZEFSAII (Michael W. Deem and Ramdas Pophale) SiO2 
 PCOD8109145
Probable space group: C 2/M
;
_chemical_formula_sum "Si O2"
_cell_formula_units_Z 48
_cell_length_a 18.998648
_cell_length_b 8.881489
_cell_length_c 30.127886
_cell_angle_alpha 90.000000
_cell_angle_beta 28.410030
_cell_angle_gamma 90.000000
_cell_volume 2418.698124
_symmetry_space_group_name_H-M "C 2/M"
_symmetry_group_IT_number 12
_symmetry_cell_setting 'monoclinic'
loop_
_space_group_symop_operation_xyz
x,y,z
-x,y,-z
-x,-y,-z
x,-y,z
1/2+x,1/2+y,z
1/2-x,1/2+y,-z
1/2-x,1/2-y,-z
1/2+x,1/2-y,z
loop_
_atom_site_type_symbol
_atom_site_label
_atom_site_fract_x
_atom_site_fract_y
_atom_site_fract_z
Si Si1 0.833577 0.321034 0.087057
Si Si2 0.816794 0.824036 0.739354
Si Si3 0.876811 0.322496 0.457812
Si Si4 0.179077 0.822279 0.082440
Si Si5 0.168253 0.665945 0.418521
Si Si6 0.627521 0.826364 0.760070
O O1 0.839311 0.500000 0.083664
O O2 0.735902 0.266240 0.183123
O O3 0.760007 0.261633 0.082176
O O4 0.000000 0.256231 0.000000
O O5 0.683877 0.791105 0.778518
O O6 0.962270 0.736526 0.644371
O O7 0.855383 0.000000 0.718598
O O8 0.880556 0.500000 0.449760
O O9 0.750000 0.250000 0.500000
O O10 0.826970 0.274157 0.534318
O O11 0.008119 0.778594 0.178243
O O12 0.197156 0.000000 0.069243
O O13 0.250000 0.750000 0.000000
O O14 0.244276 0.500000 0.371377
O O15 0.242523 0.790060 0.346325
O O16 0.000000 0.647762 0.500000
O O17 0.580672 0.000000 0.781787
#
# Coordination Sequence:
#
# PCOD8109145 Si02
#       6
#     8   8   8   8   8   8
#     4   9  19  38  63  87 115 153 196 239 291 356
#     4  10  21  39  62  88 118 158 204 247 298 357
#     4  11  24  40  60  86 121 161 202 251 302 356
#     4  11  23  40  64  91 121 155 197 247 303 365
#     4  10  21  40  62  85 119 163 206 245 298 359
#     4  11  23  38  62  92 123 156 200 254 301 354
#
# _framework density 19.845386000000001
#
# number of rings (size 3 to 8) (size 9 to 14) (size 15 to 20)
#    0.000    1.667    1.667    2.500    2.333    5.000 
#    0.000    0.833    0.000    3.500    0.000    0.000 
#    0.000    0.000    0.000    0.000    0.000    0.000 
#
# Total GULP energy -297609.119095 kJ/mol
# GULP energy per Si atom -12400.379962 kJ/mol
# Density = 1.980022 g / cm^3
# Si number density = 19.845386 Si / 1000 Ang^3
#
#
#
# Elastic Constant Matrix: (Units=GPa)
#
#
# Indices 1 2 3 4 5 6 
#
# 1 168.7896 49.2377 53.2717 -0.0009 14.3698 0.0051
# 2 49.2377 54.8914 39.7238 -0.0016 6.8211 0.0054
# 3 53.2717 39.7238 90.3242 -0.0015 9.5878 0.0010
# 4 -0.0009 -0.0016 -0.0015 39.2357 -0.0004 -7.3699
# 5 14.3698 6.8211 9.5878 -0.0004 38.3715 -0.0012
# 6 0.0051 0.0054 0.0010 -7.3699 -0.0012 47.2501
#
#
#
# Elastic Compliance Matrix: (Units=1/GPa)
#
#
# Indices 1 2 3 4 5 6 
#
# 1 0.008454 -0.005721 -0.002303 0.000000 -0.001574 0.000000
# 2 -0.005721 0.030725 -0.010053 0.000000 -0.000807 -0.000003
# 3 -0.002303 -0.010053 0.017021 0.000000 -0.001603 0.000001
# 4 0.000000 0.000000 0.000000 0.026256 0.000000 0.004095
# 5 -0.001574 -0.000807 -0.001603 0.000000 0.027194 0.000001
# 6 0.000000 -0.000003 0.000001 0.004095 0.000001 0.021803
#
#
# Mechanical properties :
#
#
# Convention : Reuss Voigt Hill
#
# Bulk Modulus (GPa) = 49.88453 66.49686 58.19070
# Shear Modulus (GPa) = 28.68791 36.42293 32.55542
#
# Velocity S-wave (km/s) = 3.80619 4.28873 4.05464
# Velocity P-wave (km/s) = 6.67138 7.62263 7.16281
#
# Compressibility (1/GPa) = 0.02004629
#
# Stress axis : x y z
#
# Youngs Moduli (GPa) = 118.28262 32.54673 58.75197
#
# Poissons Ratio (x) = 0.18621 0.13530
# Poissons Ratio (y) = 0.67674 0.59061
# Poissons Ratio (z) = 0.27240 0.32718
#
# Static dielectric constant tensor:
#      x y z
#    x 3.957240 0.000000 -0.003450 
#    y 0.000000 3.388330 0.000000 
#    z -0.003450 0.000000 3.586930 
# 
# 
# High freq. dielectric constant tensor:
#      x y z
#    x 1.792780 0.000000 0.003170 
#    y 0.000000 1.756910 0.000000 
#    z 0.003170 0.000000 1.783260 
# 
# From -- ./inp_files/244842.got.cif
#   From: 2010.06.25/outbox.cif.g09.slc.cpg/sg12_123_cif.got.tgz:244842.got - 2010.06.28 00:19:55.
