data_PCOD8109835
_publ_section_title
;
Structure prediction by ZEFSAII (Michael W. Deem and Ramdas Pophale) SiO2 
 PCOD8109835
Probable space group: C 2/M
;
_chemical_formula_sum "Si O2"
_cell_formula_units_Z 40
_cell_length_a 24.645747
_cell_length_b 9.608723
_cell_length_c 23.583852
_cell_angle_alpha 90.000000
_cell_angle_beta 159.204061
_cell_angle_gamma 90.000000
_cell_volume 1982.898779
_symmetry_space_group_name_H-M "C 2/M"
_symmetry_group_IT_number 12
_symmetry_cell_setting 'monoclinic'
loop_
_space_group_symop_operation_xyz
x,y,z
-x,y,-z
-x,-y,-z
x,-y,z
1/2+x,1/2+y,z
1/2-x,1/2+y,-z
1/2-x,1/2-y,-z
1/2+x,1/2-y,z
loop_
_atom_site_type_symbol
_atom_site_label
_atom_site_fract_x
_atom_site_fract_y
_atom_site_fract_z
Si Si1 0.167179 0.500000 0.137797
Si Si2 0.839824 0.235733 0.368599
Si Si3 0.095857 0.000000 0.935032
Si Si4 0.526639 0.000000 0.884378
Si Si5 0.622472 0.500000 0.171485
Si Si6 0.177078 0.000000 0.561669
Si Si7 0.041249 0.000000 0.746071
Si Si8 0.225776 0.722174 0.040369
O O1 0.256968 0.638984 0.241768
O O2 0.153620 0.500000 0.057606
O O3 0.000000 0.500000 0.000000
O O4 0.729079 0.364358 0.273906
O O5 0.877342 0.140983 0.460371
O O6 0.000000 0.291881 0.500000
O O7 0.035176 0.000000 0.809420
O O8 0.204498 0.866819 0.053426
O O9 0.959327 0.000000 0.846939
O O10 0.358582 0.000000 0.743747
O O11 0.564702 0.861319 0.886373
O O12 0.500000 0.500000 0.000000
O O13 0.126964 0.000000 0.446529
O O14 0.125843 0.131665 0.799138
O O15 0.250000 0.750000 0.000000
#
# Coordination Sequence:
#
# PCOD8109835 Si02
#       8
#     4   8   4   4   4   4   4   8
#     4  11  21  39  66  93 118 162 219 261 300 363
#     4  11  25  41  61  95 129 161 207 263 316 366
#     4  10  21  40  63  94 126 163 211 256 301 378
#     4  11  21  36  67  89 122 156 218 254 299 364
#     4  12  27  42  64  88 132 173 207 247 315 381
#     4  11  22  40  67  94 121 160 208 263 311 363
#     4   9  21  40  66  93 124 161 205 259 316 358
#     4   9  20  38  62  90 121 158 207 254 299 366
#
# _framework density 20.172487
#
# number of rings (size 3 to 8) (size 9 to 14) (size 15 to 20)
#    0.000    1.600    2.000    3.900    8.400    0.000 
#    0.000   10.000    0.000    0.000    0.000    0.000 
#    0.000    0.000    0.000    0.000    0.000    0.000 
#
# Total GULP energy -247762.884926 kJ/mol
# GULP energy per Si atom -12388.144246 kJ/mol
# Density = 2.012657 g / cm^3
# Si number density = 20.172487 Si / 1000 Ang^3
#
#
#
# Elastic Constant Matrix: (Units=GPa)
#
#
# Indices 1 2 3 4 5 6 
#
# 1 119.2132 49.1945 55.6392 0.0002 14.1771 -0.0003
# 2 49.1945 165.7257 43.2043 0.0011 13.5345 -0.0021
# 3 55.6392 43.2043 96.9332 -0.0009 -0.0111 0.0041
# 4 0.0002 0.0011 -0.0009 97.9817 -0.0010 -233.3557
# 5 14.1771 13.5345 -0.0111 -0.0010 40.3471 0.0036
# 6 -0.0003 -0.0021 0.0041 -233.3557 0.0036 862.6725
#
#
#
# Elastic Compliance Matrix: (Units=1/GPa)
#
#
# Indices 1 2 3 4 5 6 
#
# 1 0.012567 -0.001739 -0.006439 0.000000 -0.003834 0.000000
# 2 -0.001739 0.007287 -0.002250 0.000000 -0.001834 0.000000
# 3 -0.006439 -0.002250 0.015015 0.000000 0.003021 0.000000
# 4 0.000000 0.000000 0.000000 0.028688 0.000000 0.007760
# 5 -0.003834 -0.001834 0.003021 0.000000 0.026748 0.000000
# 6 0.000000 0.000000 0.000000 0.007760 0.000000 0.003258
#
#
# Mechanical properties :
#
#
# Convention : Reuss Voigt Hill
#
# Bulk Modulus (GPa) = 71.35726 75.32756 73.34241
# Shear Modulus (GPa) = 41.98536 215.78921 128.88728
#
# Velocity S-wave (km/s) = 4.56710 10.35395 8.00196
# Velocity P-wave (km/s) = 7.95371 13.42989 11.03683
#
# Compressibility (1/GPa) = 0.01401399
#
# Stress axis : x y z
#
# Youngs Moduli (GPa) = 79.57400 137.24010 66.59826
#
# Poissons Ratio (x) = 0.23862 0.42882
# Poissons Ratio (y) = 0.13835 0.14984
# Poissons Ratio (z) = 0.51236 0.30878
#
# Static dielectric constant tensor:
#      x y z
#    x 3.815170 0.000000 0.174910 
#    y 0.000000 3.142200 0.000010 
#    z 0.174910 0.000010 3.887040 
# 
# 
# High freq. dielectric constant tensor:
#      x y z
#    x 1.798760 0.000000 0.017150 
#    y 0.000000 1.800600 0.000000 
#    z 0.017150 0.000000 1.768780 
# 
# From -- ./inp_files/368961.got.cif
#   From: 2010.06.25/outbox.cif.g09.slc.cpg/sg12_185_cif.got.tgz:368961.got - 2010.06.28 00:19:55.
