data_PCOD8109337
_publ_section_title
;
Structure prediction by ZEFSAII (Michael W. Deem and Ramdas Pophale) SiO2 
 PCOD8109337
Probable space group: C 2/M
;
_chemical_formula_sum "Si O2"
_cell_formula_units_Z 44
_cell_length_a 13.113651
_cell_length_b 21.911213
_cell_length_c 7.800889
_cell_angle_alpha 90.000000
_cell_angle_beta 90.059161
_cell_angle_gamma 90.000000
_cell_volume 2241.475049
_symmetry_space_group_name_H-M "C 2/M"
_symmetry_group_IT_number 12
_symmetry_cell_setting 'monoclinic'
loop_
_space_group_symop_operation_xyz
x,y,z
-x,y,-z
-x,-y,-z
x,-y,z
1/2+x,1/2+y,z
1/2-x,1/2+y,-z
1/2-x,1/2-y,-z
1/2+x,1/2-y,z
loop_
_atom_site_type_symbol
_atom_site_label
_atom_site_fract_x
_atom_site_fract_y
_atom_site_fract_z
Si Si1 0.000000 0.854240 0.000000
Si Si2 0.333304 0.731420 0.132417
Si Si3 0.734996 0.129953 0.340774
Si Si4 0.447753 0.570856 0.327192
Si Si5 0.414024 0.834395 0.375298
Si Si6 0.958124 0.569924 0.809998
O O1 0.903741 0.810468 0.014206
O O2 0.003402 0.895594 0.169821
O O3 0.280258 0.694297 0.283178
O O4 0.391911 0.788293 0.219133
O O5 0.250000 0.750000 0.000000
O O6 0.826719 0.081485 0.345266
O O7 0.688117 0.144927 0.526590
O O8 0.650413 0.104131 0.208791
O O9 0.500000 0.595480 0.500000
O O10 0.468572 0.500000 0.299562
O O11 0.500000 0.803792 0.500000
O O12 0.458939 0.898031 0.308774
O O13 0.945834 0.500000 0.751162
O O14 0.000000 0.574874 0.000000
#
# Coordination Sequence:
#
# PCOD8109337 Si02
#       6
#     4   8   8   8   8   8
#     4  10  25  40  62  92 123 164 204 264 306 368
#     4  11  24  38  62  87 122 163 203 251 306 371
#     4  10  22  39  60  92 121 159 203 254 307 374
#     4  10  22  42  66  90 124 164 209 259 310 371
#     4  10  23  38  62  89 126 160 204 255 316 375
#     4  10  21  39  63  91 125 160 202 256 313 374
#
# _framework density 19.629930999999999
#
# number of rings (size 3 to 8) (size 9 to 14) (size 15 to 20)
#    0.000    1.818    0.000    2.455    8.909    6.909 
#    0.000    0.000    0.000    0.000    0.000    0.000 
#    0.000    0.000    0.000    0.000    0.000    0.000 
#
# Total GULP energy -272773.764394 kJ/mol
# GULP energy per Si atom -12398.807472 kJ/mol
# Density = 1.958525 g / cm^3
# Si number density = 19.629931 Si / 1000 Ang^3
#
#
#
# Elastic Constant Matrix: (Units=GPa)
#
#
# Indices 1 2 3 4 5 6 
#
# 1 115.0069 43.4678 58.6827 0.0000 -12.8446 0.0000
# 2 43.4678 97.0685 46.4603 0.0000 0.6601 0.0000
# 3 58.6827 46.4603 119.1613 0.0000 1.8399 0.0000
# 4 0.0000 0.0000 0.0000 -61.5126 0.0000 25.7984
# 5 -12.8446 0.6601 1.8399 0.0000 41.2769 0.0000
# 6 0.0000 0.0000 0.0000 25.7984 0.0000 13.9272
#
#
#
# Elastic Compliance Matrix: (Units=1/GPa)
#
#
# Indices 1 2 3 4 5 6 
#
# 1 0.013129 -0.003420 -0.005200 0.000000 0.004372 0.000000
# 2 -0.003420 0.013557 -0.003584 0.000000 -0.001121 0.000000
# 3 -0.005200 -0.003584 0.012383 0.000000 -0.002113 0.000000
# 4 0.000000 0.000000 0.000000 -0.009149 0.000000 0.016947
# 5 0.004372 -0.001121 -0.002113 0.000000 0.025699 0.000000
# 6 0.000000 0.000000 0.000000 0.016947 0.000000 0.040409
#
#
# Mechanical properties :
#
#
# Convention : Reuss Voigt Hill
#
# Bulk Modulus (GPa) = 68.20966 69.82870 69.01918
# Shear Modulus (GPa) = 39.89708 10.91338 25.40523
#
# Velocity S-wave (km/s) = 4.51317 2.36043 3.60141
# Velocity P-wave (km/s) = 7.87284 6.56343 7.24776
#
# Compressibility (1/GPa) = 0.01466068
#
# Stress axis : x y z
#
# Youngs Moduli (GPa) = 76.16528 73.76429 80.75842
#
# Poissons Ratio (x) = 0.25230 0.41992
# Poissons Ratio (y) = 0.26051 0.28943
# Poissons Ratio (z) = 0.39603 0.26437
#
# Static dielectric constant tensor:
#      x y z
#    x 3.704580 0.000000 0.082710 
#    y 0.000000 3.708660 0.000000 
#    z 0.082710 0.000000 3.584160 
# 
# 
# High freq. dielectric constant tensor:
#      x y z
#    x 1.774200 0.000000 -0.002450 
#    y 0.000000 1.773430 0.000000 
#    z -0.002450 0.000000 1.770570 
# 
# From -- ./inp_files/49389.got.cif
#   From: 2010.06.25/outbox.cif.g09.slc.cpg/sg12_25_cif.got.tgz:49389.got - 2010.06.28 00:19:55.
