data_PCOD8109032
_publ_section_title
;
Structure prediction by ZEFSAII (Michael W. Deem and Ramdas Pophale) SiO2 
 PCOD8109032
Probable space group: C 2/M
;
_chemical_formula_sum "Si O2"
_cell_formula_units_Z 64
_cell_length_a 17.730136
_cell_length_b 14.089021
_cell_length_c 16.677086
_cell_angle_alpha 90.000000
_cell_angle_beta 50.062795
_cell_angle_gamma 90.000000
_cell_volume 3194.228401
_symmetry_space_group_name_H-M "C 2/M"
_symmetry_group_IT_number 12
_symmetry_cell_setting 'monoclinic'
loop_
_space_group_symop_operation_xyz
x,y,z
-x,y,-z
-x,-y,-z
x,-y,z
1/2+x,1/2+y,z
1/2-x,1/2+y,-z
1/2-x,1/2-y,-z
1/2+x,1/2-y,z
loop_
_atom_site_type_symbol
_atom_site_label
_atom_site_fract_x
_atom_site_fract_y
_atom_site_fract_z
Si Si1 0.081372 0.240584 0.744771
Si Si2 0.561416 0.109940 0.625330
Si Si3 0.285547 0.300567 0.055987
Si Si4 0.398573 0.172099 0.098955
Si Si5 0.736110 0.892072 0.383025
Si Si6 0.693773 0.397397 0.242656
Si Si7 0.862162 0.307686 0.703604
Si Si8 0.403360 0.603269 0.856777
O O1 0.081713 0.339039 0.695892
O O2 0.081232 0.261895 0.838596
O O3 0.174683 0.177426 0.657357
O O4 0.983825 0.183754 0.787831
O O5 0.657809 0.120594 0.506546
O O6 0.474334 0.161294 0.636134
O O7 0.535018 0.000000 0.659861
O O8 0.362760 0.238361 0.051817
O O9 0.194496 0.329800 0.174481
O O10 0.250000 0.250000 0.000000
O O11 0.347009 0.390416 0.980589
O O12 0.311455 0.098215 0.178115
O O13 0.500000 0.121966 0.000000
O O14 0.687301 0.869260 0.331399
O O15 0.774964 0.000000 0.353389
O O16 0.651301 0.500000 0.302459
O O17 0.644948 0.304686 0.317406
O O18 0.676752 0.385273 0.159381
O O19 0.454202 0.500000 0.818094
#
# Coordination Sequence:
#
# PCOD8109032 Si02
#       8
#     8   8   8   8   8   8   8   8
#     4  12  22  42  63  91 130 167 199 256 320 382
#     4  11  25  43  67  94 121 161 214 265 321 385
#     4  11  19  38  59  86 125 167 211 247 294 371
#     4  11  22  36  62  91 128 168 207 252 307 364
#     4  11  24  43  66  95 123 158 212 271 326 373
#     4  10  21  39  61  87 124 170 214 249 294 366
#     4  11  21  41  67  90 126 166 208 266 320 362
#     4  11  22  37  62  91 124 170 211 249 300 373
#
# _framework density 20.036137
#
# number of rings (size 3 to 8) (size 9 to 14) (size 15 to 20)
#    0.000    1.000    7.500    1.500    0.000    2.750 
#    0.000    1.875    0.000    2.250    0.000    0.000 
#    0.000    0.000    0.000    0.000    0.000    0.000 
#
# Total GULP energy -396662.703495 kJ/mol
# GULP energy per Si atom -12395.709484 kJ/mol
# Density = 1.999053 g / cm^3
# Si number density = 20.036137 Si / 1000 Ang^3
#
#
#
# Elastic Constant Matrix: (Units=GPa)
#
#
# Indices 1 2 3 4 5 6 
#
# 1 101.7972 42.3805 23.1690 0.0000 -6.8487 0.0000
# 2 42.3805 128.1977 39.2831 0.0000 -9.0754 0.0000
# 3 23.1690 39.2831 63.7116 0.0000 -1.6527 0.0000
# 4 0.0000 0.0000 0.0000 25.9321 0.0000 0.0325
# 5 -6.8487 -9.0754 -1.6527 0.0000 33.0587 0.0000
# 6 0.0000 0.0000 0.0000 0.0325 0.0000 25.1014
#
#
#
# Elastic Compliance Matrix: (Units=1/GPa)
#
#
# Indices 1 2 3 4 5 6 
#
# 1 0.011728 -0.003055 -0.002343 0.000000 0.001474 0.000000
# 2 -0.003055 0.010599 -0.005372 0.000000 0.002008 0.000000
# 3 -0.002343 -0.005372 0.019835 0.000000 -0.000969 0.000000
# 4 0.000000 0.000000 0.000000 0.038562 0.000000 -0.000050
# 5 0.001474 0.002008 -0.000969 0.000000 0.031057 0.000000
# 6 0.000000 0.000000 0.000000 -0.000050 0.000000 0.039839
#
#
# Mechanical properties :
#
#
# Convention : Reuss Voigt Hill
#
# Bulk Modulus (GPa) = 48.49265 55.93020 52.21142
# Shear Modulus (GPa) = 27.77274 29.41001 28.59138
#
# Velocity S-wave (km/s) = 3.72712 3.83541 3.78165
# Velocity P-wave (km/s) = 6.54041 6.89848 6.72183
#
# Compressibility (1/GPa) = 0.02062168
#
# Stress axis : x y z
#
# Youngs Moduli (GPa) = 85.26865 94.35260 50.41624
#
# Poissons Ratio (x) = 0.28822 0.11813
# Poissons Ratio (y) = 0.26047 0.27083
# Poissons Ratio (z) = 0.19980 0.50685
#
# Static dielectric constant tensor:
#      x y z
#    x 3.755850 0.000000 -0.089320 
#    y 0.000000 3.831810 0.000000 
#    z -0.089320 0.000000 3.641610 
# 
# 
# High freq. dielectric constant tensor:
#      x y z
#    x 1.795220 0.000000 -0.003260 
#    y 0.000000 1.782120 0.000000 
#    z -0.003260 0.000000 1.767870 
# 
# From -- ./inp_files/225674.got.cif
#   From: 2010.06.25/outbox.cif.g09.slc.cpg/sg12_113_cif.got.tgz:225674.got - 2010.06.28 00:19:55.
