data_PCOD8109631
_publ_section_title
;
Structure prediction by ZEFSAII (Michael W. Deem and Ramdas Pophale) SiO2 
 PCOD8109631
Probable space group: C 2/M
;
_chemical_formula_sum "Si O2"
_cell_formula_units_Z 64
_cell_length_a 18.265134
_cell_length_b 18.104673
_cell_length_c 13.841706
_cell_angle_alpha 90.000000
_cell_angle_beta 40.216463
_cell_angle_gamma 90.000000
_cell_volume 2955.415653
_symmetry_space_group_name_H-M "C 2/M"
_symmetry_group_IT_number 12
_symmetry_cell_setting 'monoclinic'
loop_
_space_group_symop_operation_xyz
x,y,z
-x,y,-z
-x,-y,-z
x,-y,z
1/2+x,1/2+y,z
1/2-x,1/2+y,-z
1/2-x,1/2-y,-z
1/2+x,1/2-y,z
loop_
_atom_site_type_symbol
_atom_site_label
_atom_site_fract_x
_atom_site_fract_y
_atom_site_fract_z
Si Si1 0.490063 0.419073 0.697109
Si Si2 0.157115 0.642011 0.618990
Si Si3 0.265272 0.345903 0.866672
Si Si4 0.207238 0.082265 0.361550
Si Si5 0.409641 0.088799 0.811413
Si Si6 0.242405 0.317586 0.166689
Si Si7 0.806495 0.204202 0.310646
Si Si8 0.517612 0.387827 0.083422
O O1 0.457705 0.500000 0.689630
O O2 0.388433 0.362919 0.785029
O O3 0.595255 0.387287 0.529485
O O4 0.519600 0.429137 0.781166
O O5 0.193018 0.579088 0.659078
O O6 0.175842 0.717555 0.658156
O O7 0.242826 0.645005 0.442583
O O8 0.031637 0.624368 0.709433
O O9 0.259748 0.364489 0.759035
O O10 0.248014 0.258945 0.902151
O O11 0.170785 0.393861 0.016577
O O12 0.187831 0.000000 0.340886
O O13 0.361588 0.130988 0.764952
O O14 0.416166 0.000000 0.787931
O O15 0.229148 0.295491 0.292167
O O16 0.353227 0.364955 0.032958
O O17 0.933750 0.181395 0.154617
O O18 0.500000 0.434205 0.000000
#
# Coordination Sequence:
#
# PCOD8109631 Si02
#       8
#     8   8   8   8   8   8   8   8
#     4  11  23  40  65  96 129 166 214 277 338 391
#     4  11  23  42  68  95 135 172 227 268 330 406
#     4  12  24  42  66  98 131 176 224 282 333 399
#     4  11  23  42  65  95 131 172 220 277 338 398
#     4  12  27  44  66 100 143 186 221 272 346 420
#     4  11  24  43  69 101 131 174 226 275 336 402
#     4  10  22  43  68 100 124 171 223 287 327 386
#     4  10  21  39  67  96 127 158 216 275 329 382
#
# _framework density 21.655161
#
# number of rings (size 3 to 8) (size 9 to 14) (size 15 to 20)
#    0.000    1.000    3.750    3.000    1.750    2.250 
#    2.250    5.000    0.000    0.000    0.000    0.000 
#    0.000    0.000    0.000    0.000    0.000    0.000 
#
# Total GULP energy -396579.926945 kJ/mol
# GULP energy per Si atom -12393.122717 kJ/mol
# Density = 2.160587 g / cm^3
# Si number density = 21.655161 Si / 1000 Ang^3
#
#
#
# Elastic Constant Matrix: (Units=GPa)
#
#
# Indices 1 2 3 4 5 6 
#
# 1 151.1346 44.2445 45.0450 0.0000 -5.0855 0.0000
# 2 44.2445 99.1472 23.5047 0.0000 -1.0381 0.0000
# 3 45.0450 23.5047 73.0476 -0.0001 -9.9062 0.0001
# 4 0.0000 0.0000 -0.0001 -0.4710 0.0001 20.0118
# 5 -5.0855 -1.0381 -9.9062 0.0001 42.0549 -0.0001
# 6 0.0000 0.0000 0.0001 20.0118 -0.0001 -9.2485
#
#
#
# Elastic Compliance Matrix: (Units=1/GPa)
#
#
# Indices 1 2 3 4 5 6 
#
# 1 0.008796 -0.002856 -0.004515 0.000000 -0.000070 0.000000
# 2 -0.002856 0.011860 -0.002130 0.000000 -0.000554 0.000000
# 3 -0.004515 -0.002130 0.017642 0.000000 0.003557 0.000000
# 4 0.000000 0.000000 0.000000 0.023348 0.000000 0.050520
# 5 -0.000070 -0.000554 0.003557 0.000000 0.024594 0.000000
# 6 0.000000 0.000000 0.000000 0.050520 0.000000 0.001189
#
#
# Mechanical properties :
#
#
# Convention : Reuss Voigt Hill
#
# Bulk Modulus (GPa) = 51.82493 60.99086 56.40789
# Shear Modulus (GPa) = 44.30217 20.50275 32.40246
#
# Velocity S-wave (km/s) = 4.52796 3.08032 3.87239
# Velocity P-wave (km/s) = 7.16383 6.39351 6.78960
#
# Compressibility (1/GPa) = 0.01929573
#
# Stress axis : x y z
#
# Youngs Moduli (GPa) = 113.69076 84.32018 56.68442
#
# Poissons Ratio (x) = 0.24078 0.25591
# Poissons Ratio (y) = 0.32465 0.12076
# Poissons Ratio (z) = 0.51327 0.17963
#
# Static dielectric constant tensor:
#      x y z
#    x 4.148780 0.000000 0.217640 
#    y 0.000000 3.699680 0.000000 
#    z 0.217640 0.000000 3.953210 
# 
# 
# High freq. dielectric constant tensor:
#      x y z
#    x 1.869580 0.000000 0.011270 
#    y 0.000000 1.841820 0.000000 
#    z 0.011270 0.000000 1.851780 
# 
# From -- ./inp_files/226838.got.cif
#   From: 2010.06.25/outbox.cif.g09.slc.cpg/sg12_114_cif.got.tgz:226838.got - 2010.06.28 00:19:55.
