data_PCOD8109290
_publ_section_title
;
Structure prediction by ZEFSAII (Michael W. Deem and Ramdas Pophale) SiO2 
 PCOD8109290
Probable space group: C 2/M
;
_chemical_formula_sum "Si O2"
_cell_formula_units_Z 48
_cell_length_a 19.506963
_cell_length_b 8.803398
_cell_length_c 30.204096
_cell_angle_alpha 90.000000
_cell_angle_beta 152.835141
_cell_angle_gamma 90.000000
_cell_volume 2368.080223
_symmetry_space_group_name_H-M "C 2/M"
_symmetry_group_IT_number 12
_symmetry_cell_setting 'monoclinic'
loop_
_space_group_symop_operation_xyz
x,y,z
-x,y,-z
-x,-y,-z
x,-y,z
1/2+x,1/2+y,z
1/2-x,1/2+y,-z
1/2-x,1/2-y,-z
1/2+x,1/2-y,z
loop_
_atom_site_type_symbol
_atom_site_label
_atom_site_fract_x
_atom_site_fract_y
_atom_site_fract_z
Si Si1 0.547344 0.820549 0.978490
Si Si2 0.714358 0.677979 0.227250
Si Si3 0.849521 0.324194 0.720606
Si Si4 0.989594 0.824112 0.634915
Si Si5 0.281383 0.824656 0.583280
Si Si6 0.196227 0.677947 0.923775
O O1 0.430169 0.762749 0.874920
O O2 0.558662 0.000000 0.980931
O O3 0.500000 0.767449 0.000000
O O4 0.709904 0.748817 0.062699
O O5 0.689902 0.500000 0.208475
O O6 0.730733 0.723989 0.288049
O O7 0.861403 0.725655 0.284831
O O8 0.827837 0.500000 0.720862
O O9 0.769761 0.285025 0.628362
O O10 0.023841 0.282076 0.816160
O O11 0.880011 0.789316 0.530749
O O12 0.909124 0.777916 0.634246
O O13 0.034882 0.000000 0.663244
O O14 0.326777 0.000000 0.602028
O O15 0.225542 0.500000 0.942633
O O16 0.250000 0.750000 0.000000
#
# Coordination Sequence:
#
# PCOD8109290 Si02
#       6
#     8   8   8   8   8   8
#     4  11  25  43  62  88 122 157 199 247 297 353
#     4  12  25  40  61  88 121 158 201 247 296 355
#     4  10  22  40  62  88 120 158 201 245 295 352
#     4  10  21  39  63  89 123 158 195 247 301 353
#     4   9  20  40  64  91 119 156 201 244 297 358
#     4  11  22  38  62  89 122 160 197 242 292 350
#
# _framework density 20.269583999999998
#
# number of rings (size 3 to 8) (size 9 to 14) (size 15 to 20)
#    0.000    1.500    1.667    3.000    2.333    4.000 
#    0.000    3.333    0.000    0.000    0.000    0.000 
#    0.000    0.000    0.000    0.000    0.000    0.000 
#
# Total GULP energy -297760.231073 kJ/mol
# GULP energy per Si atom -12406.676295 kJ/mol
# Density = 2.022345 g / cm^3
# Si number density = 20.269584 Si / 1000 Ang^3
#
#
#
# Elastic Constant Matrix: (Units=GPa)
#
#
# Indices 1 2 3 4 5 6 
#
# 1 78.1535 24.3447 -1.1235 -0.0013 -0.2457 0.0000
# 2 24.3447 65.8695 9.2933 -0.0007 4.9981 -0.0003
# 3 -1.1235 9.2933 35.3727 -0.0022 0.9853 0.0002
# 4 -0.0013 -0.0007 -0.0022 26.5198 0.0003 6.1258
# 5 -0.2457 4.9981 0.9853 0.0003 35.7984 -0.0001
# 6 0.0000 -0.0003 0.0002 6.1258 -0.0001 39.7752
#
#
#
# Elastic Compliance Matrix: (Units=1/GPa)
#
#
# Indices 1 2 3 4 5 6 
#
# 1 0.014614 -0.005741 0.001949 0.000001 0.000848 0.000000
# 2 -0.005741 0.018178 -0.004890 0.000000 -0.002443 0.000000
# 3 0.001949 -0.004890 0.029620 0.000002 -0.000119 -0.000001
# 4 0.000001 0.000000 0.000002 0.039099 0.000000 -0.006022
# 5 0.000848 -0.002443 -0.000119 0.000000 0.028284 0.000000
# 6 0.000000 0.000000 -0.000001 -0.006022 0.000000 0.026069
#
#
# Mechanical properties :
#
#
# Convention : Reuss Voigt Hill
#
# Bulk Modulus (GPa) = 22.19806 27.15829 24.67817
# Shear Modulus (GPa) = 26.56110 30.21075 28.38592
#
# Velocity S-wave (km/s) = 3.62386 3.86482 3.74628
# Velocity P-wave (km/s) = 5.33713 5.77437 5.56005
#
# Compressibility (1/GPa) = 0.04504898
#
# Stress axis : x y z
#
# Youngs Moduli (GPa) = 68.42663 55.01005 33.76052
#
# Poissons Ratio (x) = 0.31579 -0.06579
# Poissons Ratio (y) = 0.39281 0.16510
# Poissons Ratio (z) = -0.13334 0.26901
#
# Static dielectric constant tensor:
#      x y z
#    x 3.786860 0.000000 0.000380 
#    y 0.000000 3.686870 0.000000 
#    z 0.000380 0.000000 3.810090 
# 
# 
# High freq. dielectric constant tensor:
#      x y z
#    x 1.800730 0.000000 0.000190 
#    y 0.000000 1.794410 0.000000 
#    z 0.000190 0.000000 1.791250 
# 
# From -- ./inp_files/378552.got.cif
#   From: 2010.06.25/outbox.cif.g09.slc.cpg/sg12_190_cif.got.tgz:378552.got - 2010.06.28 00:19:55.
