data_PCOD8109021
_publ_section_title
;
Structure prediction by ZEFSAII (Michael W. Deem and Ramdas Pophale) SiO2 
 PCOD8109021
Probable space group: C 2/M
;
_chemical_formula_sum "Si O2"
_cell_formula_units_Z 64
_cell_length_a 15.181145
_cell_length_b 8.267181
_cell_length_c 28.925602
_cell_angle_alpha 90.000000
_cell_angle_beta 58.095027
_cell_angle_gamma 90.000000
_cell_volume 3081.868634
_symmetry_space_group_name_H-M "C 2/M"
_symmetry_group_IT_number 12
_symmetry_cell_setting 'monoclinic'
loop_
_space_group_symop_operation_xyz
x,y,z
-x,y,-z
-x,-y,-z
x,-y,z
1/2+x,1/2+y,z
1/2-x,1/2+y,-z
1/2-x,1/2-y,-z
1/2+x,1/2-y,z
loop_
_atom_site_type_symbol
_atom_site_label
_atom_site_fract_x
_atom_site_fract_y
_atom_site_fract_z
Si Si1 0.343044 0.187095 0.943009
Si Si2 0.881370 0.191488 0.746037
Si Si3 0.263985 0.688239 0.444789
Si Si4 0.893209 0.689677 0.334003
Si Si5 0.580254 0.683604 0.443219
Si Si6 0.798954 0.807152 0.672618
Si Si7 0.962036 0.811905 0.060758
Si Si8 0.263694 0.312431 0.870194
O O1 0.449302 0.279195 0.925872
O O2 0.313391 0.211459 0.898035
O O3 0.360573 0.000000 0.948564
O O4 0.250000 0.250000 0.000000
O O5 0.816346 0.256598 0.719701
O O6 0.819120 0.248189 0.808312
O O7 0.994287 0.268978 0.716574
O O8 0.892476 0.000000 0.740623
O O9 0.233853 0.500000 0.450442
O O10 0.250000 0.750000 0.500000
O O11 0.375102 0.719756 0.388921
O O12 0.191536 0.807428 0.435905
O O13 0.883331 0.500000 0.344647
O O14 0.810371 0.754184 0.318339
O O15 0.500000 0.777792 0.500000
O O16 0.540391 0.500000 0.449107
O O17 0.601588 0.756487 0.386040
O O18 0.799356 0.000000 0.670648
O O19 0.858745 0.714657 0.102001
O O20 0.934092 0.000000 0.067573
O O21 0.000000 0.752813 0.000000
O O22 0.284975 0.500000 0.873834
#
# Coordination Sequence:
#
# PCOD8109021 Si02
#       8
#     8   8   8   8   8   8   8   8
#     4  12  24  40  65  94 128 168 210 258 316 371
#     4  10  22  40  63  90 120 164 208 249 297 361
#     4  11  22  36  55  82 116 152 195 249 305 367
#     4  10  21  39  61  87 118 158 203 253 309 368
#     4   9  18  33  55  84 114 150 191 238 301 368
#     4   8  17  36  58  81 116 156 197 240 297 361
#     4  11  23  40  65  95 128 166 207 257 314 369
#     4  11  24  41  62  94 132 168 214 257 302 371
#
# _framework density 20.766622000000002
#
# number of rings (size 3 to 8) (size 9 to 14) (size 15 to 20)
#    0.000    1.750    1.250    4.125    1.750    2.750 
#    0.000    4.375    0.000    0.000    0.000    0.000 
#    0.000    0.000    0.000    0.000    0.000    0.000 
#
# Total GULP energy -396628.015781 kJ/mol
# GULP energy per Si atom -12394.625493 kJ/mol
# Density = 2.071936 g / cm^3
# Si number density = 20.766622 Si / 1000 Ang^3
#
#
#
# Elastic Constant Matrix: (Units=GPa)
#
#
# Indices 1 2 3 4 5 6 
#
# 1 114.8605 8.6679 67.6823 0.0000 1.8446 0.0001
# 2 8.6679 49.9318 29.0912 0.0002 0.1950 0.0003
# 3 67.6823 29.0912 179.4732 0.0000 3.9377 0.0000
# 4 0.0000 0.0002 0.0000 25.5662 0.0000 -3.4543
# 5 1.8446 0.1950 3.9377 0.0000 38.4246 0.0001
# 6 0.0001 0.0003 0.0000 -3.4543 0.0001 28.9920
#
#
#
# Elastic Compliance Matrix: (Units=1/GPa)
#
#
# Indices 1 2 3 4 5 6 
#
# 1 0.011209 0.000570 -0.004317 0.000000 -0.000099 0.000000
# 2 0.000570 0.022147 -0.003810 0.000000 0.000251 0.000000
# 3 -0.004317 -0.003810 0.007830 0.000000 -0.000576 0.000000
# 4 0.000000 0.000000 0.000000 0.039754 0.000000 0.004737
# 5 -0.000099 0.000251 -0.000576 0.000000 0.026087 0.000000
# 6 0.000000 0.000000 0.000000 0.004737 0.000000 0.035057
#
#
# Mechanical properties :
#
#
# Convention : Reuss Voigt Hill
#
# Bulk Modulus (GPa) = 38.35674 61.68315 50.01994
# Shear Modulus (GPa) = 30.14041 34.51817 32.32929
#
# Velocity S-wave (km/s) = 3.81384 4.08143 3.94990
# Velocity P-wave (km/s) = 6.15665 7.20959 6.70382
#
# Compressibility (1/GPa) = 0.02607104
#
# Stress axis : x y z
#
# Youngs Moduli (GPa) = 89.21616 45.15203 127.71048
#
# Poissons Ratio (x) = -0.02573 0.55135
# Poissons Ratio (y) = -0.05084 0.48662
# Poissons Ratio (z) = 0.38516 0.17204
#
# Static dielectric constant tensor:
#      x y z
#    x 3.756870 0.000000 0.126120 
#    y 0.000000 3.619560 0.000000 
#    z 0.126120 0.000000 4.253610 
# 
# 
# High freq. dielectric constant tensor:
#      x y z
#    x 1.810790 0.000000 0.000300 
#    y 0.000000 1.796650 0.000000 
#    z 0.000300 0.000000 1.823240 
# 
# From -- ./inp_files/374997.got.cif
#   From: 2010.06.25/outbox.cif.g09.slc.cpg/sg12_188_cif.got.tgz:374997.got - 2010.06.28 00:19:55.
