data_PCOD8109044
_publ_section_title
;
Structure prediction by ZEFSAII (Michael W. Deem and Ramdas Pophale) SiO2 
 PCOD8109044
Probable space group: C 2/M
;
_chemical_formula_sum "Si O2"
_cell_formula_units_Z 64
_cell_length_a 19.228758
_cell_length_b 9.005015
_cell_length_c 30.698885
_cell_angle_alpha 90.000000
_cell_angle_beta 36.889144
_cell_angle_gamma 90.000000
_cell_volume 3190.832242
_symmetry_space_group_name_H-M "C 2/M"
_symmetry_group_IT_number 12
_symmetry_cell_setting 'monoclinic'
loop_
_space_group_symop_operation_xyz
x,y,z
-x,y,-z
-x,-y,-z
x,-y,z
1/2+x,1/2+y,z
1/2-x,1/2+y,-z
1/2-x,1/2-y,-z
1/2+x,1/2-y,z
loop_
_atom_site_type_symbol
_atom_site_label
_atom_site_fract_x
_atom_site_fract_y
_atom_site_fract_z
Si Si1 0.683950 0.676407 0.992699
Si Si2 0.257271 0.167842 0.270822
Si Si3 0.826976 0.667801 0.333701
Si Si4 0.026309 0.670250 0.369301
Si Si5 0.603183 0.828891 0.478608
Si Si6 0.764105 0.670862 0.120563
Si Si7 0.561166 0.827067 0.892683
Si Si8 0.978432 0.828001 0.716521
O O1 0.690906 0.500000 0.993998
O O2 0.744653 0.725326 0.917271
O O3 0.750000 0.750000 0.000000
O O4 0.551260 0.727407 0.057339
O O5 0.318197 0.175732 0.286523
O O6 0.148629 0.275956 0.326574
O O7 0.348684 0.222278 0.189375
O O8 0.215661 0.000000 0.280484
O O9 0.836519 0.500000 0.345620
O O10 0.718570 0.738050 0.412594
O O11 0.944636 0.752994 0.285128
O O12 0.038996 0.500000 0.349181
O O13 0.986891 0.763761 0.347593
O O14 0.929465 0.691526 0.454658
O O15 0.500000 0.765633 0.500000
O O16 0.625994 0.000000 0.455061
O O17 0.762315 0.500000 0.105805
O O18 0.881281 0.703236 0.088959
O O19 0.656039 0.704224 0.206297
O O20 0.527115 0.000000 0.904993
O O21 0.007454 0.000000 0.701727
#
# Coordination Sequence:
#
# PCOD8109044 Si02
#       8
#     8   8   8   8   8   8   8   8
#     4  12  27  44  64  95 131 166 209 256 307 363
#     4  10  21  39  63  93 126 162 206 254 312 370
#     4  11  24  39  61  94 127 163 210 260 314 372
#     4  11  22  38  64  93 124 161 210 261 308 368
#     4  10  21  39  61  88 123 165 209 256 314 373
#     4  10  22  43  69  94 124 167 207 248 309 374
#     4  10  21  42  68  94 127 166 207 251 308 374
#     4  11  24  43  65  91 127 166 207 255 315 375
#
# _framework density 20.057462999999998
#
# number of rings (size 3 to 8) (size 9 to 14) (size 15 to 20)
#    0.000    1.375    2.500    2.625    1.750    5.750 
#    0.000    0.000    0.000    0.000    0.000    0.000 
#    0.000    0.000    0.000    0.000    0.000    0.000 
#
# Total GULP energy -396976.617787 kJ/mol
# GULP energy per Si atom -12405.519306 kJ/mol
# Density = 2.001181 g / cm^3
# Si number density = 20.057463 Si / 1000 Ang^3
#
#
#
# Elastic Constant Matrix: (Units=GPa)
#
#
# Indices 1 2 3 4 5 6 
#
# 1 105.5001 54.8266 31.7446 0.0016 0.5274 0.0238
# 2 54.8266 122.1004 45.8464 -0.0006 0.1681 0.0126
# 3 31.7446 45.8464 73.1986 0.0021 5.7375 0.0043
# 4 0.0016 -0.0006 0.0021 33.2893 -0.0017 -1.7552
# 5 0.5274 0.1681 5.7375 -0.0017 33.4162 0.0007
# 6 0.0238 0.0126 0.0043 -1.7552 0.0007 38.2215
#
#
#
# Elastic Compliance Matrix: (Units=1/GPa)
#
#
# Indices 1 2 3 4 5 6 
#
# 1 0.012716 -0.004748 -0.002561 -0.000001 0.000263 -0.000006
# 2 -0.004748 0.012522 -0.005864 0.000001 0.001019 0.000000
# 3 -0.002561 -0.005864 0.018691 -0.000001 -0.003139 0.000001
# 4 -0.000001 0.000001 -0.000001 0.030113 0.000002 0.001383
# 5 0.000263 0.001019 -0.003139 0.000002 0.030455 -0.000001
# 6 -0.000006 0.000000 0.000001 0.001383 -0.000001 0.026227
#
#
# Mechanical properties :
#
#
# Convention : Reuss Voigt Hill
#
# Bulk Modulus (GPa) = 56.87463 62.84826 59.86144
# Shear Modulus (GPa) = 30.68785 32.21083 31.44934
#
# Velocity S-wave (km/s) = 3.91576 4.01175 3.96405
# Velocity P-wave (km/s) = 6.99011 7.27056 7.13171
#
# Compressibility (1/GPa) = 0.01758253
#
# Stress axis : x y z
#
# Youngs Moduli (GPa) = 78.64338 79.85631 53.50217
#
# Poissons Ratio (x) = 0.37919 0.13702
# Poissons Ratio (y) = 0.37343 0.31372
# Poissons Ratio (z) = 0.20141 0.46826
#
# Static dielectric constant tensor:
#      x y z
#    x 3.723820 0.000000 0.061350 
#    y 0.000000 3.705410 0.000010 
#    z 0.061350 0.000010 3.626680 
# 
# 
# High freq. dielectric constant tensor:
#      x y z
#    x 1.791940 0.000000 0.006350 
#    y 0.000000 1.782020 0.000000 
#    z 0.006350 0.000000 1.790040 
# 
# From -- ./inp_files/378092.got.cif
#   From: 2010.06.25/outbox.cif.g09.slc.cpg/sg12_190_cif.got.tgz:378092.got - 2010.06.28 00:19:55.
