data_PCOD8109684
_publ_section_title
;
Structure prediction by ZEFSAII (Michael W. Deem and Ramdas Pophale) SiO2 
 PCOD8109684
Probable space group: C 2/M
;
_chemical_formula_sum "Si O2"
_cell_formula_units_Z 48
_cell_length_a 11.294256
_cell_length_b 24.570151
_cell_length_c 9.010794
_cell_angle_alpha 90.000000
_cell_angle_beta 110.290770
_cell_angle_gamma 90.000000
_cell_volume 2345.339940
_symmetry_space_group_name_H-M "C 2/M"
_symmetry_group_IT_number 12
_symmetry_cell_setting 'monoclinic'
loop_
_space_group_symop_operation_xyz
x,y,z
-x,y,-z
-x,-y,-z
x,-y,z
1/2+x,1/2+y,z
1/2-x,1/2+y,-z
1/2-x,1/2-y,-z
1/2+x,1/2-y,z
loop_
_atom_site_type_symbol
_atom_site_label
_atom_site_fract_x
_atom_site_fract_y
_atom_site_fract_z
Si Si1 0.613038 0.721824 0.456539
Si Si2 0.877554 0.562468 0.633507
Si Si3 0.118429 0.246154 0.137643
Si Si4 0.858627 0.135558 0.986514
Si Si5 0.831822 0.562253 0.279135
Si Si6 0.719926 0.648741 0.727649
O O1 0.500000 0.753428 0.500000
O O2 0.750000 0.750000 0.500000
O O3 0.566267 0.717213 0.266794
O O4 0.628326 0.663689 0.548999
O O5 0.839350 0.500000 0.648369
O O6 0.828894 0.580235 0.449860
O O7 0.816506 0.601628 0.727452
O O8 0.026526 0.569931 0.717280
O O9 0.180482 0.197637 0.068933
O O10 0.214600 0.294223 0.205704
O O11 0.000000 0.271491 0.000000
O O12 0.761340 0.097251 0.859914
O O13 0.853060 0.126623 0.160899
O O14 0.000000 0.121277 0.000000
O O15 0.789285 0.500000 0.245950
#
# Coordination Sequence:
#
# PCOD8109684 Si02
#       6
#     8   8   8   8   8   8
#     4  10  21  40  60  85 123 164 212 254 307 373
#     4   9  20  41  65  92 118 156 208 264 315 368
#     4  10  22  39  58  86 124 164 206 255 308 368
#     4  11  23  38  58  85 125 166 203 252 310 371
#     4   9  20  41  66  89 122 159 204 257 315 375
#     4  11  23  38  61  91 122 162 206 256 311 370
#
# _framework density 20.466117000000001
#
# number of rings (size 3 to 8) (size 9 to 14) (size 15 to 20)
#    0.000    2.000    0.000    4.500    2.333    2.333 
#   18.000    1.667    0.000    2.500    0.000    0.000 
#    0.000    0.000    0.000    0.000    0.000    0.000 
#
# Total GULP energy -297417.436445 kJ/mol
# GULP energy per Si atom -12392.393185 kJ/mol
# Density = 2.041954 g / cm^3
# Si number density = 20.466117 Si / 1000 Ang^3
#
#
#
# Elastic Constant Matrix: (Units=GPa)
#
#
# Indices 1 2 3 4 5 6 
#
# 1 120.0208 47.5301 49.7284 0.0000 -15.5712 0.0000
# 2 47.5301 79.2486 34.3670 0.0000 -3.2494 0.0000
# 3 49.7284 34.3670 104.1584 0.0000 -6.2645 0.0000
# 4 0.0000 0.0000 0.0000 13.6608 0.0000 -0.7977
# 5 -15.5712 -3.2494 -6.2645 0.0000 39.1105 0.0000
# 6 0.0000 0.0000 0.0000 -0.7977 0.0000 34.5831
#
#
#
# Elastic Compliance Matrix: (Units=1/GPa)
#
#
# Indices 1 2 3 4 5 6 
#
# 1 0.012776 -0.005786 -0.003952 0.000000 0.003973 0.000000
# 2 -0.005786 0.017354 -0.003045 0.000000 -0.001349 0.000000
# 3 -0.003952 -0.003045 0.012503 0.000000 0.000176 0.000000
# 4 0.000000 0.000000 0.000000 0.073301 0.000000 0.001691
# 5 0.003973 -0.001349 0.000176 0.000000 0.027066 0.000000
# 6 0.000000 0.000000 0.000000 0.001691 0.000000 0.028955
#
#
# Mechanical properties :
#
#
# Convention : Reuss Voigt Hill
#
# Bulk Modulus (GPa) = 58.58967 62.96431 60.77699
# Shear Modulus (GPa) = 24.60536 28.92437 26.76486
#
# Velocity S-wave (km/s) = 3.47111 3.76344 3.62023
# Velocity P-wave (km/s) = 6.68989 7.05100 6.87281
#
# Compressibility (1/GPa) = 0.01706785
#
# Stress axis : x y z
#
# Youngs Moduli (GPa) = 78.27227 57.62464 79.98357
#
# Poissons Ratio (x) = 0.33341 0.31606
# Poissons Ratio (y) = 0.45288 0.24352
# Poissons Ratio (z) = 0.30930 0.17545
#
# Static dielectric constant tensor:
#      x y z
#    x 3.693150 0.000000 -0.156970 
#    y 0.000000 3.489490 0.000000 
#    z -0.156970 0.000000 4.306260 
# 
# 
# High freq. dielectric constant tensor:
#      x y z
#    x 1.802190 0.000000 -0.003380 
#    y 0.000000 1.776210 0.000000 
#    z -0.003380 0.000000 1.819660 
# 
# From -- ./inp_files/51440.got.cif
#   From: 2010.06.25/outbox.cif.g09.slc.cpg/sg12_26_cif.got.tgz:51440.got - 2010.06.28 00:19:55.
