data_PCOD8109201
_publ_section_title
;
Structure prediction by ZEFSAII (Michael W. Deem and Ramdas Pophale) SiO2 
 PCOD8109201
Probable space group: C 2/M
;
_chemical_formula_sum "Si O2"
_cell_formula_units_Z 48
_cell_length_a 22.903498
_cell_length_b 8.890636
_cell_length_c 12.110896
_cell_angle_alpha 90.000000
_cell_angle_beta 70.299439
_cell_angle_gamma 90.000000
_cell_volume 2321.753641
_symmetry_space_group_name_H-M "C 2/M"
_symmetry_group_IT_number 12
_symmetry_cell_setting 'monoclinic'
loop_
_space_group_symop_operation_xyz
x,y,z
-x,y,-z
-x,-y,-z
x,-y,z
1/2+x,1/2+y,z
1/2-x,1/2+y,-z
1/2-x,1/2-y,-z
1/2+x,1/2-y,z
loop_
_atom_site_type_symbol
_atom_site_label
_atom_site_fract_x
_atom_site_fract_y
_atom_site_fract_z
Si Si1 0.595325 0.323138 0.181443
Si Si2 0.702348 0.323638 0.281179
Si Si3 0.327204 0.328654 0.232589
Si Si4 0.860972 0.828567 0.452898
Si Si5 0.512260 0.826834 0.619452
Si Si6 0.929107 0.678105 0.030762
O O1 0.594694 0.500000 0.161554
O O2 0.653114 0.273523 0.220231
O O3 0.532055 0.277189 0.280724
O O4 0.601254 0.239913 0.061629
O O5 0.715189 0.500000 0.269589
O O6 0.766422 0.240103 0.214116
O O7 0.677897 0.273325 0.416942
O O8 0.333950 0.500000 0.189067
O O9 0.319161 0.317045 0.370016
O O10 0.389025 0.240375 0.157819
O O11 0.917974 0.717508 0.398219
O O12 0.884327 0.000000 0.457234
O O13 0.500000 0.795450 0.500000
O O14 0.501046 0.000000 0.659257
O O15 0.925829 0.500000 0.032279
O O16 0.000000 0.733757 0.000000
#
# Coordination Sequence:
#
# PCOD8109201 Si02
#       6
#     8   8   8   8   8   8
#     4  11  23  40  65  92 123 162 205 253 304 361
#     4  10  22  40  62  90 125 163 202 249 308 363
#     4  11  24  40  63  92 122 162 208 251 301 361
#     4  10  21  39  62  90 125 164 206 253 303 360
#     4  11  22  35  57  91 126 160 200 247 301 359
#     4  11  25  45  67  90 121 159 202 253 307 362
#
# _framework density 20.674026999999999
#
# number of rings (size 3 to 8) (size 9 to 14) (size 15 to 20)
#    0.000    1.333    1.667    3.500    0.000    8.667 
#    0.000    0.000    0.000    0.000    0.000    0.000 
#    0.000    0.000    0.000    0.000    0.000    0.000 
#
# Total GULP energy -297752.918940 kJ/mol
# GULP energy per Si atom -12406.371622 kJ/mol
# Density = 2.062697 g / cm^3
# Si number density = 20.674027 Si / 1000 Ang^3
#
#
#
# Elastic Constant Matrix: (Units=GPa)
#
#
# Indices 1 2 3 4 5 6 
#
# 1 103.2238 34.3397 47.9707 0.0000 -7.3848 0.0000
# 2 34.3397 62.4115 38.5616 0.0000 0.6930 0.0000
# 3 47.9707 38.5616 94.7918 0.0000 3.1729 0.0000
# 4 0.0000 0.0000 0.0000 43.2417 0.0000 -9.4934
# 5 -7.3848 0.6930 3.1729 0.0000 33.6768 0.0000
# 6 0.0000 0.0000 0.0000 -9.4934 0.0000 39.7030
#
#
#
# Elastic Compliance Matrix: (Units=1/GPa)
#
#
# Indices 1 2 3 4 5 6 
#
# 1 0.013901 -0.004364 -0.005382 0.000000 0.003645 0.000000
# 2 -0.004364 0.022777 -0.007032 0.000000 -0.000763 0.000000
# 3 -0.005382 -0.007032 0.016219 0.000000 -0.002564 0.000000
# 4 0.000000 0.000000 0.000000 0.024407 0.000000 0.005836
# 5 0.003645 -0.000763 -0.002564 0.000000 0.030751 0.000000
# 6 0.000000 0.000000 0.000000 0.005836 0.000000 0.026582
#
#
# Mechanical properties :
#
#
# Convention : Reuss Voigt Hill
#
# Bulk Modulus (GPa) = 51.69922 55.79678 53.74800
# Shear Modulus (GPa) = 28.63035 32.62796 30.62915
#
# Velocity S-wave (km/s) = 3.72539 3.97698 3.85324
# Velocity P-wave (km/s) = 6.60044 6.93800 6.77133
#
# Compressibility (1/GPa) = 0.01934265
#
# Stress axis : x y z
#
# Youngs Moduli (GPa) = 71.93591 43.90409 61.65528
#
# Poissons Ratio (x) = 0.19160 0.33181
# Poissons Ratio (y) = 0.31393 0.43354
# Poissons Ratio (z) = 0.38713 0.30872
#
# Static dielectric constant tensor:
#      x y z
#    x 3.719900 0.000000 0.094080 
#    y 0.000000 3.710890 0.000000 
#    z 0.094080 0.000000 3.827800 
# 
# 
# High freq. dielectric constant tensor:
#      x y z
#    x 1.813740 0.000000 0.004720 
#    y 0.000000 1.811550 0.000000 
#    z 0.004720 0.000000 1.813100 
# 
# From -- ./inp_files/173046.got.cif
#   From: 2010.06.25/outbox.cif.g09.slc.cpg/sg12_87_cif.got.tgz:173046.got - 2010.06.28 00:19:55.
