data_PCOD8109083
_publ_section_title
;
Structure prediction by ZEFSAII (Michael W. Deem and Ramdas Pophale) SiO2 
 PCOD8109083
Probable space group: C 2/M
;
_chemical_formula_sum "Si O2"
_cell_formula_units_Z 64
_cell_length_a 19.963236
_cell_length_b 9.046924
_cell_length_c 31.036065
_cell_angle_alpha 90.000000
_cell_angle_beta 142.217301
_cell_angle_gamma 90.000000
_cell_volume 3434.187781
_symmetry_space_group_name_H-M "C 2/M"
_symmetry_group_IT_number 12
_symmetry_cell_setting 'monoclinic'
loop_
_space_group_symop_operation_xyz
x,y,z
-x,y,-z
-x,-y,-z
x,-y,z
1/2+x,1/2+y,z
1/2-x,1/2+y,-z
1/2-x,1/2-y,-z
1/2+x,1/2-y,z
loop_
_atom_site_type_symbol
_atom_site_label
_atom_site_fract_x
_atom_site_fract_y
_atom_site_fract_z
Si Si1 0.515883 0.324980 0.206509
Si Si2 0.308826 0.670897 0.490904
Si Si3 0.989923 0.831050 0.355144
Si Si4 0.648248 0.671703 0.356773
Si Si5 0.919771 0.330289 0.846947
Si Si6 0.082712 0.330972 0.005295
Si Si7 0.805242 0.670886 0.132748
Si Si8 0.212890 0.670635 0.776846
O O1 0.503555 0.500000 0.198530
O O2 0.597695 0.275132 0.286050
O O3 0.567439 0.266630 0.188941
O O4 0.396669 0.257509 0.152808
O O5 0.276914 0.500000 0.475567
O O6 0.250000 0.750000 0.500000
O O7 0.439444 0.691229 0.564910
O O8 0.263211 0.742217 0.423422
O O9 0.885166 0.724814 0.303874
O O10 0.062699 0.788986 0.350783
O O11 0.949662 0.000000 0.330624
O O12 0.676604 0.500000 0.370760
O O13 0.896966 0.500000 0.822902
O O14 0.819150 0.268314 0.823096
O O15 0.027958 0.317003 0.930765
O O16 0.116556 0.500000 0.032655
O O17 0.187960 0.228288 0.058204
O O18 0.000000 0.273419 0.000000
O O19 0.813602 0.500000 0.124487
O O20 0.823549 0.696370 0.192637
O O21 0.238671 0.500000 0.780053
#
# Coordination Sequence:
#
# PCOD8109083 Si02
#       8
#     8   8   8   8   8   8   8   8
#     4  11  23  40  60  83 117 154 191 233 282 340
#     4   9  17  28  46  76 112 147 185 230 279 330
#     4   9  17  31  51  79 112 146 186 229 278 329
#     4   9  18  32  52  78 110 150 187 226 280 335
#     4  11  24  41  61  84 113 148 189 234 284 344
#     4  10  21  39  62  85 111 148 189 231 286 341
#     4  11  23  37  59  89 116 146 190 236 281 334
#     4  11  22  35  56  86 115 147 188 234 282 332
#
# _framework density 18.636137999999999
#
# number of rings (size 3 to 8) (size 9 to 14) (size 15 to 20)
#    0.000    1.875    2.500    2.625    0.000    6.250 
#    0.000    0.000    0.000    0.750    0.000    5.250 
#    0.000    0.000    0.000    0.000    0.000    0.000 
#
# Total GULP energy -396840.163403 kJ/mol
# GULP energy per Si atom -12401.255106 kJ/mol
# Density = 1.859372 g / cm^3
# Si number density = 18.636138 Si / 1000 Ang^3
#
#
#
# Elastic Constant Matrix: (Units=GPa)
#
#
# Indices 1 2 3 4 5 6 
#
# 1 35.8901 19.2534 9.6535 0.0000 -6.2156 0.0002
# 2 19.2534 87.1290 49.0987 0.0001 3.0821 0.0003
# 3 9.6535 49.0987 105.4908 0.0000 -0.4330 0.0001
# 4 0.0000 0.0001 0.0000 37.3026 0.0000 2.5274
# 5 -6.2156 3.0821 -0.4330 0.0000 21.6841 0.0000
# 6 0.0002 0.0003 0.0001 2.5274 0.0000 29.3398
#
#
#
# Elastic Compliance Matrix: (Units=1/GPa)
#
#
# Indices 1 2 3 4 5 6 
#
# 1 0.034031 -0.008375 0.000829 0.000000 0.010962 0.000000
# 2 -0.008375 0.017740 -0.007511 0.000000 -0.005072 0.000000
# 3 0.000829 -0.007511 0.012906 0.000000 0.001563 0.000000
# 4 0.000000 0.000000 0.000000 0.026965 0.000000 -0.002323
# 5 0.010962 -0.005072 0.001563 0.000000 0.050011 0.000000
# 6 0.000000 0.000000 0.000000 -0.002323 0.000000 0.034283
#
#
# Mechanical properties :
#
#
# Convention : Reuss Voigt Hill
#
# Bulk Modulus (GPa) = 28.93308 42.72457 35.82883
# Shear Modulus (GPa) = 22.98089 27.69892 25.33991
#
# Velocity S-wave (km/s) = 3.51541 3.85944 3.69144
# Velocity P-wave (km/s) = 5.66008 6.54491 6.11851
#
# Compressibility (1/GPa) = 0.03456251
#
# Stress axis : x y z
#
# Youngs Moduli (GPa) = 29.38490 56.36996 77.48330
#
# Poissons Ratio (x) = 0.47209 -0.06421
# Poissons Ratio (y) = 0.24609 0.58199
# Poissons Ratio (z) = -0.02435 0.42340
#
# Static dielectric constant tensor:
#      x y z
#    x 3.110920 0.000000 -0.170600 
#    y 0.000000 3.528210 0.000000 
#    z -0.170600 0.000000 4.109580 
# 
# 
# High freq. dielectric constant tensor:
#      x y z
#    x 1.684310 0.000000 0.000790 
#    y 0.000000 1.732950 0.000000 
#    z 0.000790 0.000000 1.739140 
# 
# From -- ./inp_files/378420.got.cif
#   From: 2010.06.25/outbox.cif.g09.slc.cpg/sg12_190_cif.got.tgz:378420.got - 2010.06.28 00:19:55.
