data_PCOD8109981
_publ_section_title
;
Structure prediction by ZEFSAII (Michael W. Deem and Ramdas Pophale) SiO2 
 PCOD8109981
Probable space group: C 2/M
;
_chemical_formula_sum "Si O2"
_cell_formula_units_Z 48
_cell_length_a 19.554098
_cell_length_b 8.555934
_cell_length_c 13.858679
_cell_angle_alpha 90.000000
_cell_angle_beta 90.506822
_cell_angle_gamma 90.000000
_cell_volume 2318.515788
_symmetry_space_group_name_H-M "C 2/M"
_symmetry_group_IT_number 12
_symmetry_cell_setting 'monoclinic'
loop_
_space_group_symop_operation_xyz
x,y,z
-x,y,-z
-x,-y,-z
x,-y,z
1/2+x,1/2+y,z
1/2-x,1/2+y,-z
1/2-x,1/2-y,-z
1/2+x,1/2-y,z
loop_
_atom_site_type_symbol
_atom_site_label
_atom_site_fract_x
_atom_site_fract_y
_atom_site_fract_z
Si Si1 0.014374 0.320297 0.294816
Si Si2 0.950465 0.685926 0.916626
Si Si3 0.203368 0.684669 0.083570
Si Si4 0.617426 0.680712 0.624435
Si Si5 0.352030 0.180284 0.579749
Si Si6 0.755971 0.317236 0.283455
O O1 0.990409 0.500000 0.300180
O O2 0.019360 0.259240 0.185359
O O3 0.088603 0.299811 0.341589
O O4 0.961162 0.214621 0.351740
O O5 0.948462 0.500000 0.920068
O O6 0.873645 0.751001 0.930334
O O7 0.000000 0.754489 0.000000
O O8 0.203003 0.500000 0.077259
O O9 0.232625 0.733095 0.186606
O O10 0.250000 0.750000 0.000000
O O11 0.634048 0.500000 0.640796
O O12 0.629578 0.723094 0.514079
O O13 0.664284 0.782405 0.697109
O O14 0.283256 0.249102 0.624460
O O15 0.340429 0.000000 0.551272
O O16 0.742837 0.500000 0.272415
#
# Coordination Sequence:
#
# PCOD8109981 Si02
#       6
#     8   8   8   8   8   8
#     4  10  21  40  65  93 128 170 211 256 314 381
#     4   9  19  38  65  94 125 164 207 250 307 377
#     4  11  23  42  66  97 130 168 211 262 316 375
#     4  12  26  41  61  94 131 167 212 267 317 379
#     4  11  22  42  67  93 127 168 213 263 318 383
#     4  12  25  43  66  92 126 171 215 265 322 379
#
# _framework density 20.7029
#
# number of rings (size 3 to 8) (size 9 to 14) (size 15 to 20)
#    0.000    1.167    1.667    5.000    2.333    3.333 
#    0.000    0.000    0.000    2.500    0.000    0.000 
#    0.000    0.000    0.000    0.000    0.000    0.000 
#
# Total GULP energy -297751.596973 kJ/mol
# GULP energy per Si atom -12406.316541 kJ/mol
# Density = 2.065578 g / cm^3
# Si number density = 20.702900 Si / 1000 Ang^3
#
#
#
# Elastic Constant Matrix: (Units=GPa)
#
#
# Indices 1 2 3 4 5 6 
#
# 1 61.3057 23.3513 16.8916 0.0000 -9.4156 0.0000
# 2 23.3513 70.7542 22.0088 0.0000 -6.3112 0.0000
# 3 16.8916 22.0088 108.4088 0.0000 -5.7993 0.0000
# 4 0.0000 0.0000 0.0000 32.8337 0.0000 -2.0874
# 5 -9.4156 -6.3112 -5.7993 0.0000 40.7338 0.0000
# 6 0.0000 0.0000 0.0000 -2.0874 0.0000 31.8699
#
#
#
# Elastic Compliance Matrix: (Units=1/GPa)
#
#
# Indices 1 2 3 4 5 6 
#
# 1 0.019428 -0.005577 -0.001714 0.000000 0.003383 0.000000
# 2 -0.005577 0.016837 -0.002498 0.000000 0.000964 0.000000
# 3 -0.001714 -0.002498 0.010033 0.000000 0.000645 0.000000
# 4 0.000000 0.000000 0.000000 0.030584 0.000000 0.002003
# 5 0.003383 0.000964 0.000645 0.000000 0.025573 0.000000
# 6 0.000000 0.000000 0.000000 0.002003 0.000000 0.031509
#
#
# Mechanical properties :
#
#
# Convention : Reuss Voigt Hill
#
# Bulk Modulus (GPa) = 37.42439 40.55246 38.98842
# Shear Modulus (GPa) = 30.77929 32.96861 31.87395
#
# Velocity S-wave (km/s) = 3.85998 3.99490 3.92802
# Velocity P-wave (km/s) = 6.16295 6.39604 6.28058
#
# Compressibility (1/GPa) = 0.02672054
#
# Stress axis : x y z
#
# Youngs Moduli (GPa) = 51.47285 59.39327 99.67125
#
# Poissons Ratio (x) = 0.33123 0.17083
# Poissons Ratio (y) = 0.28706 0.24894
# Poissons Ratio (z) = 0.08822 0.14834
#
# Static dielectric constant tensor:
#      x y z
#    x 3.990680 0.000000 0.045450 
#    y 0.000000 3.624090 0.000000 
#    z 0.045450 0.000000 3.847210 
# 
# 
# High freq. dielectric constant tensor:
#      x y z
#    x 1.825020 0.000000 0.001730 
#    y 0.000000 1.797270 0.000000 
#    z 0.001730 0.000000 1.822640 
# 
# From -- ./inp_files/221586.got.cif
#   From: 2010.06.25/outbox.cif.g09.slc.cpg/sg12_111_cif.got.tgz:221586.got - 2010.06.28 00:19:55.
