data_PCOD8109837
_publ_section_title
;
Structure prediction by ZEFSAII (Michael W. Deem and Ramdas Pophale) SiO2 
 PCOD8109837
Probable space group: C 2/M
;
_chemical_formula_sum "Si O2"
_cell_formula_units_Z 40
_cell_length_a 15.661847
_cell_length_b 8.699895
_cell_length_c 14.639057
_cell_angle_alpha 90.000000
_cell_angle_beta 89.333289
_cell_angle_gamma 90.000000
_cell_volume 1994.530523
_symmetry_space_group_name_H-M "C 2/M"
_symmetry_group_IT_number 12
_symmetry_cell_setting 'monoclinic'
loop_
_space_group_symop_operation_xyz
x,y,z
-x,y,-z
-x,-y,-z
x,-y,z
1/2+x,1/2+y,z
1/2-x,1/2+y,-z
1/2-x,1/2-y,-z
1/2+x,1/2-y,z
loop_
_atom_site_type_symbol
_atom_site_label
_atom_site_fract_x
_atom_site_fract_y
_atom_site_fract_z
Si Si1 0.646408 0.321297 0.784642
Si Si2 0.664286 0.181614 0.214823
Si Si3 0.099732 0.680485 0.602374
Si Si4 0.993573 0.682020 0.898106
Si Si5 0.401894 0.820112 0.597463
O O1 0.625713 0.500000 0.796502
O O2 0.740827 0.280185 0.822672
O O3 0.649123 0.277575 0.677898
O O4 0.577276 0.224542 0.840260
O O5 0.592485 0.250117 0.147442
O O6 0.651532 0.251368 0.317419
O O7 0.650367 0.000000 0.222329
O O8 0.119156 0.500000 0.614662
O O9 0.127296 0.744437 0.501486
O O10 0.000145 0.715137 0.616777
O O11 0.988115 0.500000 0.902196
O O12 0.000000 0.751429 0.000000
O O13 0.388051 0.000000 0.589965
#
# Coordination Sequence:
#
# PCOD8109837 Si02
#       5
#     8   8   8   8   8
#     4  11  22  34  53  82 115 145 169 214 281 326
#     4   9  18  34  55  80 111 143 176 215 270 327
#     4   9  16  30  55  80 103 143 192 222 247 305
#     4  10  21  40  64  81  98 136 187 228 261 315
#     4   8  14  28  54  79 102 143 188 220 254 304
#
# _framework density 20.054843999999999
#
# number of rings (size 3 to 8) (size 9 to 14) (size 15 to 20)
#    0.000    2.600    2.000    1.800    0.000    2.000 
#    0.000    4.000    0.000    0.000    0.000    0.000 
#    0.000    0.000    0.000    0.000    0.000    0.000 
#
# Total GULP energy -247860.726000 kJ/mol
# GULP energy per Si atom -12393.036300 kJ/mol
# Density = 2.000920 g / cm^3
# Si number density = 20.054844 Si / 1000 Ang^3
#
#
#
# Elastic Constant Matrix: (Units=GPa)
#
#
# Indices 1 2 3 4 5 6 
#
# 1 99.2364 9.2734 56.1071 0.0000 7.3439 0.0000
# 2 9.2734 8.2379 5.8337 0.0000 3.7970 0.0000
# 3 56.1071 5.8337 137.3524 0.0000 12.3751 0.0000
# 4 0.0000 0.0000 0.0000 16.0327 0.0000 -1.6253
# 5 7.3439 3.7970 12.3751 0.0000 13.7811 0.0000
# 6 0.0000 0.0000 0.0000 -1.6253 0.0000 20.2420
#
#
#
# Elastic Compliance Matrix: (Units=1/GPa)
#
#
# Indices 1 2 3 4 5 6 
#
# 1 0.014215 -0.012532 -0.005334 0.000000 0.000668 0.000000
# 2 -0.012532 0.151001 0.002015 0.000000 -0.036736 0.000000
# 3 -0.005334 0.002015 0.009975 0.000000 -0.006670 0.000000
# 4 0.000000 0.000000 0.000000 0.062884 0.000000 0.005049
# 5 0.000668 -0.036736 -0.006670 0.000000 0.088318 0.000000
# 6 0.000000 0.000000 0.000000 0.005049 0.000000 0.049808
#
#
# Mechanical properties :
#
#
# Convention : Reuss Voigt Hill
#
# Bulk Modulus (GPa) = 6.96914 43.02834 24.99874
# Shear Modulus (GPa) = 10.97136 21.58534 16.27835
#
# Velocity S-wave (km/s) = 2.34149 3.28428 2.85211
# Velocity P-wave (km/s) = 3.28522 5.99032 4.83097
#
# Compressibility (1/GPa) = 0.14348963
#
# Stress axis : x y z
#
# Youngs Moduli (GPa) = 70.35014 6.62245 100.25105
#
# Poissons Ratio (x) = 0.08299 0.53479
# Poissons Ratio (y) = 0.88161 -0.20205
# Poissons Ratio (z) = 0.37528 -0.01335
#
# Static dielectric constant tensor:
#      x y z
#    x 3.320480 0.000000 0.461420 
#    y 0.000000 3.080460 0.000000 
#    z 0.461420 0.000000 3.668340 
# 
# 
# High freq. dielectric constant tensor:
#      x y z
#    x 1.782210 0.000000 0.002790 
#    y 0.000000 1.728980 0.000000 
#    z 0.002790 0.000000 1.791530 
# 
# From -- ./inp_files/211343.got.cif
#   From: 2010.06.25/outbox.cif.g09.slc.cpg/sg12_106_cif.got.tgz:211343.got - 2010.06.28 00:19:55.
