data_PCOD8109004
_publ_section_title
;
Structure prediction by ZEFSAII (Michael W. Deem and Ramdas Pophale) SiO2 
 PCOD8109004
Probable space group: C 2/M
;
_chemical_formula_sum "Si O2"
_cell_formula_units_Z 48
_cell_length_a 18.798336
_cell_length_b 9.176568
_cell_length_c 29.692703
_cell_angle_alpha 90.000000
_cell_angle_beta 28.871550
_cell_angle_gamma 90.000000
_cell_volume 2473.201607
_symmetry_space_group_name_H-M "C 2/M"
_symmetry_group_IT_number 12
_symmetry_cell_setting 'monoclinic'
loop_
_space_group_symop_operation_xyz
x,y,z
-x,y,-z
-x,-y,-z
x,-y,z
1/2+x,1/2+y,z
1/2-x,1/2+y,-z
1/2-x,1/2-y,-z
1/2+x,1/2-y,z
loop_
_atom_site_type_symbol
_atom_site_label
_atom_site_fract_x
_atom_site_fract_y
_atom_site_fract_z
Si Si1 0.839737 0.661490 0.569417
Si Si2 0.691622 0.833848 0.075075
Si Si3 0.870926 0.171576 0.462212
Si Si4 0.330898 0.327452 0.090855
Si Si5 0.152847 0.665359 0.742566
Si Si6 0.304478 0.331057 0.750075
O O1 0.785344 0.500000 0.583860
O O2 0.842386 0.777917 0.528482
O O3 0.733197 0.719283 0.666972
O O4 0.000000 0.645978 0.500000
O O5 0.762683 0.770797 0.081578
O O6 0.517535 0.817351 0.173640
O O7 0.740900 0.000000 0.041964
O O8 0.750000 0.750000 0.000000
O O9 0.750000 0.250000 0.500000
O O10 0.033380 0.217565 0.355934
O O11 0.848125 0.000000 0.472240
O O12 0.316827 0.500000 0.102873
O O13 0.237461 0.259997 0.182999
O O14 0.500000 0.275587 0.000000
O O15 0.207336 0.500000 0.702391
O O16 0.187653 0.703137 0.775260
O O17 0.302208 0.500000 0.764596
#
# Coordination Sequence:
#
# PCOD8109004 Si02
#       6
#     8   8   8   8   8   8
#     4  11  23  39  61  91 122 159 206 248 297 357
#     4  10  22  39  61  89 116 151 195 241 296 357
#     4  11  24  41  61  87 123 162 204 251 300 356
#     4  10  22  39  59  86 121 155 192 240 298 356
#     4  10  21  39  61  86 118 157 202 248 298 353
#     4  10  22  39  60  86 116 154 199 245 297 354
#
# _framework density 19.408041999999998
#
# number of rings (size 3 to 8) (size 9 to 14) (size 15 to 20)
#    0.000    1.667    1.667    2.000    2.333    4.333 
#    0.000    0.000    0.000    0.000    0.000    0.000 
#    0.000    0.000    0.000    0.000    0.000    0.000 
#
# Total GULP energy -297669.224833 kJ/mol
# GULP energy per Si atom -12402.884368 kJ/mol
# Density = 1.936387 g / cm^3
# Si number density = 19.408042 Si / 1000 Ang^3
#
#
#
# Elastic Constant Matrix: (Units=GPa)
#
#
# Indices 1 2 3 4 5 6 
#
# 1 156.0601 48.3587 60.6961 -0.0012 0.6191 -0.0039
# 2 48.3587 78.1900 49.9984 -0.0024 8.4887 0.0079
# 3 60.6961 49.9984 85.2911 -0.0019 10.9290 0.0019
# 4 -0.0012 -0.0024 -0.0019 48.3922 0.0000 6.5518
# 5 0.6191 8.4887 10.9290 0.0000 39.4295 -0.0053
# 6 -0.0039 0.0079 0.0019 6.5518 -0.0053 35.4337
#
#
#
# Elastic Compliance Matrix: (Units=1/GPa)
#
#
# Indices 1 2 3 4 5 6 
#
# 1 0.009262 -0.002501 -0.005366 0.000000 0.001880 0.000002
# 2 -0.002501 0.021181 -0.010428 0.000001 -0.001631 -0.000005
# 3 -0.005366 -0.010428 0.022144 0.000000 -0.003809 0.000000
# 4 0.000000 0.000001 0.000000 0.021195 -0.000001 -0.003919
# 5 0.001880 -0.001631 -0.003809 -0.000001 0.026739 0.000005
# 6 0.000002 -0.000005 0.000000 -0.003919 0.000005 0.028946
#
#
# Mechanical properties :
#
#
# Convention : Reuss Voigt Hill
#
# Bulk Modulus (GPa) = 62.50966 70.84974 66.67970
# Shear Modulus (GPa) = 29.17301 35.35029 32.26165
#
# Velocity S-wave (km/s) = 3.88124 4.27245 4.08153
# Velocity P-wave (km/s) = 7.23626 7.80532 7.52617
#
# Compressibility (1/GPa) = 0.01599753
#
# Stress axis : x y z
#
# Youngs Moduli (GPa) = 107.96258 47.21113 45.15881
#
# Poissons Ratio (x) = 0.11810 0.24233
# Poissons Ratio (y) = 0.27006 0.47090
# Poissons Ratio (z) = 0.57934 0.49230
#
# Static dielectric constant tensor:
#      x y z
#    x 3.617140 0.000220 -0.081290 
#    y 0.000220 5.951870 -0.000460 
#    z -0.081290 -0.000460 3.511990 
# 
# 
# High freq. dielectric constant tensor:
#      x y z
#    x 1.770920 0.000000 -0.003070 
#    y 0.000000 1.755730 0.000000 
#    z -0.003070 0.000000 1.761070 
# 
# From -- ./inp_files/244728.got.cif
#   From: 2010.06.25/outbox.cif.g09.slc.cpg/sg12_123_cif.got.tgz:244728.got - 2010.06.28 00:19:55.
