data_PCOD8109149
_publ_section_title
;
Structure prediction by ZEFSAII (Michael W. Deem and Ramdas Pophale) SiO2 
 PCOD8109149
Probable space group: C 2/M
;
_chemical_formula_sum "Si O2"
_cell_formula_units_Z 48
_cell_length_a 30.779248
_cell_length_b 8.861513
_cell_length_c 17.758025
_cell_angle_alpha 90.000000
_cell_angle_beta 29.936799
_cell_angle_gamma 90.000000
_cell_volume 2417.128533
_symmetry_space_group_name_H-M "C 2/M"
_symmetry_group_IT_number 12
_symmetry_cell_setting 'monoclinic'
loop_
_space_group_symop_operation_xyz
x,y,z
-x,y,-z
-x,-y,-z
x,-y,z
1/2+x,1/2+y,z
1/2-x,1/2+y,-z
1/2-x,1/2-y,-z
1/2+x,1/2-y,z
loop_
_atom_site_type_symbol
_atom_site_label
_atom_site_fract_x
_atom_site_fract_y
_atom_site_fract_z
Si Si1 0.751069 0.323150 0.417293
Si Si2 0.410107 0.674824 0.096885
Si Si3 0.251363 0.322748 0.916483
Si Si4 0.416231 0.324962 0.425752
Si Si5 0.093464 0.172741 0.073121
Si Si6 0.910554 0.324277 0.593308
O O1 0.752372 0.500000 0.427174
O O2 0.750000 0.250000 0.500000
O O3 0.834309 0.274596 0.245045
O O4 0.665314 0.272517 0.501333
O O5 0.389955 0.500000 0.143632
O O6 0.500000 0.724276 0.000000
O O7 0.416893 0.709559 0.998757
O O8 0.255719 0.500000 0.920567
O O9 0.334991 0.270494 0.745126
O O10 0.250000 0.250000 0.000000
O O11 0.165097 0.281433 0.000529
O O12 0.408658 0.500000 0.460994
O O13 0.501897 0.293407 0.249063
O O14 0.419530 0.220489 0.493440
O O15 0.122502 0.000000 0.042399
O O16 0.887477 0.500000 0.634456
O O17 0.000000 0.284210 0.500000
#
# Coordination Sequence:
#
# PCOD8109149 Si02
#       6
#     8   8   8   8   8   8
#     4  11  23  39  60  88 120 155 199 246 294 350
#     4  10  21  39  62  88 120 158 198 241 292 350
#     4  12  25  41  62  88 120 156 197 244 294 350
#     4  10  22  40  62  89 120 156 197 241 292 351
#     4  10  21  39  63  89 120 157 196 240 293 350
#     4  11  24  41  62  90 121 154 196 243 292 349
#
# _framework density 19.858274000000002
#
# number of rings (size 3 to 8) (size 9 to 14) (size 15 to 20)
#    0.000    1.333    0.000    5.500    0.000   12.333 
#    0.000    1.667    0.000    0.000    0.000    0.000 
#    0.000    0.000    0.000    0.000    0.000    0.000 
#
# Total GULP energy -297768.001409 kJ/mol
# GULP energy per Si atom -12407.000059 kJ/mol
# Density = 1.981308 g / cm^3
# Si number density = 19.858274 Si / 1000 Ang^3
#
#
#
# Elastic Constant Matrix: (Units=GPa)
#
#
# Indices 1 2 3 4 5 6 
#
# 1 172.6430 75.0809 82.1950 -0.0025 -4.3198 0.0012
# 2 75.0809 90.5004 55.5301 -0.0415 -5.2422 0.0264
# 3 82.1950 55.5301 143.2211 -0.0132 -0.0433 0.0074
# 4 -0.0025 -0.0415 -0.0132 -480.1922 -0.0029 317.4495
# 5 -4.3198 -5.2422 -0.0433 -0.0029 43.8254 0.0025
# 6 0.0012 0.0264 0.0074 317.4495 0.0025 -156.2387
#
#
#
# Elastic Compliance Matrix: (Units=1/GPa)
#
#
# Indices 1 2 3 4 5 6 
#
# 1 0.010165 -0.006351 -0.003371 0.000001 0.000239 0.000000
# 2 -0.006351 0.018599 -0.003566 -0.000001 0.001595 0.000000
# 3 -0.003371 -0.003566 0.010300 0.000000 -0.000749 0.000000
# 4 0.000001 -0.000001 0.000000 0.006068 0.000000 0.012328
# 5 0.000239 0.001595 -0.000749 0.000000 0.023031 0.000000
# 6 0.000000 0.000000 0.000000 0.012328 0.000000 0.018649
#
#
# Mechanical properties :
#
#
# Convention : Reuss Voigt Hill
#
# Bulk Modulus (GPa) = 80.08223 92.44183 86.26203
# Shear Modulus (GPa) = 42.53496 -105.61721 -31.54113
#
# Velocity S-wave (km/s) = 4.63312 -7.30075 -3.98969
# Velocity P-wave (km/s) = 8.30876 4.94126 4.72331
#
# Compressibility (1/GPa) = 0.01248716
#
# Stress axis : x y z
#
# Youngs Moduli (GPa) = 98.37335 53.76665 97.09199
#
# Poissons Ratio (x) = 0.34146 0.32735
# Poissons Ratio (y) = 0.62475 0.34623
# Poissons Ratio (z) = 0.33167 0.19173
#
# Static dielectric constant tensor:
#      x y z
#    x 3.877920 0.000000 -0.052910 
#    y 0.000000 3.629930 0.000000 
#    z -0.052910 0.000000 3.753960 
# 
# 
# High freq. dielectric constant tensor:
#      x y z
#    x 1.795230 0.000000 0.000330 
#    y 0.000000 1.774910 0.000000 
#    z 0.000330 0.000000 1.794050 
# 
# From -- ./inp_files/295370.got.cif
#   From: 2010.06.25/outbox.cif.g09.slc.cpg/sg12_148_cif.got.tgz:295370.got - 2010.06.28 00:19:55.
