data_PCOD8109144
_publ_section_title
;
Structure prediction by ZEFSAII (Michael W. Deem and Ramdas Pophale) SiO2 
 PCOD8109144
Probable space group: C 2/M
;
_chemical_formula_sum "Si O2"
_cell_formula_units_Z 56
_cell_length_a 32.124955
_cell_length_b 8.642233
_cell_length_c 11.168107
_cell_angle_alpha 90.000000
_cell_angle_beta 118.665805
_cell_angle_gamma 90.000000
_cell_volume 2720.582106
_symmetry_space_group_name_H-M "C 2/M"
_symmetry_group_IT_number 12
_symmetry_cell_setting 'monoclinic'
loop_
_space_group_symop_operation_xyz
x,y,z
-x,y,-z
-x,-y,-z
x,-y,z
1/2+x,1/2+y,z
1/2-x,1/2+y,-z
1/2-x,1/2-y,-z
1/2+x,1/2-y,z
loop_
_atom_site_type_symbol
_atom_site_label
_atom_site_fract_x
_atom_site_fract_y
_atom_site_fract_z
Si Si1 0.385712 0.322611 0.325801
Si Si2 0.660974 0.820295 0.374270
Si Si3 0.388640 0.178605 0.081629
Si Si4 0.479582 0.679257 0.099862
Si Si5 0.207732 0.820448 0.662544
Si Si6 0.306313 0.680036 0.825493
Si Si7 0.427742 0.678302 0.632214
O O1 0.390607 0.500000 0.291440
O O2 0.399949 0.214177 0.235482
O O3 0.332306 0.284805 0.294227
O O4 0.422229 0.285471 0.483888
O O5 0.698104 0.776122 0.528905
O O6 0.672116 0.722636 0.272475
O O7 0.607350 0.784680 0.339569
O O8 0.666364 0.000000 0.350897
O O9 0.433723 0.218965 0.062463
O O10 0.376683 0.000000 0.047158
O O11 0.343317 0.277956 0.980227
O O12 0.464491 0.500000 0.077926
O O13 0.518565 0.712732 0.255788
O O14 0.500000 0.729549 0.000000
O O15 0.258030 0.772270 0.785973
O O16 0.207136 0.000000 0.626456
O O17 0.294917 0.500000 0.815313
O O18 0.413627 0.500000 0.638252
#
# Coordination Sequence:
#
# PCOD8109144 Si02
#       7
#     8   8   8   8   8   8   8
#     4   9  20  40  62  84 115 155 198 241 286 344
#     4  11  21  35  58  90 125 156 192 240 293 348
#     4  12  26  41  59  85 118 153 194 245 295 349
#     4  10  21  39  64  91 119 153 192 236 291 352
#     4  10  21  39  62  88 118 154 198 243 289 344
#     4  12  24  39  59  83 116 157 199 243 295 351
#     4   9  19  37  62  89 118 157 200 242 289 343
#
# _framework density 20.583832000000001
#
# number of rings (size 3 to 8) (size 9 to 14) (size 15 to 20)
#    0.000    1.571    0.000    6.429    0.000    6.000 
#    0.000    2.857    0.000    0.000    0.000    0.000 
#    0.000    0.000    0.000    0.000    0.000    0.000 
#
# Total GULP energy -347382.387460 kJ/mol
# GULP energy per Si atom -12406.513838 kJ/mol
# Density = 2.053698 g / cm^3
# Si number density = 20.583832 Si / 1000 Ang^3
#
#
#
# Elastic Constant Matrix: (Units=GPa)
#
#
# Indices 1 2 3 4 5 6 
#
# 1 53.5348 20.1831 36.0930 0.0000 -2.4607 0.0000
# 2 20.1831 67.2038 16.3050 0.0000 -2.0827 0.0000
# 3 36.0930 16.3050 96.2205 0.0000 3.9677 0.0000
# 4 0.0000 0.0000 0.0000 24.2517 0.0000 2.2125
# 5 -2.4607 -2.0827 3.9677 0.0000 35.4390 0.0000
# 6 0.0000 0.0000 0.0000 2.2125 0.0000 34.6950
#
#
#
# Elastic Compliance Matrix: (Units=1/GPa)
#
#
# Indices 1 2 3 4 5 6 
#
# 1 0.027318 -0.005852 -0.009363 0.000000 0.002601 0.000000
# 2 -0.005852 0.016824 -0.000683 0.000000 0.000659 0.000000
# 3 -0.009363 -0.000683 0.014114 0.000000 -0.002270 0.000000
# 4 0.000000 0.000000 0.000000 0.041476 0.000000 -0.002645
# 5 0.002601 0.000659 -0.002270 0.000000 0.028691 0.000000
# 6 0.000000 0.000000 0.000000 -0.002645 0.000000 0.028991
#
#
# Mechanical properties :
#
#
# Convention : Reuss Voigt Hill
#
# Bulk Modulus (GPa) = 37.79243 40.23573 39.01408
# Shear Modulus (GPa) = 25.24892 28.50234 26.87563
#
# Velocity S-wave (km/s) = 3.50614 3.72519 3.61732
# Velocity P-wave (km/s) = 5.89837 6.17190 6.03669
#
# Compressibility (1/GPa) = 0.02646033
#
# Stress axis : x y z
#
# Youngs Moduli (GPa) = 36.60656 59.43990 70.85103
#
# Poissons Ratio (x) = 0.34784 0.66335
# Poissons Ratio (y) = 0.21422 0.04838
# Poissons Ratio (z) = 0.34273 0.04059
#
# Static dielectric constant tensor:
#      x y z
#    x 3.605210 0.000000 0.091710 
#    y 0.000000 3.626370 0.000000 
#    z 0.091710 0.000000 3.845800 
# 
# 
# High freq. dielectric constant tensor:
#      x y z
#    x 1.801550 0.000000 0.004750 
#    y 0.000000 1.801050 0.000000 
#    z 0.004750 0.000000 1.812790 
# 
# From -- ./inp_files/187691.got.cif
#   From: 2010.06.25/outbox.cif.g09.slc.cpg/sg12_94_cif.got.tgz:187691.got - 2010.06.28 00:19:55.
