data_PCOD8109803
_publ_section_title
;
Structure prediction by ZEFSAII (Michael W. Deem and Ramdas Pophale) SiO2 
 PCOD8109803
Probable space group: C 2/M
;
_chemical_formula_sum "Si O2"
_cell_formula_units_Z 56
_cell_length_a 26.624136
_cell_length_b 9.003409
_cell_length_c 11.777045
_cell_angle_alpha 90.000000
_cell_angle_beta 76.289382
_cell_angle_gamma 90.000000
_cell_volume 2742.609475
_symmetry_space_group_name_H-M "C 2/M"
_symmetry_group_IT_number 12
_symmetry_cell_setting 'monoclinic'
loop_
_space_group_symop_operation_xyz
x,y,z
-x,y,-z
-x,-y,-z
x,-y,z
1/2+x,1/2+y,z
1/2-x,1/2+y,-z
1/2-x,1/2-y,-z
1/2+x,1/2-y,z
loop_
_atom_site_type_symbol
_atom_site_label
_atom_site_fract_x
_atom_site_fract_y
_atom_site_fract_z
Si Si1 0.745709 0.675374 0.880632
Si Si2 0.066679 0.172694 0.208737
Si Si3 0.356062 0.670319 0.194878
Si Si4 0.125868 0.831553 0.563218
Si Si5 0.020178 0.327459 0.612793
Si Si6 0.334010 0.670134 0.698152
Si Si7 0.440763 0.824633 0.016113
O O1 0.746681 0.500000 0.896098
O O2 0.692880 0.729140 0.849678
O O3 0.792777 0.721319 0.775383
O O4 0.750000 0.750000 0.000000
O O5 0.109752 0.205252 0.280285
O O6 0.083424 0.253022 0.084025
O O7 0.011886 0.236378 0.277649
O O8 0.060296 0.000000 0.187128
O O9 0.368004 0.500000 0.157281
O O10 0.343030 0.687021 0.335668
O O11 0.406782 0.766897 0.139631
O O12 0.079561 0.715598 0.588571
O O13 0.163977 0.796883 0.437701
O O14 0.104221 0.000000 0.561816
O O15 0.013457 0.500000 0.644811
O O16 0.000000 0.285752 0.500000
O O17 0.318216 0.500000 0.731961
O O18 0.436170 0.000000 0.010682
O O19 0.500000 0.773646 0.000000
#
# Coordination Sequence:
#
# PCOD8109803 Si02
#       7
#     8   8   8   8   8   8   8
#     4  11  24  42  64  90 119 153 198 249 301 355
#     4  11  22  37  60  87 118 157 203 248 293 354
#     4  10  23  42  63  88 119 158 202 246 295 355
#     4  10  21  40  63  87 121 161 201 244 293 356
#     4  11  22  35  55  87 126 161 197 243 294 349
#     4  10  22  39  61  90 119 152 197 245 295 354
#     4  11  24  40  59  87 122 156 197 247 300 355
#
# _framework density 20.418510999999999
#
# number of rings (size 3 to 8) (size 9 to 14) (size 15 to 20)
#    0.000    1.429    1.429    3.429    0.000   11.429 
#    0.000    0.000    0.000    0.000    0.000    0.000 
#    0.000    0.000    0.000    0.000    0.000    0.000 
#
# Total GULP energy -347368.011545 kJ/mol
# GULP energy per Si atom -12406.000412 kJ/mol
# Density = 2.037204 g / cm^3
# Si number density = 20.418511 Si / 1000 Ang^3
#
#
#
# Elastic Constant Matrix: (Units=GPa)
#
#
# Indices 1 2 3 4 5 6 
#
# 1 98.3852 40.8520 51.0076 0.0000 3.3529 0.0000
# 2 40.8520 67.7314 48.6051 0.0000 1.6144 0.0000
# 3 51.0076 48.6051 146.8722 0.0000 4.2314 0.0000
# 4 0.0000 0.0000 0.0000 35.7694 0.0000 -5.4471
# 5 3.3529 1.6144 4.2314 0.0000 36.8410 0.0000
# 6 0.0000 0.0000 0.0000 -5.4471 0.0000 30.2278
#
#
#
# Elastic Compliance Matrix: (Units=1/GPa)
#
#
# Indices 1 2 3 4 5 6 
#
# 1 0.014397 -0.006680 -0.002769 0.000000 -0.000700 0.000000
# 2 -0.006680 0.022462 -0.005120 0.000000 0.000212 0.000000
# 3 -0.002769 -0.005120 0.009482 0.000000 -0.000613 0.000000
# 4 0.000000 0.000000 0.000000 0.028746 0.000000 0.005180
# 5 -0.000700 0.000212 -0.000613 0.000000 0.027268 0.000000
# 6 0.000000 0.000000 0.000000 0.005180 0.000000 0.034016
#
#
# Mechanical properties :
#
#
# Convention : Reuss Voigt Hill
#
# Bulk Modulus (GPa) = 58.12579 65.99092 62.05835
# Shear Modulus (GPa) = 29.19816 32.06926 30.63371
#
# Velocity S-wave (km/s) = 3.78562 3.96738 3.87756
# Velocity P-wave (km/s) = 6.90195 7.30589 7.10679
#
# Compressibility (1/GPa) = 0.01720407
#
# Stress axis : x y z
#
# Youngs Moduli (GPa) = 69.45729 44.51966 105.45866
#
# Poissons Ratio (x) = 0.29738 0.29206
# Poissons Ratio (y) = 0.46395 0.53992
# Poissons Ratio (z) = 0.19236 0.22793
#
# Static dielectric constant tensor:
#      x y z
#    x 3.633470 0.000000 0.130280 
#    y 0.000000 3.649060 0.000000 
#    z 0.130280 0.000000 3.882220 
# 
# 
# High freq. dielectric constant tensor:
#      x y z
#    x 1.788710 0.000000 0.007680 
#    y 0.000000 1.798830 0.000000 
#    z 0.007680 0.000000 1.815630 
# 
# From -- ./inp_files/180742.got.cif
#   From: 2010.06.25/outbox.cif.g09.slc.cpg/sg12_91_cif.got.tgz:180742.got - 2010.06.28 00:19:55.
