data_PCOD8109646
_publ_section_title
;
Structure prediction by ZEFSAII (Michael W. Deem and Ramdas Pophale) SiO2 
 PCOD8109646
Probable space group: C 2/M
;
_chemical_formula_sum "Si O2"
_cell_formula_units_Z 32
_cell_length_a 9.268853
_cell_length_b 17.719557
_cell_length_c 12.106738
_cell_angle_alpha 90.000000
_cell_angle_beta 129.421718
_cell_angle_gamma 90.000000
_cell_volume 1536.032865
_symmetry_space_group_name_H-M "C 2/M"
_symmetry_group_IT_number 12
_symmetry_cell_setting 'monoclinic'
loop_
_space_group_symop_operation_xyz
x,y,z
-x,y,-z
-x,-y,-z
x,-y,z
1/2+x,1/2+y,z
1/2-x,1/2+y,-z
1/2-x,1/2-y,-z
1/2+x,1/2-y,z
loop_
_atom_site_type_symbol
_atom_site_label
_atom_site_fract_x
_atom_site_fract_y
_atom_site_fract_z
Si Si1 0.432683 0.587061 0.198907
Si Si2 0.316727 0.849415 0.340691
Si Si3 0.803780 0.330818 0.090475
Si Si4 0.803468 0.702307 0.809489
O O1 0.381356 0.500000 0.186012
O O2 0.654725 0.598507 0.312071
O O3 0.337580 0.631642 0.254891
O O4 0.355419 0.619296 0.045149
O O5 0.500000 0.863755 0.500000
O O6 0.355514 0.871302 0.231940
O O7 0.251895 0.760802 0.315092
O O8 0.720246 0.246788 0.082002
O O9 0.989948 0.329476 0.106646
#
# Coordination Sequence:
#
# PCOD8109646 Si02
#       4
#     8   8   8   8
#     4  12  25  40  63  98 132 160 203 265 321 367
#     4  10  23  42  66  93 121 172 217 254 300 377
#     4  10  22  38  66  94 125 160 208 258 311 369
#     4  10  21  39  68  93 124 161 211 257 312 366
#
# _framework density 20.832888000000001
#
# number of rings (size 3 to 8) (size 9 to 14) (size 15 to 20)
#    1.500    0.000    2.500    2.250    3.500    8.500 
#    0.000    0.000    0.000    5.250    0.000    0.000 
#    0.000    0.000    0.000    0.000    0.000    0.000 
#
# Total GULP energy -198368.462934 kJ/mol
# GULP energy per Si atom -12398.028933 kJ/mol
# Density = 2.078547 g / cm^3
# Si number density = 20.832888 Si / 1000 Ang^3
#
#
#
# Elastic Constant Matrix: (Units=GPa)
#
#
# Indices 1 2 3 4 5 6 
#
# 1 116.9956 17.7858 25.6695 0.0000 24.2985 0.0000
# 2 17.7858 110.2471 8.4769 0.0000 8.8509 0.0000
# 3 25.6695 8.4769 114.9484 0.0000 26.8956 0.0000
# 4 0.0000 0.0000 0.0000 10.3552 0.0000 4.6820
# 5 24.2985 8.8509 26.8956 0.0000 27.7633 0.0000
# 6 0.0000 0.0000 0.0000 4.6820 0.0000 25.0254
#
#
#
# Elastic Compliance Matrix: (Units=1/GPa)
#
#
# Indices 1 2 3 4 5 6 
#
# 1 0.010555 -0.000987 -0.000254 0.000000 -0.008677 0.000000
# 2 -0.000987 0.009401 0.000034 0.000000 -0.002166 0.000000
# 3 -0.000254 0.000034 0.011256 0.000000 -0.010692 0.000000
# 4 0.000000 0.000000 0.000000 0.105494 0.000000 -0.019737
# 5 -0.008677 -0.002166 -0.010692 0.000000 0.054662 0.000000
# 6 0.000000 0.000000 0.000000 -0.019737 0.000000 0.043652
#
#
# Mechanical properties :
#
#
# Convention : Reuss Voigt Hill
#
# Bulk Modulus (GPa) = 34.72440 49.56174 42.14307
# Shear Modulus (GPa) = 20.24028 31.97939 26.10983
#
# Velocity S-wave (km/s) = 3.12036 3.92221 3.54404
# Velocity P-wave (km/s) = 5.44853 6.65984 6.08440
#
# Compressibility (1/GPa) = 0.02879819
#
# Stress axis : x y z
#
# Youngs Moduli (GPa) = 94.73979 106.37144 88.84513
#
# Poissons Ratio (x) = 0.10495 0.02257
# Poissons Ratio (y) = 0.09348 -0.00302
# Poissons Ratio (z) = 0.02407 -0.00361
#
# Static dielectric constant tensor:
#      x y z
#    x 3.714090 0.000000 -0.003320 
#    y 0.000000 3.475010 0.000000 
#    z -0.003320 0.000000 3.438630 
# 
# 
# High freq. dielectric constant tensor:
#      x y z
#    x 1.827630 0.000000 0.012620 
#    y 0.000000 1.784890 0.000000 
#    z 0.012620 0.000000 1.800700 
# 
# From -- ./inp_files/195174.got.cif
#   From: 2010.06.25/outbox.cif.g09.slc.cpg/sg12_98_cif.got.tgz:195174.got - 2010.06.28 00:19:55.
