data_PCOD8109048
_publ_section_title
;
Structure prediction by ZEFSAII (Michael W. Deem and Ramdas Pophale) SiO2 
 PCOD8109048
Probable space group: C 2/M
;
_chemical_formula_sum "Si O2"
_cell_formula_units_Z 40
_cell_length_a 13.734355
_cell_length_b 10.419310
_cell_length_c 13.555289
_cell_angle_alpha 90.000000
_cell_angle_beta 105.181953
_cell_angle_gamma 90.000000
_cell_volume 1872.095024
_symmetry_space_group_name_H-M "C 2/M"
_symmetry_group_IT_number 12
_symmetry_cell_setting 'monoclinic'
loop_
_space_group_symop_operation_xyz
x,y,z
-x,y,-z
-x,-y,-z
x,-y,z
1/2+x,1/2+y,z
1/2-x,1/2+y,-z
1/2-x,1/2-y,-z
1/2+x,1/2-y,z
loop_
_atom_site_type_symbol
_atom_site_label
_atom_site_fract_x
_atom_site_fract_y
_atom_site_fract_z
Si Si1 0.049117 0.854292 0.610102
Si Si2 0.741073 0.141908 0.415089
Si Si3 0.667197 0.646279 0.095051
Si Si4 0.882717 0.642165 0.072924
Si Si5 0.061934 0.728797 0.243292
O O1 0.169407 0.836873 0.639485
O O2 0.000000 0.785433 0.500000
O O3 0.011049 0.803262 0.703149
O O4 0.013546 0.000000 0.597702
O O5 0.750000 0.250000 0.500000
O O6 0.637143 0.143289 0.327822
O O7 0.751039 0.000000 0.466993
O O8 0.637699 0.500000 0.058191
O O9 0.788103 0.665636 0.121229
O O10 0.628411 0.674004 0.194925
O O11 0.612956 0.745871 0.007012
O O12 0.871979 0.500000 0.020907
O O13 0.988419 0.640957 0.158702
#
# Coordination Sequence:
#
# PCOD8109048 Si02
#       5
#     8   8   8   8   8
#     4  10  21  39  61  88 125 166 208 256 314 370
#     4  11  24  42  63  90 124 165 213 259 311 371
#     4  10  23  42  66  96 127 164 211 257 309 375
#     4  10  23  43  64  92 132 167 203 257 318 377
#     4  12  22  38  66  95 125 165 212 262 312 367
#
# _framework density 21.366437000000001
#
# number of rings (size 3 to 8) (size 9 to 14) (size 15 to 20)
#    0.000    1.400    2.000    3.000    0.000    5.600 
#    0.000    7.000    0.000    0.000    0.000    0.000 
#    0.000    0.000    0.000    0.000    0.000    0.000 
#
# Total GULP energy -247940.398691 kJ/mol
# GULP energy per Si atom -12397.019935 kJ/mol
# Density = 2.131781 g / cm^3
# Si number density = 21.366437 Si / 1000 Ang^3
#
#
#
# Elastic Constant Matrix: (Units=GPa)
#
#
# Indices 1 2 3 4 5 6 
#
# 1 121.5012 51.6705 47.6748 0.0000 0.9083 0.0000
# 2 51.6705 145.9769 58.2113 0.0000 -12.5053 0.0000
# 3 47.6748 58.2113 87.7532 0.0000 -7.0520 0.0000
# 4 0.0000 0.0000 0.0000 28.8080 0.0000 1.0487
# 5 0.9083 -12.5053 -7.0520 0.0000 53.3434 0.0000
# 6 0.0000 0.0000 0.0000 1.0487 0.0000 19.4630
#
#
#
# Elastic Compliance Matrix: (Units=1/GPa)
#
#
# Indices 1 2 3 4 5 6 
#
# 1 0.010974 -0.002144 -0.004645 0.000000 -0.001304 0.000000
# 2 -0.002144 0.009835 -0.005227 0.000000 0.001651 0.000000
# 3 -0.004645 -0.005227 0.017480 0.000000 0.001165 0.000000
# 4 0.000000 0.000000 0.000000 0.034781 0.000000 -0.001874
# 5 -0.001304 0.001651 0.001165 0.000000 0.019310 0.000000
# 6 0.000000 0.000000 0.000000 -0.001874 0.000000 0.051481
#
#
# Mechanical properties :
#
#
# Convention : Reuss Voigt Hill
#
# Bulk Modulus (GPa) = 70.13400 74.48270 72.30835
# Shear Modulus (GPa) = 28.96143 33.50118 31.23131
#
# Velocity S-wave (km/s) = 3.68566 3.96401 3.82737
# Velocity P-wave (km/s) = 7.14197 7.47573 7.31075
#
# Compressibility (1/GPa) = 0.01425842
#
# Stress axis : x y z
#
# Youngs Moduli (GPa) = 91.12114 101.67824 57.20950
#
# Poissons Ratio (x) = 0.21800 0.26572
# Poissons Ratio (y) = 0.19537 0.29901
# Poissons Ratio (z) = 0.42323 0.53142
#
# Static dielectric constant tensor:
#      x y z
#    x 4.162920 0.000000 -0.020830 
#    y 0.000000 3.865630 0.000000 
#    z -0.020830 0.000000 3.805590 
# 
# 
# High freq. dielectric constant tensor:
#      x y z
#    x 1.864860 0.000000 -0.003960 
#    y 0.000000 1.832250 0.000000 
#    z -0.003960 0.000000 1.820750 
# 
# From -- ./inp_files/140479.got.cif
#   From: 2010.06.25/outbox.cif.g09.slc.cpg/sg12_71_cif.got.tgz:140479.got - 2010.06.28 00:19:55.
