data_PCOD8109550
_publ_section_title
;
Structure prediction by ZEFSAII (Michael W. Deem and Ramdas Pophale) SiO2 
 PCOD8109550
Probable space group: C 2/M
;
_chemical_formula_sum "Si O2"
_cell_formula_units_Z 40
_cell_length_a 12.351648
_cell_length_b 23.712115
_cell_length_c 8.111530
_cell_angle_alpha 90.000000
_cell_angle_beta 132.280056
_cell_angle_gamma 90.000000
_cell_volume 1757.723858
_symmetry_space_group_name_H-M "C 2/M"
_symmetry_group_IT_number 12
_symmetry_cell_setting 'monoclinic'
loop_
_space_group_symop_operation_xyz
x,y,z
-x,y,-z
-x,-y,-z
x,-y,z
1/2+x,1/2+y,z
1/2-x,1/2+y,-z
1/2-x,1/2-y,-z
1/2+x,1/2-y,z
loop_
_atom_site_type_symbol
_atom_site_label
_atom_site_fract_x
_atom_site_fract_y
_atom_site_fract_z
Si Si1 0.267912 0.934797 0.439047
Si Si2 0.016267 0.628938 0.826920
Si Si3 0.869101 0.723368 0.490352
Si Si4 0.922385 0.845781 0.593838
Si Si5 0.703845 0.358720 0.090591
O O1 0.440750 0.920436 0.638498
O O2 0.184775 0.898612 0.494664
O O3 0.211365 0.917376 0.199603
O O4 0.236080 0.000000 0.435828
O O5 0.931498 0.686837 0.704555
O O6 0.185531 0.636158 0.949991
O O7 0.000000 0.612734 0.000000
O O8 0.825866 0.786837 0.511255
O O9 0.742917 0.691123 0.259340
O O10 0.000000 0.736760 0.500000
O O11 0.000000 0.852564 0.500000
O O12 0.042217 0.846426 0.861244
#
# Coordination Sequence:
#
# PCOD8109550 Si02
#       5
#     8   8   8   8   8
#     4  11  25  43  61  85 120 164 209 251 301 357
#     4  10  21  39  65  94 122 153 198 252 302 357
#     4   8  19  37  60  91 126 158 191 235 301 371
#     4  11  23  39  64  94 124 157 199 252 301 351
#     4  10  22  41  63  90 123 162 201 240 300 371
#
# _framework density 22.756703999999999
#
# number of rings (size 3 to 8) (size 9 to 14) (size 15 to 20)
#    0.000    2.000    0.000    3.600    0.000   17.600 
#    0.000    4.000    0.000    0.000    0.000    0.000 
#    0.000    0.000    0.000    0.000    0.000    0.000 
#
# Total GULP energy -248032.212131 kJ/mol
# GULP energy per Si atom -12401.610607 kJ/mol
# Density = 2.270491 g / cm^3
# Si number density = 22.756704 Si / 1000 Ang^3
#
#
#
# Elastic Constant Matrix: (Units=GPa)
#
#
# Indices 1 2 3 4 5 6 
#
# 1 54.4121 43.0132 6.7361 0.0000 -4.3878 0.0000
# 2 43.0132 188.6569 30.5165 0.0000 6.2408 0.0000
# 3 6.7361 30.5165 90.8985 0.0000 2.4613 0.0000
# 4 0.0000 0.0000 0.0000 13.0668 0.0000 -3.4810
# 5 -4.3878 6.2408 2.4613 0.0000 44.0477 0.0000
# 6 0.0000 0.0000 0.0000 -3.4810 0.0000 28.2656
#
#
#
# Elastic Compliance Matrix: (Units=1/GPa)
#
#
# Indices 1 2 3 4 5 6 
#
# 1 0.022813 -0.005303 0.000008 0.000000 0.003023 0.000000
# 2 -0.005303 0.006859 -0.001872 0.000000 -0.001395 0.000000
# 3 0.000008 -0.001872 0.011640 0.000000 -0.000384 0.000000
# 4 0.000000 0.000000 0.000000 0.079126 0.000000 0.009744
# 5 0.003023 -0.001395 -0.000384 0.000000 0.023223 0.000000
# 6 0.000000 0.000000 0.000000 0.009744 0.000000 0.036579
#
#
# Mechanical properties :
#
#
# Convention : Reuss Voigt Hill
#
# Bulk Modulus (GPa) = 37.06771 54.94433 46.00602
# Shear Modulus (GPa) = 24.56231 33.98947 29.27589
#
# Velocity S-wave (km/s) = 3.28890 3.86891 3.59063
# Velocity P-wave (km/s) = 5.54496 6.64489 6.11969
#
# Compressibility (1/GPa) = 0.02697766
#
# Stress axis : x y z
#
# Youngs Moduli (GPa) = 43.83506 145.80409 85.91417
#
# Poissons Ratio (x) = 0.77313 -0.00066
# Poissons Ratio (y) = 0.23244 0.16082
# Poissons Ratio (z) = -0.00034 0.27292
#
# Static dielectric constant tensor:
#      x y z
#    x 4.486390 0.000000 0.190860 
#    y 0.000000 3.957220 0.000000 
#    z 0.190860 0.000000 4.174210 
# 
# 
# High freq. dielectric constant tensor:
#      x y z
#    x 1.934740 0.000000 0.002300 
#    y 0.000000 1.872620 0.000000 
#    z 0.002300 0.000000 1.895910 
# 
# From -- ./inp_files/65603.got.cif
#   From: 2010.06.25/outbox.cif.g09.slc.cpg/sg12_33_cif.got.tgz:65603.got - 2010.06.28 00:19:55.
