data_PCOD8109512
_publ_section_title
;
Structure prediction by ZEFSAII (Michael W. Deem and Ramdas Pophale) SiO2 
 PCOD8109512
Probable space group: C 2/M
;
_chemical_formula_sum "Si O2"
_cell_formula_units_Z 60
_cell_length_a 11.430389
_cell_length_b 23.213930
_cell_length_c 20.725134
_cell_angle_alpha 90.000000
_cell_angle_beta 149.515926
_cell_angle_gamma 90.000000
_cell_volume 2789.786067
_symmetry_space_group_name_H-M "C 2/M"
_symmetry_group_IT_number 12
_symmetry_cell_setting 'monoclinic'
loop_
_space_group_symop_operation_xyz
x,y,z
-x,y,-z
-x,-y,-z
x,-y,z
1/2+x,1/2+y,z
1/2-x,1/2+y,-z
1/2-x,1/2-y,-z
1/2+x,1/2-y,z
loop_
_atom_site_type_symbol
_atom_site_label
_atom_site_fract_x
_atom_site_fract_y
_atom_site_fract_z
Si Si1 0.400561 0.652738 0.270792
Si Si2 0.616769 0.564534 0.910748
Si Si3 0.320452 0.123230 0.271618
Si Si4 0.140781 0.432863 0.841692
Si Si5 0.290346 0.640914 0.362224
Si Si6 0.082193 0.729753 0.363585
Si Si7 0.000000 0.604390 0.000000
Si Si8 0.180266 0.432678 0.529040
O O1 0.372018 0.665586 0.332909
O O2 0.489897 0.713048 0.284164
O O3 0.153040 0.642252 0.120989
O O4 0.580156 0.600557 0.344248
O O5 0.514780 0.500000 0.860836
O O6 0.405109 0.607969 0.791738
O O7 0.704454 0.580988 0.023089
O O8 0.824792 0.566338 0.958716
O O9 0.252992 0.099945 0.168869
O O10 0.374355 0.191363 0.295866
O O11 0.554855 0.090678 0.405163
O O12 0.131619 0.500000 0.822388
O O13 0.886819 0.409972 0.735657
O O14 0.500000 0.611298 0.500000
O O15 0.201316 0.693324 0.363847
O O16 0.250000 0.750000 0.500000
O O17 0.240283 0.500000 0.551039
O O18 0.000000 0.420036 0.500000
#
# Coordination Sequence:
#
# PCOD8109512 Si02
#       8
#     8   8   8   8   8   8   4   8
#     4  12  25  46  66  99 135 182 228 277 346 408
#     4  11  23  42  68  98 138 186 230 275 343 421
#     4  11  22  41  69 100 134 171 230 286 345 406
#     4  10  21  39  64  98 139 177 220 276 339 410
#     4  11  22  40  69  97 133 169 229 280 337 410
#     4  11  23  45  70  99 131 179 222 286 347 405
#     4  12  27  46  64  94 142 186 231 280 340 418
#     4  11  24  41  67 103 138 173 226 289 347 409
#
# _framework density 21.507024999999999
#
# number of rings (size 3 to 8) (size 9 to 14) (size 15 to 20)
#    0.000    0.933    4.000    3.400    0.000    6.667 
#    4.800    1.333    0.000    0.000    0.000    0.000 
#    0.000    0.000    0.000    0.000    0.000    0.000 
#
# Total GULP energy -371978.215635 kJ/mol
# GULP energy per Si atom -12399.273855 kJ/mol
# Density = 2.145807 g / cm^3
# Si number density = 21.507025 Si / 1000 Ang^3
#
#
#
# Elastic Constant Matrix: (Units=GPa)
#
#
# Indices 1 2 3 4 5 6 
#
# 1 85.8161 36.3309 27.0606 -0.0015 6.6914 0.0049
# 2 36.3309 127.9117 70.0847 0.0034 13.7846 -0.0045
# 3 27.0606 70.0847 118.6045 -0.0423 11.4859 0.0037
# 4 -0.0015 0.0034 -0.0423 30.4472 -0.0059 0.2581
# 5 6.6914 13.7846 11.4859 -0.0059 41.3927 -0.0001
# 6 0.0049 -0.0045 0.0037 0.2581 -0.0001 25.1471
#
#
#
# Elastic Compliance Matrix: (Units=1/GPa)
#
#
# Indices 1 2 3 4 5 6 
#
# 1 0.013385 -0.003081 -0.001154 -0.000001 -0.000817 -0.000003
# 2 -0.003081 0.012435 -0.006466 -0.000011 -0.001849 0.000004
# 3 -0.001154 -0.006466 0.012628 0.000018 -0.001164 -0.000003
# 4 -0.000001 -0.000011 0.000018 0.032847 0.000003 -0.000337
# 5 -0.000817 -0.001849 -0.001164 0.000003 0.025230 0.000000
# 6 -0.000003 0.000004 -0.000003 -0.000337 0.000000 0.039770
#
#
# Mechanical properties :
#
#
# Convention : Reuss Voigt Hill
#
# Bulk Modulus (GPa) = 58.66554 66.58717 62.62635
# Shear Modulus (GPa) = 30.60373 32.65447 31.62910
#
# Velocity S-wave (km/s) = 3.77631 3.90079 3.83905
# Velocity P-wave (km/s) = 6.80813 7.16352 6.98809
#
# Compressibility (1/GPa) = 0.01704578
#
# Stress axis : x y z
#
# Youngs Moduli (GPa) = 74.71068 80.41721 79.18766
#
# Poissons Ratio (x) = 0.24780 0.09137
# Poissons Ratio (y) = 0.23022 0.51203
# Poissons Ratio (z) = 0.08621 0.51998
#
# Static dielectric constant tensor:
#      x y z
#    x 4.003850 0.000000 0.005430 
#    y 0.000000 3.958450 0.000030 
#    z 0.005430 0.000030 4.039980 
# 
# 
# High freq. dielectric constant tensor:
#      x y z
#    x 1.853530 0.000000 -0.001820 
#    y 0.000000 1.833630 0.000000 
#    z -0.001820 0.000000 1.857190 
# 
# From -- ./inp_files/307323.got.cif
#   From: 2010.06.25/outbox.cif.g09.slc.cpg/sg12_154_cif.got.tgz:307323.got - 2010.06.28 00:19:55.
