data_PCOD8109258
_publ_section_title
;
Structure prediction by ZEFSAII (Michael W. Deem and Ramdas Pophale) SiO2 
 PCOD8109258
Probable space group: C 2/M
;
_chemical_formula_sum "Si O2"
_cell_formula_units_Z 40
_cell_length_a 20.464696
_cell_length_b 8.535409
_cell_length_c 11.512427
_cell_angle_alpha 90.000000
_cell_angle_beta 89.901843
_cell_angle_gamma 90.000000
_cell_volume 2010.925060
_symmetry_space_group_name_H-M "C 2/M"
_symmetry_group_IT_number 12
_symmetry_cell_setting 'monoclinic'
loop_
_space_group_symop_operation_xyz
x,y,z
-x,y,-z
-x,-y,-z
x,-y,z
1/2+x,1/2+y,z
1/2-x,1/2+y,-z
1/2-x,1/2-y,-z
1/2+x,1/2-y,z
loop_
_atom_site_type_symbol
_atom_site_label
_atom_site_fract_x
_atom_site_fract_y
_atom_site_fract_z
Si Si1 0.002895 0.814398 0.627754
Si Si2 0.622992 0.315274 0.238515
Si Si3 0.253294 0.815943 0.629765
Si Si4 0.626902 0.314459 0.770380
Si Si5 0.075480 0.683858 0.005071
O O1 0.942519 0.749981 0.701676
O O2 0.000000 0.739807 0.500000
O O3 0.069743 0.760042 0.685000
O O4 0.998639 0.000000 0.621011
O O5 0.631993 0.500000 0.251826
O O6 0.682169 0.232526 0.302932
O O7 0.617108 0.270015 0.104200
O O8 0.250000 0.750000 0.500000
O O9 0.193168 0.756630 0.709061
O O10 0.249300 0.000000 0.617032
O O11 0.625956 0.500000 0.794436
O O12 0.615671 0.223174 0.889620
O O13 0.075969 0.500000 0.029133
O O14 0.000000 0.745468 0.000000
#
# Coordination Sequence:
#
# PCOD8109258 Si02
#       5
#     8   8   8   8   8
#     4   9  17  32  57  87 114 148 201 252 295 352
#     4  11  22  38  64  90 121 163 205 252 305 362
#     4  11  24  42  64  91 127 164 203 252 305 363
#     4  10  21  39  63  88 118 162 210 251 298 360
#     4  11  23  39  61  91 128 159 197 257 316 364
#
# _framework density 19.891344
#
# number of rings (size 3 to 8) (size 9 to 14) (size 15 to 20)
#    0.000    1.600    2.000    3.000    0.000    6.400 
#    0.000    0.000    0.000    3.000    0.000    0.000 
#    0.000    0.000    0.000    0.000    0.000    0.000 
#
# Total GULP energy -248036.851188 kJ/mol
# GULP energy per Si atom -12401.842559 kJ/mol
# Density = 1.984607 g / cm^3
# Si number density = 19.891344 Si / 1000 Ang^3
#
#
#
# Elastic Constant Matrix: (Units=GPa)
#
#
# Indices 1 2 3 4 5 6 
#
# 1 33.8032 30.9205 -27.7547 0.0000 21.1655 0.0000
# 2 30.9205 27.3636 25.4407 0.0000 -12.8342 0.0000
# 3 -27.7547 25.4407 83.3957 0.0000 16.4598 0.0000
# 4 0.0000 0.0000 0.0000 29.3357 0.0000 2.2657
# 5 21.1655 -12.8342 16.4598 0.0000 36.3454 0.0000
# 6 0.0000 0.0000 0.0000 2.2657 0.0000 28.6457
#
#
#
# Elastic Compliance Matrix: (Units=1/GPa)
#
#
# Indices 1 2 3 4 5 6 
#
# 1 -0.003487 0.018803 -0.009453 0.000000 0.012951 0.000000
# 2 0.018803 -0.001090 0.009694 0.000000 -0.015725 0.000000
# 3 -0.009453 0.009694 0.004531 0.000000 0.006876 0.000000
# 4 0.000000 0.000000 0.000000 0.034298 0.000000 -0.002713
# 5 0.012951 -0.015725 0.006876 0.000000 0.011305 0.000000
# 6 0.000000 0.000000 0.000000 -0.002713 0.000000 0.035124
#
#
# Mechanical properties :
#
#
# Convention : Reuss Voigt Hill
#
# Bulk Modulus (GPa) = 26.28672 22.41951 24.35312
# Shear Modulus (GPa) = 90.46190 26.59576 58.52883
#
# Velocity S-wave (km/s) = 6.75106 3.66054 5.43030
# Velocity P-wave (km/s) = 8.60307 5.40014 7.18242
#
# Compressibility (1/GPa) = 0.03804202
#
# Stress axis : x y z
#
# Youngs Moduli (GPa) = -286.78326 -917.06376 220.71485
#
# Poissons Ratio (x) = 17.24351 2.08634
# Poissons Ratio (y) = 5.39237 -2.13962
# Poissons Ratio (z) = -2.71087 8.89006
#
# Static dielectric constant tensor:
#      x y z
#    x 4.331500 0.000000 1.642050 
#    y 0.000000 3.374970 0.000000 
#    z 1.642050 0.000000 9.320250 
# 
# 
# High freq. dielectric constant tensor:
#      x y z
#    x 1.784260 0.000000 0.000060 
#    y 0.000000 1.758370 0.000000 
#    z 0.000060 0.000000 1.795020 
# 
# From -- ./inp_files/151684.got.cif
#   From: 2010.06.25/outbox.cif.g09.slc.cpg/sg12_76_cif.got.tgz:151684.got - 2010.06.28 00:19:55.
