data_PCOD8109060
_publ_section_title
;
Structure prediction by ZEFSAII (Michael W. Deem and Ramdas Pophale) SiO2 
 PCOD8109060
Probable space group: C 2/M
;
_chemical_formula_sum "Si O2"
_cell_formula_units_Z 64
_cell_length_a 18.684569
_cell_length_b 13.945735
_cell_length_c 25.427104
_cell_angle_alpha 90.000000
_cell_angle_beta 151.628009
_cell_angle_gamma 90.000000
_cell_volume 3148.418571
_symmetry_space_group_name_H-M "C 2/M"
_symmetry_group_IT_number 12
_symmetry_cell_setting 'monoclinic'
loop_
_space_group_symop_operation_xyz
x,y,z
-x,y,-z
-x,-y,-z
x,-y,z
1/2+x,1/2+y,z
1/2-x,1/2+y,-z
1/2-x,1/2-y,-z
1/2+x,1/2-y,z
loop_
_atom_site_type_symbol
_atom_site_label
_atom_site_fract_x
_atom_site_fract_y
_atom_site_fract_z
Si Si1 0.248875 0.268973 0.669457
Si Si2 0.073377 0.772396 0.649051
Si Si3 0.578769 0.389743 0.135837
Si Si4 0.211012 0.105924 0.505761
Si Si5 0.339650 0.764353 0.894539
Si Si6 0.763070 0.810487 0.954703
Si Si7 0.058975 0.391580 0.257016
Si Si8 0.876088 0.610938 0.508197
O O1 0.121242 0.211164 0.619491
O O2 0.314615 0.349039 0.750234
O O3 0.374493 0.189822 0.737809
O O4 0.178759 0.325973 0.575990
O O5 0.205696 0.810602 0.773175
O O6 0.917177 0.824618 0.557536
O O7 0.032439 0.658558 0.630232
O O8 0.614372 0.500000 0.149024
O O9 0.612091 0.335770 0.102428
O O10 0.409361 0.377477 0.048221
O O11 0.366045 0.123343 0.637410
O O12 0.244789 0.120796 0.466373
O O13 0.148903 0.000000 0.476043
O O14 0.274492 0.758610 0.911245
O O15 0.500000 0.824031 0.000000
O O16 0.619168 0.878041 0.854263
O O17 0.750000 0.750000 0.000000
O O18 0.090940 0.500000 0.256834
O O19 0.905577 0.500000 0.512399
#
# Coordination Sequence:
#
# PCOD8109060 Si02
#       8
#     8   8   8   8   8   8   8   8
#     4  11  23  38  58  91 125 164 200 256 302 356
#     4  11  22  38  63  85 120 165 202 242 305 364
#     4  10  21  39  61  89 126 163 201 246 305 371
#     4  10  23  40  62  90 120 160 208 251 299 362
#     4   9  22  38  59  89 119 160 195 248 302 363
#     4  11  21  37  62  90 120 161 203 252 304 355
#     4  11  23  39  60  88 122 160 207 254 301 354
#     4  11  23  38  60  93 128 159 198 251 309 368
#
# _framework density 20.327665
#
# number of rings (size 3 to 8) (size 9 to 14) (size 15 to 20)
#    0.000    1.500    2.500    2.250    1.750    6.250 
#    0.000    1.250    0.000    1.125    0.000    0.000 
#    0.000    0.000    0.000    0.000    0.000    0.000 
#
# Total GULP energy -396543.041713 kJ/mol
# GULP energy per Si atom -12391.970054 kJ/mol
# Density = 2.028140 g / cm^3
# Si number density = 20.327665 Si / 1000 Ang^3
#
#
#
# Elastic Constant Matrix: (Units=GPa)
#
#
# Indices 1 2 3 4 5 6 
#
# 1 116.2316 30.9212 32.1388 -0.0100 -9.2036 -0.0009
# 2 30.9212 54.0129 25.8939 0.0065 -1.2946 0.0013
# 3 32.1388 25.8939 115.7246 0.0296 -1.1945 0.0041
# 4 -0.0100 0.0065 0.0296 17.2470 -0.0003 -5.9155
# 5 -9.2036 -1.2946 -1.1945 -0.0003 31.8785 -0.0002
# 6 -0.0009 0.0013 0.0041 -5.9155 -0.0002 20.3488
#
#
#
# Elastic Compliance Matrix: (Units=1/GPa)
#
#
# Indices 1 2 3 4 5 6 
#
# 1 0.010703 -0.005207 -0.001778 0.000013 0.002812 0.000005
# 2 -0.005207 0.023287 -0.003771 -0.000006 -0.000699 -0.000003
# 3 -0.001778 -0.003771 0.009976 -0.000019 -0.000293 -0.000007
# 4 0.000013 -0.000006 -0.000019 0.064403 0.000003 0.018722
# 5 0.002812 -0.000699 -0.000293 0.000003 0.032142 0.000002
# 6 0.000005 -0.000003 -0.000007 0.018722 0.000002 0.054586
#
#
# Mechanical properties :
#
#
# Convention : Reuss Voigt Hill
#
# Bulk Modulus (GPa) = 44.54084 51.54186 48.04135
# Shear Modulus (GPa) = 22.31209 27.02921 24.67065
#
# Velocity S-wave (km/s) = 3.31663 3.65043 3.48753
# Velocity P-wave (km/s) = 6.05192 6.57100 6.31680
#
# Compressibility (1/GPa) = 0.02245131
#
# Stress axis : x y z
#
# Youngs Moduli (GPa) = 93.42975 42.94320 100.24126
#
# Poissons Ratio (x) = 0.22363 0.17826
# Poissons Ratio (y) = 0.48653 0.37806
# Poissons Ratio (z) = 0.16614 0.16196
#
# Static dielectric constant tensor:
#      x y z
#    x 3.891780 -0.000010 -0.008970 
#    y -0.000010 3.519600 0.000010 
#    z -0.008970 0.000010 4.023240 
# 
# 
# High freq. dielectric constant tensor:
#      x y z
#    x 1.806500 0.000000 0.004160 
#    y 0.000000 1.763910 0.000000 
#    z 0.004160 0.000000 1.812310 
# 
# From -- ./inp_files/344077.got.cif
#   From: 2010.06.25/outbox.cif.g09.slc.cpg/sg12_173_cif.got.tgz:344077.got - 2010.06.28 00:19:55.
