data_PCOD8109461
_publ_section_title
;
Structure prediction by ZEFSAII (Michael W. Deem and Ramdas Pophale) SiO2 
 PCOD8109461
Probable space group: C 2/M
;
_chemical_formula_sum "Si O2"
_cell_formula_units_Z 36
_cell_length_a 13.269769
_cell_length_b 17.397781
_cell_length_c 11.105103
_cell_angle_alpha 90.000000
_cell_angle_beta 136.421492
_cell_angle_gamma 90.000000
_cell_volume 1767.332408
_symmetry_space_group_name_H-M "C 2/M"
_symmetry_group_IT_number 12
_symmetry_cell_setting 'monoclinic'
loop_
_space_group_symop_operation_xyz
x,y,z
-x,y,-z
-x,-y,-z
x,-y,z
1/2+x,1/2+y,z
1/2-x,1/2+y,-z
1/2-x,1/2-y,-z
1/2+x,1/2-y,z
loop_
_atom_site_type_symbol
_atom_site_label
_atom_site_fract_x
_atom_site_fract_y
_atom_site_fract_z
Si Si1 0.500000 0.813272 0.000000
Si Si2 0.055790 0.088242 0.911387
Si Si3 0.106543 0.417059 0.485824
Si Si4 0.626332 0.910656 0.906833
Si Si5 0.165387 0.794694 0.322708
O O1 0.387973 0.863703 0.982037
O O2 0.610171 0.762770 0.173731
O O3 0.968647 0.149402 0.750649
O O4 0.025241 0.000000 0.846638
O O5 0.226435 0.108427 0.040382
O O6 0.000000 0.102381 0.000000
O O7 0.182191 0.500000 0.519459
O O8 0.219884 0.355072 0.632733
O O9 0.000000 0.435663 0.500000
O O10 0.014804 0.385724 0.292805
O O11 0.622063 0.000000 0.935538
O O12 0.250000 0.750000 0.500000
#
# Coordination Sequence:
#
# PCOD8109461 Si02
#       5
#     4   8   8   8   8
#     4  12  25  42  63  92 136 170 206 254 321 388
#     4  10  21  41  67  94 124 162 212 266 314 364
#     4  10  21  39  64  93 122 161 216 267 307 364
#     4  10  22  42  67  91 125 171 215 259 311 376
#     4  12  24  40  61  93 130 167 203 256 316 377
#
# _framework density 20.369682000000001
#
# number of rings (size 3 to 8) (size 9 to 14) (size 15 to 20)
#    0.000    1.333    3.333    2.333    0.000    6.222 
#    0.000    0.000    0.000    2.667    0.000    0.000 
#    0.000    0.000    0.000    0.000    0.000    0.000 
#
# Total GULP energy -223022.262580 kJ/mol
# GULP energy per Si atom -12390.125699 kJ/mol
# Density = 2.032332 g / cm^3
# Si number density = 20.369682 Si / 1000 Ang^3
#
#
#
# Elastic Constant Matrix: (Units=GPa)
#
#
# Indices 1 2 3 4 5 6 
#
# 1 113.7880 57.9577 44.1708 0.0000 9.8584 0.0000
# 2 57.9577 115.4677 80.7874 0.0000 8.4279 0.0000
# 3 44.1708 80.7874 133.8161 0.0000 4.2557 0.0000
# 4 0.0000 0.0000 0.0000 47.3948 0.0000 26.7919
# 5 9.8584 8.4279 4.2557 0.0000 29.8980 0.0000
# 6 0.0000 0.0000 0.0000 26.7919 0.0000 22.1389
#
#
#
# Elastic Compliance Matrix: (Units=1/GPa)
#
#
# Indices 1 2 3 4 5 6 
#
# 1 0.011988 -0.005419 -0.000611 0.000000 -0.002338 0.000000
# 2 -0.005419 0.017707 -0.008839 0.000000 -0.001946 0.000000
# 3 -0.000611 -0.008839 0.012984 0.000000 0.000845 0.000000
# 4 0.000000 0.000000 0.000000 0.066791 0.000000 -0.080829
# 5 -0.002338 -0.001946 0.000845 0.000000 0.034646 0.000000
# 6 0.000000 0.000000 0.000000 -0.080829 0.000000 0.142987
#
#
# Mechanical properties :
#
#
# Convention : Reuss Voigt Hill
#
# Bulk Modulus (GPa) = 77.27800 80.98929 79.13364
# Shear Modulus (GPa) = 15.56869 31.89673 23.73271
#
# Velocity S-wave (km/s) = 2.76761 3.96143 3.41706
# Velocity P-wave (km/s) = 6.94500 7.79551 7.38251
#
# Compressibility (1/GPa) = 0.01294029
#
# Stress axis : x y z
#
# Youngs Moduli (GPa) = 83.41447 56.47445 77.01566
#
# Poissons Ratio (x) = 0.30604 0.04707
# Poissons Ratio (y) = 0.45203 0.68078
# Poissons Ratio (z) = 0.05098 0.49920
#
# Static dielectric constant tensor:
#      x y z
#    x 3.495590 0.000000 0.092340 
#    y 0.000000 4.039290 0.000000 
#    z 0.092340 0.000000 4.251870 
# 
# 
# High freq. dielectric constant tensor:
#      x y z
#    x 1.768710 0.000000 0.019130 
#    y 0.000000 1.820640 0.000000 
#    z 0.019130 0.000000 1.797910 
# 
# From -- ./inp_files/61479.got.cif
#   From: 2010.06.25/outbox.cif.g09.slc.cpg/sg12_31_cif.got.tgz:61479.got - 2010.06.28 00:19:55.
