data_PCOD8109722
_publ_section_title
;
Structure prediction by ZEFSAII (Michael W. Deem and Ramdas Pophale) SiO2 
 PCOD8109722
Probable space group: C 2/M
;
_chemical_formula_sum "Si O2"
_cell_formula_units_Z 56
_cell_length_a 14.328582
_cell_length_b 20.250600
_cell_length_c 16.877131
_cell_angle_alpha 90.000000
_cell_angle_beta 144.572332
_cell_angle_gamma 90.000000
_cell_volume 2838.730063
_symmetry_space_group_name_H-M "C 2/M"
_symmetry_group_IT_number 12
_symmetry_cell_setting 'monoclinic'
loop_
_space_group_symop_operation_xyz
x,y,z
-x,y,-z
-x,-y,-z
x,-y,z
1/2+x,1/2+y,z
1/2-x,1/2+y,-z
1/2-x,1/2-y,-z
1/2+x,1/2-y,z
loop_
_atom_site_type_symbol
_atom_site_label
_atom_site_fract_x
_atom_site_fract_y
_atom_site_fract_z
Si Si1 0.685049 0.426052 0.107947
Si Si2 0.502610 0.500000 0.595379
Si Si3 0.063989 0.214187 0.740780
Si Si4 0.927121 0.699687 0.769397
Si Si5 0.616591 0.366599 0.506791
Si Si6 0.668437 0.708667 0.160536
Si Si7 0.239877 0.622064 0.018558
Si Si8 0.177636 0.500000 0.086593
O O1 0.765601 0.500000 0.176479
O O2 0.747567 0.366010 0.209580
O O3 0.500000 0.436141 0.000000
O O4 0.715668 0.401978 0.038876
O O5 0.500000 0.500000 0.500000
O O6 0.403914 0.435562 0.555294
O O7 0.687720 0.500000 0.751678
O O8 0.225264 0.236225 0.808447
O O9 0.109095 0.162064 0.841092
O O10 0.978404 0.277140 0.718502
O O11 0.932121 0.189653 0.587778
O O12 0.795070 0.642901 0.664410
O O13 0.858429 0.763248 0.769781
O O14 0.083184 0.668179 0.917508
O O15 0.500000 0.364864 0.500000
O O16 0.500000 0.703206 0.000000
O O17 0.202445 0.562244 0.049242
O O18 0.000000 0.500000 0.000000
#
# Coordination Sequence:
#
# PCOD8109722 Si02
#       8
#     8   4   8   8   8   8   8   4
#     4  10  21  40  61  91 127 165 206 255 316 377
#     4  10  24  46  62  83 127 176 209 240 320 390
#     4  12  22  40  62  92 125 163 212 258 317 374
#     4  12  25  39  64  95 124 164 214 263 320 371
#     4  11  24  41  63  86 124 171 209 254 311 384
#     4  11  21  37  62  91 125 163 201 262 315 374
#     4  12  24  40  65  97 130 164 210 266 319 376
#     4  12  28  40  65 101 133 166 211 265 318 385
#
# _framework density 19.727131
#
# number of rings (size 3 to 8) (size 9 to 14) (size 15 to 20)
#    0.000    0.714    6.429    2.571    6.000    0.000 
#    0.000    0.000    0.000    0.000    0.000    1.000 
#    0.000    0.286    0.000    0.000    0.000    0.000 
#
# Total GULP energy -346971.354884 kJ/mol
# GULP energy per Si atom -12391.834103 kJ/mol
# Density = 1.968223 g / cm^3
# Si number density = 19.727131 Si / 1000 Ang^3
#
#
#
# Elastic Constant Matrix: (Units=GPa)
#
#
# Indices 1 2 3 4 5 6 
#
# 1 82.8236 26.0786 34.3893 -0.0012 8.0442 0.0007
# 2 26.0786 101.7595 26.9705 0.0108 -6.5803 -0.0005
# 3 34.3893 26.9705 55.6585 0.0299 -11.1779 -0.0048
# 4 -0.0012 0.0108 0.0299 30.1125 0.0109 -10.4194
# 5 8.0442 -6.5803 -11.1779 0.0109 18.9183 -0.0046
# 6 0.0007 -0.0005 -0.0048 -10.4194 -0.0046 62.6507
#
#
#
# Elastic Compliance Matrix: (Units=1/GPa)
#
#
# Indices 1 2 3 4 5 6 
#
# 1 0.021306 -0.002515 -0.015818 0.000025 -0.019280 0.000001
# 2 -0.002515 0.011582 -0.003444 -0.000002 0.003063 0.000000
# 3 -0.015818 -0.003444 0.034628 -0.000044 0.025988 -0.000003
# 4 0.000025 -0.000002 -0.000044 0.035237 -0.000056 0.005860
# 5 -0.019280 0.003063 0.025988 -0.000056 0.077477 -0.000001
# 6 0.000001 0.000000 -0.000003 0.005860 -0.000001 0.016936
#
#
# Mechanical properties :
#
#
# Convention : Reuss Voigt Hill
#
# Bulk Modulus (GPa) = 41.72887 46.12427 43.92657
# Shear Modulus (GPa) = 20.10411 32.52318 26.31364
#
# Velocity S-wave (km/s) = 3.19581 4.06476 3.65620
# Velocity P-wave (km/s) = 5.90056 6.74252 6.33554
#
# Compressibility (1/GPa) = 0.02396423
#
# Stress axis : x y z
#
# Youngs Moduli (GPa) = 46.93559 86.33862 28.87874
#
# Poissons Ratio (x) = 0.21711 0.45679
# Poissons Ratio (y) = 0.11802 0.09945
# Poissons Ratio (z) = 0.74240 0.29731
#
# Static dielectric constant tensor:
#      x y z
#    x 3.617240 0.000040 -0.192990 
#    y 0.000040 3.676270 0.000130 
#    z -0.192990 0.000130 2.911930 
# 
# 
# High freq. dielectric constant tensor:
#      x y z
#    x 1.773730 0.000000 0.001560 
#    y 0.000000 1.790120 0.000000 
#    z 0.001560 0.000000 1.740460 
# 
# From -- ./inp_files/272443.got.cif
#   From: 2010.06.25/outbox.cif.g09.slc.cpg/sg12_137_cif.got.tgz:272443.got - 2010.06.28 00:19:55.
