data_PCOD8109184
_publ_section_title
;
Structure prediction by ZEFSAII (Michael W. Deem and Ramdas Pophale) SiO2 
 PCOD8109184
Probable space group: C 2/M
;
_chemical_formula_sum "Si O2"
_cell_formula_units_Z 40
_cell_length_a 21.823820
_cell_length_b 15.544282
_cell_length_c 18.227026
_cell_angle_alpha 90.000000
_cell_angle_beta 161.634558
_cell_angle_gamma 90.000000
_cell_volume 1948.199777
_symmetry_space_group_name_H-M "C 2/M"
_symmetry_group_IT_number 12
_symmetry_cell_setting 'monoclinic'
loop_
_space_group_symop_operation_xyz
x,y,z
-x,y,-z
-x,-y,-z
x,-y,z
1/2+x,1/2+y,z
1/2-x,1/2+y,-z
1/2-x,1/2-y,-z
1/2+x,1/2-y,z
loop_
_atom_site_type_symbol
_atom_site_label
_atom_site_fract_x
_atom_site_fract_y
_atom_site_fract_z
Si Si1 0.388062 0.244587 0.562390
Si Si2 0.383209 0.903390 0.108166
Si Si3 0.981204 0.905864 0.206811
Si Si4 0.017777 0.178332 0.939343
Si Si5 0.651395 0.697378 0.731663
O O1 0.444300 0.163359 0.677895
O O2 0.386356 0.330629 0.609647
O O3 0.170894 0.237188 0.286988
O O4 0.539621 0.250772 0.668165
O O5 0.468555 0.000000 0.197280
O O6 0.234807 0.898167 0.007003
O O7 0.273922 0.879441 0.908028
O O8 0.969045 0.897418 0.105068
O O9 0.069130 0.000000 0.325869
O O10 0.000000 0.136588 0.000000
O O11 0.207530 0.237731 0.150254
O O12 0.500000 0.658806 0.500000
#
# Coordination Sequence:
#
# PCOD8109184 Si02
#       5
#     8   8   8   8   8
#     4  11  21  40  66  86 119 163 202 251 300 349
#     4  10  21  39  66  92 117 160 205 247 302 354
#     4  10  21  39  62  90 121 154 203 251 295 357
#     4  12  23  37  63  90 120 163 203 240 308 360
#     4  11  21  40  62  87 126 159 196 252 300 354
#
# _framework density 20.531776000000001
#
# number of rings (size 3 to 8) (size 9 to 14) (size 15 to 20)
#    0.000    1.200    6.000    1.800    0.000    1.600 
#    0.000    0.000    0.000    4.800    0.000    0.000 
#    0.000    0.000    0.000    0.000    0.000    0.000 
#
# Total GULP energy -247984.251099 kJ/mol
# GULP energy per Si atom -12399.212555 kJ/mol
# Density = 2.048505 g / cm^3
# Si number density = 20.531776 Si / 1000 Ang^3
#
#
#
# Elastic Constant Matrix: (Units=GPa)
#
#
# Indices 1 2 3 4 5 6 
#
# 1 115.6925 25.1311 26.0307 0.0096 -18.6298 0.0040
# 2 25.1311 120.5702 23.7440 0.0198 -15.8602 0.0169
# 3 26.0307 23.7440 83.4484 0.0201 -16.4563 0.0213
# 4 0.0096 0.0198 0.0201 -2.8615 0.0155 -8.7073
# 5 -18.6298 -15.8602 -16.4563 0.0155 34.0752 0.0131
# 6 0.0040 0.0169 0.0213 -8.7073 0.0131 12.5994
#
#
#
# Elastic Compliance Matrix: (Units=1/GPa)
#
#
# Indices 1 2 3 4 5 6 
#
# 1 0.009984 -0.001167 -0.002004 0.000013 0.003947 0.000007
# 2 -0.001167 0.009247 -0.001707 0.000032 0.002842 0.000010
# 3 -0.002004 -0.001707 0.014060 0.000060 0.004900 0.000015
# 4 0.000013 0.000032 0.000060 -0.112624 0.000132 -0.077834
# 5 0.003947 0.002842 0.004900 0.000132 0.035194 0.000041
# 6 0.000007 0.000010 0.000015 -0.077834 0.000041 0.025579
#
#
# Mechanical properties :
#
#
# Convention : Reuss Voigt Hill
#
# Bulk Modulus (GPa) = 42.48785 52.16918 47.32851
# Shear Modulus (GPa) = -5213.94555 25.08297 -2594.43129
#
# Velocity S-wave (km/s) = -50.44764 3.49903 -35.58596
# Velocity P-wave (km/s) = 58.07364 6.46439 40.80906
#
# Compressibility (1/GPa) = 0.02353614
#
# Stress axis : x y z
#
# Youngs Moduli (GPa) = 100.16420 108.14226 71.12133
#
# Poissons Ratio (x) = 0.12621 0.14251
# Poissons Ratio (y) = 0.11690 0.12138
# Poissons Ratio (z) = 0.20070 0.18456
#
# Static dielectric constant tensor:
#      x y z
#    x 4.009830 -0.000030 0.020070 
#    y -0.000030 3.625310 -0.000040 
#    z 0.020070 -0.000040 3.631420 
# 
# 
# High freq. dielectric constant tensor:
#      x y z
#    x 1.817240 0.000000 0.009750 
#    y 0.000000 1.779530 0.000000 
#    z 0.009750 0.000000 1.800960 
# 
# From -- ./inp_files/59113.got.cif
#   From: 2010.06.25/outbox.cif.g09.slc.cpg/sg12_30_cif.got.tgz:59113.got - 2010.06.28 00:19:55.
