data_PCOD8109967
_publ_section_title
;
Structure prediction by ZEFSAII (Michael W. Deem and Ramdas Pophale) SiO2 
 PCOD8109967
Probable space group: C 2/M
;
_chemical_formula_sum "Si O2"
_cell_formula_units_Z 56
_cell_length_a 12.495038
_cell_length_b 27.104148
_cell_length_c 15.040570
_cell_angle_alpha 90.000000
_cell_angle_beta 31.506417
_cell_angle_gamma 90.000000
_cell_volume 2661.963533
_symmetry_space_group_name_H-M "C 2/M"
_symmetry_group_IT_number 12
_symmetry_cell_setting 'monoclinic'
loop_
_space_group_symop_operation_xyz
x,y,z
-x,y,-z
-x,-y,-z
x,-y,z
1/2+x,1/2+y,z
1/2-x,1/2+y,-z
1/2-x,1/2-y,-z
1/2+x,1/2-y,z
loop_
_atom_site_type_symbol
_atom_site_label
_atom_site_fract_x
_atom_site_fract_y
_atom_site_fract_z
Si Si1 0.200745 0.057157 0.990973
Si Si2 0.407171 0.306155 0.802379
Si Si3 0.289222 0.656503 0.696207
Si Si4 0.050716 0.304313 0.188177
Si Si5 0.419385 0.055050 0.155614
Si Si6 0.689315 0.616804 0.676135
Si Si7 0.906398 0.385465 0.698502
O O1 0.392463 0.071544 0.916333
O O2 0.259399 0.075020 0.850613
O O3 0.158492 0.000000 0.016397
O O4 0.996751 0.079418 0.178142
O O5 0.291445 0.325648 0.796575
O O6 0.464946 0.248949 0.754611
O O7 0.614691 0.336696 0.671134
O O8 0.268076 0.314143 0.987831
O O9 0.500000 0.668845 0.500000
O O10 0.251670 0.597406 0.715440
O O11 0.120960 0.688825 0.765013
O O12 0.027424 0.341853 0.284396
O O13 0.335873 0.000000 0.241942
O O14 0.500000 0.052402 0.000000
O O15 0.774339 0.635970 0.710397
O O16 0.878122 0.590860 0.488933
#
# Coordination Sequence:
#
# PCOD8109967 Si02
#       7
#     8   8   8   8   8   8   8
#     4  11  23  43  69  95 129 172 218 272 330 394
#     4  11  25  42  69  94 127 178 222 265 329 390
#     4  12  24  40  66  96 136 170 212 275 329 393
#     4  11  24  44  65  95 130 170 224 271 321 391
#     4  10  21  40  65  92 126 169 219 270 323 385
#     4  11  24  42  66  95 132 172 217 269 328 389
#     4  11  24  42  65  96 133 170 216 274 323 391
#
# _framework density 21.037102000000001
#
# number of rings (size 3 to 8) (size 9 to 14) (size 15 to 20)
#    0.000    1.000    2.857    3.429    2.000    4.286 
#    0.000    1.429    0.000    0.000    0.000    0.000 
#    0.000    0.000    0.000    0.000    0.000    0.000 
#
# Total GULP energy -347217.785333 kJ/mol
# GULP energy per Si atom -12400.635190 kJ/mol
# Density = 2.098922 g / cm^3
# Si number density = 21.037102 Si / 1000 Ang^3
#
#
#
# Elastic Constant Matrix: (Units=GPa)
#
#
# Indices 1 2 3 4 5 6 
#
# 1 126.3697 48.0132 9.1584 -0.0021 0.0370 -0.0010
# 2 48.0132 110.7781 43.3316 -0.0010 -2.1305 0.0006
# 3 9.1584 43.3316 89.6432 -0.0030 3.4117 -0.0023
# 4 -0.0021 -0.0010 -0.0030 17.8175 0.0033 -4.8696
# 5 0.0370 -2.1305 3.4117 0.0033 26.1688 0.0019
# 6 -0.0010 0.0006 -0.0023 -4.8696 0.0019 31.6700
#
#
#
# Elastic Compliance Matrix: (Units=1/GPa)
#
#
# Indices 1 2 3 4 5 6 
#
# 1 0.009597 -0.004680 0.001303 0.000001 -0.000565 0.000001
# 2 -0.004680 0.013483 -0.006111 -0.000002 0.001901 -0.000001
# 3 0.001303 -0.006111 0.014065 0.000003 -0.002333 0.000002
# 4 0.000001 -0.000002 0.000003 0.058587 -0.000009 0.009008
# 5 -0.000565 0.001901 -0.002333 -0.000009 0.038673 -0.000004
# 6 0.000001 -0.000001 0.000002 0.009008 -0.000004 0.032961
#
#
# Mechanical properties :
#
#
# Convention : Reuss Voigt Hill
#
# Bulk Modulus (GPa) = 55.04103 58.64416 56.84260
# Shear Modulus (GPa) = 25.98774 30.21711 28.10243
#
# Velocity S-wave (km/s) = 3.51854 3.79406 3.65889
# Velocity P-wave (km/s) = 6.53662 6.86515 6.70290
#
# Compressibility (1/GPa) = 0.01816826
#
# Stress axis : x y z
#
# Youngs Moduli (GPa) = 104.19670 74.16936 71.09791
#
# Poissons Ratio (x) = 0.34713 -0.09266
# Poissons Ratio (y) = 0.48767 0.43451
# Poissons Ratio (z) = -0.13580 0.45328
#
# Static dielectric constant tensor:
#      x y z
#    x 3.940930 0.000000 0.020420 
#    y 0.000000 3.965420 0.000010 
#    z 0.020420 0.000010 3.885580 
# 
# 
# High freq. dielectric constant tensor:
#      x y z
#    x 1.841320 0.000000 0.000710 
#    y 0.000000 1.818500 0.000000 
#    z 0.000710 0.000000 1.827930 
# 
# From -- ./inp_files/209996.got.cif
#   From: 2010.06.25/outbox.cif.g09.slc.cpg/sg12_105_cif.got.tgz:209996.got - 2010.06.28 00:19:55.
