data_PCOD8109683
_publ_section_title
;
Structure prediction by ZEFSAII (Michael W. Deem and Ramdas Pophale) SiO2 
 PCOD8109683
Probable space group: C 2/M
;
_chemical_formula_sum "Si O2"
_cell_formula_units_Z 40
_cell_length_a 14.431359
_cell_length_b 29.316770
_cell_length_c 8.448774
_cell_angle_alpha 90.000000
_cell_angle_beta 34.063044
_cell_angle_gamma 90.000000
_cell_volume 2002.102552
_symmetry_space_group_name_H-M "C 2/M"
_symmetry_group_IT_number 12
_symmetry_cell_setting 'monoclinic'
loop_
_space_group_symop_operation_xyz
x,y,z
-x,y,-z
-x,-y,-z
x,-y,z
1/2+x,1/2+y,z
1/2-x,1/2+y,-z
1/2-x,1/2-y,-z
1/2+x,1/2-y,z
loop_
_atom_site_type_symbol
_atom_site_label
_atom_site_fract_x
_atom_site_fract_y
_atom_site_fract_z
Si Si1 0.000000 0.420754 0.000000
Si Si2 0.646590 0.197326 0.398478
Si Si3 0.993308 0.221884 0.821582
Si Si4 0.265099 0.500000 0.169638
Si Si5 0.000000 0.930822 0.000000
Si Si6 0.557038 0.000000 0.167425
Si Si7 0.713981 0.361902 0.531353
O O1 0.849689 0.385148 0.228801
O O2 0.046144 0.453635 0.080708
O O3 0.500000 0.177727 0.500000
O O4 0.569434 0.236515 0.618182
O O5 0.705109 0.155311 0.420624
O O6 0.797012 0.214028 0.070253
O O7 0.108056 0.179341 0.604213
O O8 0.000000 0.231151 0.000000
O O9 0.371049 0.457149 0.073556
O O10 0.224982 0.500000 0.037106
O O11 0.095651 0.500000 0.501386
O O12 0.911790 0.901719 0.256715
#
# Coordination Sequence:
#
# PCOD8109683 Si02
#       7
#     4   8   8   4   4   4   8
#     4  11  24  40  65  90 128 154 201 260 302 353
#     4  11  23  38  61  89 123 157 206 253 299 353
#     4  10  21  40  60  85 120 163 201 243 303 363
#     4  10  22  39  72  87 122 159 199 242 312 374
#     4  11  20  42  63  92 118 164 195 250 304 365
#     4  10  22  43  62  97 118 159 199 246 306 374
#     4  11  22  39  62  86 122 162 204 242 302 363
#
# _framework density 19.978995999999999
#
# number of rings (size 3 to 8) (size 9 to 14) (size 15 to 20)
#    0.000    1.400    5.000    3.000    4.200    1.600 
#    0.000    2.000    0.000    0.000    0.000    0.000 
#    0.000    0.000    0.000    0.000    0.000    0.000 
#
# Total GULP energy -247809.919954 kJ/mol
# GULP energy per Si atom -12390.495998 kJ/mol
# Density = 1.993352 g / cm^3
# Si number density = 19.978996 Si / 1000 Ang^3
#
#
#
# Elastic Constant Matrix: (Units=GPa)
#
#
# Indices 1 2 3 4 5 6 
#
# 1 94.8846 20.2123 15.2879 0.0000 -17.6774 0.0000
# 2 20.2123 82.1964 30.8699 0.0000 2.4536 0.0000
# 3 15.2879 30.8699 117.4314 0.0000 -10.1972 0.0000
# 4 0.0000 0.0000 0.0000 51.8450 0.0000 5.5542
# 5 -17.6774 2.4536 -10.1972 0.0000 30.3883 0.0000
# 6 0.0000 0.0000 0.0000 5.5542 0.0000 0.9450
#
#
#
# Elastic Compliance Matrix: (Units=1/GPa)
#
#
# Indices 1 2 3 4 5 6 
#
# 1 0.012677 -0.003298 -0.000124 0.000000 0.007599 0.000000
# 2 -0.003298 0.014521 -0.003766 0.000000 -0.004355 0.000000
# 3 -0.000124 -0.003766 0.009828 0.000000 0.003530 0.000000
# 4 0.000000 0.000000 0.000000 0.052084 0.000000 -0.306126
# 5 0.007599 -0.004355 0.003530 0.000000 0.038864 0.000000
# 6 0.000000 0.000000 0.000000 -0.306126 0.000000 2.857494
#
#
# Mechanical properties :
#
#
# Convention : Reuss Voigt Hill
#
# Bulk Modulus (GPa) = 44.14647 47.47250 45.80949
# Shear Modulus (GPa) = 1.66257 31.84514 16.75385
#
# Velocity S-wave (km/s) = 0.91322 3.99674 2.89895
# Velocity P-wave (km/s) = 4.82249 6.71650 5.84670
#
# Compressibility (1/GPa) = 0.02265187
#
# Stress axis : x y z
#
# Youngs Moduli (GPa) = 78.88092 68.86422 101.74734
#
# Poissons Ratio (x) = 0.22710 0.01257
# Poissons Ratio (y) = 0.26014 0.38319
# Poissons Ratio (z) = 0.00975 0.25935
#
# Static dielectric constant tensor:
#      x y z
#    x 3.862160 0.000000 -0.372860 
#    y 0.000000 3.976490 0.000000 
#    z -0.372860 0.000000 3.970960 
# 
# 
# High freq. dielectric constant tensor:
#      x y z
#    x 1.763970 0.000000 -0.019960 
#    y 0.000000 1.788070 0.000000 
#    z -0.019960 0.000000 1.796590 
# 
# From -- ./inp_files/68508.got.cif
#   From: 2010.06.25/outbox.cif.g09.slc.cpg/sg12_35_cif.got.tgz:68508.got - 2010.06.28 00:19:55.
