data_PCOD8109113
_publ_section_title
;
Structure prediction by ZEFSAII (Michael W. Deem and Ramdas Pophale) SiO2 
 PCOD8109113
Probable space group: C 2/M
;
_chemical_formula_sum "Si O2"
_cell_formula_units_Z 64
_cell_length_a 30.649422
_cell_length_b 8.941063
_cell_length_c 11.985795
_cell_angle_alpha 90.000000
_cell_angle_beta 99.305638
_cell_angle_gamma 90.000000
_cell_volume 3241.342697
_symmetry_space_group_name_H-M "C 2/M"
_symmetry_group_IT_number 12
_symmetry_cell_setting 'monoclinic'
loop_
_space_group_symop_operation_xyz
x,y,z
-x,y,-z
-x,-y,-z
x,-y,z
1/2+x,1/2+y,z
1/2-x,1/2+y,-z
1/2-x,1/2-y,-z
1/2+x,1/2-y,z
loop_
_atom_site_type_symbol
_atom_site_label
_atom_site_fract_x
_atom_site_fract_y
_atom_site_fract_z
Si Si1 0.166113 0.334179 0.364700
Si Si2 0.369146 0.824943 0.895035
Si Si3 0.348465 0.673696 0.424070
Si Si4 0.460155 0.323770 0.900359
Si Si5 0.019038 0.323728 0.327231
Si Si6 0.565464 0.175071 0.573204
Si Si7 0.745243 0.329457 0.704982
Si Si8 0.716864 0.675913 0.072006
O O1 0.151215 0.500000 0.397386
O O2 0.143987 0.295962 0.238061
O O3 0.148381 0.214982 0.444855
O O4 0.219442 0.327732 0.380917
O O5 0.416787 0.752048 0.935872
O O6 0.332210 0.747554 0.958425
O O7 0.370663 0.000000 0.924575
O O8 0.353712 0.500000 0.411892
O O9 0.388446 0.749265 0.373308
O O10 0.301968 0.729083 0.355876
O O11 0.452554 0.500000 0.889771
O O12 0.469449 0.263698 0.780190
O O13 0.500000 0.282526 0.000000
O O14 0.021449 0.500000 0.302975
O O15 0.052536 0.279971 0.440983
O O16 0.970685 0.274245 0.350772
O O17 0.570915 0.000000 0.582817
O O18 0.742773 0.500000 0.752766
O O19 0.762209 0.209658 0.799961
O O20 0.713121 0.500000 0.049435
O O21 0.750000 0.750000 0.000000
#
# Coordination Sequence:
#
# PCOD8109113 Si02
#       8
#     8   8   8   8   8   8   8   8
#     4   9  18  33  54  77 108 147 186 230 276 328
#     4  10  21  39  62  87 113 148 195 237 282 340
#     4  11  21  31  49  81 116 148 183 224 279 336
#     4  11  24  40  58  86 121 154 191 242 300 346
#     4   9  19  38  61  81 106 147 193 239 288 344
#     4   9  19  36  57  81 110 145 189 236 288 347
#     4   9  20  37  52  75 112 150 187 229 276 331
#     4  11  22  39  63  87 112 147 190 236 285 338
#
# _framework density 19.744904999999999
#
# number of rings (size 3 to 8) (size 9 to 14) (size 15 to 20)
#    0.000    2.125    0.000    4.875    0.000    8.500 
#    2.250    1.250    0.000    0.000    0.000    0.000 
#    0.000    0.000    0.000    0.000    0.000    0.000 
#
# Total GULP energy -396757.606708 kJ/mol
# GULP energy per Si atom -12398.675210 kJ/mol
# Density = 1.969997 g / cm^3
# Si number density = 19.744905 Si / 1000 Ang^3
#
#
#
# Elastic Constant Matrix: (Units=GPa)
#
#
# Indices 1 2 3 4 5 6 
#
# 1 170.2481 62.4442 36.8239 0.0000 -1.8852 0.0000
# 2 62.4442 91.8465 33.3244 0.0000 -5.3323 0.0000
# 3 36.8239 33.3244 49.2366 0.0000 -12.4547 0.0000
# 4 0.0000 0.0000 0.0000 29.1263 0.0000 -3.2601
# 5 -1.8852 -5.3323 -12.4547 0.0000 25.8476 0.0000
# 6 0.0000 0.0000 0.0000 -3.2601 0.0000 39.3322
#
#
#
# Elastic Compliance Matrix: (Units=1/GPa)
#
#
# Indices 1 2 3 4 5 6 
#
# 1 0.008270 -0.004384 -0.003751 0.000000 -0.002109 0.000000
# 2 -0.004384 0.016844 -0.008340 0.000000 -0.000864 0.000000
# 3 -0.003751 -0.008340 0.032178 0.000000 0.013511 0.000000
# 4 0.000000 0.000000 0.000000 0.034655 0.000000 0.002872
# 5 -0.002109 -0.000864 0.013511 0.000000 0.044867 0.000000
# 6 0.000000 0.000000 0.000000 0.002872 0.000000 0.025663
#
#
# Mechanical properties :
#
#
# Convention : Reuss Voigt Hill
#
# Bulk Modulus (GPa) = 41.08237 64.05735 52.56986
# Shear Modulus (GPa) = 24.56515 30.77714 27.67114
#
# Velocity S-wave (km/s) = 3.53104 3.95237 3.74763
# Velocity P-wave (km/s) = 6.12177 7.30351 6.73859
#
# Compressibility (1/GPa) = 0.02434134
#
# Stress axis : x y z
#
# Youngs Moduli (GPa) = 120.92346 59.36810 31.07687
#
# Poissons Ratio (x) = 0.26025 0.11658
# Poissons Ratio (y) = 0.53009 0.25919
# Poissons Ratio (z) = 0.45362 0.49515
#
# Static dielectric constant tensor:
#      x y z
#    x 4.297190 0.000000 -0.038350 
#    y 0.000000 3.806130 0.000000 
#    z -0.038350 0.000000 3.429550 
# 
# 
# High freq. dielectric constant tensor:
#      x y z
#    x 1.791640 0.000000 -0.007900 
#    y 0.000000 1.767140 0.000000 
#    z -0.007900 0.000000 1.742570 
# 
# From -- ./inp_files/187486.got.cif
#   From: 2010.06.25/outbox.cif.g09.slc.cpg/sg12_94_cif.got.tgz:187486.got - 2010.06.28 00:19:55.
