data_PCOD8109705
_publ_section_title
;
Structure prediction by ZEFSAII (Michael W. Deem and Ramdas Pophale) SiO2 
 PCOD8109705
Probable space group: C 2/M
;
_chemical_formula_sum "Si O2"
_cell_formula_units_Z 48
_cell_length_a 17.247548
_cell_length_b 14.856659
_cell_length_c 17.133480
_cell_angle_alpha 90.000000
_cell_angle_beta 32.158287
_cell_angle_gamma 90.000000
_cell_volume 2336.780908
_symmetry_space_group_name_H-M "C 2/M"
_symmetry_group_IT_number 12
_symmetry_cell_setting 'monoclinic'
loop_
_space_group_symop_operation_xyz
x,y,z
-x,y,-z
-x,-y,-z
x,-y,z
1/2+x,1/2+y,z
1/2-x,1/2+y,-z
1/2-x,1/2-y,-z
1/2+x,1/2-y,z
loop_
_atom_site_type_symbol
_atom_site_label
_atom_site_fract_x
_atom_site_fract_y
_atom_site_fract_z
Si Si1 0.170281 0.097777 0.178734
Si Si2 0.143200 0.100603 0.498500
Si Si3 0.727433 0.157564 0.063523
Si Si4 0.354958 0.217687 0.582564
Si Si5 0.661161 0.738356 0.885816
Si Si6 0.906824 0.603365 0.389792
O O1 0.253853 0.173097 0.157137
O O2 0.997395 0.118573 0.326921
O O3 0.202015 0.000000 0.190115
O O4 0.218833 0.086403 0.046445
O O5 0.143026 0.174389 0.430759
O O6 0.292183 0.111827 0.418384
O O7 0.136486 0.000000 0.467635
O O8 0.826534 0.161313 0.057554
O O9 0.560077 0.142664 0.230057
O O10 0.750000 0.250000 0.000000
O O11 0.500000 0.183922 0.500000
O O12 0.225739 0.195653 0.752078
O O13 0.338310 0.162661 0.517248
O O14 0.500000 0.766943 0.000000
O O15 0.926527 0.500000 0.400030
#
# Coordination Sequence:
#
# PCOD8109705 Si02
#       6
#     8   8   8   8   8   8
#     4  10  21  40  62  87 123 162 202 254 310 369
#     4  10  23  40  65  96 124 163 211 258 311 372
#     4  10  21  40  61  86 120 161 205 251 301 365
#     4  12  22  41  63  89 125 167 203 260 321 366
#     4  11  25  39  58  90 122 160 208 252 312 377
#     4  11  24  42  66  95 123 164 217 259 305 372
#
# _framework density 20.541079
#
# number of rings (size 3 to 8) (size 9 to 14) (size 15 to 20)
#    0.000    1.333    3.333    2.000    7.000    1.667 
#    0.000    0.000    0.000    2.500    0.000    0.000 
#    0.000    0.000    0.000    0.000    0.000    0.000 
#
# Total GULP energy -297467.817358 kJ/mol
# GULP energy per Si atom -12394.492390 kJ/mol
# Density = 2.049433 g / cm^3
# Si number density = 20.541079 Si / 1000 Ang^3
#
#
#
# Elastic Constant Matrix: (Units=GPa)
#
#
# Indices 1 2 3 4 5 6 
#
# 1 71.2677 15.9103 44.7778 -0.0003 -10.2113 0.0006
# 2 15.9103 71.8508 21.0781 -0.0002 -5.0396 0.0006
# 3 44.7778 21.0781 106.2892 -0.0016 3.3914 0.0014
# 4 -0.0003 -0.0002 -0.0016 23.7632 0.0006 -8.5213
# 5 -10.2113 -5.0396 3.3914 0.0006 43.8294 -0.0007
# 6 0.0006 0.0006 0.0014 -8.5213 -0.0007 31.9926
#
#
#
# Elastic Compliance Matrix: (Units=1/GPa)
#
#
# Indices 1 2 3 4 5 6 
#
# 1 0.020470 -0.001685 -0.008456 0.000000 0.005230 0.000000
# 2 -0.001685 0.015081 -0.002329 0.000000 0.001522 0.000000
# 3 -0.008456 -0.002329 0.013538 0.000001 -0.003286 0.000000
# 4 0.000000 0.000000 0.000001 0.046526 -0.000001 0.012392
# 5 0.005230 0.001522 -0.003286 -0.000001 0.024463 0.000000
# 6 0.000000 0.000000 0.000000 0.012392 0.000000 0.034558
#
#
# Mechanical properties :
#
#
# Convention : Reuss Voigt Hill
#
# Bulk Modulus (GPa) = 41.41315 45.88223 43.64769
# Shear Modulus (GPa) = 26.64864 31.09313 28.87088
#
# Velocity S-wave (km/s) = 3.60576 3.89486 3.75309
# Velocity P-wave (km/s) = 6.12701 6.52778 6.33056
#
# Compressibility (1/GPa) = 0.02414692
#
# Stress axis : x y z
#
# Youngs Moduli (GPa) = 48.85103 66.30886 73.86820
#
# Poissons Ratio (x) = 0.11175 0.62467
# Poissons Ratio (y) = 0.08233 0.17206
# Poissons Ratio (z) = 0.41311 0.15445
#
# Static dielectric constant tensor:
#      x y z
#    x 3.781670 0.000000 0.273780 
#    y 0.000000 3.679610 0.000010 
#    z 0.273780 0.000010 4.068920 
# 
# 
# High freq. dielectric constant tensor:
#      x y z
#    x 1.797310 0.000000 0.003380 
#    y 0.000000 1.801280 0.000000 
#    z 0.003380 0.000000 1.814760 
# 
# From -- ./inp_files/278030.got.cif
#   From: 2010.06.25/outbox.cif.g09.slc.cpg/sg12_140_cif.got.tgz:278030.got - 2010.06.28 00:19:55.
