data_PCOD8109694
_publ_section_title
;
Structure prediction by ZEFSAII (Michael W. Deem and Ramdas Pophale) SiO2 
 PCOD8109694
Probable space group: C 2/M
;
_chemical_formula_sum "Si O2"
_cell_formula_units_Z 48
_cell_length_a 9.840135
_cell_length_b 18.698815
_cell_length_c 13.870509
_cell_angle_alpha 90.000000
_cell_angle_beta 89.324919
_cell_angle_gamma 90.000000
_cell_volume 2551.980749
_symmetry_space_group_name_H-M "C 2/M"
_symmetry_group_IT_number 12
_symmetry_cell_setting 'monoclinic'
loop_
_space_group_symop_operation_xyz
x,y,z
-x,y,-z
-x,-y,-z
x,-y,z
1/2+x,1/2+y,z
1/2-x,1/2+y,-z
1/2-x,1/2-y,-z
1/2+x,1/2-y,z
loop_
_atom_site_type_symbol
_atom_site_label
_atom_site_fract_x
_atom_site_fract_y
_atom_site_fract_z
Si Si1 0.358905 0.584559 0.546334
Si Si2 0.884194 0.329307 0.934570
Si Si3 0.304640 0.327939 0.737438
Si Si4 0.484662 0.188832 0.732991
Si Si5 0.388589 0.922222 0.579349
Si Si6 0.131637 0.159213 0.050952
O O1 0.500000 0.612310 0.500000
O O2 0.358656 0.500000 0.561123
O O3 0.326412 0.616876 0.651021
O O4 0.246693 0.608710 0.469602
O O5 0.919131 0.350694 0.825604
O O6 0.878329 0.244123 0.942001
O O7 0.746963 0.364568 0.974652
O O8 0.000000 0.361833 0.000000
O O9 0.410575 0.264139 0.716943
O O10 0.340719 0.367190 0.839355
O O11 0.147849 0.299928 0.742744
O O12 0.450612 0.136588 0.647501
O O13 0.500000 0.937602 0.500000
O O14 0.358537 0.000000 0.629775
O O15 0.000000 0.125818 0.000000
#
# Coordination Sequence:
#
# PCOD8109694 Si02
#       6
#     8   8   8   8   8   8
#     4  10  23  42  62  81 108 149 191 228 274 339
#     4   9  16  30  48  74 110 144 181 217 265 328
#     4  11  23  36  55  87 117 144 184 234 284 324
#     4  11  23  34  56  87 116 146 184 235 281 323
#     4  10  21  40  61  79 105 148 192 225 272 336
#     4   9  18  30  51  77 111 149 183 219 271 331
#
# _framework density 18.808917999999998
#
# number of rings (size 3 to 8) (size 9 to 14) (size 15 to 20)
#    0.000    2.000    3.333    0.000    9.333    1.333 
#    0.000    0.000    0.000    2.000    0.000    0.000 
#    0.000    0.000    0.000    0.000    0.000    0.000 
#
# Total GULP energy -297400.526572 kJ/mol
# GULP energy per Si atom -12391.688607 kJ/mol
# Density = 1.876611 g / cm^3
# Si number density = 18.808918 Si / 1000 Ang^3
#
#
#
# Elastic Constant Matrix: (Units=GPa)
#
#
# Indices 1 2 3 4 5 6 
#
# 1 156.7590 17.2337 47.5833 0.0000 5.1627 0.0000
# 2 17.2337 31.2605 28.5414 0.0000 3.1045 0.0000
# 3 47.5833 28.5414 99.9912 0.0000 3.0569 0.0000
# 4 0.0000 0.0000 0.0000 -7.9579 0.0000 -1.9413
# 5 5.1627 3.1045 3.0569 0.0000 38.3571 0.0000
# 6 0.0000 0.0000 0.0000 -1.9413 0.0000 17.9315
#
#
#
# Elastic Compliance Matrix: (Units=1/GPa)
#
#
# Indices 1 2 3 4 5 6 
#
# 1 0.007505 -0.001122 -0.003231 0.000000 -0.000662 0.000000
# 2 -0.001122 0.043677 -0.011859 0.000000 -0.002439 0.000000
# 3 -0.003231 -0.011859 0.014917 0.000000 0.000206 0.000000
# 4 0.000000 0.000000 0.000000 -0.122428 0.000000 -0.013254
# 5 -0.000662 -0.002439 0.000206 0.000000 0.026341 0.000000
# 6 0.000000 0.000000 0.000000 -0.013254 0.000000 0.054333
#
#
# Mechanical properties :
#
#
# Convention : Reuss Voigt Hill
#
# Bulk Modulus (GPa) = 29.69463 52.74752 41.22108
# Shear Modulus (GPa) = 73.53593 22.64295 48.08944
#
# Velocity S-wave (km/s) = 6.25949 3.47341 5.06190
# Velocity P-wave (km/s) = 8.25005 6.64762 7.49180
#
# Compressibility (1/GPa) = 0.03367612
#
# Stress axis : x y z
#
# Youngs Moduli (GPa) = 133.24251 22.89528 67.03696
#
# Poissons Ratio (x) = 0.02568 0.21660
# Poissons Ratio (y) = 0.14947 0.79498
# Poissons Ratio (z) = 0.43051 0.27151
#
# Static dielectric constant tensor:
#      x y z
#    x 3.922640 0.000000 0.025710 
#    y 0.000000 2.940070 0.000000 
#    z 0.025710 0.000000 3.488730 
# 
# 
# High freq. dielectric constant tensor:
#      x y z
#    x 1.755410 0.000000 0.001820 
#    y 0.000000 1.676040 0.000000 
#    z 0.001820 0.000000 1.741950 
# 
# From -- ./inp_files/196501.got.cif
#   From: 2010.06.25/outbox.cif.g09.slc.cpg/sg12_99_cif.got.tgz:196501.got - 2010.06.28 00:19:55.
