data_PCOD8109085
_publ_section_title
;
Structure prediction by ZEFSAII (Michael W. Deem and Ramdas Pophale) SiO2 
 PCOD8109085
Probable space group: C 2/M
;
_chemical_formula_sum "Si O2"
_cell_formula_units_Z 40
_cell_length_a 25.766703
_cell_length_b 16.504116
_cell_length_c 9.592635
_cell_angle_alpha 90.000000
_cell_angle_beta 29.044093
_cell_angle_gamma 90.000000
_cell_volume 1980.444465
_symmetry_space_group_name_H-M "C 2/M"
_symmetry_group_IT_number 12
_symmetry_cell_setting 'monoclinic'
loop_
_space_group_symop_operation_xyz
x,y,z
-x,y,-z
-x,-y,-z
x,-y,z
1/2+x,1/2+y,z
1/2-x,1/2+y,-z
1/2-x,1/2-y,-z
1/2+x,1/2-y,z
loop_
_atom_site_type_symbol
_atom_site_label
_atom_site_fract_x
_atom_site_fract_y
_atom_site_fract_z
Si Si1 0.164933 0.836446 0.339700
Si Si2 0.803522 0.093364 0.434283
Si Si3 0.387392 0.907261 0.300028
Si Si4 0.731972 0.152746 0.174819
Si Si5 0.567063 0.404564 0.132199
O O1 0.188656 0.860429 0.440532
O O2 0.178664 0.740760 0.300157
O O3 0.047452 0.865324 0.569380
O O4 0.248717 0.875303 0.030946
O O5 0.703759 0.131837 0.583395
O O6 0.784967 0.000000 0.514163
O O7 0.908135 0.103384 0.091440
O O8 0.354481 0.901950 0.540314
O O9 0.396678 0.000000 0.235797
O O10 0.500000 0.863427 0.000000
O O11 0.846613 0.146332 0.982402
O O12 0.569683 0.500000 0.168853
#
# Coordination Sequence:
#
# PCOD8109085 Si02
#       5
#     8   8   8   8   8
#     4  11  22  35  54  84 117 144 181 236 287 329
#     4   9  19  35  57  85 110 138 188 243 282 329
#     4   9  19  37  57  76 104 146 191 229 274 338
#     4  10  23  37  52  81 116 149 186 229 280 340
#     4  10  21  39  62  85 112 151 193 230 280 345
#
# _framework density 20.197486000000001
#
# number of rings (size 3 to 8) (size 9 to 14) (size 15 to 20)
#    0.000    2.200    0.000    3.600    0.000   12.000 
#    0.000    3.000    0.000    3.600    0.000    0.000 
#    0.000    0.000    0.000    0.000    0.000    0.000 
#
# Total GULP energy -247817.255724 kJ/mol
# GULP energy per Si atom -12390.862786 kJ/mol
# Density = 2.015152 g / cm^3
# Si number density = 20.197486 Si / 1000 Ang^3
#
#
#
# Elastic Constant Matrix: (Units=GPa)
#
#
# Indices 1 2 3 4 5 6 
#
# 1 29.6986 5.3444 31.3718 0.0000 15.4411 0.0000
# 2 5.3444 43.1700 27.4763 0.0000 -7.8613 0.0000
# 3 31.3718 27.4763 146.4155 0.0000 6.5095 0.0000
# 4 0.0000 0.0000 0.0000 35.1279 0.0000 -2.6150
# 5 15.4411 -7.8613 6.5095 0.0000 38.1294 0.0000
# 6 0.0000 0.0000 0.0000 -2.6150 0.0000 20.2370
#
#
#
# Elastic Compliance Matrix: (Units=1/GPa)
#
#
# Indices 1 2 3 4 5 6 
#
# 1 0.057015 -0.004501 -0.010383 0.000000 -0.022244 0.000000
# 2 -0.004501 0.028262 -0.004715 0.000000 0.008455 0.000000
# 3 -0.010383 -0.004715 0.009871 0.000000 0.001547 0.000000
# 4 0.000000 0.000000 0.000000 0.028744 0.000000 0.003714
# 5 -0.022244 0.008455 0.001547 0.000000 0.036714 0.000000
# 6 0.000000 0.000000 0.000000 0.003714 0.000000 0.049894
#
#
# Mechanical properties :
#
#
# Convention : Reuss Voigt Hill
#
# Bulk Modulus (GPa) = 17.87309 38.62990 28.25150
# Shear Modulus (GPa) = 18.63262 29.03830 23.83546
#
# Velocity S-wave (km/s) = 3.04060 3.79584 3.43901
# Velocity P-wave (km/s) = 4.60384 6.19506 5.45775
#
# Compressibility (1/GPa) = 0.05595002
#
# Stress axis : x y z
#
# Youngs Moduli (GPa) = 17.53934 35.38312 101.31110
#
# Poissons Ratio (x) = 0.15925 1.05188
# Poissons Ratio (y) = 0.07894 0.47770
# Poissons Ratio (z) = 0.18211 0.16684
#
# Static dielectric constant tensor:
#      x y z
#    x 3.786470 0.000000 0.075630 
#    y 0.000000 3.472700 0.000000 
#    z 0.075630 0.000000 4.161640 
# 
# 
# High freq. dielectric constant tensor:
#      x y z
#    x 1.781400 0.000000 0.014730 
#    y 0.000000 1.767030 0.000000 
#    z 0.014730 0.000000 1.807960 
# 
# From -- ./inp_files/46964.got.cif
#   From: 2010.06.25/outbox.cif.g09.slc.cpg/sg12_24_cif.got.tgz:46964.got - 2010.06.28 00:19:55.
