data_PCOD8109105
_publ_section_title
;
Structure prediction by ZEFSAII (Michael W. Deem and Ramdas Pophale) SiO2 
 PCOD8109105
Probable space group: C 2/M
;
_chemical_formula_sum "Si O2"
_cell_formula_units_Z 48
_cell_length_a 16.967388
_cell_length_b 15.678293
_cell_length_c 18.047519
_cell_angle_alpha 90.000000
_cell_angle_beta 29.476212
_cell_angle_gamma 90.000000
_cell_volume 2362.388108
_symmetry_space_group_name_H-M "C 2/M"
_symmetry_group_IT_number 12
_symmetry_cell_setting 'monoclinic'
loop_
_space_group_symop_operation_xyz
x,y,z
-x,y,-z
-x,-y,-z
x,-y,z
1/2+x,1/2+y,z
1/2-x,1/2+y,-z
1/2-x,1/2-y,-z
1/2+x,1/2-y,z
loop_
_atom_site_type_symbol
_atom_site_label
_atom_site_fract_x
_atom_site_fract_y
_atom_site_fract_z
Si Si1 0.316006 0.597545 0.136816
Si Si2 0.377649 0.754707 0.331417
Si Si3 0.637377 0.902818 0.131335
Si Si4 0.127536 0.908571 0.328899
Si Si5 0.688592 0.243849 0.336900
Si Si6 0.075164 0.094480 0.203635
O O1 0.281282 0.500000 0.186191
O O2 0.258142 0.617469 0.100741
O O3 0.219747 0.654608 0.272939
O O4 0.500000 0.620825 0.000000
O O5 0.250000 0.750000 0.500000
O O6 0.490718 0.836880 0.251056
O O7 0.280044 0.760262 0.336911
O O8 0.474491 0.667117 0.246225
O O9 0.570251 0.000000 0.193129
O O10 0.738963 0.892360 0.972405
O O11 0.242409 0.826346 0.243500
O O12 0.000000 0.908863 0.500000
O O13 0.045942 0.899013 0.315312
O O14 0.220730 0.000000 0.254772
O O15 0.500000 0.247695 0.500000
O O16 0.020122 0.000000 0.220716
#
# Coordination Sequence:
#
# PCOD8109105 Si02
#       6
#     8   8   8   8   8   8
#     4  10  21  39  62  86 116 154 193 238 294 352
#     4  12  24  38  61  89 121 159 199 250 303 357
#     4  10  22  41  63  89 121 156 200 251 300 357
#     4   9  18  35  58  82 112 150 192 239 289 346
#     4  11  23  38  57  84 118 155 196 240 292 353
#     4  10  21  39  63  88 117 156 200 247 301 360
#
# _framework density 20.318422000000002
#
# number of rings (size 3 to 8) (size 9 to 14) (size 15 to 20)
#    0.000    1.667    0.000    5.500    0.000    5.000 
#    0.000    0.000    0.000    3.500    0.000    0.000 
#    0.000    0.000    0.000    0.000    0.000    0.000 
#
# Total GULP energy -297403.200060 kJ/mol
# GULP energy per Si atom -12391.800003 kJ/mol
# Density = 2.027218 g / cm^3
# Si number density = 20.318422 Si / 1000 Ang^3
#
#
#
# Elastic Constant Matrix: (Units=GPa)
#
#
# Indices 1 2 3 4 5 6 
#
# 1 121.5639 59.6552 43.0326 0.0173 -17.2858 0.0009
# 2 59.6552 163.0419 64.3966 0.0419 -16.3087 -0.0072
# 3 43.0326 64.3966 86.2872 0.0347 -8.5524 -0.0047
# 4 0.0173 0.0419 0.0347 40.3051 -0.0075 5.2625
# 5 -17.2858 -16.3087 -8.5524 -0.0075 19.1469 0.0017
# 6 0.0009 -0.0072 -0.0047 5.2625 0.0017 28.4597
#
#
#
# Elastic Compliance Matrix: (Units=1/GPa)
#
#
# Indices 1 2 3 4 5 6 
#
# 1 0.011493 -0.002147 -0.003434 0.000002 0.007013 -0.000002
# 2 -0.002147 0.009525 -0.005677 -0.000004 0.003639 0.000002
# 3 -0.003434 -0.005677 0.017528 -0.000008 -0.000107 0.000003
# 4 0.000002 -0.000004 -0.000008 0.025425 0.000005 -0.004701
# 5 0.007013 0.003639 -0.000107 0.000005 0.061611 -0.000004
# 6 -0.000002 0.000002 0.000003 -0.004701 -0.000004 0.036007
#
#
# Mechanical properties :
#
#
# Convention : Reuss Voigt Hill
#
# Bulk Modulus (GPa) = 62.38612 78.34019 70.36316
# Shear Modulus (GPa) = 26.39239 31.16957 28.78098
#
# Velocity S-wave (km/s) = 3.60799 3.92095 3.76772
# Velocity P-wave (km/s) = 6.93741 7.69015 7.32346
#
# Compressibility (1/GPa) = 0.01602921
#
# Stress axis : x y z
#
# Youngs Moduli (GPa) = 87.01246 104.98230 57.05081
#
# Poissons Ratio (x) = 0.22542 0.19591
# Poissons Ratio (y) = 0.18684 0.32390
# Poissons Ratio (z) = 0.29880 0.59602
#
# Static dielectric constant tensor:
#      x y z
#    x 3.776260 0.000000 0.116280 
#    y 0.000000 4.452880 0.000010 
#    z 0.116280 0.000010 3.485180 
# 
# 
# High freq. dielectric constant tensor:
#      x y z
#    x 1.798480 0.000000 0.015920 
#    y 0.000000 1.826810 0.000000 
#    z 0.015920 0.000000 1.769530 
# 
# From -- ./inp_files/271625.got.cif
#   From: 2010.06.25/outbox.cif.g09.slc.cpg/sg12_136_cif.got.tgz:271625.got - 2010.06.28 00:19:55.
