data_PCOD8109428
_publ_section_title
;
Structure prediction by ZEFSAII (Michael W. Deem and Ramdas Pophale) SiO2 
 PCOD8109428
Probable space group: C 2/M
;
_chemical_formula_sum "Si O2"
_cell_formula_units_Z 64
_cell_length_a 30.609870
_cell_length_b 8.756384
_cell_length_c 19.356255
_cell_angle_alpha 90.000000
_cell_angle_beta 141.668583
_cell_angle_gamma 90.000000
_cell_volume 3217.702304
_symmetry_space_group_name_H-M "C 2/M"
_symmetry_group_IT_number 12
_symmetry_cell_setting 'monoclinic'
loop_
_space_group_symop_operation_xyz
x,y,z
-x,y,-z
-x,-y,-z
x,-y,z
1/2+x,1/2+y,z
1/2-x,1/2+y,-z
1/2-x,1/2-y,-z
1/2+x,1/2-y,z
loop_
_atom_site_type_symbol
_atom_site_label
_atom_site_fract_x
_atom_site_fract_y
_atom_site_fract_z
Si Si1 0.430619 0.680302 0.611591
Si Si2 0.291241 0.671463 0.753671
Si Si3 0.800500 0.176199 0.254905
Si Si4 0.785607 0.326654 0.479565
Si Si5 0.064666 0.674950 0.530354
Si Si6 0.053546 0.821278 0.007822
Si Si7 0.552715 0.181363 0.856722
Si Si8 0.708517 0.820077 0.011982
O O1 0.433786 0.500000 0.623921
O O2 0.355199 0.737851 0.543249
O O3 0.442240 0.722269 0.546100
O O4 0.492216 0.752449 0.733478
O O5 0.275837 0.500000 0.762864
O O6 0.240717 0.795574 0.725439
O O7 0.275564 0.678555 0.653394
O O8 0.370734 0.718804 0.867170
O O9 0.869910 0.278159 0.340955
O O10 0.750594 0.232247 0.131665
O O11 0.821656 0.000000 0.274771
O O12 0.807635 0.500000 0.523718
O O13 0.750000 0.250000 0.500000
O O14 0.072061 0.500000 0.515393
O O15 0.000000 0.702103 0.500000
O O16 0.043155 0.000000 0.980382
O O17 0.041007 0.734041 0.920725
O O18 0.000000 0.762700 0.000000
O O19 0.549583 0.000000 0.851069
O O20 0.628252 0.239745 0.920627
O O21 0.708489 0.000000 0.003141
O O22 0.750000 0.750000 0.000000
#
# Coordination Sequence:
#
# PCOD8109428 Si02
#       8
#     8   8   8   8   8   8   8   8
#     4  12  26  44  66  93 127 168 214 265 317 377
#     4  10  21  39  64  91 125 166 209 258 314 373
#     4  11  22  40  65  94 125 161 211 263 311 374
#     4  11  24  42  65  96 131 170 214 260 315 377
#     4  11  25  44  66  94 127 166 209 259 321 384
#     4  10  22  40  64  95 127 165 210 258 311 372
#     4  11  24  44  64  91 129 168 209 259 317 379
#     4  10  24  42  63  93 127 164 209 258 311 375
#
# _framework density 19.889969000000001
#
# number of rings (size 3 to 8) (size 9 to 14) (size 15 to 20)
#    0.000    1.250    2.500    2.625    3.500    3.750 
#    0.000    0.000    0.000    0.000    0.000    0.000 
#    0.000    0.000    0.000    0.000    0.000    0.000 
#
# Total GULP energy -396889.191686 kJ/mol
# GULP energy per Si atom -12402.787240 kJ/mol
# Density = 1.984470 g / cm^3
# Si number density = 19.889969 Si / 1000 Ang^3
#
#
#
# Elastic Constant Matrix: (Units=GPa)
#
#
# Indices 1 2 3 4 5 6 
#
# 1 78.7668 48.8976 29.5992 0.0000 6.4446 0.0000
# 2 48.8976 70.6277 34.1452 0.0000 0.6302 0.0000
# 3 29.5992 34.1452 121.8179 0.0000 10.5294 0.0000
# 4 0.0000 0.0000 0.0000 28.9231 0.0000 -5.2373
# 5 6.4446 0.6302 10.5294 0.0000 33.8720 0.0000
# 6 0.0000 0.0000 0.0000 -5.2373 0.0000 24.8085
#
#
#
# Elastic Compliance Matrix: (Units=1/GPa)
#
#
# Indices 1 2 3 4 5 6 
#
# 1 0.022894 -0.015368 -0.000928 0.000000 -0.003781 0.000000
# 2 -0.015368 0.026738 -0.004080 0.000000 0.003695 0.000000
# 3 -0.000928 -0.004080 0.009820 0.000000 -0.002800 0.000000
# 4 0.000000 0.000000 0.000000 0.035949 0.000000 0.007589
# 5 -0.003781 0.003695 -0.002800 0.000000 0.031044 0.000000
# 6 0.000000 0.000000 0.000000 0.007589 0.000000 0.041911
#
#
# Mechanical properties :
#
#
# Convention : Reuss Voigt Hill
#
# Bulk Modulus (GPa) = 53.47565 55.16625 54.32095
# Shear Modulus (GPa) = 23.21905 28.09209 25.65557
#
# Velocity S-wave (km/s) = 3.42039 3.76223 3.59538
# Velocity P-wave (km/s) = 6.52249 6.83143 6.67875
#
# Compressibility (1/GPa) = 0.01870010
#
# Stress axis : x y z
#
# Youngs Moduli (GPa) = 43.67953 37.40052 101.83140
#
# Poissons Ratio (x) = 0.57476 0.09454
# Poissons Ratio (y) = 0.67125 0.41545
# Poissons Ratio (z) = 0.04055 0.15259
#
# Static dielectric constant tensor:
#      x y z
#    x 3.747660 0.000000 0.157300 
#    y 0.000000 3.728180 0.000000 
#    z 0.157300 0.000000 3.682950 
# 
# 
# High freq. dielectric constant tensor:
#      x y z
#    x 1.782720 0.000000 0.003270 
#    y 0.000000 1.779430 0.000000 
#    z 0.003270 0.000000 1.793390 
# 
# From -- ./inp_files/295705.got.cif
#   From: 2010.06.25/outbox.cif.g09.slc.cpg/sg12_148_cif.got.tgz:295705.got - 2010.06.28 00:19:55.
