data_PCOD8109737
_publ_section_title
;
Structure prediction by ZEFSAII (Michael W. Deem and Ramdas Pophale) SiO2 
 PCOD8109737
Probable space group: C 2/M
;
_chemical_formula_sum "Si O2"
_cell_formula_units_Z 36
_cell_length_a 14.550920
_cell_length_b 10.372269
_cell_length_c 19.666109
_cell_angle_alpha 90.000000
_cell_angle_beta 37.650308
_cell_angle_gamma 90.000000
_cell_volume 1813.053230
_symmetry_space_group_name_H-M "C 2/M"
_symmetry_group_IT_number 12
_symmetry_cell_setting 'monoclinic'
loop_
_space_group_symop_operation_xyz
x,y,z
-x,y,-z
-x,-y,-z
x,-y,z
1/2+x,1/2+y,z
1/2-x,1/2+y,-z
1/2-x,1/2-y,-z
1/2+x,1/2-y,z
loop_
_atom_site_type_symbol
_atom_site_label
_atom_site_fract_x
_atom_site_fract_y
_atom_site_fract_z
Si Si1 0.227076 0.000000 0.612634
Si Si2 0.040525 0.500000 0.637647
Si Si3 0.769546 0.646118 0.103666
Si Si4 0.427846 0.231165 0.137821
Si Si5 0.552408 0.242917 0.719850
Si Si6 0.288151 0.500000 0.221100
O O1 0.133163 0.872958 0.647265
O O2 0.264946 0.000000 0.669789
O O3 0.383580 0.000000 0.480684
O O4 0.095825 0.626959 0.644728
O O5 0.860814 0.500000 0.737260
O O6 0.734573 0.500000 0.101739
O O7 0.820085 0.644976 0.153249
O O8 0.625516 0.734054 0.175962
O O9 0.898971 0.704740 0.980436
O O10 0.394646 0.200382 0.235870
O O11 0.392623 0.379517 0.142187
#
# Coordination Sequence:
#
# PCOD8109737 Si02
#       6
#     4   4   8   8   8   4
#     4  10  23  44  62  83 120 161 196 249 309 343
#     4  12  23  39  65  91 111 156 208 257 288 344
#     4  11  22  39  60  83 126 164 194 231 299 364
#     4  10  22  38  58  90 119 161 189 243 292 358
#     4  11  23  40  63  88 122 152 203 248 293 352
#     4  10  21  40  62  85 122 150 199 249 302 349
#
# _framework density 19.856009
#
# number of rings (size 3 to 8) (size 9 to 14) (size 15 to 20)
#    0.000    1.333    3.333    3.000    3.111    2.667 
#    0.000    0.000    0.000    1.333    0.000    0.000 
#    0.000    0.000    0.000    0.000    0.000    0.000 
#
# Total GULP energy -223261.757469 kJ/mol
# GULP energy per Si atom -12403.430970 kJ/mol
# Density = 1.981082 g / cm^3
# Si number density = 19.856009 Si / 1000 Ang^3
#
#
#
# Elastic Constant Matrix: (Units=GPa)
#
#
# Indices 1 2 3 4 5 6 
#
# 1 57.5113 18.3730 10.5995 0.0000 4.5644 0.0000
# 2 18.3730 123.7486 33.7750 0.0000 11.1284 0.0000
# 3 10.5995 33.7750 64.2939 0.0000 8.9165 0.0000
# 4 0.0000 0.0000 0.0000 24.6164 0.0000 3.1315
# 5 4.5644 11.1284 8.9165 0.0000 25.1002 0.0000
# 6 0.0000 0.0000 0.0000 3.1315 0.0000 26.9167
#
#
#
# Elastic Compliance Matrix: (Units=1/GPa)
#
#
# Indices 1 2 3 4 5 6 
#
# 1 0.018522 -0.002126 -0.001683 0.000000 -0.001828 0.000000
# 2 -0.002126 0.009835 -0.004486 0.000000 -0.002380 0.000000
# 3 -0.001683 -0.004486 0.018795 0.000000 -0.004382 0.000000
# 4 0.000000 0.000000 0.000000 0.041234 0.000000 -0.004797
# 5 -0.001828 -0.002380 -0.004382 0.000000 0.042785 0.000000
# 6 0.000000 0.000000 0.000000 -0.004797 0.000000 0.037710
#
#
# Mechanical properties :
#
#
# Convention : Reuss Voigt Hill
#
# Bulk Modulus (GPa) = 32.72035 41.22764 36.97400
# Shear Modulus (GPa) = 25.55472 27.51375 26.53423
#
# Velocity S-wave (km/s) = 3.59137 3.72649 3.65955
# Velocity P-wave (km/s) = 5.80619 6.27089 6.04301
#
# Compressibility (1/GPa) = 0.03056202
#
# Stress axis : x y z
#
# Youngs Moduli (GPa) = 53.98859 101.67790 53.20480
#
# Poissons Ratio (x) = 0.21620 0.08955
# Poissons Ratio (y) = 0.11480 0.23867
# Poissons Ratio (z) = 0.09087 0.45612
#
# Static dielectric constant tensor:
#      x y z
#    x 3.673380 0.000000 0.063460 
#    y 0.000000 3.657660 0.000000 
#    z 0.063460 0.000000 3.363230 
# 
# 
# High freq. dielectric constant tensor:
#      x y z
#    x 1.779080 0.000000 0.003320 
#    y 0.000000 1.784500 0.000000 
#    z 0.003320 0.000000 1.760040 
# 
# From -- ./inp_files/293047.got.cif
#   From: 2010.06.25/outbox.cif.g09.slc.cpg/sg12_147_cif.got.tgz:293047.got - 2010.06.28 00:19:55.
