data_PCOD8109363
_publ_section_title
;
Structure prediction by ZEFSAII (Michael W. Deem and Ramdas Pophale) SiO2 
 PCOD8109363
Probable space group: C 2/M
;
_chemical_formula_sum "Si O2"
_cell_formula_units_Z 36
_cell_length_a 19.139738
_cell_length_b 15.732007
_cell_length_c 16.277835
_cell_angle_alpha 90.000000
_cell_angle_beta 19.886201
_cell_angle_gamma 90.000000
_cell_volume 1667.213327
_symmetry_space_group_name_H-M "C 2/M"
_symmetry_group_IT_number 12
_symmetry_cell_setting 'monoclinic'
loop_
_space_group_symop_operation_xyz
x,y,z
-x,y,-z
-x,-y,-z
x,-y,z
1/2+x,1/2+y,z
1/2-x,1/2+y,-z
1/2-x,1/2-y,-z
1/2+x,1/2-y,z
loop_
_atom_site_type_symbol
_atom_site_label
_atom_site_fract_x
_atom_site_fract_y
_atom_site_fract_z
Si Si1 0.705356 0.900517 0.095936
Si Si2 0.500000 0.220793 0.000000
Si Si3 0.573156 0.776019 0.507186
Si Si4 0.025666 0.595707 0.118623
Si Si5 0.120690 0.172865 0.604217
O O1 0.533438 0.863948 0.347915
O O2 0.648359 0.878430 0.065085
O O3 0.712719 0.000000 0.103802
O O4 0.929500 0.860486 0.870122
O O5 0.678665 0.283204 0.770081
O O6 0.418130 0.160930 0.016318
O O7 0.500000 0.745217 0.500000
O O8 0.515675 0.703018 0.635531
O O9 0.082554 0.500000 0.028268
O O10 0.781479 0.597584 0.408629
O O11 0.250000 0.250000 0.500000
#
# Coordination Sequence:
#
# PCOD8109363 Si02
#       5
#     8   4   8   8   8
#     4  11  24  41  63  91 124 163 206 256 310 364
#     4  10  23  38  61  96 124 166 206 254 299 368
#     4  11  24  38  64  90 126 163 209 252 304 363
#     4  10  21  39  63  93 126 160 200 256 314 365
#     4  11  22  39  66  92 118 161 210 256 303 365
#
# _framework density 21.592918000000001
#
# number of rings (size 3 to 8) (size 9 to 14) (size 15 to 20)
#    0.000    1.333    2.222    3.000    6.222    0.444 
#    0.000    0.556    0.000   10.667    0.000    0.000 
#    0.000    0.000    0.000    0.000    0.000    0.000 
#
# Total GULP energy -223135.854183 kJ/mol
# GULP energy per Si atom -12396.436344 kJ/mol
# Density = 2.154377 g / cm^3
# Si number density = 21.592918 Si / 1000 Ang^3
#
#
#
# Elastic Constant Matrix: (Units=GPa)
#
#
# Indices 1 2 3 4 5 6 
#
# 1 95.9658 37.6313 20.3788 -0.0005 -4.4142 -0.0001
# 2 37.6313 82.9409 73.9110 0.0302 -8.8543 -0.0217
# 3 20.3788 73.9110 157.3855 0.0277 4.0787 -0.0225
# 4 -0.0005 0.0302 0.0277 33.8581 -0.0285 -4.7602
# 5 -4.4142 -8.8543 4.0787 -0.0285 25.3855 0.0082
# 6 -0.0001 -0.0217 -0.0225 -4.7602 0.0082 17.1069
#
#
#
# Elastic Compliance Matrix: (Units=1/GPa)
#
#
# Indices 1 2 3 4 5 6 
#
# 1 0.013000 -0.007731 0.001967 0.000004 -0.000752 -0.000006
# 2 -0.007731 0.027511 -0.012183 -0.000004 0.010209 0.000013
# 3 0.001967 -0.012183 0.011972 -0.000004 -0.005831 0.000002
# 4 0.000004 -0.000004 -0.000004 0.030738 0.000032 0.008553
# 5 -0.000752 0.010209 -0.005831 0.000032 0.043759 -0.000007
# 6 -0.000006 0.000013 0.000002 0.008553 -0.000007 0.060836
#
#
# Mechanical properties :
#
#
# Convention : Reuss Voigt Hill
#
# Bulk Modulus (GPa) = 60.28597 66.68163 63.48380
# Shear Modulus (GPa) = 21.81118 28.89483 25.35300
#
# Velocity S-wave (km/s) = 3.18167 3.66206 3.43028
# Velocity P-wave (km/s) = 6.44029 6.98779 6.71962
#
# Compressibility (1/GPa) = 0.01658761
#
# Stress axis : x y z
#
# Youngs Moduli (GPa) = 76.92442 36.34871 83.53017
#
# Poissons Ratio (x) = 0.28102 -0.16430
# Poissons Ratio (y) = 0.59473 1.01767
# Poissons Ratio (z) = -0.15131 0.44285
#
# Static dielectric constant tensor:
#      x y z
#    x 4.035810 0.000090 -0.020120 
#    y 0.000090 3.613190 -0.000050 
#    z -0.020120 -0.000050 4.055740 
# 
# 
# High freq. dielectric constant tensor:
#      x y z
#    x 1.849920 0.000000 -0.006880 
#    y 0.000000 1.825540 0.000000 
#    z -0.006880 0.000000 1.856790 
# 
# From -- ./inp_files/284196.got.cif
#   From: 2010.06.25/outbox.cif.g09.slc.cpg/sg12_143_cif.got.tgz:284196.got - 2010.06.28 00:19:55.
