data_PCOD8109126
_publ_section_title
;
Structure prediction by ZEFSAII (Michael W. Deem and Ramdas Pophale) SiO2 
 PCOD8109126
Probable space group: C 2/M
;
_chemical_formula_sum "Si O2"
_cell_formula_units_Z 56
_cell_length_a 15.066856
_cell_length_b 8.719587
_cell_length_c 24.370957
_cell_angle_alpha 90.000000
_cell_angle_beta 117.346882
_cell_angle_gamma 90.000000
_cell_volume 2843.952042
_symmetry_space_group_name_H-M "C 2/M"
_symmetry_group_IT_number 12
_symmetry_cell_setting 'monoclinic'
loop_
_space_group_symop_operation_xyz
x,y,z
-x,y,-z
-x,-y,-z
x,-y,z
1/2+x,1/2+y,z
1/2-x,1/2+y,-z
1/2-x,1/2-y,-z
1/2+x,1/2-y,z
loop_
_atom_site_type_symbol
_atom_site_label
_atom_site_fract_x
_atom_site_fract_y
_atom_site_fract_z
Si Si1 0.919637 0.320586 0.206620
Si Si2 0.481369 0.179850 0.650612
Si Si3 0.726563 0.680777 0.434477
Si Si4 0.423674 0.818296 0.433499
Si Si5 0.482440 0.678796 0.868905
Si Si6 0.597534 0.168400 0.991088
Si Si7 0.206830 0.681621 0.127131
O O1 0.928220 0.500000 0.196059
O O2 0.959858 0.278323 0.277857
O O3 0.804880 0.270840 0.172798
O O4 0.987673 0.227357 0.183536
O O5 0.375865 0.263664 0.620794
O O6 0.547341 0.242359 0.618553
O O7 0.461104 0.000000 0.639408
O O8 0.725688 0.500000 0.441149
O O9 0.750000 0.750000 0.500000
O O10 0.812145 0.735474 0.416430
O O11 0.500000 0.748493 0.500000
O O12 0.431397 0.000000 0.436853
O O13 0.458765 0.500000 0.864354
O O14 0.577370 0.715007 0.935525
O O15 0.384021 0.769986 0.859201
O O16 0.623587 0.000000 0.974125
O O17 0.500000 0.153526 0.000000
O O18 0.684780 0.226228 0.056964
O O19 0.222307 0.500000 0.137083
#
# Coordination Sequence:
#
# PCOD8109126 Si02
#       7
#     8   8   8   8   8   8   8
#     4  11  24  40  59  84 118 160 203 248 297 359
#     4  10  22  41  60  83 115 151 194 239 289 346
#     4  11  21  35  60  89 117 150 186 230 284 343
#     4   9  17  34  60  84 112 148 181 223 281 341
#     4  11  22  37  60  87 119 158 201 247 298 359
#     4   8  16  33  57  85 116 151 193 247 304 353
#     4  10  21  39  62  87 119 155 197 250 304 358
#
# _framework density 19.690906999999999
#
# number of rings (size 3 to 8) (size 9 to 14) (size 15 to 20)
#    0.000    2.000    1.429    3.429    0.000    6.000 
#    0.000    3.571    0.000    0.000    0.000    0.000 
#    0.000    0.000    0.000    0.000    0.000    0.000 
#
# Total GULP energy -347194.075234 kJ/mol
# GULP energy per Si atom -12399.788401 kJ/mol
# Density = 1.964609 g / cm^3
# Si number density = 19.690907 Si / 1000 Ang^3
#
#
#
# Elastic Constant Matrix: (Units=GPa)
#
#
# Indices 1 2 3 4 5 6 
#
# 1 98.9310 12.7047 34.9502 0.0000 0.5236 0.0000
# 2 12.7047 55.4514 27.9077 0.0000 0.2115 0.0000
# 3 34.9502 27.9077 101.3651 0.0000 1.1773 0.0000
# 4 0.0000 0.0000 0.0000 23.9642 0.0000 2.8872
# 5 0.5236 0.2115 1.1773 0.0000 37.6118 0.0000
# 6 0.0000 0.0000 0.0000 2.8872 0.0000 30.9352
#
#
#
# Elastic Compliance Matrix: (Units=1/GPa)
#
#
# Indices 1 2 3 4 5 6 
#
# 1 0.011537 -0.000744 -0.003772 0.000000 -0.000038 0.000000
# 2 -0.000744 0.020983 -0.005521 0.000000 0.000065 0.000000
# 3 -0.003772 -0.005521 0.012690 0.000000 -0.000314 0.000000
# 4 0.000000 0.000000 0.000000 0.042203 0.000000 -0.003939
# 5 -0.000038 0.000065 -0.000314 0.000000 0.026597 0.000000
# 6 0.000000 0.000000 0.000000 -0.003939 0.000000 0.032693
#
#
# Mechanical properties :
#
#
# Convention : Reuss Voigt Hill
#
# Bulk Modulus (GPa) = 39.78776 45.20806 42.49791
# Shear Modulus (GPa) = 28.54590 30.51456 29.53023
#
# Velocity S-wave (km/s) = 3.81162 3.94087 3.87678
# Velocity P-wave (km/s) = 6.29455 6.61180 6.45512
#
# Compressibility (1/GPa) = 0.02513336
#
# Stress axis : x y z
#
# Youngs Moduli (GPa) = 86.68106 47.65817 78.80413
#
# Poissons Ratio (x) = 0.03548 0.29728
# Poissons Ratio (y) = 0.06453 0.43508
# Poissons Ratio (z) = 0.32699 0.26312
#
# Static dielectric constant tensor:
#      x y z
#    x 3.707760 0.000000 0.013100 
#    y 0.000000 3.477810 0.000000 
#    z 0.013100 0.000000 3.805440 
# 
# 
# High freq. dielectric constant tensor:
#      x y z
#    x 1.771750 0.000000 -0.000190 
#    y 0.000000 1.756710 0.000000 
#    z -0.000190 0.000000 1.769120 
# 
# From -- ./inp_files/339097.got.cif
#   From: 2010.06.25/outbox.cif.g09.slc.cpg/sg12_170_cif.got.tgz:339097.got - 2010.06.28 00:19:55.
