data_PCOD8109320
_publ_section_title
;
Structure prediction by ZEFSAII (Michael W. Deem and Ramdas Pophale) SiO2 
 PCOD8109320
Probable space group: C 2/M
;
_chemical_formula_sum "Si O2"
_cell_formula_units_Z 56
_cell_length_a 22.403019
_cell_length_b 30.314311
_cell_length_c 9.644763
_cell_angle_alpha 90.000000
_cell_angle_beta 25.963926
_cell_angle_gamma 90.000000
_cell_volume 2867.653639
_symmetry_space_group_name_H-M "C 2/M"
_symmetry_group_IT_number 12
_symmetry_cell_setting 'monoclinic'
loop_
_space_group_symop_operation_xyz
x,y,z
-x,y,-z
-x,-y,-z
x,-y,z
1/2+x,1/2+y,z
1/2-x,1/2+y,-z
1/2-x,1/2-y,-z
1/2+x,1/2-y,z
loop_
_atom_site_type_symbol
_atom_site_label
_atom_site_fract_x
_atom_site_fract_y
_atom_site_fract_z
Si Si1 0.345972 0.183464 0.314041
Si Si2 0.729419 0.246213 0.751270
Si Si3 0.770697 0.947736 0.637422
Si Si4 0.027313 0.105840 0.603943
Si Si5 0.282770 0.596494 0.321726
Si Si6 0.028379 0.547813 0.780288
Si Si7 0.534567 0.290903 0.582122
O O1 0.311433 0.199397 0.231200
O O2 0.330813 0.226014 0.442419
O O3 0.239276 0.146088 0.579975
O O4 0.500000 0.164810 0.000000
O O5 0.823784 0.234394 0.684923
O O6 0.594081 0.274479 0.060342
O O7 0.815959 0.933200 0.387461
O O8 0.846667 0.922444 0.602166
O O9 0.795713 0.000000 0.596972
O O10 0.611935 0.935036 0.995270
O O11 0.058002 0.157382 0.556031
O O12 0.000000 0.093578 0.500000
O O13 0.902540 0.092704 0.962026
O O14 0.151553 0.581795 0.505201
O O15 0.069351 0.500000 0.631477
O O16 0.000000 0.541325 0.000000
O O17 0.500000 0.278257 0.500000
#
# Coordination Sequence:
#
# PCOD8109320 Si02
#       7
#     8   8   8   8   8   8   8
#     4  11  21  34  59  88 119 143 186 248 299 347
#     4  11  22  38  58  85 113 151 195 244 296 340
#     4  10  21  39  63  91 120 154 196 240 294 353
#     4  11  25  41  57  85 123 159 196 244 294 347
#     4  11  20  36  63  88 118 153 195 243 295 345
#     4   8  16  33  59  88 116 147 188 237 287 344
#     4  11  23  42  60  80 117 161 203 239 288 355
#
# _framework density 19.528161000000001
#
# number of rings (size 3 to 8) (size 9 to 14) (size 15 to 20)
#    0.000    1.571    2.857    4.286    0.000    2.000 
#    0.000    0.714    0.000    1.714    0.000    0.000 
#    0.000    0.000    0.000    0.000    0.000    0.000 
#
# Total GULP energy -347103.555054 kJ/mol
# GULP energy per Si atom -12396.555538 kJ/mol
# Density = 1.948371 g / cm^3
# Si number density = 19.528161 Si / 1000 Ang^3
#
#
#
# Elastic Constant Matrix: (Units=GPa)
#
#
# Indices 1 2 3 4 5 6 
#
# 1 134.3488 61.3556 39.1830 0.0008 -17.9369 -0.0002
# 2 61.3556 89.3613 21.8553 -0.0005 -13.7382 0.0004
# 3 39.1830 21.8553 48.4996 0.0011 -12.0774 0.0000
# 4 0.0008 -0.0005 0.0011 13.1856 -0.0007 -4.7358
# 5 -17.9369 -13.7382 -12.0774 -0.0007 29.1588 0.0001
# 6 -0.0002 0.0004 0.0000 -4.7358 0.0001 31.9321
#
#
#
# Elastic Compliance Matrix: (Units=1/GPa)
#
#
# Indices 1 2 3 4 5 6 
#
# 1 0.012795 -0.006840 -0.006798 0.000000 0.001832 0.000000
# 2 -0.006840 0.016664 -0.001199 0.000001 0.003147 0.000000
# 3 -0.006798 -0.001199 0.028398 -0.000002 0.007016 0.000000
# 4 0.000000 0.000001 -0.000002 0.080107 0.000002 0.011881
# 5 0.001832 0.003147 0.007016 0.000002 0.039810 0.000000
# 6 0.000000 0.000000 0.000000 0.011881 0.000000 0.033078
#
#
# Mechanical properties :
#
#
# Convention : Reuss Voigt Hill
#
# Bulk Modulus (GPa) = 35.48438 57.44417 46.46428
# Shear Modulus (GPa) = 20.00618 24.84302 22.42460
#
# Velocity S-wave (km/s) = 3.20422 3.57061 3.39237
# Velocity P-wave (km/s) = 5.64798 6.81755 6.26014
#
# Compressibility (1/GPa) = 0.02818141
#
# Stress axis : x y z
#
# Youngs Moduli (GPa) = 78.15853 60.00844 35.21329
#
# Poissons Ratio (x) = 0.41049 0.23938
# Poissons Ratio (y) = 0.53464 0.04223
# Poissons Ratio (z) = 0.53132 0.07197
#
# Static dielectric constant tensor:
#      x y z
#    x 3.683660 0.000000 -0.320800 
#    y 0.000000 3.570330 0.000000 
#    z -0.320800 0.000000 3.587500 
# 
# 
# High freq. dielectric constant tensor:
#      x y z
#    x 1.753610 0.000000 -0.023160 
#    y 0.000000 1.768150 0.000000 
#    z -0.023160 0.000000 1.750370 
# 
# From -- ./inp_files/91532.got.cif
#   From: 2010.06.25/outbox.cif.g09.slc.cpg/sg12_46_cif.got.tgz:91532.got - 2010.06.28 00:19:55.
