data_PCOD8109937
_publ_section_title
;
Structure prediction by ZEFSAII (Michael W. Deem and Ramdas Pophale) SiO2 
 PCOD8109937
Probable space group: C 2/M
;
_chemical_formula_sum "Si O2"
_cell_formula_units_Z 48
_cell_length_a 28.381119
_cell_length_b 8.816318
_cell_length_c 15.759370
_cell_angle_alpha 90.000000
_cell_angle_beta 142.068479
_cell_angle_gamma 90.000000
_cell_volume 2423.998819
_symmetry_space_group_name_H-M "C 2/M"
_symmetry_group_IT_number 12
_symmetry_cell_setting 'monoclinic'
loop_
_space_group_symop_operation_xyz
x,y,z
-x,y,-z
-x,-y,-z
x,-y,z
1/2+x,1/2+y,z
1/2-x,1/2+y,-z
1/2-x,1/2-y,-z
1/2+x,1/2-y,z
loop_
_atom_site_type_symbol
_atom_site_label
_atom_site_fract_x
_atom_site_fract_y
_atom_site_fract_z
Si Si1 0.348985 0.675927 0.573956
Si Si2 0.767832 0.325880 0.114252
Si Si3 0.698977 0.675616 0.305382
Si Si4 0.519983 0.322059 0.774949
Si Si5 0.442299 0.826288 0.345801
Si Si6 0.148669 0.678847 0.067360
O O1 0.333497 0.500000 0.532288
O O2 0.342463 0.708704 0.664620
O O3 0.287440 0.773200 0.434463
O O4 0.432199 0.728746 0.661096
O O5 0.741599 0.500000 0.072369
O O6 0.857328 0.310428 0.262726
O O7 0.722233 0.244518 0.123867
O O8 0.750000 0.250000 0.000000
O O9 0.696426 0.500000 0.276493
O O10 0.652205 0.770941 0.169931
O O11 0.529597 0.500000 0.802969
O O12 0.549317 0.279450 0.723700
O O13 0.569694 0.237545 0.916003
O O14 0.500000 0.768721 0.500000
O O15 0.459806 0.000000 0.344500
O O16 0.150761 0.500000 0.062537
#
# Coordination Sequence:
#
# PCOD8109937 Si02
#       6
#     8   8   8   8   8   8
#     4   9  21  41  63  91 123 155 195 248 303 361
#     4  11  22  39  62  88 121 159 197 244 298 352
#     4  10  21  40  65  90 120 158 199 244 301 362
#     4  11  23  40  62  89 121 156 200 249 302 356
#     4  10  23  41  60  87 121 156 198 243 293 354
#     4  12  25  40  60  88 123 160 205 250 295 354
#
# _framework density 19.801988000000001
#
# number of rings (size 3 to 8) (size 9 to 14) (size 15 to 20)
#    0.000    1.500    1.667    3.000    2.333    3.667 
#    0.000    3.333    0.000    0.000    0.000    0.000 
#    0.000    0.000    0.000    0.000    0.000    0.000 
#
# Total GULP energy -297759.691319 kJ/mol
# GULP energy per Si atom -12406.653805 kJ/mol
# Density = 1.975692 g / cm^3
# Si number density = 19.801988 Si / 1000 Ang^3
#
#
#
# Elastic Constant Matrix: (Units=GPa)
#
#
# Indices 1 2 3 4 5 6 
#
# 1 48.7736 19.3430 7.8607 0.0000 8.5679 0.0000
# 2 19.3430 108.2436 37.1496 0.0000 0.5309 0.0000
# 3 7.8607 37.1496 98.4553 0.0000 -3.7226 0.0000
# 4 0.0000 0.0000 0.0000 35.0652 0.0000 -3.2653
# 5 8.5679 0.5309 -3.7226 0.0000 33.5461 0.0000
# 6 0.0000 0.0000 0.0000 -3.2653 0.0000 33.1812
#
#
#
# Elastic Compliance Matrix: (Units=1/GPa)
#
#
# Indices 1 2 3 4 5 6 
#
# 1 0.023191 -0.003909 -0.000601 0.000000 -0.005928 0.000000
# 2 -0.003909 0.011284 -0.003931 0.000000 0.000384 0.000000
# 3 -0.000601 -0.003931 0.011746 0.000000 0.001519 0.000000
# 4 0.000000 0.000000 0.000000 0.028782 0.000000 0.002832
# 5 -0.005928 0.000384 0.001519 0.000000 0.031486 0.000000
# 6 0.000000 0.000000 0.000000 0.002832 0.000000 0.030416
#
#
# Mechanical properties :
#
#
# Convention : Reuss Voigt Hill
#
# Bulk Modulus (GPa) = 34.08407 42.68658 38.38533
# Shear Modulus (GPa) = 30.56838 33.09978 31.83408
#
# Velocity S-wave (km/s) = 3.93326 4.09288 4.01386
# Velocity P-wave (km/s) = 6.15445 6.62866 6.39595
#
# Compressibility (1/GPa) = 0.02933922
#
# Stress axis : x y z
#
# Youngs Moduli (GPa) = 43.11954 88.61884 85.13796
#
# Poissons Ratio (x) = 0.34641 0.05115
# Poissons Ratio (y) = 0.16855 0.33470
# Poissons Ratio (z) = 0.02591 0.34838
#
# Static dielectric constant tensor:
#      x y z
#    x 3.685250 0.000000 0.125210 
#    y 0.000000 3.669920 0.000000 
#    z 0.125210 0.000000 3.670650 
# 
# 
# High freq. dielectric constant tensor:
#      x y z
#    x 1.772610 0.000000 0.003080 
#    y 0.000000 1.779760 0.000000 
#    z 0.003080 0.000000 1.782770 
# 
# From -- ./inp_files/244876.got.cif
#   From: 2010.06.25/outbox.cif.g09.slc.cpg/sg12_123_cif.got.tgz:244876.got - 2010.06.28 00:19:55.
