data_PCOD8109543
_publ_section_title
;
Structure prediction by ZEFSAII (Michael W. Deem and Ramdas Pophale) SiO2 
 PCOD8109543
Probable space group: C 2/M
;
_chemical_formula_sum "Si O2"
_cell_formula_units_Z 32
_cell_length_a 5.091395
_cell_length_b 13.856832
_cell_length_c 21.076906
_cell_angle_alpha 90.000000
_cell_angle_beta 95.019901
_cell_angle_gamma 90.000000
_cell_volume 1481.284929
_symmetry_space_group_name_H-M "C 2/M"
_symmetry_group_IT_number 12
_symmetry_cell_setting 'monoclinic'
loop_
_space_group_symop_operation_xyz
x,y,z
-x,y,-z
-x,-y,-z
x,-y,z
1/2+x,1/2+y,z
1/2-x,1/2+y,-z
1/2-x,1/2-y,-z
1/2+x,1/2-y,z
loop_
_atom_site_type_symbol
_atom_site_label
_atom_site_fract_x
_atom_site_fract_y
_atom_site_fract_z
Si Si1 0.183733 0.309963 0.820509
Si Si2 0.511489 0.688120 0.573732
Si Si3 0.244220 0.389376 0.958733
Si Si4 0.878770 0.000000 0.343180
Si Si5 0.651132 0.000000 0.740111
O O1 0.459091 0.268562 0.800908
O O2 0.190866 0.327234 0.895620
O O3 0.114412 0.407315 0.783051
O O4 0.500000 0.658464 0.500000
O O5 0.236990 0.733040 0.591091
O O6 0.563088 0.593309 0.614397
O O7 0.297124 0.500000 0.939684
O O8 0.500000 0.347048 0.000000
O O9 0.000000 0.380443 0.000000
O O10 0.572653 0.000000 0.318199
O O11 0.060673 0.000000 0.284876
#
# Coordination Sequence:
#
# PCOD8109543 Si02
#       5
#     8   8   8   4   4
#     4  12  26  44  67  91 126 169 212 264 322 380
#     4  10  22  41  67 101 135 165 208 264 318 373
#     4  10  21  39  65  93 124 157 199 263 326 384
#     4  12  25  42  70  91 130 176 217 258 311 378
#     4  12  28  46  61  95 130 170 223 266 303 368
#
# _framework density 21.602865999999999
#
# number of rings (size 3 to 8) (size 9 to 14) (size 15 to 20)
#    0.000    1.000    1.250    4.875    0.000    9.000 
#    0.000    5.000    0.000    0.000    0.000    0.000 
#    0.000    0.000    0.000    0.000    0.000    0.000 
#
# Total GULP energy -198539.966538 kJ/mol
# GULP energy per Si atom -12408.747909 kJ/mol
# Density = 2.155370 g / cm^3
# Si number density = 21.602866 Si / 1000 Ang^3
#
#
#
# Elastic Constant Matrix: (Units=GPa)
#
#
# Indices 1 2 3 4 5 6 
#
# 1 113.7485 12.5442 26.7803 0.0000 17.2044 0.0000
# 2 12.5442 107.7218 58.6528 0.0000 20.5498 0.0000
# 3 26.7803 58.6528 81.9243 0.0000 12.3277 0.0000
# 4 0.0000 0.0000 0.0000 -1.6880 0.0000 0.3934
# 5 17.2044 20.5498 12.3277 0.0000 34.8595 0.0000
# 6 0.0000 0.0000 0.0000 0.3934 0.0000 21.4904
#
#
#
# Elastic Compliance Matrix: (Units=1/GPa)
#
#
# Indices 1 2 3 4 5 6 
#
# 1 0.010240 0.001881 -0.003978 0.000000 -0.004756 0.000000
# 2 0.001881 0.016588 -0.011491 0.000000 -0.006643 0.000000
# 3 -0.003978 -0.011491 0.021567 0.000000 0.001111 0.000000
# 4 0.000000 0.000000 0.000000 -0.589884 0.000000 0.010798
# 5 -0.004756 -0.006643 0.001111 0.000000 0.034557 0.000000
# 6 0.000000 0.000000 0.000000 0.010798 0.000000 0.046335
#
#
# Mechanical properties :
#
#
# Convention : Reuss Voigt Hill
#
# Bulk Modulus (GPa) = 47.13110 55.48325 51.30717
# Shear Modulus (GPa) = -11.72755 24.62686 6.44966
#
# Velocity S-wave (km/s) = -2.33248 3.38002 1.72975
# Velocity P-wave (km/s) = 3.82236 6.40092 5.27173
#
# Compressibility (1/GPa) = 0.02121741
#
# Stress axis : x y z
#
# Youngs Moduli (GPa) = 97.65796 60.28301 46.36726
#
# Poissons Ratio (x) = -0.11339 0.18446
# Poissons Ratio (y) = -0.18369 0.53283
# Poissons Ratio (z) = 0.38852 0.69274
#
# Static dielectric constant tensor:
#      x y z
#    x 4.119790 0.000000 0.090180 
#    y 0.000000 3.982820 0.000000 
#    z 0.090180 0.000000 3.872600 
# 
# 
# High freq. dielectric constant tensor:
#      x y z
#    x 1.864950 0.000000 0.005030 
#    y 0.000000 1.863630 0.000000 
#    z 0.005030 0.000000 1.849730 
# 
# From -- ./inp_files/252391.got.cif
#   From: 2010.06.25/outbox.cif.g09.slc.cpg/sg12_127_cif.got.tgz:252391.got - 2010.06.28 00:19:55.
