data_PCOD8109818
_publ_section_title
;
Structure prediction by ZEFSAII (Michael W. Deem and Ramdas Pophale) SiO2 
 PCOD8109818
Probable space group: C 2/M
;
_chemical_formula_sum "Si O2"
_cell_formula_units_Z 56
_cell_length_a 20.220443
_cell_length_b 17.553997
_cell_length_c 8.816473
_cell_angle_alpha 90.000000
_cell_angle_beta 59.286320
_cell_angle_gamma 90.000000
_cell_volume 2690.443188
_symmetry_space_group_name_H-M "C 2/M"
_symmetry_group_IT_number 12
_symmetry_cell_setting 'monoclinic'
loop_
_space_group_symop_operation_xyz
x,y,z
-x,y,-z
-x,-y,-z
x,-y,z
1/2+x,1/2+y,z
1/2-x,1/2+y,-z
1/2-x,1/2-y,-z
1/2+x,1/2-y,z
loop_
_atom_site_type_symbol
_atom_site_label
_atom_site_fract_x
_atom_site_fract_y
_atom_site_fract_z
Si Si1 0.593821 0.086012 0.233994
Si Si2 0.662342 0.410243 0.452617
Si Si3 0.918618 0.411731 0.398751
Si Si4 0.568654 0.330677 0.313904
Si Si5 0.974271 0.911629 0.187821
Si Si6 0.327397 0.220899 0.985864
Si Si7 0.300516 0.187579 0.353571
O O1 0.598939 0.104184 0.405597
O O2 0.509092 0.101529 0.264861
O O3 0.659055 0.132909 0.070229
O O4 0.617373 0.000000 0.175536
O O5 0.654999 0.500000 0.435339
O O6 0.637323 0.366357 0.330347
O O7 0.608833 0.382233 0.656223
O O8 0.749091 0.386969 0.383897
O O9 0.896905 0.500000 0.382016
O O10 0.873375 0.346550 0.358275
O O11 0.500000 0.297537 0.500000
O O12 0.536399 0.397717 0.245947
O O13 0.599570 0.264248 0.170438
O O14 0.967467 0.000000 0.164869
O O15 0.000000 0.870982 0.000000
O O16 0.250000 0.250000 0.000000
O O17 0.326687 0.228930 0.168122
O O18 0.250000 0.250000 0.500000
#
# Coordination Sequence:
#
# PCOD8109818 Si02
#       7
#     8   8   8   8   8   8   8
#     4   9  21  43  70  94 125 168 219 268 321 388
#     4  10  21  40  63  89 123 167 209 259 319 379
#     4   9  20  42  70  96 125 169 216 268 325 387
#     4  10  22  40  65  90 122 166 206 260 311 381
#     4   9  19  37  62  91 120 155 208 258 306 377
#     4  12  25  43  62  96 129 166 212 263 323 387
#     4  12  26  40  62  91 138 170 209 267 330 387
#
# _framework density 20.814412999999998
#
# number of rings (size 3 to 8) (size 9 to 14) (size 15 to 20)
#    0.000    1.857    1.429    2.571    4.000    4.571 
#    0.000    1.429    0.000    0.000    0.000    0.000 
#    0.000    0.000    0.000    0.000    0.000    0.000 
#
# Total GULP energy -347136.946617 kJ/mol
# GULP energy per Si atom -12397.748093 kJ/mol
# Density = 2.076704 g / cm^3
# Si number density = 20.814413 Si / 1000 Ang^3
#
#
#
# Elastic Constant Matrix: (Units=GPa)
#
#
# Indices 1 2 3 4 5 6 
#
# 1 111.1815 41.5671 41.9511 0.0000 7.4387 0.0000
# 2 41.5671 81.0061 51.6335 0.0000 0.7598 0.0000
# 3 41.9511 51.6335 141.4188 0.0000 7.1114 0.0000
# 4 0.0000 0.0000 0.0000 37.8028 0.0000 -2.5595
# 5 7.4387 0.7598 7.1114 0.0000 25.7213 0.0000
# 6 0.0000 0.0000 0.0000 -2.5595 0.0000 39.6946
#
#
#
# Elastic Compliance Matrix: (Units=1/GPa)
#
#
# Indices 1 2 3 4 5 6 
#
# 1 0.011604 -0.004984 -0.001482 0.000000 -0.002799 0.000000
# 2 -0.004984 0.018264 -0.005309 0.000000 0.002370 0.000000
# 3 -0.001482 -0.005309 0.009553 0.000000 -0.002056 0.000000
# 4 0.000000 0.000000 0.000000 0.026569 0.000000 0.001713
# 5 -0.002799 0.002370 -0.002056 0.000000 0.040186 0.000000
# 6 0.000000 0.000000 0.000000 0.001713 0.000000 0.025303
#
#
# Mechanical properties :
#
#
# Convention : Reuss Voigt Hill
#
# Bulk Modulus (GPa) = 63.00760 67.10108 65.05434
# Shear Modulus (GPa) = 31.18804 33.87406 32.53105
#
# Velocity S-wave (km/s) = 3.87510 4.03852 3.95765
# Velocity P-wave (km/s) = 7.09639 7.35214 7.22540
#
# Compressibility (1/GPa) = 0.01587110
#
# Stress axis : x y z
#
# Youngs Moduli (GPa) = 86.17778 54.75312 104.68360
#
# Poissons Ratio (x) = 0.27286 0.15514
# Poissons Ratio (y) = 0.42947 0.55578
# Poissons Ratio (z) = 0.12771 0.29069
#
# Static dielectric constant tensor:
#      x y z
#    x 3.659850 0.000000 -0.026030 
#    y 0.000000 3.678630 0.000000 
#    z -0.026030 0.000000 4.020930 
# 
# 
# High freq. dielectric constant tensor:
#      x y z
#    x 1.810460 0.000000 -0.001430 
#    y 0.000000 1.814460 0.000000 
#    z -0.001430 0.000000 1.820920 
# 
# From -- ./inp_files/75826.got.cif
#   From: 2010.06.25/outbox.cif.g09.slc.cpg/sg12_38_cif.got.tgz:75826.got - 2010.06.28 00:19:55.
