data_PCOD8109173
_publ_section_title
;
Structure prediction by ZEFSAII (Michael W. Deem and Ramdas Pophale) SiO2 
 PCOD8109173
Probable space group: C 2/M
;
_chemical_formula_sum "Si O2"
_cell_formula_units_Z 64
_cell_length_a 28.569009
_cell_length_b 8.933512
_cell_length_c 18.236006
_cell_angle_alpha 90.000000
_cell_angle_beta 43.039409
_cell_angle_gamma 90.000000
_cell_volume 3176.512507
_symmetry_space_group_name_H-M "C 2/M"
_symmetry_group_IT_number 12
_symmetry_cell_setting 'monoclinic'
loop_
_space_group_symop_operation_xyz
x,y,z
-x,y,-z
-x,-y,-z
x,-y,z
1/2+x,1/2+y,z
1/2-x,1/2+y,-z
1/2-x,1/2-y,-z
1/2+x,1/2-y,z
loop_
_atom_site_type_symbol
_atom_site_label
_atom_site_fract_x
_atom_site_fract_y
_atom_site_fract_z
Si Si1 0.311698 0.325428 0.971831
Si Si2 0.962828 0.174071 0.760232
Si Si3 0.069917 0.324030 0.728068
Si Si4 0.195129 0.823610 0.511091
Si Si5 0.314232 0.672617 0.133942
Si Si6 0.574213 0.823753 0.891374
Si Si7 0.043529 0.170998 0.522747
Si Si8 0.684087 0.827652 0.376002
O O1 0.295284 0.500000 0.994220
O O2 0.382020 0.290943 0.848143
O O3 0.250000 0.250000 0.000000
O O4 0.318367 0.261808 0.047000
O O5 0.994020 0.271816 0.791290
O O6 0.996945 0.222253 0.644438
O O7 0.975237 0.000000 0.763679
O O8 0.078895 0.500000 0.705244
O O9 0.119708 0.233169 0.617356
O O10 0.086063 0.279799 0.793115
O O11 0.250000 0.750000 0.500000
O O12 0.212241 0.774790 0.409328
O O13 0.199661 0.000000 0.513573
O O14 0.336010 0.500000 0.110356
O O15 0.366358 0.755818 0.127568
O O16 0.236079 0.695580 0.249400
O O17 0.576209 0.000000 0.900375
O O18 0.500000 0.760459 0.000000
O O19 0.108777 0.276826 0.438316
O O20 0.000000 0.189121 0.500000
O O21 0.068360 0.000000 0.505462
O O22 0.681681 0.000000 0.404171
#
# Coordination Sequence:
#
# PCOD8109173 Si02
#       8
#     8   8   8   8   8   8   8   8
#     4  10  23  42  63  90 122 159 205 254 304 360
#     4  10  21  39  62  89 122 160 203 251 301 361
#     4  11  22  37  60  90 122 157 198 246 300 360
#     4  12  24  39  59  86 121 160 202 247 298 358
#     4  10  23  41  60  88 124 159 201 250 300 358
#     4  10  22  39  60  89 122 157 202 249 297 355
#     4  10  22  39  61  90 122 159 204 253 305 362
#     4  11  23  40  61  89 124 162 204 251 304 362
#
# _framework density 20.147883
#
# number of rings (size 3 to 8) (size 9 to 14) (size 15 to 20)
#    0.000    1.500    1.250    3.375    1.750    5.500 
#    0.000    0.000    0.000    0.000    0.000    0.000 
#    0.000    0.000    0.000    0.000    0.000    0.000 
#
# Total GULP energy -396943.451480 kJ/mol
# GULP energy per Si atom -12404.482859 kJ/mol
# Density = 2.010203 g / cm^3
# Si number density = 20.147883 Si / 1000 Ang^3
#
#
#
# Elastic Constant Matrix: (Units=GPa)
#
#
# Indices 1 2 3 4 5 6 
#
# 1 136.1591 46.3487 51.0719 0.0040 -0.4890 -0.0037
# 2 46.3487 82.4977 39.6433 -0.0208 -2.3301 0.0137
# 3 51.0719 39.6433 114.7455 0.0070 -4.1986 -0.0049
# 4 0.0040 -0.0208 0.0070 23.9908 -0.0072 -5.2975
# 5 -0.4890 -2.3301 -4.1986 -0.0072 35.3655 0.0096
# 6 -0.0037 0.0137 -0.0049 -5.2975 0.0096 39.2778
#
#
#
# Elastic Compliance Matrix: (Units=1/GPa)
#
#
# Indices 1 2 3 4 5 6 
#
# 1 0.009865 -0.004122 -0.002985 -0.000004 -0.000490 0.000002
# 2 -0.004122 0.016262 -0.003763 0.000015 0.000568 -0.000005
# 3 -0.002985 -0.003763 0.011382 -0.000005 0.001062 0.000001
# 4 -0.000004 0.000015 -0.000005 0.042962 0.000008 0.005794
# 5 -0.000490 0.000568 0.001062 0.000008 0.028433 -0.000006
# 6 0.000002 -0.000005 0.000001 0.005794 -0.000006 0.026241
#
#
# Mechanical properties :
#
#
# Convention : Reuss Voigt Hill
#
# Bulk Modulus (GPa) = 63.41116 67.50333 65.45724
# Shear Modulus (GPa) = 30.83735 32.81604 31.82670
#
# Velocity S-wave (km/s) = 3.91647 4.04017 3.97880
# Velocity P-wave (km/s) = 7.21061 7.43913 7.32576
#
# Compressibility (1/GPa) = 0.01577010
#
# Stress axis : x y z
#
# Youngs Moduli (GPa) = 101.36563 61.49467 87.85613
#
# Poissons Ratio (x) = 0.25348 0.26223
# Poissons Ratio (y) = 0.41783 0.33058
# Poissons Ratio (z) = 0.30255 0.23139
#
# Static dielectric constant tensor:
#      x y z
#    x 3.505240 0.000040 0.109910 
#    y 0.000040 3.618910 0.000000 
#    z 0.109910 0.000000 3.853380 
# 
# 
# High freq. dielectric constant tensor:
#      x y z
#    x 1.795740 0.000000 -0.001030 
#    y 0.000000 1.780750 0.000000 
#    z -0.001030 0.000000 1.798960 
# 
# From -- ./inp_files/295574.got.cif
#   From: 2010.06.25/outbox.cif.g09.slc.cpg/sg12_148_cif.got.tgz:295574.got - 2010.06.28 00:19:55.
