data_PCOD8109806
_publ_section_title
;
Structure prediction by ZEFSAII (Michael W. Deem and Ramdas Pophale) SiO2 
 PCOD8109806
Probable space group: C 2/M
;
_chemical_formula_sum "Si O2"
_cell_formula_units_Z 40
_cell_length_a 18.850670
_cell_length_b 9.269836
_cell_length_c 28.233195
_cell_angle_alpha 90.000000
_cell_angle_beta 24.250732
_cell_angle_gamma 90.000000
_cell_volume 2026.356362
_symmetry_space_group_name_H-M "C 2/M"
_symmetry_group_IT_number 12
_symmetry_cell_setting 'monoclinic'
loop_
_space_group_symop_operation_xyz
x,y,z
-x,y,-z
-x,-y,-z
x,-y,z
1/2+x,1/2+y,z
1/2-x,1/2+y,-z
1/2-x,1/2-y,-z
1/2+x,1/2-y,z
loop_
_atom_site_type_symbol
_atom_site_label
_atom_site_fract_x
_atom_site_fract_y
_atom_site_fract_z
Si Si1 0.411277 0.837333 0.101358
Si Si2 0.987677 0.664247 0.268599
Si Si3 0.068907 0.332131 0.325224
Si Si4 0.901163 0.167006 0.512861
Si Si5 0.248072 0.662372 0.953587
O O1 0.259435 0.733042 0.209234
O O2 0.340661 0.000000 0.135294
O O3 0.500000 0.776066 0.000000
O O4 0.550421 0.837545 0.058099
O O5 0.048296 0.500000 0.223024
O O6 0.803390 0.691263 0.355895
O O7 0.974147 0.695954 0.332892
O O8 0.129221 0.769236 0.160642
O O9 0.084434 0.500000 0.327263
O O10 0.958435 0.259203 0.433336
O O11 0.000000 0.219234 0.500000
O O12 0.943869 0.000000 0.476520
O O13 0.312987 0.500000 0.923145
O O14 0.250000 0.750000 0.000000
#
# Coordination Sequence:
#
# PCOD8109806 Si02
#       5
#     8   8   8   8   8
#     4  10  21  40  63  88 119 159 203 239 289 361
#     4  10  22  41  62  88 121 159 202 246 298 355
#     4  11  23  38  62  92 122 155 197 254 302 344
#     4  10  23  42  63  86 117 159 203 246 298 362
#     4  11  24  40  62  90 123 161 197 244 298 355
#
# _framework density 19.739865000000002
#
# number of rings (size 3 to 8) (size 9 to 14) (size 15 to 20)
#    0.000    1.600    2.000    1.800    2.800    4.000 
#    0.000    0.000    0.000    0.000    0.000    0.000 
#    0.000    0.000    0.000    0.000    0.000    0.000 
#
# Total GULP energy -248090.069234 kJ/mol
# GULP energy per Si atom -12404.503462 kJ/mol
# Density = 1.969494 g / cm^3
# Si number density = 19.739865 Si / 1000 Ang^3
#
#
#
# Elastic Constant Matrix: (Units=GPa)
#
#
# Indices 1 2 3 4 5 6 
#
# 1 102.2318 46.5601 24.6496 -0.0010 -3.8520 -0.0006
# 2 46.5601 111.0211 46.0373 -0.0009 5.8866 -0.0018
# 3 24.6496 46.0373 69.5560 0.0015 -3.4521 0.0025
# 4 -0.0010 -0.0009 0.0015 32.6062 0.0020 6.8138
# 5 -3.8520 5.8866 -3.4521 0.0020 34.5895 -0.0006
# 6 -0.0006 -0.0018 0.0025 6.8138 -0.0006 33.5235
#
#
#
# Elastic Compliance Matrix: (Units=1/GPa)
#
#
# Indices 1 2 3 4 5 6 
#
# 1 0.012319 -0.004838 -0.001060 0.000000 0.002089 0.000000
# 2 -0.004838 0.014621 -0.008153 0.000001 -0.003841 0.000001
# 3 -0.001060 -0.008153 0.020313 -0.000001 0.003297 -0.000002
# 4 0.000000 0.000001 -0.000001 0.032029 -0.000002 -0.006510
# 5 0.002089 -0.003841 0.003297 -0.000002 0.030126 0.000001
# 6 0.000000 0.000001 -0.000002 -0.006510 0.000001 0.031153
#
#
# Mechanical properties :
#
#
# Convention : Reuss Voigt Hill
#
# Bulk Modulus (GPa) = 52.21801 57.47810 54.84806
# Shear Modulus (GPa) = 28.56383 31.18129 29.87256
#
# Velocity S-wave (km/s) = 3.80809 3.97874 3.89435
# Velocity P-wave (km/s) = 6.77096 7.09142 6.93304
#
# Compressibility (1/GPa) = 0.01915048
#
# Stress axis : x y z
#
# Youngs Moduli (GPa) = 81.17362 68.39634 49.23036
#
# Poissons Ratio (x) = 0.33088 0.05219
# Poissons Ratio (y) = 0.39269 0.40139
# Poissons Ratio (z) = 0.08606 0.55765
#
# Static dielectric constant tensor:
#      x y z
#    x 3.726670 0.000010 -0.119010 
#    y 0.000010 3.770720 -0.000100 
#    z -0.119010 -0.000100 3.925940 
# 
# 
# High freq. dielectric constant tensor:
#      x y z
#    x 1.780970 0.000000 -0.002660 
#    y 0.000000 1.772800 0.000000 
#    z -0.002660 0.000000 1.768580 
# 
# From -- ./inp_files/221238.got.cif
#   From: 2010.06.25/outbox.cif.g09.slc.cpg/sg12_111_cif.got.tgz:221238.got - 2010.06.28 00:19:55.
