data_PCOD8109721
_publ_section_title
;
Structure prediction by ZEFSAII (Michael W. Deem and Ramdas Pophale) SiO2 
 PCOD8109721
Probable space group: C 2/M
;
_chemical_formula_sum "Si O2"
_cell_formula_units_Z 56
_cell_length_a 14.363413
_cell_length_b 20.353016
_cell_length_c 9.722630
_cell_angle_alpha 90.000000
_cell_angle_beta 88.937564
_cell_angle_gamma 90.000000
_cell_volume 2841.813101
_symmetry_space_group_name_H-M "C 2/M"
_symmetry_group_IT_number 12
_symmetry_cell_setting 'monoclinic'
loop_
_space_group_symop_operation_xyz
x,y,z
-x,y,-z
-x,-y,-z
x,-y,z
1/2+x,1/2+y,z
1/2-x,1/2+y,-z
1/2-x,1/2-y,-z
1/2+x,1/2-y,z
loop_
_atom_site_type_symbol
_atom_site_label
_atom_site_fract_x
_atom_site_fract_y
_atom_site_fract_z
Si Si1 0.567382 0.572366 0.126955
Si Si2 0.020284 0.211525 0.160604
Si Si3 0.274648 0.880556 0.063904
Si Si4 0.341103 0.777647 0.287261
Si Si5 0.408526 0.000000 0.093596
Si Si6 0.890376 0.632935 0.521569
Si Si7 0.593009 0.000000 0.584960
Si Si8 0.316994 0.809038 0.784688
O O1 0.565712 0.500000 0.203080
O O2 0.530869 0.635701 0.216062
O O3 0.673180 0.587778 0.080866
O O4 0.500000 0.565570 0.000000
O O5 0.117473 0.248259 0.178542
O O6 0.942495 0.251712 0.242549
O O7 0.000000 0.209371 0.000000
O O8 0.301320 0.831654 0.184795
O O9 0.351686 0.936112 0.055780
O O10 0.278241 0.842488 0.921194
O O11 0.346701 0.806573 0.439935
O O12 0.272091 0.716537 0.296112
O O13 0.432893 0.000000 0.254116
O O14 0.500000 0.000000 0.000000
O O15 0.848813 0.564993 0.459444
O O16 0.867714 0.638736 0.683849
O O17 0.000000 0.633051 0.500000
O O18 0.500000 0.000000 0.500000
#
# Coordination Sequence:
#
# PCOD8109721 Si02
#       8
#     8   8   8   8   4   8   4   8
#     4  10  21  40  61  91 127 164 205 257 320 379
#     4  11  21  36  63  90 124 162 200 263 315 371
#     4  12  24  40  65  97 127 163 213 264 319 377
#     4  12  23  41  63  94 124 163 215 260 319 375
#     4  12  28  40  65  99 131 168 211 265 318 385
#     4  11  24  41  63  86 126 171 208 253 311 384
#     4  10  24  44  62  85 127 176 209 240 318 388
#     4  12  24  38  62  94 124 162 208 260 316 370
#
# _framework density 19.705728000000001
#
# number of rings (size 3 to 8) (size 9 to 14) (size 15 to 20)
#    0.000    0.714    6.429    2.571    6.000    0.000 
#    0.000    0.000    1.571    0.000    0.000    1.000 
#    0.000    0.286    0.000    0.000    0.000    0.000 
#
# Total GULP energy -347092.107173 kJ/mol
# GULP energy per Si atom -12396.146685 kJ/mol
# Density = 1.966088 g / cm^3
# Si number density = 19.705728 Si / 1000 Ang^3
#
#
#
# Elastic Constant Matrix: (Units=GPa)
#
#
# Indices 1 2 3 4 5 6 
#
# 1 84.8816 21.5368 -3.3229 0.0000 10.0721 0.0000
# 2 21.5368 113.6398 21.8562 0.0000 6.7598 0.0000
# 3 -3.3229 21.8562 47.8318 0.0000 9.6122 0.0000
# 4 0.0000 0.0000 0.0000 13.3128 0.0000 32.8813
# 5 10.0721 6.7598 9.6122 0.0000 17.5424 0.0000
# 6 0.0000 0.0000 0.0000 32.8813 0.0000 33.8646
#
#
#
# Elastic Compliance Matrix: (Units=1/GPa)
#
#
# Indices 1 2 3 4 5 6 
#
# 1 0.013733 -0.002849 0.004068 0.000000 -0.009016 0.000000
# 2 -0.002849 0.010272 -0.004972 0.000000 0.000402 0.000000
# 3 0.004068 -0.004972 0.026459 0.000000 -0.014917 0.000000
# 4 0.000000 0.000000 0.000000 -0.053724 0.000000 0.052164
# 5 -0.009016 0.000402 -0.014917 0.000000 0.070200 0.000000
# 6 0.000000 0.000000 0.000000 0.052164 0.000000 -0.021120
#
#
# Mechanical properties :
#
#
# Convention : Reuss Voigt Hill
#
# Bulk Modulus (GPa) = 23.27909 36.27706 29.77808
# Shear Modulus (GPa) = 73.91335 26.69616 50.30475
#
# Velocity S-wave (km/s) = 6.13107 3.68467 5.05800
# Velocity P-wave (km/s) = 7.87140 6.04581 7.01822
#
# Compressibility (1/GPa) = 0.04295700
#
# Stress axis : x y z
#
# Youngs Moduli (GPa) = 72.81752 97.35177 37.79433
#
# Poissons Ratio (x) = 0.27732 -0.15373
# Poissons Ratio (y) = 0.20743 0.18793
# Poissons Ratio (z) = -0.29619 0.48407
#
# Static dielectric constant tensor:
#      x y z
#    x 3.801740 0.000000 -0.008190 
#    y 0.000000 10.180910 0.000000 
#    z -0.008190 0.000000 2.926790 
# 
# 
# High freq. dielectric constant tensor:
#      x y z
#    x 1.774850 0.000000 0.013250 
#    y 0.000000 1.791340 0.000000 
#    z 0.013250 0.000000 1.744190 
# 
# From -- ./inp_files/64121.got.cif
#   From: 2010.06.25/outbox.cif.g09.slc.cpg/sg12_33_cif.got.tgz:64121.got - 2010.06.28 00:19:55.
