data_PCOD8109931
_publ_section_title
;
Structure prediction by ZEFSAII (Michael W. Deem and Ramdas Pophale) SiO2 
 PCOD8109931
Probable space group: C 2/M
;
_chemical_formula_sum "Si O2"
_cell_formula_units_Z 48
_cell_length_a 13.775514
_cell_length_b 33.722559
_cell_length_c 14.262500
_cell_angle_alpha 90.000000
_cell_angle_beta 20.594122
_cell_angle_gamma 90.000000
_cell_volume 2330.519205
_symmetry_space_group_name_H-M "C 2/M"
_symmetry_group_IT_number 12
_symmetry_cell_setting 'monoclinic'
loop_
_space_group_symop_operation_xyz
x,y,z
-x,y,-z
-x,-y,-z
x,-y,z
1/2+x,1/2+y,z
1/2-x,1/2+y,-z
1/2-x,1/2-y,-z
1/2+x,1/2-y,z
loop_
_atom_site_type_symbol
_atom_site_label
_atom_site_fract_x
_atom_site_fract_y
_atom_site_fract_z
Si Si1 0.293349 0.166871 0.270662
Si Si2 0.442268 0.400614 0.946575
Si Si3 0.771862 0.953454 0.939603
Si Si4 0.952693 0.653137 0.436509
Si Si5 0.685477 0.579666 0.421402
Si Si6 0.512534 0.222024 0.743893
O O1 0.242285 0.126508 0.373913
O O2 0.435888 0.199398 0.205965
O O3 0.000000 0.183608 0.500000
O O4 0.500000 0.156553 0.000000
O O5 0.325767 0.438726 0.996521
O O6 0.689971 0.376543 0.671621
O O7 0.500000 0.415714 0.000000
O O8 0.200366 0.369859 0.167278
O O9 0.011095 0.931052 0.668911
O O10 0.817679 0.000000 0.893977
O O11 0.474906 0.943469 0.163342
O O12 0.967699 0.692258 0.360988
O O13 0.000000 0.667125 0.500000
O O14 0.500000 0.567038 0.500000
O O15 0.750000 0.250000 0.500000
O O16 0.250000 0.250000 0.000000
#
# Coordination Sequence:
#
# PCOD8109931 Si02
#       6
#     8   8   8   8   8   8
#     4  11  23  42  65  88 118 161 208 249 292 353
#     4  10  21  40  65  89 117 159 207 249 292 354
#     4  12  24  38  61  93 128 160 194 250 312 361
#     4  10  22  41  64  87 116 159 206 248 291 351
#     4  11  24  42  64  88 118 163 211 250 293 355
#     4  12  25  39  61  92 124 157 192 245 309 361
#
# _framework density 20.596267999999998
#
# number of rings (size 3 to 8) (size 9 to 14) (size 15 to 20)
#    0.000    1.000    0.000    8.000    0.000    4.333 
#    0.000    0.000    0.000    5.000    0.000    0.000 
#    0.000    0.000    0.000    0.000    0.000    0.000 
#
# Total GULP energy -297433.344167 kJ/mol
# GULP energy per Si atom -12393.056007 kJ/mol
# Density = 2.054939 g / cm^3
# Si number density = 20.596268 Si / 1000 Ang^3
#
#
#
# Elastic Constant Matrix: (Units=GPa)
#
#
# Indices 1 2 3 4 5 6 
#
# 1 117.5572 74.6414 45.4948 -0.0017 -7.4126 -0.0005
# 2 74.6414 174.9169 73.6480 0.0072 0.6061 0.0001
# 3 45.4948 73.6480 199.4409 -0.0010 -1.3906 -0.0006
# 4 -0.0017 0.0072 -0.0010 49.8153 0.0037 -2.7728
# 5 -7.4126 0.6061 -1.3906 0.0037 33.4110 0.0006
# 6 -0.0005 0.0001 -0.0006 -2.7728 0.0006 26.6290
#
#
#
# Elastic Compliance Matrix: (Units=1/GPa)
#
#
# Indices 1 2 3 4 5 6 
#
# 1 0.012073 -0.004748 -0.000982 0.000001 0.002724 0.000000
# 2 -0.004748 0.008638 -0.002116 -0.000001 -0.001298 0.000000
# 3 -0.000982 -0.002116 0.006020 0.000000 0.000071 0.000000
# 4 0.000001 -0.000001 0.000000 0.020191 -0.000002 0.002102
# 5 0.002724 -0.001298 0.000071 -0.000002 0.030561 -0.000001
# 6 0.000000 0.000000 0.000000 0.002102 -0.000001 0.037772
#
#
# Mechanical properties :
#
#
# Convention : Reuss Voigt Hill
#
# Bulk Modulus (GPa) = 90.57961 97.72039 94.15000
# Shear Modulus (GPa) = 37.13990 41.84644 39.49317
#
# Velocity S-wave (km/s) = 4.25106 4.51238 4.38367
# Velocity P-wave (km/s) = 8.25648 8.64277 8.45183
#
# Compressibility (1/GPa) = 0.01104001
#
# Stress axis : x y z
#
# Youngs Moduli (GPa) = 82.83131 115.76178 166.11819
#
# Poissons Ratio (x) = 0.54962 0.16308
# Poissons Ratio (y) = 0.39327 0.35150
# Poissons Ratio (z) = 0.08132 0.24495
#
# Static dielectric constant tensor:
#      x y z
#    x 3.758640 -0.000010 -0.045290 
#    y -0.000010 3.574460 0.000000 
#    z -0.045290 0.000000 3.977460 
# 
# 
# High freq. dielectric constant tensor:
#      x y z
#    x 1.816650 0.000000 0.000460 
#    y 0.000000 1.804640 0.000000 
#    z 0.000460 0.000000 1.831210 
# 
# From -- ./inp_files/219555.got.cif
#   From: 2010.06.25/outbox.cif.g09.slc.cpg/sg12_110_cif.got.tgz:219555.got - 2010.06.28 00:19:55.
