data_PCOD8109345
_publ_section_title
;
Structure prediction by ZEFSAII (Michael W. Deem and Ramdas Pophale) SiO2 
 PCOD8109345
Probable space group: C 2/M
;
_chemical_formula_sum "Si O2"
_cell_formula_units_Z 56
_cell_length_a 20.143377
_cell_length_b 8.910528
_cell_length_c 17.506556
_cell_angle_alpha 90.000000
_cell_angle_beta 63.465087
_cell_angle_gamma 90.000000
_cell_volume 2811.224815
_symmetry_space_group_name_H-M "C 2/M"
_symmetry_group_IT_number 12
_symmetry_cell_setting 'monoclinic'
loop_
_space_group_symop_operation_xyz
x,y,z
-x,y,-z
-x,-y,-z
x,-y,z
1/2+x,1/2+y,z
1/2-x,1/2+y,-z
1/2-x,1/2-y,-z
1/2+x,1/2-y,z
loop_
_atom_site_type_symbol
_atom_site_label
_atom_site_fract_x
_atom_site_fract_y
_atom_site_fract_z
Si Si1 0.328422 0.826285 0.948461
Si Si2 0.586511 0.675099 0.963496
Si Si3 0.308977 0.672689 0.668205
Si Si4 0.675512 0.325854 0.511798
Si Si5 0.900410 0.672229 0.749787
Si Si6 0.139342 0.324932 0.785759
Si Si7 0.054765 0.822840 0.693890
O O1 0.351298 0.803011 0.849664
O O2 0.322973 0.000000 0.974021
O O3 0.250000 0.750000 0.000000
O O4 0.389576 0.746905 0.969092
O O5 0.605368 0.500000 0.954188
O O6 0.632338 0.750619 0.872005
O O7 0.500000 0.707281 0.000000
O O8 0.323450 0.500000 0.684199
O O9 0.341438 0.708895 0.567887
O O10 0.350066 0.782441 0.704460
O O11 0.221409 0.707083 0.712203
O O12 0.688139 0.500000 0.518420
O O13 0.750000 0.250000 0.500000
O O14 0.606845 0.267749 0.597643
O O15 0.925282 0.500000 0.728473
O O16 0.972068 0.776411 0.715394
O O17 0.122072 0.500000 0.801740
O O18 0.079400 0.254072 0.759733
O O19 0.058262 0.000000 0.704152
#
# Coordination Sequence:
#
# PCOD8109345 Si02
#       7
#     8   8   8   8   8   8   8
#     4  11  24  42  64  89 120 161 206 253 307 365
#     4  11  24  40  60  88 122 159 201 251 305 361
#     4  10  22  40  62  89 122 158 199 247 301 359
#     4  10  21  39  63  92 123 159 202 249 300 358
#     4  11  25  42  61  89 124 161 203 251 304 362
#     4  11  22  38  63  91 121 158 201 251 303 360
#     4  11  23  39  63  91 124 164 203 250 305 360
#
# _framework density 19.920142999999999
#
# number of rings (size 3 to 8) (size 9 to 14) (size 15 to 20)
#    0.000    1.286    1.429    3.857    0.000   10.857 
#    0.000    2.857    0.000    0.000    0.000    0.000 
#    0.000    0.000    0.000    0.000    0.000    0.000 
#
# Total GULP energy -347400.569353 kJ/mol
# GULP energy per Si atom -12407.163191 kJ/mol
# Density = 1.987480 g / cm^3
# Si number density = 19.920143 Si / 1000 Ang^3
#
#
#
# Elastic Constant Matrix: (Units=GPa)
#
#
# Indices 1 2 3 4 5 6 
#
# 1 104.9340 56.2520 34.8026 0.0000 4.2417 0.0001
# 2 56.2520 88.3098 32.0835 0.0001 3.2635 0.0002
# 3 34.8026 32.0835 72.9549 0.0000 7.6577 -0.0001
# 4 0.0000 0.0001 0.0000 32.6665 0.0000 2.4528
# 5 4.2417 3.2635 7.6577 0.0000 33.8738 0.0000
# 6 0.0001 0.0002 -0.0001 2.4528 0.0000 39.8710
#
#
#
# Elastic Compliance Matrix: (Units=1/GPa)
#
#
# Indices 1 2 3 4 5 6 
#
# 1 0.015215 -0.008397 -0.003534 0.000000 -0.000297 0.000000
# 2 -0.008397 0.018111 -0.003981 0.000000 0.000207 0.000000
# 3 -0.003534 -0.003981 0.017472 0.000000 -0.003124 0.000000
# 4 0.000000 0.000000 0.000000 0.030754 0.000000 -0.001892
# 5 -0.000297 0.000207 -0.003124 0.000000 0.030245 0.000000
# 6 0.000000 0.000000 0.000000 -0.001892 0.000000 0.025197
#
#
# Mechanical properties :
#
#
# Convention : Reuss Voigt Hill
#
# Bulk Modulus (GPa) = 52.70387 56.94165 54.82276
# Shear Modulus (GPa) = 28.54802 30.81964 29.68383
#
# Velocity S-wave (km/s) = 3.78977 3.93766 3.86442
# Velocity P-wave (km/s) = 6.75757 7.02286 6.89149
#
# Compressibility (1/GPa) = 0.01897394
#
# Stress axis : x y z
#
# Youngs Moduli (GPa) = 65.72296 55.21486 57.23555
#
# Poissons Ratio (x) = 0.46363 0.20230
# Poissons Ratio (y) = 0.55187 0.22784
# Poissons Ratio (z) = 0.23230 0.21980
#
# Static dielectric constant tensor:
#      x y z
#    x 3.599330 0.000000 0.174020 
#    y 0.000000 4.110400 0.000010 
#    z 0.174020 0.000010 4.300330 
# 
# 
# High freq. dielectric constant tensor:
#      x y z
#    x 1.783020 0.000000 0.001810 
#    y 0.000000 1.786250 0.000000 
#    z 0.001810 0.000000 1.792520 
# 
# From -- ./inp_files/280951.got.cif
#   From: 2010.06.25/outbox.cif.g09.slc.cpg/sg12_141_cif.got.tgz:280951.got - 2010.06.28 00:19:55.
