data_PCOD8109176
_publ_section_title
;
Structure prediction by ZEFSAII (Michael W. Deem and Ramdas Pophale) SiO2 
 PCOD8109176
Probable space group: C 2/M
;
_chemical_formula_sum "Si O2"
_cell_formula_units_Z 56
_cell_length_a 9.480423
_cell_length_b 23.132348
_cell_length_c 13.999992
_cell_angle_alpha 90.000000
_cell_angle_beta 62.823506
_cell_angle_gamma 90.000000
_cell_volume 2731.315454
_symmetry_space_group_name_H-M "C 2/M"
_symmetry_group_IT_number 12
_symmetry_cell_setting 'monoclinic'
loop_
_space_group_symop_operation_xyz
x,y,z
-x,y,-z
-x,-y,-z
x,-y,z
1/2+x,1/2+y,z
1/2-x,1/2+y,-z
1/2-x,1/2-y,-z
1/2+x,1/2-y,z
loop_
_atom_site_type_symbol
_atom_site_label
_atom_site_fract_x
_atom_site_fract_y
_atom_site_fract_z
Si Si1 0.009661 0.932749 0.701873
Si Si2 0.633965 0.249710 0.175906
Si Si3 0.819749 0.375098 0.536034
Si Si4 0.155216 0.335910 0.000728
Si Si5 0.841413 0.854045 0.602722
Si Si6 0.782787 0.229971 0.315425
Si Si7 0.382113 0.564451 0.949224
O O1 0.192664 0.913930 0.632006
O O2 0.884590 0.899663 0.672198
O O3 0.969045 0.919209 0.823889
O O4 0.994319 0.000000 0.681255
O O5 0.739771 0.303080 0.109709
O O6 0.722125 0.211014 0.229169
O O7 0.471544 0.277161 0.267111
O O8 0.597362 0.207565 0.100111
O O9 0.783759 0.381033 0.434226
O O10 0.799557 0.308339 0.576920
O O11 0.000000 0.395996 0.500000
O O12 0.244581 0.390665 0.016144
O O13 0.000000 0.361552 0.000000
O O14 0.762922 0.797063 0.668559
O O15 0.000000 0.835124 0.500000
O O16 0.309980 0.500000 0.964449
O O17 0.500000 0.569022 0.000000
#
# Coordination Sequence:
#
# PCOD8109176 Si02
#       7
#     8   8   8   8   8   8   8
#     4  10  23  44  67  90 122 168 216 254 309 380
#     4  11  24  35  57  90 122 171 201 253 315 366
#     4  11  23  37  61  95 128 166 204 260 317 364
#     4  11  23  40  57  88 129 157 214 257 305 383
#     4  10  21  39  62  89 123 165 212 254 309 371
#     4  12  21  38  59  88 130 163 208 252 316 382
#     4  10  23  43  69  94 121 162 207 262 321 374
#
# _framework density 20.502941
#
# number of rings (size 3 to 8) (size 9 to 14) (size 15 to 20)
#    0.000    1.286    1.429    5.143    4.000    3.143 
#    0.000    0.000    0.000    0.000    0.000    0.000 
#    0.000    0.000    0.000    0.000    0.000    0.000 
#
# Total GULP energy -347256.682000 kJ/mol
# GULP energy per Si atom -12402.024357 kJ/mol
# Density = 2.045627 g / cm^3
# Si number density = 20.502941 Si / 1000 Ang^3
#
#
#
# Elastic Constant Matrix: (Units=GPa)
#
#
# Indices 1 2 3 4 5 6 
#
# 1 126.7883 31.5987 37.6898 0.0000 6.7425 0.0000
# 2 31.5987 84.8714 28.7494 0.0000 1.4618 0.0000
# 3 37.6898 28.7494 82.1872 0.0000 13.7421 0.0000
# 4 0.0000 0.0000 0.0000 22.8857 0.0000 1.5846
# 5 6.7425 1.4618 13.7421 0.0000 32.3193 0.0000
# 6 0.0000 0.0000 0.0000 1.5846 0.0000 34.3928
#
#
#
# Elastic Compliance Matrix: (Units=1/GPa)
#
#
# Indices 1 2 3 4 5 6 
#
# 1 0.009531 -0.002364 -0.003476 0.000000 -0.000403 0.000000
# 2 -0.002364 0.014020 -0.004087 0.000000 0.001597 0.000000
# 3 -0.003476 -0.004087 0.016190 0.000000 -0.005974 0.000000
# 4 0.000000 0.000000 0.000000 0.043835 0.000000 -0.002020
# 5 -0.000403 0.001597 -0.005974 0.000000 0.033493 0.000000
# 6 0.000000 0.000000 0.000000 -0.002020 0.000000 0.029169
#
#
# Mechanical properties :
#
#
# Convention : Reuss Voigt Hill
#
# Bulk Modulus (GPa) = 50.28688 54.43586 52.36137
# Shear Modulus (GPa) = 28.94822 30.97348 29.96085
#
# Velocity S-wave (km/s) = 3.76161 3.89097 3.82684
# Velocity P-wave (km/s) = 6.59137 6.84062 6.71715
#
# Compressibility (1/GPa) = 0.01988590
#
# Stress axis : x y z
#
# Youngs Moduli (GPa) = 104.91838 71.32855 61.76600
#
# Poissons Ratio (x) = 0.16862 0.21473
# Poissons Ratio (y) = 0.24803 0.25244
# Poissons Ratio (z) = 0.36475 0.29152
#
# Static dielectric constant tensor:
#      x y z
#    x 3.839600 0.000000 0.176610 
#    y 0.000000 3.623130 0.000000 
#    z 0.176610 0.000000 3.786100 
# 
# 
# High freq. dielectric constant tensor:
#      x y z
#    x 1.810520 0.000000 0.012420 
#    y 0.000000 1.788620 0.000000 
#    z 0.012420 0.000000 1.808290 
# 
# From -- ./inp_files/198358.got.cif
#   From: 2010.06.25/outbox.cif.g09.slc.cpg/sg12_100_cif.got.tgz:198358.got - 2010.06.28 00:19:55.
