data_PCOD8109011
_publ_section_title
;
Structure prediction by ZEFSAII (Michael W. Deem and Ramdas Pophale) SiO2 
 PCOD8109011
Probable space group: C 2/M
;
_chemical_formula_sum "Si O2"
_cell_formula_units_Z 64
_cell_length_a 15.391663
_cell_length_b 8.776118
_cell_length_c 24.000000
_cell_angle_alpha 90.000000
_cell_angle_beta 90.291425
_cell_angle_gamma 90.000000
_cell_volume 3241.855282
_symmetry_space_group_name_H-M "C 2/M"
_symmetry_group_IT_number 12
_symmetry_cell_setting 'monoclinic'
loop_
_space_group_symop_operation_xyz
x,y,z
-x,y,-z
-x,-y,-z
x,-y,z
1/2+x,1/2+y,z
1/2-x,1/2+y,-z
1/2-x,1/2-y,-z
1/2+x,1/2-y,z
loop_
_atom_site_type_symbol
_atom_site_label
_atom_site_fract_x
_atom_site_fract_y
_atom_site_fract_z
Si Si1 0.471060 0.819495 0.940267
Si Si2 0.775113 0.319247 0.941065
Si Si3 0.628436 0.819380 0.865830
Si Si4 0.973031 0.674702 0.662729
Si Si5 0.131940 0.679432 0.738573
Si Si6 0.780055 0.674318 0.667474
Si Si7 0.278228 0.178690 0.442213
Si Si8 0.039998 0.177156 0.559274
O O1 0.373160 0.766631 0.925554
O O2 0.539366 0.760883 0.894264
O O3 0.474550 0.000000 0.943107
O O4 0.500000 0.751051 0.000000
O O5 0.768545 0.500000 0.945384
O O6 0.711844 0.258899 0.893240
O O7 0.750000 0.250000 0.000000
O O8 0.624011 0.766506 0.802012
O O9 0.638609 0.000000 0.872258
O O10 0.991024 0.500000 0.645300
O O11 0.045075 0.733478 0.706516
O O12 0.973033 0.780526 0.607787
O O13 0.878385 0.689169 0.690878
O O14 0.143031 0.500000 0.734336
O O15 0.216781 0.753112 0.712261
O O16 0.752568 0.500000 0.658252
O O17 0.779410 0.757481 0.608019
O O18 0.250000 0.250000 0.500000
O O19 0.376995 0.218859 0.428886
O O20 0.264182 0.000000 0.445958
O O21 0.000000 0.221634 0.500000
O O22 0.065395 0.000000 0.561180
#
# Coordination Sequence:
#
# PCOD8109011 Si02
#       8
#     8   8   8   8   8   8   8   8
#     4   9  17  33  58  85 116 158 201 238 293 362
#     4  11  21  35  59  89 121 157 200 248 305 361
#     4  10  21  39  61  86 120 160 205 249 296 358
#     4  10  22  40  62  88 118 159 205 249 300 363
#     4  10  22  41  63  87 119 163 205 248 304 362
#     4  11  23  40  64  92 122 158 205 256 307 360
#     4  12  24  39  60  88 124 161 203 250 307 370
#     4  11  23  38  59  90 123 155 196 249 310 367
#
# _framework density 19.741782000000001
#
# number of rings (size 3 to 8) (size 9 to 14) (size 15 to 20)
#    0.000    1.500    2.500    3.000    0.000    5.500 
#    0.000    4.375    0.000    0.000    0.000    0.000 
#    0.000    0.000    0.000    0.000    0.000    0.000 
#
# Total GULP energy -396884.495512 kJ/mol
# GULP energy per Si atom -12402.640485 kJ/mol
# Density = 1.969685 g / cm^3
# Si number density = 19.741782 Si / 1000 Ang^3
#
#
#
# Elastic Constant Matrix: (Units=GPa)
#
#
# Indices 1 2 3 4 5 6 
#
# 1 156.9454 27.1374 81.1524 0.0000 -2.6997 0.0000
# 2 27.1374 45.4577 52.3264 0.0000 1.5729 0.0000
# 3 81.1524 52.3264 161.8410 0.0000 -4.7812 0.0000
# 4 0.0000 0.0000 0.0000 26.5760 0.0000 -1.2963
# 5 -2.6997 1.5729 -4.7812 0.0000 33.7958 0.0000
# 6 0.0000 0.0000 0.0000 -1.2963 0.0000 31.9957
#
#
#
# Elastic Compliance Matrix: (Units=1/GPa)
#
#
# Indices 1 2 3 4 5 6 
#
# 1 0.008604 -0.000282 -0.004220 0.000000 0.000103 0.000000
# 2 -0.000282 0.035407 -0.011403 0.000000 -0.003284 0.000000
# 3 -0.004220 -0.011403 0.012038 0.000000 0.001897 0.000000
# 4 0.000000 0.000000 0.000000 0.037702 0.000000 0.001528
# 5 0.000103 -0.003284 0.001897 0.000000 0.030019 0.000000
# 6 0.000000 0.000000 0.000000 0.001528 0.000000 0.031316
#
#
# Mechanical properties :
#
#
# Convention : Reuss Voigt Hill
#
# Bulk Modulus (GPa) = 41.25798 76.16403 58.71101
# Shear Modulus (GPa) = 25.64403 32.04869 28.84636
#
# Velocity S-wave (km/s) = 3.60804 4.03351 3.82669
# Velocity P-wave (km/s) = 6.18881 7.76892 7.02344
#
# Compressibility (1/GPa) = 0.02423774
#
# Stress axis : x y z
#
# Youngs Moduli (GPa) = 116.21974 28.24317 83.07087
#
# Poissons Ratio (x) = 0.00798 0.35057
# Poissons Ratio (y) = 0.03282 0.94727
# Poissons Ratio (z) = 0.49047 0.32206
#
# Static dielectric constant tensor:
#      x y z
#    x 3.865800 0.000000 0.004120 
#    y 0.000000 3.476750 0.000000 
#    z 0.004120 0.000000 3.690780 
# 
# 
# High freq. dielectric constant tensor:
#      x y z
#    x 1.786420 0.000000 -0.001080 
#    y 0.000000 1.757820 0.000000 
#    z -0.001080 0.000000 1.767050 
# 
# From -- ./inp_files/338906.got.cif
#   From: 2010.06.25/outbox.cif.g09.slc.cpg/sg12_170_cif.got.tgz:338906.got - 2010.06.28 00:19:55.
