data_PCOD8109765
_publ_section_title
;
Structure prediction by ZEFSAII (Michael W. Deem and Ramdas Pophale) SiO2 
 PCOD8109765
Probable space group: C 2/M
;
_chemical_formula_sum "Si O2"
_cell_formula_units_Z 64
_cell_length_a 20.755630
_cell_length_b 16.900595
_cell_length_c 19.611711
_cell_angle_alpha 90.000000
_cell_angle_beta 26.485815
_cell_angle_gamma 90.000000
_cell_volume 3068.068964
_symmetry_space_group_name_H-M "C 2/M"
_symmetry_group_IT_number 12
_symmetry_cell_setting 'monoclinic'
loop_
_space_group_symop_operation_xyz
x,y,z
-x,y,-z
-x,-y,-z
x,-y,z
1/2+x,1/2+y,z
1/2-x,1/2+y,-z
1/2-x,1/2-y,-z
1/2+x,1/2-y,z
loop_
_atom_site_type_symbol
_atom_site_label
_atom_site_fract_x
_atom_site_fract_y
_atom_site_fract_z
Si Si1 0.358772 0.909526 0.228764
Si Si2 0.170530 0.639596 0.892428
Si Si3 0.351003 0.912400 0.604763
Si Si4 0.625318 0.665071 0.186668
Si Si5 0.352135 0.675384 0.108008
Si Si6 0.724985 0.156811 0.088926
Si Si7 0.216866 0.169639 0.489140
Si Si8 0.082674 0.410114 0.603245
O O1 0.293640 0.898893 0.214587
O O2 0.288873 0.843417 0.346105
O O3 0.327158 0.000000 0.283207
O O4 0.530648 0.897275 0.061595
O O5 0.306421 0.620355 0.812832
O O6 0.138811 0.731596 0.911480
O O7 0.500000 0.926059 0.500000
O O8 0.266248 0.845342 0.724495
O O9 0.374407 0.870407 0.509130
O O10 0.274560 0.000000 0.673124
O O11 0.698921 0.750287 0.117396
O O12 0.453986 0.662449 0.356319
O O13 0.672565 0.627277 0.069773
O O14 0.308124 0.630740 0.079275
O O15 0.500000 0.642325 0.000000
O O16 0.567774 0.120826 0.225192
O O17 0.250000 0.250000 0.500000
O O18 0.287112 0.100011 0.467116
O O19 0.057651 0.500000 0.609029
#
# Coordination Sequence:
#
# PCOD8109765 Si02
#       8
#     8   8   8   8   8   8   8   8
#     4  11  24  47  72  98 134 181 222 264 337 412
#     4  10  22  42  70 101 128 169 222 281 324 407
#     4  10  22  40  60  86 128 175 220 264 324 396
#     4  10  23  40  63  97 129 163 218 272 336 380
#     4  11  22  35  63  99 130 163 221 280 332 383
#     4  10  21  40  62  89 129 173 214 269 322 398
#     4  12  26  40  67 100 134 170 216 278 330 387
#     4  11  23  42  63  89 126 177 221 261 322 399
#
# _framework density 20.860026000000001
#
# number of rings (size 3 to 8) (size 9 to 14) (size 15 to 20)
#    0.000    1.375    3.750    1.875    7.000    0.750 
#    0.000    5.000    0.000    0.000    0.000    0.000 
#    0.000    0.000    0.000    0.000    0.000    0.000 
#
# Total GULP energy -396587.039581 kJ/mol
# GULP energy per Si atom -12393.344987 kJ/mol
# Density = 2.081255 g / cm^3
# Si number density = 20.860026 Si / 1000 Ang^3
#
#
#
# Elastic Constant Matrix: (Units=GPa)
#
#
# Indices 1 2 3 4 5 6 
#
# 1 151.1343 12.3116 76.6092 -0.0088 -2.2748 0.0067
# 2 12.3116 50.3724 30.0695 -0.0085 4.4584 0.0070
# 3 76.6092 30.0695 136.6393 -0.0090 17.8733 0.0071
# 4 -0.0088 -0.0085 -0.0090 19.9279 0.0060 7.0326
# 5 -2.2748 4.4584 17.8733 0.0060 38.8931 -0.0048
# 6 0.0067 0.0070 0.0071 7.0326 -0.0048 23.6611
#
#
#
# Elastic Compliance Matrix: (Units=1/GPa)
#
#
# Indices 1 2 3 4 5 6 
#
# 1 0.009652 0.000964 -0.006046 0.000001 0.003233 -0.000001
# 2 0.000964 0.022955 -0.005591 0.000011 -0.000005 -0.000009
# 3 -0.006046 -0.005591 0.012663 0.000003 -0.005532 -0.000002
# 4 0.000001 0.000011 0.000003 0.056061 -0.000013 -0.016663
# 5 0.003233 -0.000005 -0.005532 -0.000013 0.028443 0.000010
# 6 -0.000001 -0.000009 -0.000002 -0.016663 0.000010 0.047216
#
#
# Mechanical properties :
#
#
# Convention : Reuss Voigt Hill
#
# Bulk Modulus (GPa) = 41.80282 64.01409 52.90845
# Shear Modulus (GPa) = 24.23530 31.10680 27.67105
#
# Velocity S-wave (km/s) = 3.41223 3.86582 3.64608
# Velocity P-wave (km/s) = 5.96721 7.11900 6.56840
#
# Compressibility (1/GPa) = 0.02392183
#
# Stress axis : x y z
#
# Youngs Moduli (GPa) = 103.60944 43.56397 78.97250
#
# Poissons Ratio (x) = -0.04201 0.47750
# Poissons Ratio (y) = -0.09991 0.44157
# Poissons Ratio (z) = 0.62646 0.24359
#
# Static dielectric constant tensor:
#      x y z
#    x 4.232410 -0.000010 0.262350 
#    y -0.000010 3.633290 0.000000 
#    z 0.262350 0.000000 3.795880 
# 
# 
# High freq. dielectric constant tensor:
#      x y z
#    x 1.838200 0.000000 0.011420 
#    y 0.000000 1.795860 0.000000 
#    z 0.011420 0.000000 1.811900 
# 
# From -- ./inp_files/285202.got.cif
#   From: 2010.06.25/outbox.cif.g09.slc.cpg/sg12_143_cif.got.tgz:285202.got - 2010.06.28 00:19:55.
