data_PCOD8109635
_publ_section_title
;
Structure prediction by ZEFSAII (Michael W. Deem and Ramdas Pophale) SiO2 
 PCOD8109635
Probable space group: C 2/M
;
_chemical_formula_sum "Si O2"
_cell_formula_units_Z 52
_cell_length_a 9.018895
_cell_length_b 26.417311
_cell_length_c 20.180333
_cell_angle_alpha 90.000000
_cell_angle_beta 31.140185
_cell_angle_gamma 90.000000
_cell_volume 2486.412346
_symmetry_space_group_name_H-M "C 2/M"
_symmetry_group_IT_number 12
_symmetry_cell_setting 'monoclinic'
loop_
_space_group_symop_operation_xyz
x,y,z
-x,y,-z
-x,-y,-z
x,-y,z
1/2+x,1/2+y,z
1/2-x,1/2+y,-z
1/2-x,1/2-y,-z
1/2+x,1/2-y,z
loop_
_atom_site_type_symbol
_atom_site_label
_atom_site_fract_x
_atom_site_fract_y
_atom_site_fract_z
Si Si1 0.000000 0.735651 0.500000
Si Si2 0.983006 0.162147 0.326922
Si Si3 0.677568 0.557143 0.102342
Si Si4 0.179128 0.201271 0.118910
Si Si5 0.923042 0.698677 0.254284
Si Si6 0.838775 0.945778 0.366604
Si Si7 0.077080 0.141920 0.893708
O O1 0.226734 0.698785 0.451288
O O2 0.163280 0.773230 0.389135
O O3 0.934601 0.104268 0.369279
O O4 0.995518 0.168105 0.242268
O O5 0.291468 0.176135 0.237749
O O6 0.703575 0.500000 0.064340
O O7 0.457634 0.559045 0.247023
O O8 0.531730 0.591018 0.100576
O O9 0.000000 0.575836 0.000000
O O10 0.161687 0.260595 0.141656
O O11 0.062229 0.189902 0.090312
O O12 0.500000 0.182048 0.000000
O O13 0.078231 0.654558 0.238560
O O14 0.500000 0.946751 0.500000
O O15 0.952139 0.000000 0.353096
O O16 0.000000 0.139304 0.000000
#
# Coordination Sequence:
#
# PCOD8109635 Si02
#       7
#     4   8   8   8   8   8   8
#     4  10  22  40  61  90 123 170 222 260 316 382
#     4  11  21  38  64  88 118 168 212 262 316 381
#     4  10  23  45  71  96 128 170 218 271 326 394
#     4  11  22  40  59  83 123 168 216 260 310 383
#     4  11  25  38  58  91 129 167 211 266 326 385
#     4  10  21  39  67  98 121 155 212 269 318 376
#     4  12  25  39  62  93 130 168 215 268 332 385
#
# _framework density 20.913667
#
# number of rings (size 3 to 8) (size 9 to 14) (size 15 to 20)
#    0.000    1.231    2.308    4.154    2.154    4.615 
#    0.000    0.769    0.000    0.000    0.000    4.308 
#    0.000    0.000    0.000    0.000    0.000    0.000 
#
# Total GULP energy -322110.115241 kJ/mol
# GULP energy per Si atom -12388.850586 kJ/mol
# Density = 2.086607 g / cm^3
# Si number density = 20.913667 Si / 1000 Ang^3
#
#
#
# Elastic Constant Matrix: (Units=GPa)
#
#
# Indices 1 2 3 4 5 6 
#
# 1 120.3910 50.3955 44.8785 -0.0007 -18.0355 0.0004
# 2 50.3955 147.9040 40.4572 0.0046 -10.4549 0.0013
# 3 44.8785 40.4572 121.6633 -0.0300 -7.1598 0.0011
# 4 -0.0007 0.0046 -0.0300 20.3587 -0.0018 -5.6157
# 5 -18.0355 -10.4549 -7.1598 -0.0018 28.5198 -0.0014
# 6 0.0004 0.0013 0.0011 -5.6157 -0.0014 31.3362
#
#
#
# Elastic Compliance Matrix: (Units=1/GPa)
#
#
# Indices 1 2 3 4 5 6 
#
# 1 0.011350 -0.002667 -0.002979 -0.000003 0.005452 0.000000
# 2 -0.002667 0.008195 -0.001689 -0.000005 0.000894 -0.000001
# 3 -0.002979 -0.001689 0.009878 0.000016 -0.000023 0.000003
# 4 -0.000003 -0.000005 0.000016 0.051673 0.000004 0.009260
# 5 0.005452 0.000894 -0.000023 0.000004 0.038833 0.000002
# 6 0.000000 -0.000001 0.000003 0.009260 0.000002 0.033571
#
#
# Mechanical properties :
#
#
# Convention : Reuss Voigt Hill
#
# Bulk Modulus (GPa) = 67.77859 73.49119 70.63489
# Shear Modulus (GPa) = 28.88693 32.99140 30.93917
#
# Velocity S-wave (km/s) = 3.72054 3.97609 3.85044
# Velocity P-wave (km/s) = 7.13693 7.50304 7.32227
#
# Compressibility (1/GPa) = 0.01475392
#
# Stress axis : x y z
#
# Youngs Moduli (GPa) = 88.10649 122.02603 101.23007
#
# Poissons Ratio (x) = 0.32545 0.30156
# Poissons Ratio (y) = 0.23498 0.17095
# Poissons Ratio (z) = 0.26247 0.20607
#
# Static dielectric constant tensor:
#      x y z
#    x 3.624580 0.000010 -0.120490 
#    y 0.000010 4.351740 0.000000 
#    z -0.120490 0.000000 3.816800 
# 
# 
# High freq. dielectric constant tensor:
#      x y z
#    x 1.790290 0.000000 -0.010870 
#    y 0.000000 1.830670 0.000000 
#    z -0.010870 0.000000 1.830370 
# 
# From -- ./inp_files/302935.got.cif
#   From: 2010.06.25/outbox.cif.g09.slc.cpg/sg12_152_cif.got.tgz:302935.got - 2010.06.28 00:19:55.
