data_PCOD8109174
_publ_section_title
;
Structure prediction by ZEFSAII (Michael W. Deem and Ramdas Pophale) SiO2 
 PCOD8109174
Probable space group: C 2/M
;
_chemical_formula_sum "Si O2"
_cell_formula_units_Z 64
_cell_length_a 24.204080
_cell_length_b 8.351985
_cell_length_c 28.720129
_cell_angle_alpha 90.000000
_cell_angle_beta 32.554933
_cell_angle_gamma 90.000000
_cell_volume 3124.165976
_symmetry_space_group_name_H-M "C 2/M"
_symmetry_group_IT_number 12
_symmetry_cell_setting 'monoclinic'
loop_
_space_group_symop_operation_xyz
x,y,z
-x,y,-z
-x,-y,-z
x,-y,z
1/2+x,1/2+y,z
1/2-x,1/2+y,-z
1/2-x,1/2-y,-z
1/2+x,1/2-y,z
loop_
_atom_site_type_symbol
_atom_site_label
_atom_site_fract_x
_atom_site_fract_y
_atom_site_fract_z
Si Si1 0.861202 0.689670 0.908964
Si Si2 0.442951 0.810044 0.750961
Si Si3 0.400072 0.815391 0.595442
Si Si4 0.730288 0.182917 0.652968
Si Si5 0.326746 0.810771 0.407283
Si Si6 0.955925 0.182795 0.166306
Si Si7 0.812632 0.308704 0.755134
Si Si8 0.588258 0.184843 0.900024
O O1 0.870483 0.500000 0.906824
O O2 0.891445 0.748398 0.835606
O O3 0.930062 0.774279 0.899003
O O4 0.750000 0.750000 0.000000
O O5 0.558917 0.739761 0.666089
O O6 0.378188 0.746639 0.752767
O O7 0.445819 0.000000 0.747363
O O8 0.500000 0.733075 0.500000
O O9 0.306077 0.797108 0.627078
O O10 0.369167 0.742848 0.667927
O O11 0.425052 0.000000 0.585911
O O12 0.722294 0.247474 0.606244
O O13 0.617780 0.194817 0.754610
O O14 0.768686 0.000000 0.628453
O O15 0.250000 0.750000 0.500000
O O16 0.334790 0.000000 0.401906
O O17 0.942701 0.204670 0.120925
O O18 0.929251 0.000000 0.197903
O O19 0.803542 0.500000 0.760205
O O20 0.699381 0.235345 0.840601
O O21 0.592199 0.000000 0.882018
O O22 0.500000 0.215894 0.000000
#
# Coordination Sequence:
#
# PCOD8109174 Si02
#       8
#     8   8   8   8   8   8   8   8
#     4  11  23  42  64  92 127 165 208 255 310 370
#     4   9  20  40  62  85 123 166 200 244 305 365
#     4  10  22  38  60  92 124 160 206 251 302 368
#     4  11  22  40  64  89 123 161 205 261 316 368
#     4  10  22  40  62  90 121 161 204 250 307 364
#     4  12  24  41  66  93 121 162 212 261 311 369
#     4  10  21  39  62  89 122 163 206 249 299 364
#     4  11  25  43  63  91 126 163 201 255 317 370
#
# _framework density 20.485468000000001
#
# number of rings (size 3 to 8) (size 9 to 14) (size 15 to 20)
#    0.000    1.500    2.500    2.250    3.500    2.250 
#    0.000    1.250    0.000    0.000    0.000    0.000 
#    0.000    0.000    0.000    0.000    0.000    0.000 
#
# Total GULP energy -396841.242011 kJ/mol
# GULP energy per Si atom -12401.288813 kJ/mol
# Density = 2.043884 g / cm^3
# Si number density = 20.485468 Si / 1000 Ang^3
#
#
#
# Elastic Constant Matrix: (Units=GPa)
#
#
# Indices 1 2 3 4 5 6 
#
# 1 143.4852 24.0642 50.4856 -0.1109 3.2716 0.1073
# 2 24.0642 37.9637 19.2510 -0.1186 3.6145 0.2186
# 3 50.4856 19.2510 144.1980 -0.0385 3.6761 0.0829
# 4 -0.1109 -0.1186 -0.0385 27.1810 -0.0174 -0.8914
# 5 3.2716 3.6145 3.6761 -0.0174 33.7653 0.0252
# 6 0.1073 0.2186 0.0829 -0.8914 0.0252 24.9431
#
#
#
# Elastic Compliance Matrix: (Units=1/GPa)
#
#
# Indices 1 2 3 4 5 6 
#
# 1 0.008523 -0.004162 -0.002426 0.000013 -0.000116 0.000008
# 2 -0.004162 0.030521 -0.002551 0.000103 -0.002586 -0.000235
# 3 -0.002426 -0.002551 0.008134 -0.000010 -0.000377 0.000006
# 4 0.000013 0.000103 -0.000010 0.036834 0.000007 0.001315
# 5 -0.000116 -0.002586 -0.000377 0.000007 0.029945 -0.000006
# 6 0.000008 -0.000235 0.000006 0.001315 -0.000006 0.040140
#
#
# Mechanical properties :
#
#
# Convention : Reuss Voigt Hill
#
# Bulk Modulus (GPa) = 34.60101 57.02760 45.81431
# Shear Modulus (GPa) = 27.47111 32.63428 30.05269
#
# Velocity S-wave (km/s) = 3.66595 3.99563 3.83433
# Velocity P-wave (km/s) = 5.90306 7.01322 6.48195
#
# Compressibility (1/GPa) = 0.02890089
#
# Stress axis : x y z
#
# Youngs Moduli (GPa) = 117.32353 32.76473 122.93482
#
# Poissons Ratio (x) = 0.13636 0.29819
# Poissons Ratio (y) = 0.48827 0.31366
# Poissons Ratio (z) = 0.28458 0.08360
#
# Static dielectric constant tensor:
#      x y z
#    x 3.583030 -0.000030 -0.077100 
#    y -0.000030 3.467520 0.000060 
#    z -0.077100 0.000060 3.795900 
# 
# 
# High freq. dielectric constant tensor:
#      x y z
#    x 1.814680 -0.000020 -0.000790 
#    y -0.000020 1.780900 0.000000 
#    z -0.000790 0.000000 1.811800 
# 
# From -- ./inp_files/382245.got.cif
#   From: 2010.06.25/outbox.cif.g09.slc.cpg/sg12_192_cif.got.tgz:382245.got - 2010.06.28 00:19:55.
