data_PCOD8109494
_publ_section_title
;
Structure prediction by ZEFSAII (Michael W. Deem and Ramdas Pophale) SiO2 
 PCOD8109494
Probable space group: C 2/M
;
_chemical_formula_sum "Si O2"
_cell_formula_units_Z 64
_cell_length_a 29.257349
_cell_length_b 13.681506
_cell_length_c 10.120352
_cell_angle_alpha 90.000000
_cell_angle_beta 130.873710
_cell_angle_gamma 90.000000
_cell_volume 3063.194994
_symmetry_space_group_name_H-M "C 2/M"
_symmetry_group_IT_number 12
_symmetry_cell_setting 'monoclinic'
loop_
_space_group_symop_operation_xyz
x,y,z
-x,y,-z
-x,-y,-z
x,-y,z
1/2+x,1/2+y,z
1/2-x,1/2+y,-z
1/2-x,1/2-y,-z
1/2+x,1/2-y,z
loop_
_atom_site_type_symbol
_atom_site_label
_atom_site_fract_x
_atom_site_fract_y
_atom_site_fract_z
Si Si1 0.365528 0.115090 0.070049
Si Si2 0.356123 0.383934 0.221903
Si Si3 0.858785 0.809055 0.513171
Si Si4 0.475445 0.388409 0.812282
Si Si5 0.540106 0.725951 0.706007
Si Si6 0.324271 0.891496 0.488440
Si Si7 0.230354 0.610337 0.330471
Si Si8 0.227544 0.388033 0.890698
O O1 0.429058 0.172429 0.189860
O O2 0.328682 0.152685 0.129949
O O3 0.380626 0.000000 0.101953
O O4 0.326599 0.143278 0.866190
O O5 0.356032 0.500000 0.239845
O O6 0.372669 0.331038 0.388353
O O7 0.407890 0.355082 0.216573
O O8 0.291450 0.340431 0.052670
O O9 0.902645 0.876826 0.683331
O O10 0.873959 0.694653 0.574730
O O11 0.788553 0.824028 0.413500
O O12 0.492901 0.500000 0.811360
O O13 0.498818 0.314479 0.745466
O O14 0.500000 0.356421 0.000000
O O15 0.500000 0.743722 0.500000
O O16 0.284699 0.881198 0.544456
O O17 0.280565 0.874404 0.280520
O O18 0.354548 0.000000 0.539137
O O19 0.247815 0.500000 0.323422
O O20 0.232712 0.500000 0.941777
#
# Coordination Sequence:
#
# PCOD8109494 Si02
#       8
#     8   8   8   8   8   8   8   8
#     4  10  22  41  65  92 128 165 207 260 312 372
#     4  11  22  38  65  96 126 160 207 261 316 377
#     4  12  22  38  69  92 121 169 209 253 312 379
#     4  11  27  48  66  90 127 166 211 263 307 364
#     4  12  26  41  64  93 123 171 214 258 308 365
#     4  10  23  38  57  94 137 163 198 252 313 373
#     4  10  21  39  64  95 127 162 204 258 317 376
#     4   9  19  37  61  93 125 159 197 252 317 371
#
# _framework density 20.893218000000001
#
# number of rings (size 3 to 8) (size 9 to 14) (size 15 to 20)
#    0.000    1.375    2.500    2.625    3.500    2.750 
#    0.000    3.125    0.000    0.750    0.000    0.000 
#    0.000    0.000    0.000    0.000    0.000    0.000 
#
# Total GULP energy -396781.557822 kJ/mol
# GULP energy per Si atom -12399.423682 kJ/mol
# Density = 2.084566 g / cm^3
# Si number density = 20.893218 Si / 1000 Ang^3
#
#
#
# Elastic Constant Matrix: (Units=GPa)
#
#
# Indices 1 2 3 4 5 6 
#
# 1 65.8871 44.2690 46.4635 0.0000 0.6407 0.0000
# 2 44.2690 102.5468 43.6888 0.0000 -2.3802 0.0000
# 3 46.4635 43.6888 142.3377 0.0000 -4.9696 0.0000
# 4 0.0000 0.0000 0.0000 28.8468 0.0000 4.2121
# 5 0.6407 -2.3802 -4.9696 0.0000 34.5517 0.0000
# 6 0.0000 0.0000 0.0000 4.2121 0.0000 27.9286
#
#
#
# Elastic Compliance Matrix: (Units=1/GPa)
#
#
# Indices 1 2 3 4 5 6 
#
# 1 0.024735 -0.008344 -0.005577 0.000000 -0.001836 0.000000
# 2 -0.008344 0.014036 -0.001553 0.000000 0.000898 0.000000
# 3 -0.005577 -0.001553 0.009370 0.000000 0.001344 0.000000
# 4 0.000000 0.000000 0.000000 0.035446 0.000000 -0.005346
# 5 -0.001836 0.000898 0.001344 0.000000 0.029231 0.000000
# 6 0.000000 0.000000 0.000000 -0.005346 0.000000 0.036612
#
#
# Mechanical properties :
#
#
# Convention : Reuss Voigt Hill
#
# Bulk Modulus (GPa) = 58.16744 64.40159 61.28451
# Shear Modulus (GPa) = 26.86575 30.02211 28.44393
#
# Velocity S-wave (km/s) = 3.58978 3.79480 3.69371
# Velocity P-wave (km/s) = 6.71437 7.07755 6.89835
#
# Compressibility (1/GPa) = 0.01719175
#
# Stress axis : x y z
#
# Youngs Moduli (GPa) = 40.42877 71.24320 106.72697
#
# Poissons Ratio (x) = 0.59449 0.59523
# Poissons Ratio (y) = 0.33736 0.16575
# Poissons Ratio (z) = 0.22548 0.11064
#
# Static dielectric constant tensor:
#      x y z
#    x 3.638270 0.000000 -0.019900 
#    y 0.000000 3.948500 0.000000 
#    z -0.019900 0.000000 3.811260 
# 
# 
# High freq. dielectric constant tensor:
#      x y z
#    x 1.801150 0.000000 -0.009860 
#    y 0.000000 1.832060 0.000000 
#    z -0.009860 0.000000 1.820840 
# 
# From -- ./inp_files/112012.got.cif
#   From: 2010.06.25/outbox.cif.g09.slc.cpg/sg12_57_cif.got.tgz:112012.got - 2010.06.28 00:19:55.
