data_PCOD8109636
_publ_section_title
;
Structure prediction by ZEFSAII (Michael W. Deem and Ramdas Pophale) SiO2 
 PCOD8109636
Probable space group: C 2/M
;
_chemical_formula_sum "Si O2"
_cell_formula_units_Z 48
_cell_length_a 17.000495
_cell_length_b 18.297163
_cell_length_c 13.903108
_cell_angle_alpha 90.000000
_cell_angle_beta 27.546831
_cell_angle_gamma 90.000000
_cell_volume 2000.064663
_symmetry_space_group_name_H-M "C 2/M"
_symmetry_group_IT_number 12
_symmetry_cell_setting 'monoclinic'
loop_
_space_group_symop_operation_xyz
x,y,z
-x,y,-z
-x,-y,-z
x,-y,z
1/2+x,1/2+y,z
1/2-x,1/2+y,-z
1/2-x,1/2-y,-z
1/2+x,1/2-y,z
loop_
_atom_site_type_symbol
_atom_site_label
_atom_site_fract_x
_atom_site_fract_y
_atom_site_fract_z
Si Si1 0.193841 0.582396 0.755366
Si Si2 0.306809 0.658690 0.815409
Si Si3 0.068384 0.323784 0.731277
Si Si4 0.331849 0.323955 0.291852
Si Si5 0.826249 0.677976 0.735205
Si Si6 0.908807 0.914246 0.886861
O O1 0.257898 0.500000 0.668612
O O2 0.316913 0.621275 0.699486
O O3 0.201364 0.626710 0.647656
O O4 0.000000 0.584224 0.000000
O O5 0.354431 0.743583 0.754932
O O6 0.435850 0.619432 0.749884
O O7 0.120597 0.644728 0.063069
O O8 0.141246 0.321161 0.543909
O O9 0.056018 0.243327 0.790770
O O10 0.317659 0.317919 0.192405
O O11 0.429493 0.396825 0.220531
O O12 0.000000 0.649014 0.500000
O O13 0.762723 0.619981 0.882017
O O14 0.884274 0.000000 0.904959
#
# Coordination Sequence:
#
# PCOD8109636 Si02
#       6
#     8   8   8   8   8   8
#     4   9  18  34  61  97 133 169 211 267 335 397
#     4  11  22  42  69 101 135 177 224 282 336 403
#     4  10  21  39  67  98 134 175 222 274 336 404
#     4  11  24  42  67  99 133 175 226 278 333 403
#     4  12  26  44  71 103 132 182 234 284 334 398
#     4  12  28  46  68 100 141 183 224 281 345 404
#
# _framework density 23.999223000000001
#
# number of rings (size 3 to 8) (size 9 to 14) (size 15 to 20)
#    0.000    1.167    3.333    2.500    4.667    3.000 
#    0.000    1.667    0.000    3.000    0.000    0.000 
#    0.000    0.000    0.000    0.000    0.000    0.000 
#
# Total GULP energy -297761.450605 kJ/mol
# GULP energy per Si atom -12406.727109 kJ/mol
# Density = 2.394460 g / cm^3
# Si number density = 23.999223 Si / 1000 Ang^3
#
#
#
# Elastic Constant Matrix: (Units=GPa)
#
#
# Indices 1 2 3 4 5 6 
#
# 1 103.8834 41.6021 1.8680 0.0061 18.1494 -0.0018
# 2 41.6021 140.1304 2.8513 -0.0030 11.7406 0.0052
# 3 1.8680 2.8513 18.1434 0.0011 1.7653 0.0042
# 4 0.0061 -0.0030 0.0011 11.6725 0.0016 1.5692
# 5 18.1494 11.7406 1.7653 0.0016 34.8994 -0.0036
# 6 -0.0018 0.0052 0.0042 1.5692 -0.0036 36.3231
#
#
#
# Elastic Compliance Matrix: (Units=1/GPa)
#
#
# Indices 1 2 3 4 5 6 
#
# 1 0.011739 -0.003056 -0.000236 -0.000006 -0.005065 0.000001
# 2 -0.003056 0.008154 -0.000859 0.000004 -0.001110 -0.000002
# 3 -0.000236 -0.000859 0.055509 -0.000004 -0.002396 -0.000006
# 4 -0.000006 0.000004 -0.000004 0.086172 -0.000002 -0.003723
# 5 -0.005065 -0.001110 -0.002396 -0.000002 0.031783 0.000003
# 6 0.000001 -0.000002 -0.000006 -0.003723 0.000003 0.027692
#
#
# Mechanical properties :
#
#
# Convention : Reuss Voigt Hill
#
# Bulk Modulus (GPa) = 14.90278 39.42220 27.16249
# Shear Modulus (GPa) = 19.86368 30.96805 25.41587
#
# Velocity S-wave (km/s) = 2.88006 3.59608 3.25780
# Velocity P-wave (km/s) = 4.15727 5.80556 5.04913
#
# Compressibility (1/GPa) = 0.06710158
#
# Stress axis : x y z
#
# Youngs Moduli (GPa) = 85.18520 122.63954 18.01510
#
# Poissons Ratio (x) = 0.37478 0.00424
# Poissons Ratio (y) = 0.26032 0.01547
# Poissons Ratio (z) = 0.02006 0.10532
#
# Static dielectric constant tensor:
#      x y z
#    x 4.381190 -0.000030 0.151990 
#    y -0.000030 4.038120 0.000030 
#    z 0.151990 0.000030 4.137400 
# 
# 
# High freq. dielectric constant tensor:
#      x y z
#    x 1.963980 0.000000 0.005370 
#    y 0.000000 1.924090 0.000000 
#    z 0.005370 0.000000 1.959420 
# 
# From -- ./inp_files/226719.got.cif
#   From: 2010.06.25/outbox.cif.g09.slc.cpg/sg12_114_cif.got.tgz:226719.got - 2010.06.28 00:19:55.
