data_PCOD8109003
_publ_section_title
;
Structure prediction by ZEFSAII (Michael W. Deem and Ramdas Pophale) SiO2 
 PCOD8109003
Probable space group: C 2/M
;
_chemical_formula_sum "Si O2"
_cell_formula_units_Z 64
_cell_length_a 19.757630
_cell_length_b 9.144157
_cell_length_c 30.535248
_cell_angle_alpha 90.000000
_cell_angle_beta 143.815920
_cell_angle_gamma 90.000000
_cell_volume 3256.961758
_symmetry_space_group_name_H-M "C 2/M"
_symmetry_group_IT_number 12
_symmetry_cell_setting 'monoclinic'
loop_
_space_group_symop_operation_xyz
x,y,z
-x,y,-z
-x,-y,-z
x,-y,z
1/2+x,1/2+y,z
1/2-x,1/2+y,-z
1/2-x,1/2-y,-z
1/2+x,1/2-y,z
loop_
_atom_site_type_symbol
_atom_site_label
_atom_site_fract_x
_atom_site_fract_y
_atom_site_fract_z
Si Si1 0.542312 0.170370 0.435579
Si Si2 0.517845 0.669538 0.332169
Si Si3 0.259716 0.667102 0.606670
Si Si4 0.830304 0.831581 0.359367
Si Si5 0.148925 0.334326 0.190755
Si Si6 0.226049 0.169138 0.832135
Si Si7 0.760594 0.329192 0.072773
Si Si8 0.924026 0.170289 0.096303
O O1 0.542999 0.236638 0.387894
O O2 0.666021 0.201497 0.520790
O O3 0.448756 0.244071 0.418252
O O4 0.514043 0.000000 0.417730
O O5 0.512031 0.500000 0.343378
O O6 0.615939 0.699465 0.348045
O O7 0.399219 0.720577 0.248703
O O8 0.249174 0.500000 0.617107
O O9 0.245918 0.771688 0.640865
O O10 0.762372 0.810317 0.278696
O O11 0.858949 0.000000 0.383152
O O12 0.103179 0.500000 0.172432
O O13 0.182105 0.302824 0.158058
O O14 0.052564 0.221991 0.155271
O O15 0.267058 0.265793 0.894129
O O16 0.223517 0.000000 0.844865
O O17 0.785392 0.500000 0.088979
O O18 0.873288 0.252994 0.111844
O O19 0.650844 0.293883 0.985560
O O20 0.925011 0.000000 0.108026
#
# Coordination Sequence:
#
# PCOD8109003 Si02
#       8
#     8   8   8   8   8   8   8   8
#     4  11  22  38  60  86 118 154 196 244 296 351
#     4  10  21  40  61  84 118 155 196 243 292 350
#     4  10  23  39  58  87 119 153 195 246 298 350
#     4  11  23  40  60  85 117 155 199 245 294 349
#     4  10  22  40  60  86 119 154 197 245 290 343
#     4  10  21  39  61  86 118 157 198 240 292 348
#     4  10  22  40  62  91 124 154 193 241 284 340
#     4  10  22  40  63  90 121 158 194 234 290 345
#
# _framework density 19.650216
#
# number of rings (size 3 to 8) (size 9 to 14) (size 15 to 20)
#    0.000    1.750    1.250    2.250    1.750    7.000 
#    0.000    2.500    0.000    0.000    0.000    0.000 
#    0.000    0.000    0.000    0.000    0.000    0.000 
#
# Total GULP energy -397025.394921 kJ/mol
# GULP energy per Si atom -12407.043591 kJ/mol
# Density = 1.960549 g / cm^3
# Si number density = 19.650216 Si / 1000 Ang^3
#
#
#
# Elastic Constant Matrix: (Units=GPa)
#
#
# Indices 1 2 3 4 5 6 
#
# 1 63.4883 31.8169 3.8355 0.0000 -6.2675 0.0000
# 2 31.8169 85.8478 21.4637 0.0000 -8.6354 0.0002
# 3 3.8355 21.4637 28.4214 0.0000 -0.1881 0.0000
# 4 0.0000 0.0000 0.0000 32.5320 0.0000 -4.1410
# 5 -6.2675 -8.6354 -0.1881 0.0000 38.3383 0.0000
# 6 0.0000 0.0002 0.0000 -4.1410 0.0000 40.2946
#
#
#
# Elastic Compliance Matrix: (Units=1/GPa)
#
#
# Indices 1 2 3 4 5 6 
#
# 1 0.019700 -0.008006 0.003397 0.000000 0.001434 0.000000
# 2 -0.008006 0.018013 -0.012505 0.000000 0.002687 0.000000
# 3 0.003397 -0.012505 0.044156 0.000000 -0.002045 0.000000
# 4 0.000000 0.000000 0.000000 0.031146 0.000000 0.003201
# 5 0.001434 0.002687 -0.002045 0.000000 0.026913 0.000000
# 6 0.000000 0.000000 0.000000 0.003201 0.000000 0.025146
#
#
# Mechanical properties :
#
#
# Convention : Reuss Voigt Hill
#
# Bulk Modulus (GPa) = 20.99033 32.44329 26.71681
# Shear Modulus (GPa) = 23.23620 30.27576 26.75598
#
# Velocity S-wave (km/s) = 3.44247 3.92948 3.69401
# Velocity P-wave (km/s) = 5.14839 6.09376 5.64092
#
# Compressibility (1/GPa) = 0.04764098
#
# Stress axis : x y z
#
# Youngs Moduli (GPa) = 50.76261 55.51699 22.64688
#
# Poissons Ratio (x) = 0.44448 -0.07694
# Poissons Ratio (y) = 0.40642 0.28319
# Poissons Ratio (z) = -0.17246 0.69422
#
# Static dielectric constant tensor:
#      x y z
#    x 3.588730 0.000000 0.020260 
#    y 0.000000 3.596530 0.000000 
#    z 0.020260 0.000000 3.534600 
# 
# 
# High freq. dielectric constant tensor:
#      x y z
#    x 1.775730 0.000000 -0.000190 
#    y 0.000000 1.768450 0.000000 
#    z -0.000190 0.000000 1.766390 
# 
# From -- ./inp_files/378204.got.cif
#   From: 2010.06.25/outbox.cif.g09.slc.cpg/sg12_190_cif.got.tgz:378204.got - 2010.06.28 00:19:55.
