data_PCOD8109046
_publ_section_title
;
Structure prediction by ZEFSAII (Michael W. Deem and Ramdas Pophale) SiO2 
 PCOD8109046
Probable space group: C 2/M
;
_chemical_formula_sum "Si O2"
_cell_formula_units_Z 64
_cell_length_a 8.970714
_cell_length_b 17.750397
_cell_length_c 30.538255
_cell_angle_alpha 90.000000
_cell_angle_beta 136.965996
_cell_angle_gamma 90.000000
_cell_volume 3318.477394
_symmetry_space_group_name_H-M "C 2/M"
_symmetry_group_IT_number 12
_symmetry_cell_setting 'monoclinic'
loop_
_space_group_symop_operation_xyz
x,y,z
-x,y,-z
-x,-y,-z
x,-y,z
1/2+x,1/2+y,z
1/2-x,1/2+y,-z
1/2-x,1/2-y,-z
1/2+x,1/2-y,z
loop_
_atom_site_type_symbol
_atom_site_label
_atom_site_fract_x
_atom_site_fract_y
_atom_site_fract_z
Si Si1 0.754439 0.305370 0.960147
Si Si2 0.904795 0.788849 0.241409
Si Si3 0.421645 0.193048 0.642646
Si Si4 0.420907 0.206931 0.155155
Si Si5 0.061264 0.912818 0.063401
Si Si6 0.741999 0.911103 0.674128
Si Si7 0.950581 0.211112 0.568179
Si Si8 0.267297 0.917070 0.428155
O O1 0.630178 0.266208 0.893768
O O2 0.631189 0.382072 0.946773
O O3 0.750000 0.250000 0.000000
O O4 0.000000 0.326772 0.000000
O O5 0.673771 0.817036 0.210390
O O6 0.858384 0.747245 0.186438
O O7 0.009299 0.727925 0.296562
O O8 0.052213 0.862774 0.264826
O O9 0.527786 0.110146 0.657554
O O10 0.528219 0.238717 0.625472
O O11 0.157745 0.195560 0.581035
O O12 0.285098 0.130541 0.121020
O O13 0.097598 0.000000 0.082125
O O14 0.000000 0.899111 0.000000
O O15 0.706509 0.887157 0.615702
O O16 0.785898 0.000000 0.689024
O O17 0.750000 0.250000 0.500000
O O18 0.890040 0.131405 0.575713
O O19 0.500000 0.916400 0.500000
O O20 0.163839 0.000000 0.405194
#
# Coordination Sequence:
#
# PCOD8109046 Si02
#       8
#     8   8   8   8   8   8   8   8
#     4  12  20  39  68  97 125 168 214 254 313 376
#     4  12  23  40  64  91 122 171 216 260 301 380
#     4  12  22  40  60  89 126 162 210 261 321 375
#     4  12  22  39  68  93 121 171 217 254 304 380
#     4  11  24  42  65 101 137 162 205 274 326 365
#     4  11  24  43  64  91 128 168 211 271 328 373
#     4  12  22  36  64  94 120 158 217 267 316 386
#     4  10  21  39  61  88 124 162 203 260 329 384
#
# _framework density 19.285954
#
# number of rings (size 3 to 8) (size 9 to 14) (size 15 to 20)
#    0.000    0.500    7.500    1.875    0.000    1.250 
#    0.000    2.500    0.000    3.750    0.000    0.000 
#    0.000    0.000    0.000    0.000    0.000    0.000 
#
# Total GULP energy -396827.082358 kJ/mol
# GULP energy per Si atom -12400.846324 kJ/mol
# Density = 1.924206 g / cm^3
# Si number density = 19.285954 Si / 1000 Ang^3
#
#
#
# Elastic Constant Matrix: (Units=GPa)
#
#
# Indices 1 2 3 4 5 6 
#
# 1 121.0150 57.4562 35.7290 0.0000 22.7502 0.0000
# 2 57.4562 122.6119 42.9577 0.0000 4.3350 0.0000
# 3 35.7290 42.9577 88.7277 0.0001 3.5257 0.0001
# 4 0.0000 0.0000 0.0001 27.8669 0.0000 3.7550
# 5 22.7502 4.3350 3.5257 0.0000 45.6891 0.0000
# 6 0.0000 0.0000 0.0001 3.7550 0.0000 39.1040
#
#
#
# Elastic Compliance Matrix: (Units=1/GPa)
#
#
# Indices 1 2 3 4 5 6 
#
# 1 0.012235 -0.004685 -0.002442 0.000000 -0.005459 0.000000
# 2 -0.004685 0.011630 -0.003805 0.000000 0.001523 0.000000
# 3 -0.002442 -0.003805 0.014076 0.000000 0.000491 0.000000
# 4 0.000000 0.000000 0.000000 0.036355 0.000000 -0.003491
# 5 -0.005459 0.001523 0.000491 0.000000 0.024423 0.000000
# 6 0.000000 0.000000 0.000000 -0.003491 0.000000 0.025908
#
#
# Mechanical properties :
#
#
# Convention : Reuss Voigt Hill
#
# Bulk Modulus (GPa) = 62.19366 67.18226 64.68796
# Shear Modulus (GPa) = 32.92714 35.61279 34.26996
#
# Velocity S-wave (km/s) = 4.13645 4.30183 4.21995
# Velocity P-wave (km/s) = 7.42508 7.71912 7.57352
#
# Compressibility (1/GPa) = 0.01607881
#
# Stress axis : x y z
#
# Youngs Moduli (GPa) = 81.73308 85.98192 71.04146
#
# Poissons Ratio (x) = 0.40281 0.17346
# Poissons Ratio (y) = 0.38291 0.27030
# Poissons Ratio (z) = 0.19957 0.32715
#
# Static dielectric constant tensor:
#      x y z
#    x 3.766230 0.000000 -0.028260 
#    y 0.000000 4.058590 0.000000 
#    z -0.028260 0.000000 3.546720 
# 
# 
# High freq. dielectric constant tensor:
#      x y z
#    x 1.764200 0.000000 0.000160 
#    y 0.000000 1.740700 0.000000 
#    z 0.000160 0.000000 1.756450 
# 
# From -- ./inp_files/372990.got.cif
#   From: 2010.06.25/outbox.cif.g09.slc.cpg/sg12_187_cif.got.tgz:372990.got - 2010.06.28 00:19:55.
