data_PCOD8109804
_publ_section_title
;
Structure prediction by ZEFSAII (Michael W. Deem and Ramdas Pophale) SiO2 
 PCOD8109804
Probable space group: C 2/M
;
_chemical_formula_sum "Si O2"
_cell_formula_units_Z 48
_cell_length_a 29.646731
_cell_length_b 8.876937
_cell_length_c 14.530245
_cell_angle_alpha 90.000000
_cell_angle_beta 37.955820
_cell_angle_gamma 90.000000
_cell_volume 2351.938170
_symmetry_space_group_name_H-M "C 2/M"
_symmetry_group_IT_number 12
_symmetry_cell_setting 'monoclinic'
loop_
_space_group_symop_operation_xyz
x,y,z
-x,y,-z
-x,-y,-z
x,-y,z
1/2+x,1/2+y,z
1/2-x,1/2+y,-z
1/2-x,1/2-y,-z
1/2+x,1/2-y,z
loop_
_atom_site_type_symbol
_atom_site_label
_atom_site_fract_x
_atom_site_fract_y
_atom_site_fract_z
Si Si1 0.799448 0.825418 0.498171
Si Si2 0.941260 0.330075 0.332949
Si Si3 0.813060 0.178330 0.959521
Si Si4 0.549084 0.830257 0.998076
Si Si5 0.698095 0.175825 0.828072
Si Si6 0.976116 0.822607 0.640579
O O1 0.750000 0.750000 0.500000
O O2 0.879318 0.752250 0.372694
O O3 0.768364 0.801422 0.651018
O O4 0.805708 0.000000 0.463153
O O5 0.915788 0.500000 0.395305
O O6 0.013678 0.326751 0.155091
O O7 0.961823 0.248696 0.394388
O O8 0.794560 0.226611 0.092623
O O9 0.808670 0.000000 0.957503
O O10 0.750000 0.250000 0.000000
O O11 0.893724 0.235273 0.796706
O O12 0.560879 0.000000 0.942433
O O13 0.500000 0.743682 0.000000
O O14 0.629337 0.758242 0.880064
O O15 0.686249 0.000000 0.873274
O O16 0.000000 0.774600 0.500000
O O17 0.980088 0.000000 0.648312
#
# Coordination Sequence:
#
# PCOD8109804 Si02
#       6
#     8   8   8   8   8   8
#     4  11  24  41  63  90 126 167 208 253 304 364
#     4  11  22  38  63  92 124 159 201 254 305 362
#     4  11  24  41  64  92 124 159 202 255 307 365
#     4   9  17  33  59  87 115 152 197 240 290 355
#     4  10  21  40  63  87 121 164 205 248 302 362
#     4  10  23  43  64  88 122 163 203 247 307 370
#
# _framework density 20.408698999999999
#
# number of rings (size 3 to 8) (size 9 to 14) (size 15 to 20)
#    0.000    1.667    1.667    2.500    2.333    5.000 
#    0.000    0.000    0.000    2.500    0.000    0.000 
#    0.000    0.000    0.000    0.000    0.000    0.000 
#
# Total GULP energy -297592.849431 kJ/mol
# GULP energy per Si atom -12399.702060 kJ/mol
# Density = 2.036225 g / cm^3
# Si number density = 20.408699 Si / 1000 Ang^3
#
#
#
# Elastic Constant Matrix: (Units=GPa)
#
#
# Indices 1 2 3 4 5 6 
#
# 1 130.3435 34.8754 9.1918 0.0000 -4.3902 0.0000
# 2 34.8754 67.4116 19.9152 -0.0003 -1.7971 0.0002
# 3 9.1918 19.9152 57.1462 0.0002 -1.1599 0.0000
# 4 0.0000 -0.0003 0.0002 26.5376 0.0002 1.3246
# 5 -4.3902 -1.7971 -1.1599 0.0002 38.0964 0.0000
# 6 0.0000 0.0002 0.0000 1.3246 0.0000 38.8979
#
#
#
# Elastic Compliance Matrix: (Units=1/GPa)
#
#
# Indices 1 2 3 4 5 6 
#
# 1 0.008932 -0.004659 0.000204 0.000000 0.000816 0.000000
# 2 -0.004659 0.018981 -0.005862 0.000000 0.000180 0.000000
# 3 0.000204 -0.005862 0.019516 0.000000 0.000341 0.000000
# 4 0.000000 0.000000 0.000000 0.037746 0.000000 -0.001285
# 5 0.000816 0.000180 0.000341 0.000000 0.026362 0.000000
# 6 0.000000 0.000000 0.000000 -0.001285 0.000000 0.025752
#
#
# Mechanical properties :
#
#
# Convention : Reuss Voigt Hill
#
# Bulk Modulus (GPa) = 37.32162 42.54070 39.93116
# Shear Modulus (GPa) = 29.96597 33.43433 31.70015
#
# Velocity S-wave (km/s) = 3.83599 4.05191 3.94543
# Velocity P-wave (km/s) = 6.16008 6.54066 6.35322
#
# Compressibility (1/GPa) = 0.02679412
#
# Stress axis : x y z
#
# Youngs Moduli (GPa) = 111.95937 52.68355 51.24013
#
# Poissons Ratio (x) = 0.24547 -0.01043
# Poissons Ratio (y) = 0.52165 0.30036
# Poissons Ratio (z) = -0.02280 0.30882
#
# Static dielectric constant tensor:
#      x y z
#    x 4.294240 0.000000 0.184160 
#    y 0.000000 3.564770 0.000000 
#    z 0.184160 0.000000 3.904910 
# 
# 
# High freq. dielectric constant tensor:
#      x y z
#    x 1.814760 0.000000 -0.003270 
#    y 0.000000 1.778130 0.000000 
#    z -0.003270 0.000000 1.803630 
# 
# From -- ./inp_files/248799.got.cif
#   From: 2010.06.25/outbox.cif.g09.slc.cpg/sg12_125_cif.got.tgz:248799.got - 2010.06.28 00:19:55.
