data_PCOD8109712
_publ_section_title
;
Structure prediction by ZEFSAII (Michael W. Deem and Ramdas Pophale) SiO2 
 PCOD8109712
Probable space group: C 2/M
;
_chemical_formula_sum "Si O2"
_cell_formula_units_Z 64
_cell_length_a 13.233229
_cell_length_b 18.878263
_cell_length_c 22.223697
_cell_angle_alpha 90.000000
_cell_angle_beta 34.436534
_cell_angle_gamma 90.000000
_cell_volume 3139.578963
_symmetry_space_group_name_H-M "C 2/M"
_symmetry_group_IT_number 12
_symmetry_cell_setting 'monoclinic'
loop_
_space_group_symop_operation_xyz
x,y,z
-x,y,-z
-x,-y,-z
x,-y,z
1/2+x,1/2+y,z
1/2-x,1/2+y,-z
1/2-x,1/2-y,-z
1/2+x,1/2-y,z
loop_
_atom_site_type_symbol
_atom_site_label
_atom_site_fract_x
_atom_site_fract_y
_atom_site_fract_z
Si Si1 0.373097 0.706638 0.507969
Si Si2 0.807505 0.079711 0.451784
Si Si3 0.753091 0.080546 0.923215
Si Si4 0.467584 0.203518 0.742640
Si Si5 0.455665 0.850035 0.625074
Si Si6 0.391812 0.812246 0.915425
Si Si7 0.844262 0.695102 0.116633
Si Si8 0.651361 0.579658 0.703587
O O1 0.500000 0.687145 0.500000
O O2 0.382376 0.638216 0.460581
O O3 0.175667 0.721192 0.631044
O O4 0.441617 0.776274 0.439627
O O5 0.593527 0.085823 0.549170
O O6 0.890342 0.094001 0.345744
O O7 0.853744 0.000000 0.451747
O O8 0.676789 0.115700 0.899454
O O9 0.964882 0.089173 0.828535
O O10 0.692655 0.000000 0.950080
O O11 0.673867 0.115824 0.021857
O O12 0.398087 0.151098 0.723763
O O13 0.425477 0.171746 0.828890
O O14 0.352631 0.274329 0.794018
O O15 0.289130 0.862697 0.662836
O O16 0.588763 0.797567 0.847464
O O17 0.250000 0.750000 0.000000
O O18 0.000000 0.733638 0.000000
O O19 0.727229 0.500000 0.675610
#
# Coordination Sequence:
#
# PCOD8109712 Si02
#       8
#     8   8   8   8   8   8   8   8
#     4  11  26  40  61  96 131 169 212 268 321 371
#     4  10  21  40  61  87 127 169 219 260 308 384
#     4  10  23  41  65  98 131 163 213 270 317 381
#     4  11  24  40  60  95 125 166 210 262 322 374
#     4  11  24  37  63  92 129 166 211 268 317 373
#     4  11  23  40  63  92 126 164 213 262 318 384
#     4  10  22  38  64  91 122 165 209 262 313 379
#     4  10  22  40  66  95 125 171 213 261 323 375
#
# _framework density 20.384898
#
# number of rings (size 3 to 8) (size 9 to 14) (size 15 to 20)
#    0.000    1.500    2.500    3.000    8.750    3.500 
#    0.000    3.125    0.000    1.500    0.000    0.000 
#    0.000    0.000    0.000    0.000    0.000    0.000 
#
# Total GULP energy -396620.703048 kJ/mol
# GULP energy per Si atom -12394.396970 kJ/mol
# Density = 2.033850 g / cm^3
# Si number density = 20.384898 Si / 1000 Ang^3
#
#
#
# Elastic Constant Matrix: (Units=GPa)
#
#
# Indices 1 2 3 4 5 6 
#
# 1 132.2429 60.4783 62.5924 -0.0069 5.6656 0.0044
# 2 60.4783 108.0339 48.6122 0.0168 -0.8742 -0.0052
# 3 62.5924 48.6122 83.3309 0.0522 9.0819 -0.0138
# 4 -0.0069 0.0168 0.0522 24.1960 -0.0112 -3.4246
# 5 5.6656 -0.8742 9.0819 -0.0112 37.1887 0.0041
# 6 0.0044 -0.0052 -0.0138 -3.4246 0.0041 32.3577
#
#
#
# Elastic Compliance Matrix: (Units=1/GPa)
#
#
# Indices 1 2 3 4 5 6 
#
# 1 0.012819 -0.003875 -0.007341 0.000022 -0.000251 -0.000003
# 2 -0.003875 0.013890 -0.005437 0.000002 0.002245 0.000000
# 3 -0.007341 -0.005437 0.021141 -0.000045 -0.004172 0.000005
# 4 0.000022 0.000002 -0.000045 0.041958 0.000020 0.004441
# 5 -0.000251 0.002245 -0.004172 0.000020 0.028000 -0.000003
# 6 -0.000003 0.000000 0.000005 0.004441 -0.000003 0.031374
#
#
# Mechanical properties :
#
#
# Convention : Reuss Voigt Hill
#
# Bulk Modulus (GPa) = 68.75565 74.10817 71.43191
# Shear Modulus (GPa) = 26.68980 28.87682 27.78331
#
# Velocity S-wave (km/s) = 3.62234 3.76783 3.69580
# Velocity P-wave (km/s) = 7.16220 7.44057 7.30271
#
# Compressibility (1/GPa) = 0.01454426
#
# Stress axis : x y z
#
# Youngs Moduli (GPa) = 78.00633 71.99220 47.30157
#
# Poissons Ratio (x) = 0.27898 0.34724
# Poissons Ratio (y) = 0.30229 0.25718
# Poissons Ratio (z) = 0.57265 0.39142
#
# Static dielectric constant tensor:
#      x y z
#    x 3.900270 -0.000010 0.025150 
#    y -0.000010 3.563060 0.000020 
#    z 0.025150 0.000020 3.923010 
# 
# 
# High freq. dielectric constant tensor:
#      x y z
#    x 1.804620 0.000000 -0.006490 
#    y 0.000000 1.779300 0.000000 
#    z -0.006490 0.000000 1.803880 
# 
# From -- ./inp_files/340815.got.cif
#   From: 2010.06.25/outbox.cif.g09.slc.cpg/sg12_171_cif.got.tgz:340815.got - 2010.06.28 00:19:55.
