data_PCOD8109335
_publ_section_title
;
Structure prediction by ZEFSAII (Michael W. Deem and Ramdas Pophale) SiO2 
 PCOD8109335
Probable space group: C 2/M
;
_chemical_formula_sum "Si O2"
_cell_formula_units_Z 48
_cell_length_a 20.335626
_cell_length_b 7.613414
_cell_length_c 29.008702
_cell_angle_alpha 90.000000
_cell_angle_beta 147.416554
_cell_angle_gamma 90.000000
_cell_volume 2418.650193
_symmetry_space_group_name_H-M "C 2/M"
_symmetry_group_IT_number 12
_symmetry_cell_setting 'monoclinic'
loop_
_space_group_symop_operation_xyz
x,y,z
-x,y,-z
-x,-y,-z
x,-y,z
1/2+x,1/2+y,z
1/2-x,1/2+y,-z
1/2-x,1/2-y,-z
1/2+x,1/2-y,z
loop_
_atom_site_type_symbol
_atom_site_label
_atom_site_fract_x
_atom_site_fract_y
_atom_site_fract_z
Si Si1 0.381519 0.707994 0.208258
Si Si2 0.821128 0.697006 0.767262
Si Si3 0.875796 0.803212 0.701237
Si Si4 0.439502 0.500000 0.891683
Si Si5 0.569630 0.706761 0.659505
Si Si6 0.308478 0.500000 0.911235
Si Si7 0.194963 0.794182 0.516731
O O1 0.350498 0.500000 0.187524
O O2 0.496875 0.759771 0.245197
O O3 0.411745 0.773992 0.277547
O O4 0.267307 0.822270 0.123370
O O5 0.836968 0.500000 0.797045
O O6 0.842583 0.684607 0.725300
O O7 0.683513 0.766641 0.695414
O O8 0.916193 0.824789 0.848293
O O9 0.770296 0.801480 0.600811
O O10 0.889135 0.000000 0.727773
O O11 0.354683 0.500000 0.886251
O O12 0.581174 0.500000 0.987785
O O13 0.555822 0.500000 0.653270
O O14 0.443721 0.781108 0.563859
O O15 0.250000 0.750000 0.500000
O O16 0.200514 0.000000 0.529692
#
# Coordination Sequence:
#
# PCOD8109335 Si02
#       7
#     8   8   8   4   8   4   8
#     4  10  21  39  63  91 124 165 206 254 309 373
#     4  11  23  43  66  87 126 175 201 253 324 373
#     4  11  23  40  61  91 129 166 214 258 307 370
#     4  11  24  44  64 102 125 149 208 271 306 384
#     4   9  19  37  59  85 123 165 209 252 302 365
#     4  11  24  40  72  97 122 155 207 261 319 377
#     4  11  21  35  56  90 126 164 213 263 303 355
#
# _framework density 19.845779
#
# number of rings (size 3 to 8) (size 9 to 14) (size 15 to 20)
#    0.000    1.500    4.167    1.000    2.333    1.333 
#    4.500    5.833    0.000    0.000    0.000    0.000 
#    0.000    0.000    0.000    0.000    0.000    0.000 
#
# Total GULP energy -297631.269792 kJ/mol
# GULP energy per Si atom -12401.302908 kJ/mol
# Density = 1.980061 g / cm^3
# Si number density = 19.845779 Si / 1000 Ang^3
#
#
#
# Elastic Constant Matrix: (Units=GPa)
#
#
# Indices 1 2 3 4 5 6 
#
# 1 139.0988 28.2424 64.7399 -0.0002 10.0358 -0.0003
# 2 28.2424 81.3050 47.8429 -0.0007 8.5231 -0.0004
# 3 64.7399 47.8429 152.1196 0.0000 16.5485 -0.0002
# 4 -0.0002 -0.0007 0.0000 30.6220 0.0001 1.4974
# 5 10.0358 8.5231 16.5485 0.0001 31.0257 -0.0002
# 6 -0.0003 -0.0004 -0.0002 1.4974 -0.0002 25.0664
#
#
#
# Elastic Compliance Matrix: (Units=1/GPa)
#
#
# Indices 1 2 3 4 5 6 
#
# 1 0.009060 -0.001037 -0.003441 0.000000 -0.000810 0.000000
# 2 -0.001037 0.015298 -0.004192 0.000000 -0.001631 0.000000
# 3 -0.003441 -0.004192 0.009672 0.000000 -0.002894 0.000000
# 4 0.000000 0.000000 0.000000 0.032752 0.000000 -0.001957
# 5 -0.000810 -0.001631 -0.002894 0.000000 0.034485 0.000000
# 6 0.000000 0.000000 0.000000 -0.001957 0.000000 0.040011
#
#
# Mechanical properties :
#
#
# Convention : Reuss Voigt Hill
#
# Bulk Modulus (GPa) = 59.92594 72.68598 66.30596
# Shear Modulus (GPa) = 30.45414 32.78937 31.62175
#
# Velocity S-wave (km/s) = 3.92157 4.06915 3.99604
# Velocity P-wave (km/s) = 7.12505 7.66695 7.40096
#
# Compressibility (1/GPa) = 0.01668726
#
# Stress axis : x y z
#
# Youngs Moduli (GPa) = 110.37663 65.36995 103.39358
#
# Poissons Ratio (x) = 0.06779 0.35583
# Poissons Ratio (y) = 0.11447 0.43347
# Poissons Ratio (z) = 0.37986 0.27406
#
# Static dielectric constant tensor:
#      x y z
#    x 3.604630 0.000000 0.168030 
#    y 0.000000 3.579840 0.000000 
#    z 0.168030 0.000000 3.592140 
# 
# 
# High freq. dielectric constant tensor:
#      x y z
#    x 1.774890 0.000000 0.011480 
#    y 0.000000 1.778330 0.000000 
#    z 0.011480 0.000000 1.761990 
# 
# From -- ./inp_files/380272.got.cif
#   From: 2010.06.25/outbox.cif.g09.slc.cpg/sg12_191_cif.got.tgz:380272.got - 2010.06.28 00:19:55.
