data_PCOD8109561
_publ_section_title
;
Structure prediction by ZEFSAII (Michael W. Deem and Ramdas Pophale) SiO2 
 PCOD8109561
Probable space group: C 2/M
;
_chemical_formula_sum "Si O2"
_cell_formula_units_Z 40
_cell_length_a 13.919952
_cell_length_b 19.019351
_cell_length_c 14.640711
_cell_angle_alpha 90.000000
_cell_angle_beta 150.283315
_cell_angle_gamma 90.000000
_cell_volume 1921.430503
_symmetry_space_group_name_H-M "C 2/M"
_symmetry_group_IT_number 12
_symmetry_cell_setting 'monoclinic'
loop_
_space_group_symop_operation_xyz
x,y,z
-x,y,-z
-x,-y,-z
x,-y,z
1/2+x,1/2+y,z
1/2-x,1/2+y,-z
1/2-x,1/2-y,-z
1/2+x,1/2-y,z
loop_
_atom_site_type_symbol
_atom_site_label
_atom_site_fract_x
_atom_site_fract_y
_atom_site_fract_z
Si Si1 0.380409 0.672684 0.174814
Si Si2 0.270092 0.419686 0.478849
Si Si3 0.525710 0.919317 0.918464
Si Si4 0.160126 0.200004 0.059808
Si Si5 0.937650 0.581133 0.346064
O O1 0.547567 0.631515 0.365605
O O2 0.329674 0.741613 0.192318
O O3 0.445306 0.692851 0.125775
O O4 0.190512 0.624978 0.004800
O O5 0.340115 0.500000 0.550193
O O6 0.175848 0.409376 0.301402
O O7 0.116067 0.398750 0.428659
O O8 0.592811 0.000000 0.972351
O O9 0.500000 0.891814 0.000000
O O10 0.249782 0.126433 0.166309
O O11 0.000000 0.225198 0.000000
O O12 0.878009 0.500000 0.283231
O O13 0.000000 0.597627 0.500000
#
# Coordination Sequence:
#
# PCOD8109561 Si02
#       5
#     8   8   8   8   8
#     4  11  23  41  64  91 131 166 209 261 318 377
#     4  10  21  39  65  95 124 163 213 259 314 376
#     4  10  21  40  64  91 129 169 210 261 313 373
#     4  11  24  42  61  92 129 167 212 258 319 383
#     4  10  21  40  64  93 126 162 210 263 315 376
#
# _framework density 20.817823000000001
#
# number of rings (size 3 to 8) (size 9 to 14) (size 15 to 20)
#    0.000    1.600    2.000    2.400    0.000    2.800 
#    7.200    3.000    0.000    0.000    0.000    0.000 
#    0.000    0.000    0.000    0.000    0.000    0.000 
#
# Total GULP energy -248105.821217 kJ/mol
# GULP energy per Si atom -12405.291061 kJ/mol
# Density = 2.077044 g / cm^3
# Si number density = 20.817823 Si / 1000 Ang^3
#
#
#
# Elastic Constant Matrix: (Units=GPa)
#
#
# Indices 1 2 3 4 5 6 
#
# 1 130.3778 39.7003 47.3119 0.0003 -17.8625 0.0001
# 2 39.7003 92.7042 47.1501 0.0001 3.1759 0.0000
# 3 47.3119 47.1501 95.4680 0.0009 -3.7401 0.0002
# 4 0.0003 0.0001 0.0009 26.3895 0.0005 11.0331
# 5 -17.8625 3.1759 -3.7401 0.0005 25.6373 0.0001
# 6 0.0001 0.0000 0.0002 11.0331 0.0001 21.6121
#
#
#
# Elastic Compliance Matrix: (Units=1/GPa)
#
#
# Indices 1 2 3 4 5 6 
#
# 1 0.010950 -0.003119 -0.003593 0.000000 0.007491 0.000000
# 2 -0.003119 0.015502 -0.006307 0.000000 -0.005013 0.000000
# 3 -0.003593 -0.006307 0.015391 -0.000001 0.000523 0.000000
# 4 0.000000 0.000000 -0.000001 0.048176 -0.000001 -0.024594
# 5 0.007491 -0.005013 0.000523 -0.000001 0.044923 0.000000
# 6 0.000000 0.000000 0.000000 -0.024594 0.000000 0.058826
#
#
# Mechanical properties :
#
#
# Convention : Reuss Voigt Hill
#
# Bulk Modulus (GPa) = 63.26860 65.20829 64.23844
# Shear Modulus (GPa) = 22.21504 27.02030 24.61767
#
# Velocity S-wave (km/s) = 3.27022 3.60660 3.44252
# Velocity P-wave (km/s) = 6.68705 6.98103 6.83562
#
# Compressibility (1/GPa) = 0.01580563
#
# Stress axis : x y z
#
# Youngs Moduli (GPa) = 91.32661 64.50728 64.97409
#
# Poissons Ratio (x) = 0.20117 0.23344
# Poissons Ratio (y) = 0.28480 0.40980
# Poissons Ratio (z) = 0.32812 0.40686
#
# Static dielectric constant tensor:
#      x y z
#    x 3.857440 0.000000 -0.175980 
#    y 0.000000 3.855720 0.000000 
#    z -0.175980 0.000000 3.517970 
# 
# 
# High freq. dielectric constant tensor:
#      x y z
#    x 1.821230 0.000000 -0.013580 
#    y 0.000000 1.824580 0.000000 
#    z -0.013580 0.000000 1.801910 
# 
# From -- ./inp_files/216937.got.cif
#   From: 2010.06.25/outbox.cif.g09.slc.cpg/sg12_109_cif.got.tgz:216937.got - 2010.06.28 00:19:55.
