data_PCOD8109642
_publ_section_title
;
Structure prediction by ZEFSAII (Michael W. Deem and Ramdas Pophale) SiO2 
 PCOD8109642
Probable space group: C 2/M
;
_chemical_formula_sum "Si O2"
_cell_formula_units_Z 64
_cell_length_a 18.778658
_cell_length_b 17.210385
_cell_length_c 14.574711
_cell_angle_alpha 90.000000
_cell_angle_beta 37.713647
_cell_angle_gamma 90.000000
_cell_volume 2881.406698
_symmetry_space_group_name_H-M "C 2/M"
_symmetry_group_IT_number 12
_symmetry_cell_setting 'monoclinic'
loop_
_space_group_symop_operation_xyz
x,y,z
-x,y,-z
-x,-y,-z
x,-y,z
1/2+x,1/2+y,z
1/2-x,1/2+y,-z
1/2-x,1/2-y,-z
1/2+x,1/2-y,z
loop_
_atom_site_type_symbol
_atom_site_label
_atom_site_fract_x
_atom_site_fract_y
_atom_site_fract_z
Si Si1 0.505624 0.409707 0.636923
Si Si2 0.117298 0.662867 0.667034
Si Si3 0.267101 0.344855 0.849957
Si Si4 0.251689 0.088469 0.315510
Si Si5 0.381947 0.090623 0.841971
Si Si6 0.260405 0.325090 0.156288
Si Si7 0.797129 0.183177 0.324553
Si Si8 0.512549 0.410631 0.130986
O O1 0.495890 0.500000 0.622084
O O2 0.402659 0.363703 0.691464
O O3 0.629645 0.375981 0.477537
O O4 0.491544 0.393412 0.757835
O O5 0.154732 0.594800 0.698425
O O6 0.131009 0.742974 0.709833
O O7 0.195354 0.660282 0.497186
O O8 0.986198 0.646210 0.769037
O O9 0.201824 0.366014 0.821362
O O10 0.247581 0.254810 0.893178
O O11 0.223068 0.397963 0.978795
O O12 0.235680 0.000000 0.303410
O O13 0.335888 0.116411 0.788319
O O14 0.418261 0.000000 0.800694
O O15 0.236147 0.304512 0.287740
O O16 0.388740 0.359514 0.016524
O O17 0.887037 0.112563 0.218920
O O18 0.536986 0.500000 0.082962
#
# Coordination Sequence:
#
# PCOD8109642 Si02
#       8
#     8   8   8   8   8   8   8   8
#     4  10  21  39  68 102 131 166 218 278 336 392
#     4  11  25  46  69  99 137 181 228 275 334 416
#     4  12  24  42  67 101 137 179 220 281 343 405
#     4  11  22  42  70 102 134 173 226 283 341 402
#     4  12  27  45  67  98 142 188 226 273 339 416
#     4  12  26  44  68 103 134 176 227 279 341 410
#     4  11  25  46  71  99 133 176 229 285 341 397
#     4  11  23  42  71  98 128 171 224 286 338 387
#
# _framework density 22.211372999999998
#
# number of rings (size 3 to 8) (size 9 to 14) (size 15 to 20)
#    0.000    0.750    3.750    3.750    1.750    4.000 
#    2.250    1.875    0.000    0.000    0.000    0.000 
#    0.000    0.000    0.000    0.000    0.000    0.000 
#
# Total GULP energy -396912.356009 kJ/mol
# GULP energy per Si atom -12403.511125 kJ/mol
# Density = 2.216082 g / cm^3
# Si number density = 22.211373 Si / 1000 Ang^3
#
#
#
# Elastic Constant Matrix: (Units=GPa)
#
#
# Indices 1 2 3 4 5 6 
#
# 1 125.8320 26.0009 40.2134 0.0000 8.0532 0.0000
# 2 26.0009 82.6482 19.4315 0.0000 10.4740 0.0000
# 3 40.2134 19.4315 54.5443 0.0000 -6.4103 0.0000
# 4 0.0000 0.0000 0.0000 24.1316 0.0000 -6.5127
# 5 8.0532 10.4740 -6.4103 0.0000 35.7293 0.0000
# 6 0.0000 0.0000 0.0000 -6.5127 0.0000 38.0099
#
#
#
# Elastic Compliance Matrix: (Units=1/GPa)
#
#
# Indices 1 2 3 4 5 6 
#
# 1 0.011010 -0.001087 -0.008157 0.000000 -0.003627 0.000000
# 2 -0.001087 0.014177 -0.004811 0.000000 -0.004774 0.000000
# 3 -0.008157 -0.004811 0.027013 0.000000 0.008095 0.000000
# 4 0.000000 0.000000 0.000000 0.043449 0.000000 0.007445
# 5 -0.003627 -0.004774 0.008095 0.000000 0.031658 0.000000
# 6 0.000000 0.000000 0.000000 0.007445 0.000000 0.027584
#
#
# Mechanical properties :
#
#
# Convention : Reuss Voigt Hill
#
# Bulk Modulus (GPa) = 41.50686 48.25735 44.88211
# Shear Modulus (GPa) = 26.17391 31.39941 28.78666
#
# Velocity S-wave (km/s) = 3.43651 3.76395 3.60395
# Velocity P-wave (km/s) = 5.87145 6.37678 6.12933
#
# Compressibility (1/GPa) = 0.02409240
#
# Stress axis : x y z
#
# Youngs Moduli (GPa) = 90.82288 70.53473 37.01978
#
# Poissons Ratio (x) = 0.07664 0.30196
# Poissons Ratio (y) = 0.09868 0.17809
# Poissons Ratio (z) = 0.74082 0.33933
#
# Static dielectric constant tensor:
#      x y z
#    x 4.108870 0.000000 0.093220 
#    y 0.000000 3.944310 0.000000 
#    z 0.093220 0.000000 3.873300 
# 
# 
# High freq. dielectric constant tensor:
#      x y z
#    x 1.887400 0.000000 0.009270 
#    y 0.000000 1.873200 0.000000 
#    z 0.009270 0.000000 1.866550 
# 
# From -- ./inp_files/226839.got.cif
#   From: 2010.06.25/outbox.cif.g09.slc.cpg/sg12_114_cif.got.tgz:226839.got - 2010.06.28 00:19:55.
