data_PCOD8109649
_publ_section_title
;
Structure prediction by ZEFSAII (Michael W. Deem and Ramdas Pophale) SiO2 
 PCOD8109649
Probable space group: C 2/M
;
_chemical_formula_sum "Si O2"
_cell_formula_units_Z 44
_cell_length_a 12.164228
_cell_length_b 28.244693
_cell_length_c 7.662126
_cell_angle_alpha 90.000000
_cell_angle_beta 50.828359
_cell_angle_gamma 90.000000
_cell_volume 2040.875538
_symmetry_space_group_name_H-M "C 2/M"
_symmetry_group_IT_number 12
_symmetry_cell_setting 'monoclinic'
loop_
_space_group_symop_operation_xyz
x,y,z
-x,y,-z
-x,-y,-z
x,-y,z
1/2+x,1/2+y,z
1/2-x,1/2+y,-z
1/2-x,1/2-y,-z
1/2+x,1/2-y,z
loop_
_atom_site_type_symbol
_atom_site_label
_atom_site_fract_x
_atom_site_fract_y
_atom_site_fract_z
Si Si1 0.747980 0.867794 0.039018
Si Si2 0.444748 0.861255 0.228822
Si Si3 0.956232 0.795692 0.731126
Si Si4 0.944169 0.946363 0.751209
Si Si5 0.155156 0.125481 0.675925
Si Si6 0.500000 0.228581 0.000000
O O1 0.578841 0.861943 0.227511
O O2 0.827196 0.859821 0.142214
O O3 0.793678 0.918942 0.915999
O O4 0.811807 0.826225 0.851432
O O5 0.310469 0.886975 0.444910
O O6 0.500000 0.889196 0.000000
O O7 0.398968 0.807644 0.212615
O O8 0.085102 0.830799 0.646968
O O9 0.000000 0.771705 0.500000
O O10 0.926842 0.759312 0.920097
O O11 0.000000 0.943617 0.500000
O O12 0.061415 0.921753 0.756789
O O13 0.921597 0.000000 0.836832
#
# Coordination Sequence:
#
# PCOD8109649 Si02
#       6
#     8   8   8   8   8   4
#     4  11  21  39  63  88 126 162 199 253 314 360
#     4  10  23  40  56  85 120 168 202 252 305 366
#     4  11  21  40  62  85 120 166 213 262 307 356
#     4  10  21  39  68  97 119 155 202 245 298 374
#     4  11  21  39  63  88 126 162 199 253 314 360
#     4  10  24  42  58  88 120 164 220 264 298 364
#
# _framework density 21.559374999999999
#
# number of rings (size 3 to 8) (size 9 to 14) (size 15 to 20)
#    0.545    0.909    1.818    6.545    0.000    4.364 
#    0.000    0.909    0.000    5.455    0.000    0.000 
#    0.000    0.000    0.000    0.000    0.000    0.000 
#
# Total GULP energy -272545.915692 kJ/mol
# GULP energy per Si atom -12388.450713 kJ/mol
# Density = 2.151030 g / cm^3
# Si number density = 21.559375 Si / 1000 Ang^3
#
#
#
# Elastic Constant Matrix: (Units=GPa)
#
#
# Indices 1 2 3 4 5 6 
#
# 1 96.1015 30.1883 19.9727 0.0000 -4.7549 0.0000
# 2 30.1883 101.7453 35.8622 0.0000 -2.1574 0.0000
# 3 19.9727 35.8622 87.4606 0.0000 -11.4137 0.0000
# 4 0.0000 0.0000 0.0000 16.5272 0.0000 6.3172
# 5 -4.7549 -2.1574 -11.4137 0.0000 43.8764 0.0000
# 6 0.0000 0.0000 0.0000 6.3172 0.0000 15.1539
#
#
#
# Elastic Compliance Matrix: (Units=1/GPa)
#
#
# Indices 1 2 3 4 5 6 
#
# 1 0.011655 -0.002968 -0.001345 0.000000 0.000767 0.000000
# 2 -0.002968 0.012265 -0.004466 0.000000 -0.000880 0.000000
# 3 -0.001345 -0.004466 0.014000 0.000000 0.003276 0.000000
# 4 0.000000 0.000000 0.000000 0.071975 0.000000 -0.030004
# 5 0.000767 -0.000880 0.003276 0.000000 0.023683 0.000000
# 6 0.000000 0.000000 0.000000 -0.030004 0.000000 0.078497
#
#
# Mechanical properties :
#
#
# Convention : Reuss Voigt Hill
#
# Bulk Modulus (GPa) = 49.11014 50.81709 49.96361
# Shear Modulus (GPa) = 21.14882 28.39713 24.77297
#
# Velocity S-wave (km/s) = 3.13542 3.63321 3.39345
# Velocity P-wave (km/s) = 5.99469 6.42045 6.21122
#
# Compressibility (1/GPa) = 0.02036239
#
# Stress axis : x y z
#
# Youngs Moduli (GPa) = 85.79704 81.53571 71.43073
#
# Poissons Ratio (x) = 0.24200 0.09604
# Poissons Ratio (y) = 0.25465 0.31901
# Poissons Ratio (z) = 0.11535 0.36414
#
# Static dielectric constant tensor:
#      x y z
#    x 3.888640 0.000000 0.160490 
#    y 0.000000 3.770750 0.000000 
#    z 0.160490 0.000000 3.936770 
# 
# 
# High freq. dielectric constant tensor:
#      x y z
#    x 1.850030 0.000000 0.013130 
#    y 0.000000 1.807300 0.000000 
#    z 0.013130 0.000000 1.850780 
# 
# From -- ./inp_files/66714.got.cif
#   From: 2010.06.25/outbox.cif.g09.slc.cpg/sg12_34_cif.got.tgz:66714.got - 2010.06.28 00:19:55.
