data_PCOD8109950
_publ_section_title
;
Structure prediction by ZEFSAII (Michael W. Deem and Ramdas Pophale) SiO2 
 PCOD8109950
Probable space group: C 2/M
;
_chemical_formula_sum "Si O2"
_cell_formula_units_Z 56
_cell_length_a 21.204403
_cell_length_b 8.565429
_cell_length_c 19.044571
_cell_angle_alpha 90.000000
_cell_angle_beta 53.035745
_cell_angle_gamma 90.000000
_cell_volume 2763.751664
_symmetry_space_group_name_H-M "C 2/M"
_symmetry_group_IT_number 12
_symmetry_cell_setting 'monoclinic'
loop_
_space_group_symop_operation_xyz
x,y,z
-x,y,-z
-x,-y,-z
x,-y,z
1/2+x,1/2+y,z
1/2-x,1/2+y,-z
1/2-x,1/2-y,-z
1/2+x,1/2-y,z
loop_
_atom_site_type_symbol
_atom_site_label
_atom_site_fract_x
_atom_site_fract_y
_atom_site_fract_z
Si Si1 0.794782 0.185925 0.037241
Si Si2 0.885153 0.320782 0.224419
Si Si3 0.170802 0.315757 0.587002
Si Si4 0.027933 0.816538 0.056426
Si Si5 0.252908 0.680615 0.786802
Si Si6 0.549751 0.682614 0.563708
Si Si7 0.895630 0.319387 0.612628
O O1 0.749028 0.260579 0.132890
O O2 0.789307 0.000000 0.043747
O O3 0.750000 0.250000 0.000000
O O4 0.885667 0.245198 0.978567
O O5 0.909124 0.500000 0.216660
O O6 0.837029 0.267223 0.325978
O O7 0.966205 0.226824 0.159054
O O8 0.831523 0.291450 0.192363
O O9 0.171409 0.500000 0.576056
O O10 0.250000 0.250000 0.500000
O O11 0.094977 0.241098 0.601526
O O12 0.032101 0.000000 0.045730
O O13 0.000000 0.743563 0.000000
O O14 0.278624 0.500000 0.766083
O O15 0.314327 0.787280 0.704994
O O16 0.533168 0.500000 0.580324
O O17 0.466986 0.772981 0.616243
O O18 0.601486 0.717398 0.460025
O O19 0.902345 0.500000 0.587458
#
# Coordination Sequence:
#
# PCOD8109950 Si02
#       7
#     8   8   8   8   8   8   8
#     4  11  24  42  63  91 126 164 204 257 317 376
#     4  10  23  39  62  92 122 159 206 256 309 372
#     4  11  23  40  60  89 126 164 207 259 315 372
#     4  10  21  40  65  91 122 159 205 258 310 372
#     4  11  22  39  62  91 122 157 203 253 309 376
#     4  11  22  39  60  86 121 162 204 254 311 370
#     4  11  22  38  62  89 118 159 205 253 308 373
#
# _framework density 20.262312999999999
#
# number of rings (size 3 to 8) (size 9 to 14) (size 15 to 20)
#    0.000    1.286    1.429    5.571    0.000    5.429 
#    0.000    2.857    0.000    0.000    0.000    0.000 
#    0.000    0.000    0.000    0.000    0.000    0.000 
#
# Total GULP energy -347315.744406 kJ/mol
# GULP energy per Si atom -12404.133729 kJ/mol
# Density = 2.021620 g / cm^3
# Si number density = 20.262313 Si / 1000 Ang^3
#
#
#
# Elastic Constant Matrix: (Units=GPa)
#
#
# Indices 1 2 3 4 5 6 
#
# 1 108.3323 27.9389 25.9017 -0.0002 8.0794 0.0001
# 2 27.9389 74.2795 19.8792 -0.0011 -0.6487 0.0011
# 3 25.9017 19.8792 88.3843 -0.0003 -8.5064 0.0001
# 4 -0.0002 -0.0011 -0.0003 37.6170 0.0001 -1.2663
# 5 8.0794 -0.6487 -8.5064 0.0001 33.5942 -0.0001
# 6 0.0001 0.0011 0.0001 -1.2663 -0.0001 33.2998
#
#
#
# Elastic Compliance Matrix: (Units=1/GPa)
#
#
# Indices 1 2 3 4 5 6 
#
# 1 0.011040 -0.003435 -0.002793 0.000000 -0.003429 0.000000
# 2 -0.003435 0.015404 -0.002408 0.000000 0.000514 0.000000
# 3 -0.002793 -0.002408 0.013053 0.000000 0.003930 0.000000
# 4 0.000000 0.000000 0.000000 0.026618 0.000000 0.001012
# 5 -0.003429 0.000514 0.003930 0.000000 0.031597 0.000000
# 6 0.000000 0.000000 0.000000 0.001012 0.000000 0.030069
#
#
# Mechanical properties :
#
#
# Convention : Reuss Voigt Hill
#
# Bulk Modulus (GPa) = 44.99652 46.49284 45.74468
# Shear Modulus (GPa) = 32.79538 34.05395 33.42467
#
# Velocity S-wave (km/s) = 4.02747 4.10403 4.06593
# Velocity P-wave (km/s) = 6.62439 6.74186 6.68338
#
# Compressibility (1/GPa) = 0.02222394
#
# Stress axis : x y z
#
# Youngs Moduli (GPa) = 90.57797 64.91919 76.61287
#
# Poissons Ratio (x) = 0.22300 0.21396
# Poissons Ratio (y) = 0.31114 0.18452
# Poissons Ratio (z) = 0.25296 0.15636
#
# Static dielectric constant tensor:
#      x y z
#    x 3.823130 0.000000 0.025020 
#    y 0.000000 3.565370 0.000000 
#    z 0.025020 0.000000 3.588930 
# 
# 
# High freq. dielectric constant tensor:
#      x y z
#    x 1.796770 0.000000 -0.003450 
#    y 0.000000 1.795930 0.000000 
#    z -0.003450 0.000000 1.795310 
# 
# From -- ./inp_files/319717.got.cif
#   From: 2010.06.25/outbox.cif.g09.slc.cpg/sg12_160_cif.got.tgz:319717.got - 2010.06.28 00:19:55.
