data_PCOD8109575
_publ_section_title
;
Structure prediction by ZEFSAII (Michael W. Deem and Ramdas Pophale) SiO2 
 PCOD8109575
Probable space group: C 2/M
;
_chemical_formula_sum "Si O2"
_cell_formula_units_Z 56
_cell_length_a 10.999220
_cell_length_b 27.401388
_cell_length_c 14.921124
_cell_angle_alpha 90.000000
_cell_angle_beta 34.450656
_cell_angle_gamma 90.000000
_cell_volume 2544.012910
_symmetry_space_group_name_H-M "C 2/M"
_symmetry_group_IT_number 12
_symmetry_cell_setting 'monoclinic'
loop_
_space_group_symop_operation_xyz
x,y,z
-x,y,-z
-x,-y,-z
x,-y,z
1/2+x,1/2+y,z
1/2-x,1/2+y,-z
1/2-x,1/2-y,-z
1/2+x,1/2-y,z
loop_
_atom_site_type_symbol
_atom_site_label
_atom_site_fract_x
_atom_site_fract_y
_atom_site_fract_z
Si Si1 0.693936 0.387433 0.818093
Si Si2 0.250069 0.200796 0.666299
Si Si3 0.126226 0.300667 0.833062
Si Si4 0.945331 0.851660 0.375445
Si Si5 0.433238 0.871239 0.272531
Si Si6 0.955377 0.944453 0.247954
Si Si7 0.449456 0.944964 0.934286
O O1 0.644147 0.336375 0.800683
O O2 0.705788 0.429869 0.735233
O O3 0.916589 0.382033 0.734415
O O4 0.500000 0.401152 0.000000
O O5 0.500000 0.189846 0.500000
O O6 0.216416 0.253929 0.727060
O O7 0.131794 0.191898 0.643673
O O8 0.314878 0.338534 0.741881
O O9 0.975856 0.329615 0.852185
O O10 0.000000 0.285873 0.000000
O O11 0.796260 0.852405 0.553746
O O12 0.928205 0.906118 0.344975
O O13 0.411762 0.920493 0.228319
O O14 0.904420 0.000000 0.310812
O O15 0.198176 0.940758 0.063402
O O16 0.533050 0.000000 0.887215
O O17 0.500000 0.920067 0.000000
#
# Coordination Sequence:
#
# PCOD8109575 Si02
#       7
#     8   8   8   8   8   8   8
#     4  11  23  40  65  97 131 172 215 271 322 385
#     4  11  24  44  68  95 135 171 214 271 330 390
#     4  12  28  44  68  97 128 173 223 270 329 394
#     4  11  25  44  68  98 133 175 216 272 333 389
#     4  12  23  41  67  95 132 169 217 273 322 387
#     4  10  22  41  65  96 136 177 218 271 326 389
#     4  10  21  39  65  96 133 176 222 272 326 382
#
# _framework density 22.012467000000001
#
# number of rings (size 3 to 8) (size 9 to 14) (size 15 to 20)
#    0.000    1.000    2.857    3.857    4.000    3.143 
#    0.000    0.714    0.000    4.286    0.000    0.000 
#    0.000    0.000    0.000    0.000    0.000    0.000 
#
# Total GULP energy -347193.080163 kJ/mol
# GULP energy per Si atom -12399.752863 kJ/mol
# Density = 2.196237 g / cm^3
# Si number density = 22.012467 Si / 1000 Ang^3
#
#
#
# Elastic Constant Matrix: (Units=GPa)
#
#
# Indices 1 2 3 4 5 6 
#
# 1 116.6220 38.1750 19.3865 0.0000 8.4090 0.0000
# 2 38.1750 110.8542 19.9359 0.0000 16.5440 0.0000
# 3 19.3865 19.9359 79.6001 0.0000 15.3981 -0.0001
# 4 0.0000 0.0000 0.0000 28.6755 0.0000 1.5832
# 5 8.4090 16.5440 15.3981 0.0000 35.4648 0.0001
# 6 0.0000 0.0000 -0.0001 1.5832 0.0001 28.1915
#
#
#
# Elastic Compliance Matrix: (Units=1/GPa)
#
#
# Indices 1 2 3 4 5 6 
#
# 1 0.009862 -0.003079 -0.001590 0.000000 -0.000212 0.000000
# 2 -0.003079 0.010871 -0.001237 0.000000 -0.003804 0.000000
# 3 -0.001590 -0.001237 0.014274 0.000000 -0.005244 0.000000
# 4 0.000000 0.000000 0.000000 0.034981 0.000000 -0.001965
# 5 -0.000212 -0.003804 -0.005244 0.000000 0.032298 0.000000
# 6 0.000000 0.000000 0.000000 -0.001965 0.000000 0.035582
#
#
# Mechanical properties :
#
#
# Convention : Reuss Voigt Hill
#
# Bulk Modulus (GPa) = 43.11005 51.34123 47.22564
# Shear Modulus (GPa) = 31.76365 33.77161 32.76763
#
# Velocity S-wave (km/s) = 3.80278 3.92114 3.86242
# Velocity P-wave (km/s) = 6.23766 6.62381 6.43363
#
# Compressibility (1/GPa) = 0.02319645
#
# Stress axis : x y z
#
# Youngs Moduli (GPa) = 101.39885 91.98551 70.05682
#
# Poissons Ratio (x) = 0.28319 0.11138
# Poissons Ratio (y) = 0.31217 0.08666
# Poissons Ratio (z) = 0.16121 0.11379
#
# Static dielectric constant tensor:
#      x y z
#    x 4.262230 0.000000 0.192220 
#    y 0.000000 3.967750 0.000000 
#    z 0.192220 0.000000 3.857430 
# 
# 
# High freq. dielectric constant tensor:
#      x y z
#    x 1.879640 0.000000 0.013810 
#    y 0.000000 1.867310 0.000000 
#    z 0.013810 0.000000 1.854880 
# 
# From -- ./inp_files/209984.got.cif
#   From: 2010.06.25/outbox.cif.g09.slc.cpg/sg12_105_cif.got.tgz:209984.got - 2010.06.28 00:19:55.
