data_PCOD8109625
_publ_section_title
;
Structure prediction by ZEFSAII (Michael W. Deem and Ramdas Pophale) SiO2 
 PCOD8109625
Probable space group: C 2/M
;
_chemical_formula_sum "Si O2"
_cell_formula_units_Z 64
_cell_length_a 18.324917
_cell_length_b 28.142341
_cell_length_c 12.054775
_cell_angle_alpha 90.000000
_cell_angle_beta 29.537423
_cell_angle_gamma 90.000000
_cell_volume 3064.793076
_symmetry_space_group_name_H-M "C 2/M"
_symmetry_group_IT_number 12
_symmetry_cell_setting 'monoclinic'
loop_
_space_group_symop_operation_xyz
x,y,z
-x,y,-z
-x,-y,-z
x,-y,z
1/2+x,1/2+y,z
1/2-x,1/2+y,-z
1/2-x,1/2-y,-z
1/2+x,1/2-y,z
loop_
_atom_site_type_symbol
_atom_site_label
_atom_site_fract_x
_atom_site_fract_y
_atom_site_fract_z
Si Si1 0.832680 0.597435 0.572215
Si Si2 0.154213 0.381823 0.850441
Si Si3 0.947622 0.809911 0.236719
Si Si4 0.766372 0.800400 0.273758
Si Si5 0.337023 0.414357 0.415062
Si Si6 0.119944 0.444575 0.112578
Si Si7 0.839423 0.947478 0.006807
Si Si8 0.376897 0.294707 0.573310
O O1 0.841110 0.655145 0.554237
O O2 0.759721 0.570572 0.562901
O O3 0.731650 0.588101 0.812103
O O4 0.996187 0.575088 0.362670
O O5 0.241257 0.417865 0.654027
O O6 0.248988 0.334432 0.749223
O O7 0.118708 0.411546 0.006774
O O8 0.000000 0.364938 0.000000
O O9 0.845978 0.781337 0.281889
O O10 0.877027 0.860792 0.340033
O O11 0.949329 0.787238 0.356125
O O12 0.112100 0.817358 0.975083
O O13 0.684947 0.757492 0.318769
O O14 0.483333 0.445668 0.233478
O O15 0.092747 0.500000 0.118250
O O16 0.276730 0.437276 0.966647
O O17 0.791995 0.000000 0.107052
O O18 0.500000 0.309165 0.500000
#
# Coordination Sequence:
#
# PCOD8109625 Si02
#       8
#     8   8   8   8   8   8   8   8
#     4  11  21  41  68  95 131 172 217 268 321 386
#     4  11  25  46  67  91 129 174 217 270 334 385
#     4   9  20  40  62  90 128 172 214 265 312 384
#     4  10  21  39  67  92 130 176 215 260 324 385
#     4  10  21  41  65  94 123 168 223 263 319 388
#     4  11  26  44  65  96 133 174 218 269 331 396
#     4  11  24  40  63  96 132 169 209 266 338 390
#     4  11  26  40  65 101 132 167 220 271 318 384
#
# _framework density 20.882325000000002
#
# number of rings (size 3 to 8) (size 9 to 14) (size 15 to 20)
#    0.000    1.500    2.500    1.500    5.250    5.750 
#    0.000    1.250    0.000    0.000    0.000    0.000 
#    0.000    0.000    0.000    0.000    0.000    0.000 
#
# Total GULP energy -396731.023959 kJ/mol
# GULP energy per Si atom -12397.844499 kJ/mol
# Density = 2.083480 g / cm^3
# Si number density = 20.882325 Si / 1000 Ang^3
#
#
#
# Elastic Constant Matrix: (Units=GPa)
#
#
# Indices 1 2 3 4 5 6 
#
# 1 93.8034 40.2128 33.9928 -0.0040 -11.1179 0.0091
# 2 40.2128 90.3285 25.3864 0.0034 -8.4217 -0.0026
# 3 33.9928 25.3864 96.0569 -0.0079 2.2133 0.0046
# 4 -0.0040 0.0034 -0.0079 79.9663 -0.0079 -25.4364
# 5 -11.1179 -8.4217 2.2133 -0.0079 34.3751 -0.0016
# 6 0.0091 -0.0026 0.0046 -25.4364 -0.0016 37.4029
#
#
#
# Elastic Compliance Matrix: (Units=1/GPa)
#
#
# Indices 1 2 3 4 5 6 
#
# 1 0.014722 -0.005092 -0.003951 0.000000 0.003768 -0.000003
# 2 -0.005092 0.014068 -0.001960 0.000000 0.001926 0.000003
# 3 -0.003951 -0.001960 0.012386 0.000001 -0.002556 0.000000
# 4 0.000000 0.000000 0.000001 0.015957 0.000004 0.010852
# 5 0.003768 0.001926 -0.002556 0.000004 0.030946 0.000004
# 6 -0.000003 0.000003 0.000000 0.010852 0.000004 0.034116
#
#
# Mechanical properties :
#
#
# Convention : Reuss Voigt Hill
#
# Bulk Modulus (GPa) = 52.16795 53.26364 52.71580
# Shear Modulus (GPa) = 33.20242 42.38864 37.79553
#
# Velocity S-wave (km/s) = 3.99178 4.51031 4.25894
# Velocity P-wave (km/s) = 6.80307 7.25850 7.03447
#
# Compressibility (1/GPa) = 0.01916886
#
# Stress axis : x y z
#
# Youngs Moduli (GPa) = 67.92554 71.08225 80.73893
#
# Poissons Ratio (x) = 0.36197 0.31899
# Poissons Ratio (y) = 0.34590 0.15827
# Poissons Ratio (z) = 0.26836 0.13934
#
# Static dielectric constant tensor:
#      x y z
#    x 4.038530 0.000000 0.164330 
#    y 0.000000 3.589420 0.000010 
#    z 0.164330 0.000010 4.085020 
# 
# 
# High freq. dielectric constant tensor:
#      x y z
#    x 1.820850 0.000000 0.000320 
#    y 0.000000 1.809560 0.000000 
#    z 0.000320 0.000000 1.819480 
# 
# From -- ./inp_files/161184.got.cif
#   From: 2010.06.25/outbox.cif.g09.slc.cpg/sg12_81_cif.got.tgz:161184.got - 2010.06.28 00:19:55.
