data_PCOD8109347
_publ_section_title
;
Structure prediction by ZEFSAII (Michael W. Deem and Ramdas Pophale) SiO2 
 PCOD8109347
Probable space group: C 2/M
;
_chemical_formula_sum "Si O2"
_cell_formula_units_Z 48
_cell_length_a 9.064076
_cell_length_b 10.327270
_cell_length_c 25.675462
_cell_angle_alpha 90.000000
_cell_angle_beta 71.437257
_cell_angle_gamma 90.000000
_cell_volume 2278.371309
_symmetry_space_group_name_H-M "C 2/M"
_symmetry_group_IT_number 12
_symmetry_cell_setting 'monoclinic'
loop_
_space_group_symop_operation_xyz
x,y,z
-x,y,-z
-x,-y,-z
x,-y,z
1/2+x,1/2+y,z
1/2-x,1/2+y,-z
1/2-x,1/2-y,-z
1/2+x,1/2-y,z
loop_
_atom_site_type_symbol
_atom_site_label
_atom_site_fract_x
_atom_site_fract_y
_atom_site_fract_z
Si Si1 0.090196 0.728662 0.880884
Si Si2 0.367356 0.000000 0.557376
Si Si3 0.616024 0.152995 0.695071
Si Si4 0.102658 0.643861 0.190551
Si Si5 0.790346 0.856144 0.952739
Si Si6 0.582967 0.759364 0.374515
Si Si7 0.527889 0.500000 0.557547
O O1 0.232699 0.786262 0.832364
O O2 0.162928 0.650680 0.921000
O O3 0.991406 0.637800 0.853436
O O4 0.968319 0.837904 0.913884
O O5 0.500000 0.000000 0.500000
O O6 0.371046 0.129238 0.590780
O O7 0.210635 0.000000 0.542933
O O8 0.502093 0.209596 0.752620
O O9 0.558027 0.186108 0.643664
O O10 0.778505 0.228580 0.681777
O O11 0.640198 0.000000 0.699557
O O12 0.142375 0.500000 0.203886
O O13 0.778413 0.000000 0.978458
O O14 0.750000 0.750000 0.000000
O O15 0.545104 0.627851 0.408997
O O16 0.500000 0.500000 0.500000
#
# Coordination Sequence:
#
# PCOD8109347 Si02
#       7
#     8   4   8   8   8   8   4
#     4  10  22  40  62  90 128 166 214 264 314 372
#     4  12  28  44  68  96 128 170 214 262 317 379
#     4  11  23  40  67  96 128 167 209 260 321 384
#     4  10  21  39  63  92 124 166 209 259 320 377
#     4  11  24  40  63  94 128 171 216 264 317 376
#     4  12  24  44  66  96 130 164 212 264 318 378
#     4  12  28  44  68  96 128 170 214 262 317 379
#
# _framework density 21.067681
#
# number of rings (size 3 to 8) (size 9 to 14) (size 15 to 20)
#    0.000    1.000    3.333    3.000    2.333    6.667 
#    0.000    0.000    3.667    0.000    0.000    0.000 
#    0.000    0.000    0.000    0.000    0.000    0.000 
#
# Total GULP energy -297590.561911 kJ/mol
# GULP energy per Si atom -12399.606746 kJ/mol
# Density = 2.101973 g / cm^3
# Si number density = 21.067681 Si / 1000 Ang^3
#
#
#
# Elastic Constant Matrix: (Units=GPa)
#
#
# Indices 1 2 3 4 5 6 
#
# 1 98.8824 22.8699 19.8665 0.0000 -11.6619 0.0000
# 2 22.8699 126.8885 39.2285 0.0000 -12.8657 0.0000
# 3 19.8665 39.2285 101.3394 0.0000 -15.5796 0.0000
# 4 0.0000 0.0000 0.0000 43.7399 0.0000 4.0076
# 5 -11.6619 -12.8657 -15.5796 0.0000 39.4133 0.0000
# 6 0.0000 0.0000 0.0000 4.0076 0.0000 19.7552
#
#
#
# Elastic Compliance Matrix: (Units=1/GPa)
#
#
# Indices 1 2 3 4 5 6 
#
# 1 0.010951 -0.001348 -0.001272 0.000000 0.002298 0.000000
# 2 -0.001348 0.009220 -0.003091 0.000000 0.001389 0.000000
# 3 -0.001272 -0.003091 0.011819 0.000000 0.003286 0.000000
# 4 0.000000 0.000000 0.000000 0.023295 0.000000 -0.004726
# 5 0.002298 0.001389 0.003286 0.000000 0.027805 0.000000
# 6 0.000000 0.000000 0.000000 -0.004726 0.000000 0.051578
#
#
# Mechanical properties :
#
#
# Convention : Reuss Voigt Hill
#
# Bulk Modulus (GPa) = 48.61764 54.56001 51.58882
# Shear Modulus (GPa) = 32.69100 36.92472 34.80786
#
# Velocity S-wave (km/s) = 3.94345 4.19103 4.06913
# Velocity P-wave (km/s) = 6.62279 7.02662 6.82769
#
# Compressibility (1/GPa) = 0.02056867
#
# Stress axis : x y z
#
# Youngs Moduli (GPa) = 91.31390 108.45490 84.60838
#
# Poissons Ratio (x) = 0.14615 0.10762
# Poissons Ratio (y) = 0.12305 0.26157
# Poissons Ratio (z) = 0.11615 0.33529
#
# Static dielectric constant tensor:
#      x y z
#    x 4.071320 0.000000 -0.159750 
#    y 0.000000 3.704250 0.000000 
#    z -0.159750 0.000000 3.927670 
# 
# 
# High freq. dielectric constant tensor:
#      x y z
#    x 1.842540 0.000000 -0.007310 
#    y 0.000000 1.821490 0.000000 
#    z -0.007310 0.000000 1.833660 
# 
# From -- ./inp_files/332255.got.cif
#   From: 2010.06.25/outbox.cif.g09.slc.cpg/sg12_167_cif.got.tgz:332255.got - 2010.06.28 00:19:55.
