data_PCOD8109008
_publ_section_title
;
Structure prediction by ZEFSAII (Michael W. Deem and Ramdas Pophale) SiO2 
 PCOD8109008
Probable space group: C 2/M
;
_chemical_formula_sum "Si O2"
_cell_formula_units_Z 32
_cell_length_a 18.442081
_cell_length_b 8.487010
_cell_length_c 11.104884
_cell_angle_alpha 90.000000
_cell_angle_beta 114.466478
_cell_angle_gamma 90.000000
_cell_volume 1582.039347
_symmetry_space_group_name_H-M "C 2/M"
_symmetry_group_IT_number 12
_symmetry_cell_setting 'monoclinic'
loop_
_space_group_symop_operation_xyz
x,y,z
-x,y,-z
-x,-y,-z
x,-y,z
1/2+x,1/2+y,z
1/2-x,1/2+y,-z
1/2-x,1/2-y,-z
1/2+x,1/2-y,z
loop_
_atom_site_type_symbol
_atom_site_label
_atom_site_fract_x
_atom_site_fract_y
_atom_site_fract_z
Si Si1 0.424967 0.316278 0.870123
Si Si2 0.953251 0.318142 0.633831
Si Si3 0.270556 0.185234 0.884216
Si Si4 0.608786 0.681938 0.645643
O O1 0.431153 0.500000 0.844220
O O2 0.422588 0.220190 0.745113
O O3 0.346192 0.280385 0.890366
O O4 0.500000 0.259630 0.000000
O O5 0.938783 0.500000 0.596366
O O6 0.901650 0.219828 0.502301
O O7 0.046854 0.279647 0.684715
O O8 0.198010 0.224691 0.744941
O O9 0.289102 0.000000 0.901796
O O10 0.250000 0.250000 0.000000
O O11 0.590107 0.500000 0.656894
#
# Coordination Sequence:
#
# PCOD8109008 Si02
#       4
#     8   8   8   8
#     4  11  24  41  61  85 116 155 195 238 290 345
#     4  11  22  37  61  90 118 152 194 239 288 340
#     4  11  24  40  61  88 117 153 194 239 290 343
#     4  10  21  39  61  86 119 156 193 234 286 346
#
# _framework density 20.227056000000001
#
# number of rings (size 3 to 8) (size 9 to 14) (size 15 to 20)
#    0.000    1.250    0.000    7.500    0.000   13.000 
#    0.000    0.000    0.000    0.000    0.000    0.000 
#    0.000    0.000    0.000    0.000    0.000    0.000 
#
# Total GULP energy -198512.406532 kJ/mol
# GULP energy per Si atom -12407.025408 kJ/mol
# Density = 2.018102 g / cm^3
# Si number density = 20.227056 Si / 1000 Ang^3
#
#
#
# Elastic Constant Matrix: (Units=GPa)
#
#
# Indices 1 2 3 4 5 6 
#
# 1 121.2450 14.0207 62.9040 0.0000 0.0041 0.0000
# 2 14.0207 55.1180 19.5595 0.0000 9.0400 0.0000
# 3 62.9040 19.5595 107.4710 0.0000 2.7183 0.0000
# 4 0.0000 0.0000 0.0000 24.8508 0.0000 -9.1263
# 5 0.0041 9.0400 2.7183 0.0000 43.9272 0.0000
# 6 0.0000 0.0000 0.0000 -9.1263 0.0000 33.3635
#
#
#
# Elastic Compliance Matrix: (Units=1/GPa)
#
#
# Indices 1 2 3 4 5 6 
#
# 1 0.011876 -0.000686 -0.006841 0.000000 0.000563 0.000000
# 2 -0.000686 0.020082 -0.003154 0.000000 -0.003938 0.000000
# 3 -0.006841 -0.003154 0.013888 0.000000 -0.000210 0.000000
# 4 0.000000 0.000000 0.000000 0.044734 0.000000 0.012237
# 5 0.000563 -0.003938 -0.000210 0.000000 0.023588 0.000000
# 6 0.000000 0.000000 0.000000 0.012237 0.000000 0.033320
#
#
# Mechanical properties :
#
#
# Convention : Reuss Voigt Hill
#
# Bulk Modulus (GPa) = 40.84017 52.97805 46.90911
# Shear Modulus (GPa) = 28.24670 32.91826 30.58248
#
# Velocity S-wave (km/s) = 3.74101 4.03853 3.89261
# Velocity P-wave (km/s) = 6.23657 6.92783 6.59127
#
# Compressibility (1/GPa) = 0.02448570
#
# Stress axis : x y z
#
# Youngs Moduli (GPa) = 84.20272 49.79483 72.00433
#
# Poissons Ratio (x) = 0.03415 0.49256
# Poissons Ratio (y) = 0.05775 0.22710
# Poissons Ratio (z) = 0.57600 0.15705
#
# Static dielectric constant tensor:
#      x y z
#    x 3.617690 0.000000 0.114150 
#    y 0.000000 3.836280 0.000000 
#    z 0.114150 0.000000 3.730310 
# 
# 
# High freq. dielectric constant tensor:
#      x y z
#    x 1.790360 0.000000 0.000040 
#    y 0.000000 1.802990 0.000000 
#    z 0.000040 0.000000 1.802550 
# 
# From -- ./inp_files/138644.got.cif
#   From: 2010.06.25/outbox.cif.g09.slc.cpg/sg12_70_cif.got.tgz:138644.got - 2010.06.28 00:19:55.
