data_PCOD8109840
_publ_section_title
;
Structure prediction by ZEFSAII (Michael W. Deem and Ramdas Pophale) SiO2 
 PCOD8109840
Probable space group: C 2/M
;
_chemical_formula_sum "Si O2"
_cell_formula_units_Z 40
_cell_length_a 30.153878
_cell_length_b 8.637539
_cell_length_c 15.208838
_cell_angle_alpha 90.000000
_cell_angle_beta 29.901587
_cell_angle_gamma 90.000000
_cell_volume 1974.715926
_symmetry_space_group_name_H-M "C 2/M"
_symmetry_group_IT_number 12
_symmetry_cell_setting 'monoclinic'
loop_
_space_group_symop_operation_xyz
x,y,z
-x,y,-z
-x,-y,-z
x,-y,z
1/2+x,1/2+y,z
1/2-x,1/2+y,-z
1/2-x,1/2-y,-z
1/2+x,1/2-y,z
loop_
_atom_site_type_symbol
_atom_site_label
_atom_site_fract_x
_atom_site_fract_y
_atom_site_fract_z
Si Si1 0.300147 0.319567 0.681018
Si Si2 0.110231 0.682926 0.063993
Si Si3 0.517874 0.816820 0.565882
Si Si4 0.201266 0.677571 0.501194
Si Si5 0.998324 0.322704 0.098876
O O1 0.323086 0.500000 0.644911
O O2 0.383730 0.224349 0.571425
O O3 0.272354 0.273101 0.630378
O O4 0.215131 0.278949 0.888986
O O5 0.093645 0.500000 0.089674
O O6 0.057608 0.751733 0.238729
O O7 0.068476 0.754968 0.045896
O O8 0.500000 0.745825 0.500000
O O9 0.510582 0.000000 0.575272
O O10 0.230605 0.500000 0.439660
O O11 0.250000 0.750000 0.500000
O O12 0.096547 0.692361 0.693045
O O13 0.026550 0.500000 0.035255
O O14 0.000000 0.239227 0.000000
#
# Coordination Sequence:
#
# PCOD8109840 Si02
#       5
#     8   8   8   8   8
#     4  11  22  37  60  87 119 154 193 242 296 349
#     4   9  18  35  57  83 115 154 195 234 290 360
#     4  10  21  40  64  86 113 154 200 244 293 352
#     4  11  21  35  57  84 119 158 198 240 288 347
#     4   9  16  29  53  79 106 148 194 228 273 345
#
# _framework density 20.256077000000001
#
# number of rings (size 3 to 8) (size 9 to 14) (size 15 to 20)
#    0.000    2.000    2.000    2.400    0.000    4.400 
#    0.000    2.000    0.000    2.400    0.000    0.000 
#    0.000    0.000    0.000    0.000    0.000    0.000 
#
# Total GULP energy -247958.147507 kJ/mol
# GULP energy per Si atom -12397.907375 kJ/mol
# Density = 2.020997 g / cm^3
# Si number density = 20.256077 Si / 1000 Ang^3
#
#
#
# Elastic Constant Matrix: (Units=GPa)
#
#
# Indices 1 2 3 4 5 6 
#
# 1 121.7576 -1.1420 56.9052 0.0000 20.2794 0.0000
# 2 -1.1420 15.8213 9.5286 0.0000 3.0481 0.0000
# 3 56.9052 9.5286 129.2785 0.0000 16.2357 0.0000
# 4 0.0000 0.0000 0.0000 21.1159 0.0000 -3.9198
# 5 20.2794 3.0481 16.2357 0.0000 34.3252 0.0000
# 6 0.0000 0.0000 0.0000 -3.9198 0.0000 21.8964
#
#
#
# Elastic Compliance Matrix: (Units=1/GPa)
#
#
# Indices 1 2 3 4 5 6 
#
# 1 0.011249 0.004563 -0.004680 0.000000 -0.004837 0.000000
# 2 0.004563 0.068460 -0.006328 0.000000 -0.005782 0.000000
# 3 -0.004680 -0.006328 0.010466 0.000000 -0.001623 0.000000
# 4 0.000000 0.000000 0.000000 0.048986 0.000000 0.008769
# 5 -0.004837 -0.005782 -0.001623 0.000000 0.033272 0.000000
# 6 0.000000 0.000000 0.000000 0.008769 0.000000 0.047239
#
#
# Mechanical properties :
#
#
# Convention : Reuss Voigt Hill
#
# Bulk Modulus (GPa) = 12.93944 44.16011 28.54978
# Shear Modulus (GPa) = 19.35550 28.90522 24.13036
#
# Velocity S-wave (km/s) = 3.09454 3.78165 3.45522
# Velocity P-wave (km/s) = 4.37836 6.39657 5.48115
#
# Compressibility (1/GPa) = 0.07728309
#
# Stress axis : x y z
#
# Youngs Moduli (GPa) = 88.89761 14.60703 95.55062
#
# Poissons Ratio (x) = -0.06665 0.44720
# Poissons Ratio (y) = -0.40561 0.60466
# Poissons Ratio (z) = 0.41607 0.09244
#
# Static dielectric constant tensor:
#      x y z
#    x 3.830150 0.000000 0.211640 
#    y 0.000000 3.305350 0.000000 
#    z 0.211640 0.000000 3.971920 
# 
# 
# High freq. dielectric constant tensor:
#      x y z
#    x 1.797660 0.000000 0.002600 
#    y 0.000000 1.744890 0.000000 
#    z 0.002600 0.000000 1.805510 
# 
# From -- ./inp_files/211254.got.cif
#   From: 2010.06.25/outbox.cif.g09.slc.cpg/sg12_106_cif.got.tgz:211254.got - 2010.06.28 00:19:55.
