data_PCOD8109702
_publ_section_title
;
Structure prediction by ZEFSAII (Michael W. Deem and Ramdas Pophale) SiO2 
 PCOD8109702
Probable space group: C 2/M
;
_chemical_formula_sum "Si O2"
_cell_formula_units_Z 56
_cell_length_a 18.033033
_cell_length_b 13.875155
_cell_length_c 22.618784
_cell_angle_alpha 90.000000
_cell_angle_beta 30.351310
_cell_angle_gamma 90.000000
_cell_volume 2859.734418
_symmetry_space_group_name_H-M "C 2/M"
_symmetry_group_IT_number 12
_symmetry_cell_setting 'monoclinic'
loop_
_space_group_symop_operation_xyz
x,y,z
-x,y,-z
-x,-y,-z
x,-y,z
1/2+x,1/2+y,z
1/2-x,1/2+y,-z
1/2-x,1/2-y,-z
1/2+x,1/2-y,z
loop_
_atom_site_type_symbol
_atom_site_label
_atom_site_fract_x
_atom_site_fract_y
_atom_site_fract_z
Si Si1 0.827981 0.889726 0.369998
Si Si2 0.547875 0.890290 0.754760
Si Si3 0.024331 0.294010 0.551159
Si Si4 0.767404 0.109151 0.076273
Si Si5 0.358886 0.391394 0.484471
Si Si6 0.263873 0.611683 0.213137
Si Si7 0.476718 0.294772 0.161163
O O1 0.677987 0.833354 0.467018
O O2 0.885541 0.877057 0.396670
O O3 0.949367 0.847723 0.242201
O O4 0.798183 0.000000 0.374400
O O5 0.405522 0.870984 0.811954
O O6 0.689561 0.867852 0.617099
O O7 0.543182 0.819906 0.814963
O O8 0.550310 0.000000 0.776858
O O9 0.028182 0.178804 0.559395
O O10 0.000000 0.317558 0.500000
O O11 0.899422 0.346527 0.674070
O O12 0.819210 0.123858 0.108120
O O13 0.805717 0.000000 0.030604
O O14 0.858135 0.182040 0.972708
O O15 0.398240 0.500000 0.476719
O O16 0.264448 0.500000 0.232126
O O17 0.363768 0.672063 0.188784
#
# Coordination Sequence:
#
# PCOD8109702 Si02
#       7
#     8   8   8   8   8   8   8
#     4  11  22  35  56  85 118 148 185 238 293 341
#     4  10  21  40  61  85 112 151 199 236 281 339
#     4  12  22  36  58  86 117 152 190 234 289 342
#     4  10  22  39  61  86 114 150 194 238 285 342
#     4  10  22  40  59  82 116 156 195 236 282 343
#     4  11  23  38  59  86 120 154 189 234 289 349
#     4  12  22  37  59  88 117 153 189 239 289 340
#
# _framework density 19.582236999999999
#
# number of rings (size 3 to 8) (size 9 to 14) (size 15 to 20)
#    0.000    1.143    2.857    3.857    2.000    4.286 
#    0.000    0.714    0.000    1.714    0.000    0.000 
#    0.000    0.000    0.000    0.000    0.000    0.000 
#
# Total GULP energy -347292.315316 kJ/mol
# GULP energy per Si atom -12403.296976 kJ/mol
# Density = 1.953767 g / cm^3
# Si number density = 19.582237 Si / 1000 Ang^3
#
#
#
# Elastic Constant Matrix: (Units=GPa)
#
#
# Indices 1 2 3 4 5 6 
#
# 1 50.5197 41.8049 22.3000 0.0016 2.7327 0.0057
# 2 41.8049 120.2536 33.9894 0.0132 10.0607 0.0062
# 3 22.3000 33.9894 86.3266 0.0113 15.3236 0.0121
# 4 0.0016 0.0132 0.0113 24.9528 -0.0069 5.2473
# 5 2.7327 10.0607 15.3236 -0.0069 19.7168 -0.0075
# 6 0.0057 0.0062 0.0121 5.2473 -0.0075 31.2575
#
#
#
# Elastic Compliance Matrix: (Units=1/GPa)
#
#
# Indices 1 2 3 4 5 6 
#
# 1 0.029247 -0.009199 -0.004694 0.000007 0.004289 -0.000002
# 2 -0.009199 0.012335 -0.001844 -0.000006 -0.003586 0.000000
# 3 -0.004694 -0.001844 0.015359 -0.000007 -0.010345 -0.000006
# 4 0.000007 -0.000006 -0.000007 0.041542 0.000020 -0.006974
# 5 0.004289 -0.003586 -0.010345 0.000020 0.059994 0.000015
# 6 -0.000002 0.000000 -0.000006 -0.006974 0.000015 0.033163
#
#
# Mechanical properties :
#
#
# Convention : Reuss Voigt Hill
#
# Bulk Modulus (GPa) = 39.26814 50.36538 44.81676
# Shear Modulus (GPa) = 21.58866 25.78579 23.68723
#
# Velocity S-wave (km/s) = 3.32394 3.63270 3.48174
# Velocity P-wave (km/s) = 5.90151 6.58568 6.25296
#
# Compressibility (1/GPa) = 0.02546594
#
# Stress axis : x y z
#
# Youngs Moduli (GPa) = 34.19178 81.07049 65.10900
#
# Poissons Ratio (x) = 0.74579 0.30564
# Poissons Ratio (y) = 0.31454 0.12004
# Poissons Ratio (z) = 0.16051 0.14947
#
# Static dielectric constant tensor:
#      x y z
#    x 3.891160 -0.000020 0.188470 
#    y -0.000020 3.894050 0.000010 
#    z 0.188470 0.000010 3.735170 
# 
# 
# High freq. dielectric constant tensor:
#      x y z
#    x 1.751620 0.000000 0.003780 
#    y 0.000000 1.772400 0.000000 
#    z 0.003780 0.000000 1.764170 
# 
# From -- ./inp_files/183526.got.cif
#   From: 2010.06.25/outbox.cif.g09.slc.cpg/sg12_92_cif.got.tgz:183526.got - 2010.06.28 00:19:55.
