data_PCOD8109328
_publ_section_title
;
Structure prediction by ZEFSAII (Michael W. Deem and Ramdas Pophale) SiO2 
 PCOD8109328
Probable space group: C 2/M
;
_chemical_formula_sum "Si O2"
_cell_formula_units_Z 64
_cell_length_a 18.973118
_cell_length_b 9.038404
_cell_length_c 30.090793
_cell_angle_alpha 90.000000
_cell_angle_beta 38.596741
_cell_angle_gamma 90.000000
_cell_volume 3219.095987
_symmetry_space_group_name_H-M "C 2/M"
_symmetry_group_IT_number 12
_symmetry_cell_setting 'monoclinic'
loop_
_space_group_symop_operation_xyz
x,y,z
-x,y,-z
-x,-y,-z
x,-y,z
1/2+x,1/2+y,z
1/2-x,1/2+y,-z
1/2-x,1/2-y,-z
1/2+x,1/2-y,z
loop_
_atom_site_type_symbol
_atom_site_label
_atom_site_fract_x
_atom_site_fract_y
_atom_site_fract_z
Si Si1 0.457058 0.332051 0.570919
Si Si2 0.518458 0.671547 0.940485
Si Si3 0.130042 0.827383 0.560234
Si Si4 0.371792 0.175704 0.938810
Si Si5 0.273369 0.332881 0.302661
Si Si6 0.956509 0.171595 0.720385
Si Si7 0.495050 0.825545 0.215098
Si Si8 0.753112 0.335078 0.785133
O O1 0.500000 0.324869 0.500000
O O2 0.424808 0.500000 0.600391
O O3 0.552416 0.270457 0.557657
O O4 0.349150 0.228884 0.626501
O O5 0.486832 0.500000 0.947498
O O6 0.442391 0.772798 0.946539
O O7 0.650593 0.701740 0.868238
O O8 0.500000 0.719650 0.000000
O O9 0.250000 0.750000 0.500000
O O10 0.069710 0.791334 0.636895
O O11 0.151690 0.000000 0.543834
O O12 0.436120 0.226795 0.862220
O O13 0.357693 0.000000 0.947116
O O14 0.250000 0.250000 0.000000
O O15 0.280209 0.500000 0.317535
O O16 0.368855 0.237870 0.279621
O O17 0.298776 0.325856 0.238162
O O18 0.942958 0.266361 0.771655
O O19 0.850412 0.213607 0.741886
O O20 0.950849 0.000000 0.735422
O O21 0.487655 0.000000 0.220699
O O22 0.801909 0.500000 0.770228
#
# Coordination Sequence:
#
# PCOD8109328 Si02
#       8
#     8   8   8   8   8   8   8   8
#     4  10  22  41  63  89 122 163 206 249 303 364
#     4  10  22  41  65  92 126 164 203 250 303 361
#     4  10  23  41  60  87 124 162 202 249 303 361
#     4  11  25  43  64  90 124 164 206 254 308 365
#     4  11  22  39  65  93 122 158 203 257 308 358
#     4  11  24  41  63  92 125 161 204 256 306 360
#     4  11  25  43  64  90 123 164 207 252 308 369
#     4  10  21  39  63  91 123 161 203 250 305 362
#
# _framework density 19.881357999999999
#
# number of rings (size 3 to 8) (size 9 to 14) (size 15 to 20)
#    0.000    1.500    2.500    1.500    3.500    4.500 
#    0.000    0.000    0.000    0.000    0.000    0.000 
#    0.000    0.000    0.000    0.000    0.000    0.000 
#
# Total GULP energy -396935.848970 kJ/mol
# GULP energy per Si atom -12404.245280 kJ/mol
# Density = 1.983611 g / cm^3
# Si number density = 19.881358 Si / 1000 Ang^3
#
#
#
# Elastic Constant Matrix: (Units=GPa)
#
#
# Indices 1 2 3 4 5 6 
#
# 1 83.9886 38.0263 27.8007 0.0002 -1.3595 -0.0001
# 2 38.0263 81.5493 46.4432 0.0006 -2.9508 -0.0004
# 3 27.8007 46.4432 94.5254 -0.0001 -2.1893 -0.0001
# 4 0.0002 0.0006 -0.0001 31.3149 0.0000 -4.2431
# 5 -1.3595 -2.9508 -2.1893 0.0000 33.9354 0.0004
# 6 -0.0001 -0.0004 -0.0001 -4.2431 0.0004 39.0006
#
#
#
# Elastic Compliance Matrix: (Units=1/GPa)
#
#
# Indices 1 2 3 4 5 6 
#
# 1 0.015220 -0.006316 -0.001374 0.000000 -0.000028 0.000000
# 2 -0.006316 0.019678 -0.007789 0.000000 0.000956 0.000000
# 3 -0.001374 -0.007789 0.014815 0.000000 0.000224 0.000000
# 4 0.000000 0.000000 0.000000 0.032411 0.000000 0.003526
# 5 -0.000028 0.000956 0.000224 0.000000 0.029564 0.000000
# 6 0.000000 0.000000 0.000000 0.003526 0.000000 0.026024
#
#
# Mechanical properties :
#
#
# Convention : Reuss Voigt Hill
#
# Bulk Modulus (GPa) = 53.31449 53.84485 53.57967
# Shear Modulus (GPa) = 28.58418 30.70306 29.64362
#
# Velocity S-wave (km/s) = 3.79586 3.93404 3.86557
# Velocity P-wave (km/s) = 6.78867 6.91212 6.85067
#
# Compressibility (1/GPa) = 0.01875663
#
# Stress axis : x y z
#
# Youngs Moduli (GPa) = 65.70233 50.81861 67.49804
#
# Poissons Ratio (x) = 0.32095 0.09274
# Poissons Ratio (y) = 0.41495 0.52572
# Poissons Ratio (z) = 0.09027 0.39581
#
# Static dielectric constant tensor:
#      x y z
#    x 3.997860 0.000000 0.359250 
#    y 0.000000 3.651730 0.000000 
#    z 0.359250 0.000000 3.832250 
# 
# 
# High freq. dielectric constant tensor:
#      x y z
#    x 1.782350 0.000000 0.002840 
#    y 0.000000 1.775380 0.000000 
#    z 0.002840 0.000000 1.785030 
# 
# From -- ./inp_files/378173.got.cif
#   From: 2010.06.25/outbox.cif.g09.slc.cpg/sg12_190_cif.got.tgz:378173.got - 2010.06.28 00:19:55.
