data_PCOD8109204
_publ_section_title
;
Structure prediction by ZEFSAII (Michael W. Deem and Ramdas Pophale) SiO2 
 PCOD8109204
Probable space group: C 2/M
;
_chemical_formula_sum "Si O2"
_cell_formula_units_Z 48
_cell_length_a 22.402943
_cell_length_b 13.456687
_cell_length_c 8.118729
_cell_angle_alpha 90.000000
_cell_angle_beta 87.459549
_cell_angle_gamma 90.000000
_cell_volume 2445.142788
_symmetry_space_group_name_H-M "C 2/M"
_symmetry_group_IT_number 12
_symmetry_cell_setting 'monoclinic'
loop_
_space_group_symop_operation_xyz
x,y,z
-x,y,-z
-x,-y,-z
x,-y,z
1/2+x,1/2+y,z
1/2-x,1/2+y,-z
1/2-x,1/2-y,-z
1/2+x,1/2-y,z
loop_
_atom_site_type_symbol
_atom_site_label
_atom_site_fract_x
_atom_site_fract_y
_atom_site_fract_z
Si Si1 0.226018 0.000000 0.612860
Si Si2 0.631946 0.500000 0.917074
Si Si3 0.431094 0.296684 0.049927
Si Si4 0.904325 0.210737 0.697236
Si Si5 0.641496 0.500000 0.306015
Si Si6 0.901043 0.388686 0.283170
Si Si7 0.000000 0.320780 0.500000
Si Si8 0.197634 0.325114 0.475054
O O1 0.182964 0.000000 0.774001
O O2 0.270762 0.090506 0.633135
O O3 0.196687 0.000000 0.430749
O O4 0.592894 0.401944 0.878482
O O5 0.657391 0.500000 0.104925
O O6 0.419377 0.201465 0.163950
O O7 0.500000 0.311134 0.000000
O O8 0.394555 0.272752 0.890515
O O9 0.969776 0.248128 0.637572
O O10 0.852923 0.273322 0.622208
O O11 0.898749 0.095370 0.648566
O O12 0.902671 0.500000 0.201944
O O13 0.949648 0.389878 0.424271
O O14 0.833860 0.368584 0.356521
O O15 0.250000 0.250000 0.500000
#
# Coordination Sequence:
#
# PCOD8109204 Si02
#       8
#     4   4   8   8   4   8   4   8
#     4  12  22  43  67  92 122 180 212 267 336 369
#     4  10  25  42  66 100 129 168 223 275 321 394
#     4  11  22  43  63  96 133 168 210 269 334 384
#     4  10  22  40  62  93 128 165 216 267 323 386
#     4  10  22  40  65  94 131 164 215 272 323 387
#     4  11  23  41  62  94 129 170 217 264 324 393
#     4  10  21  39  62  90 126 167 216 263 316 392
#     4  11  22  41  64  91 123 164 223 267 315 390
#
# _framework density 19.630756000000002
#
# number of rings (size 3 to 8) (size 9 to 14) (size 15 to 20)
#    0.000    1.333    4.167    1.500    2.333    0.667 
#    4.500    2.500    0.000    0.000    0.000    0.000 
#    0.000    0.000    0.000    0.000    0.000    0.000 
#
# Total GULP energy -297384.344038 kJ/mol
# GULP energy per Si atom -12391.014335 kJ/mol
# Density = 1.958608 g / cm^3
# Si number density = 19.630756 Si / 1000 Ang^3
#
#
#
# Elastic Constant Matrix: (Units=GPa)
#
#
# Indices 1 2 3 4 5 6 
#
# 1 85.5606 49.8756 35.2498 0.0000 -27.6967 0.0000
# 2 49.8756 178.1177 56.4765 0.0000 -21.1255 0.0000
# 3 35.2498 56.4765 83.5581 0.0000 -20.0491 0.0000
# 4 0.0000 0.0000 0.0000 32.2887 0.0000 -9.4069
# 5 -27.6967 -21.1255 -20.0491 0.0000 38.0298 0.0000
# 6 0.0000 0.0000 0.0000 -9.4069 0.0000 22.4672
#
#
#
# Elastic Compliance Matrix: (Units=1/GPa)
#
#
# Indices 1 2 3 4 5 6 
#
# 1 0.017809 -0.002791 -0.003304 0.000000 0.009677 0.000000
# 2 -0.002791 0.007672 -0.003976 0.000000 0.000133 0.000000
# 3 -0.003304 -0.003976 0.017106 0.000000 0.004403 0.000000
# 4 0.000000 0.000000 0.000000 0.035273 0.000000 0.014769
# 5 0.009677 0.000133 0.004403 0.000000 0.035738 0.000000
# 6 0.000000 0.000000 0.000000 0.014769 0.000000 0.050693
#
#
# Mechanical properties :
#
#
# Convention : Reuss Voigt Hill
#
# Bulk Modulus (GPa) = 44.55703 70.04891 57.30297
# Shear Modulus (GPa) = 26.05313 32.26610 29.15962
#
# Velocity S-wave (km/s) = 3.64697 4.05859 3.85828
# Velocity P-wave (km/s) = 6.36244 7.59761 7.00729
#
# Compressibility (1/GPa) = 0.02244315
#
# Stress axis : x y z
#
# Youngs Moduli (GPa) = 56.15254 130.33710 58.46035
#
# Poissons Ratio (x) = 0.36380 0.19316
# Poissons Ratio (y) = 0.15674 0.23246
# Poissons Ratio (z) = 0.18554 0.51827
#
# Static dielectric constant tensor:
#      x y z
#    x 3.760290 0.000000 -0.063660 
#    y 0.000000 3.801890 0.000000 
#    z -0.063660 0.000000 3.683890 
# 
# 
# High freq. dielectric constant tensor:
#      x y z
#    x 1.769820 0.000000 -0.004370 
#    y 0.000000 1.785830 0.000000 
#    z -0.004370 0.000000 1.753500 
# 
# From -- ./inp_files/85739.got.cif
#   From: 2010.06.25/outbox.cif.g09.slc.cpg/sg12_43_cif.got.tgz:85739.got - 2010.06.28 00:19:55.
