data_PCOD8109294
_publ_section_title
;
Structure prediction by ZEFSAII (Michael W. Deem and Ramdas Pophale) SiO2 
 PCOD8109294
Probable space group: C 2/M
;
_chemical_formula_sum "Si O2"
_cell_formula_units_Z 56
_cell_length_a 9.621477
_cell_length_b 14.382897
_cell_length_c 29.143665
_cell_angle_alpha 90.000000
_cell_angle_beta 139.178321
_cell_angle_gamma 90.000000
_cell_volume 2636.424905
_symmetry_space_group_name_H-M "C 2/M"
_symmetry_group_IT_number 12
_symmetry_cell_setting 'monoclinic'
loop_
_space_group_symop_operation_xyz
x,y,z
-x,y,-z
-x,-y,-z
x,-y,z
1/2+x,1/2+y,z
1/2-x,1/2+y,-z
1/2-x,1/2-y,-z
1/2+x,1/2-y,z
loop_
_atom_site_type_symbol
_atom_site_label
_atom_site_fract_x
_atom_site_fract_y
_atom_site_fract_z
Si Si1 0.166938 0.235325 0.755526
Si Si2 0.796383 0.736439 0.339815
Si Si3 0.169220 0.610242 0.004985
Si Si4 0.460574 0.604953 0.438973
Si Si5 0.441940 0.109158 0.123856
Si Si6 0.152772 0.891133 0.137411
Si Si7 0.936073 0.605026 0.532627
O O1 0.125955 0.246330 0.691792
O O2 0.341199 0.156769 0.806854
O O3 0.228646 0.333566 0.793707
O O4 0.945370 0.199189 0.721609
O O5 0.797583 0.831008 0.370240
O O6 0.960769 0.662268 0.400671
O O7 0.154709 0.500000 0.000212
O O8 0.407290 0.641033 0.077291
O O9 0.000000 0.650113 0.000000
O O10 0.119864 0.648915 0.941741
O O11 0.500000 0.642530 0.500000
O O12 0.367366 0.500000 0.416964
O O13 0.683745 0.609292 0.469160
O O14 0.252762 0.131360 0.112432
O O15 0.486263 0.000000 0.132906
O O16 0.177156 0.000000 0.155047
O O17 0.020464 0.500000 0.558610
O O18 0.000000 0.649106 0.500000
#
# Coordination Sequence:
#
# PCOD8109294 Si02
#       7
#     8   8   8   8   8   8   8
#     4  12  26  40  58  92 128 171 214 248 303 382
#     4  12  24  39  60  87 128 165 202 252 311 369
#     4   9  19  36  67 100 120 154 210 270 319 354
#     4  10  21  39  65  92 117 154 207 259 308 366
#     4  10  22  43  65  88 125 168 211 258 311 371
#     4  10  22  43  65  88 125 168 211 259 310 370
#     4  10  21  39  63  90 117 152 202 258 313 363
#
# _framework density 21.240884000000001
#
# number of rings (size 3 to 8) (size 9 to 14) (size 15 to 20)
#    0.000    1.571    1.429    3.000    2.000    4.571 
#    0.000    0.000    0.000    0.000    0.000    0.000 
#    0.000    0.000    0.000    0.000    0.000    0.000 
#
# Total GULP energy -347295.902317 kJ/mol
# GULP energy per Si atom -12403.425083 kJ/mol
# Density = 2.119254 g / cm^3
# Si number density = 21.240884 Si / 1000 Ang^3
#
#
#
# Elastic Constant Matrix: (Units=GPa)
#
#
# Indices 1 2 3 4 5 6 
#
# 1 100.2892 13.6159 21.1191 0.0000 -5.7867 0.0000
# 2 13.6159 60.6170 28.3495 0.0000 -8.1985 0.0000
# 3 21.1191 28.3495 92.6563 0.0000 -11.2304 0.0000
# 4 0.0000 0.0000 0.0000 12.6997 0.0000 -8.2032
# 5 -5.7867 -8.1985 -11.2304 0.0000 50.1685 0.0000
# 6 0.0000 0.0000 0.0000 -8.2032 0.0000 21.8301
#
#
#
# Elastic Compliance Matrix: (Units=1/GPa)
#
#
# Indices 1 2 3 4 5 6 
#
# 1 0.010598 -0.001408 -0.001917 0.000000 0.000563 0.000000
# 2 -0.001408 0.019613 -0.005459 0.000000 0.001821 0.000000
# 3 -0.001917 -0.005459 0.013121 0.000000 0.001824 0.000000
# 4 0.000000 0.000000 0.000000 0.103981 0.000000 0.039074
# 5 0.000563 0.001821 0.001824 0.000000 0.020704 0.000000
# 6 0.000000 0.000000 0.000000 0.039074 0.000000 0.060491
#
#
# Mechanical properties :
#
#
# Convention : Reuss Voigt Hill
#
# Bulk Modulus (GPa) = 38.81349 42.19239 40.50294
# Shear Modulus (GPa) = 19.63374 29.63819 24.63596
#
# Velocity S-wave (km/s) = 3.04359 3.73947 3.40933
# Velocity P-wave (km/s) = 5.53750 6.20901 5.88284
#
# Compressibility (1/GPa) = 0.02576424
#
# Stress axis : x y z
#
# Youngs Moduli (GPa) = 94.35348 50.98736 76.21481
#
# Poissons Ratio (x) = 0.07180 0.14607
# Poissons Ratio (y) = 0.13286 0.41607
# Poissons Ratio (z) = 0.18084 0.27835
#
# Static dielectric constant tensor:
#      x y z
#    x 4.067870 0.000000 -0.050400 
#    y 0.000000 3.786170 0.000000 
#    z -0.050400 0.000000 3.788740 
# 
# 
# High freq. dielectric constant tensor:
#      x y z
#    x 1.850150 0.000000 -0.000990 
#    y 0.000000 1.829350 0.000000 
#    z -0.000990 0.000000 1.830380 
# 
# From -- ./inp_files/300133.got.cif
#   From: 2010.06.25/outbox.cif.g09.slc.cpg/sg12_151_cif.got.tgz:300133.got - 2010.06.28 00:19:55.
