data_PCOD8109501
_publ_section_title
;
Structure prediction by ZEFSAII (Michael W. Deem and Ramdas Pophale) SiO2 
 PCOD8109501
Probable space group: C 2/M
;
_chemical_formula_sum "Si O2"
_cell_formula_units_Z 56
_cell_length_a 18.100010
_cell_length_b 17.373734
_cell_length_c 8.392198
_cell_angle_alpha 90.000000
_cell_angle_beta 72.535444
_cell_angle_gamma 90.000000
_cell_volume 2517.397654
_symmetry_space_group_name_H-M "C 2/M"
_symmetry_group_IT_number 12
_symmetry_cell_setting 'monoclinic'
loop_
_space_group_symop_operation_xyz
x,y,z
-x,y,-z
-x,-y,-z
x,-y,z
1/2+x,1/2+y,z
1/2-x,1/2+y,-z
1/2-x,1/2-y,-z
1/2+x,1/2-y,z
loop_
_atom_site_type_symbol
_atom_site_label
_atom_site_fract_x
_atom_site_fract_y
_atom_site_fract_z
Si Si1 0.986733 0.086177 0.336917
Si Si2 0.927999 0.708509 0.650036
Si Si3 0.942296 0.411540 0.900331
Si Si4 0.790131 0.330504 0.507816
Si Si5 0.209647 0.410966 0.810796
Si Si6 0.637041 0.646634 0.127807
Si Si7 0.155927 0.091249 0.772708
O O1 0.918292 0.124106 0.277138
O O2 0.000000 0.127957 0.500000
O O3 0.067333 0.085516 0.189620
O O4 0.958029 0.000000 0.388571
O O5 0.958063 0.635994 0.730963
O O6 0.860924 0.680980 0.578525
O O7 0.897037 0.771335 0.796429
O O8 0.000000 0.740453 0.500000
O O9 0.960674 0.500000 0.848818
O O10 0.853074 0.400287 0.009813
O O11 0.000000 0.381881 0.000000
O O12 0.750000 0.250000 0.500000
O O13 0.821473 0.366989 0.324184
O O14 0.731421 0.392300 0.620679
O O15 0.222596 0.500000 0.762209
O O16 0.291051 0.374287 0.808105
O O17 0.662500 0.643113 0.927514
O O18 0.150554 0.000000 0.816283
#
# Coordination Sequence:
#
# PCOD8109501 Si02
#       7
#     8   8   8   8   8   8   8
#     4  10  21  39  64  95 135 177 220 269 328 402
#     4  12  28  46  69 101 138 183 229 278 350 412
#     4  10  24  47  74 102 133 178 237 295 348 401
#     4  12  26  44  67  97 139 179 227 284 338 405
#     4  11  23  43  73 101 134 180 225 279 347 413
#     4  12  24  40  65 100 142 175 224 276 339 412
#     4  11  25  43  68 101 134 181 231 278 335 408
#
# _framework density 22.245194999999999
#
# number of rings (size 3 to 8) (size 9 to 14) (size 15 to 20)
#    0.000    0.857    1.429    5.143    4.000    7.143 
#    0.000    0.000    0.000    0.000    0.000    0.000 
#    0.000    0.000    0.000    0.000    0.000    0.000 
#
# Total GULP energy -347304.418458 kJ/mol
# GULP energy per Si atom -12403.729231 kJ/mol
# Density = 2.219456 g / cm^3
# Si number density = 22.245195 Si / 1000 Ang^3
#
#
#
# Elastic Constant Matrix: (Units=GPa)
#
#
# Indices 1 2 3 4 5 6 
#
# 1 139.9302 37.2964 21.2762 0.0000 17.1542 0.0000
# 2 37.2964 93.1687 43.2617 0.0000 15.6681 0.0000
# 3 21.2762 43.2617 85.8054 0.0000 19.1516 0.0000
# 4 0.0000 0.0000 0.0000 16.6789 0.0000 -0.8891
# 5 17.1542 15.6681 19.1516 0.0000 45.6656 0.0000
# 6 0.0000 0.0000 0.0000 -0.8891 0.0000 28.6205
#
#
#
# Elastic Compliance Matrix: (Units=1/GPa)
#
#
# Indices 1 2 3 4 5 6 
#
# 1 0.008181 -0.002875 -0.000125 0.000000 -0.002034 0.000000
# 2 -0.002875 0.015198 -0.006649 0.000000 -0.001346 0.000000
# 3 -0.000125 -0.006649 0.016017 0.000000 -0.004389 0.000000
# 4 0.000000 0.000000 0.000000 0.060055 0.000000 0.001866
# 5 -0.002034 -0.001346 -0.004389 0.000000 0.024965 0.000000
# 6 0.000000 0.000000 0.000000 0.001866 0.000000 0.034998
#
#
# Mechanical properties :
#
#
# Convention : Reuss Voigt Hill
#
# Bulk Modulus (GPa) = 49.75604 58.06367 53.90986
# Shear Modulus (GPa) = 26.96692 32.66434 29.81563
#
# Velocity S-wave (km/s) = 3.48553 3.83610 3.66501
# Velocity P-wave (km/s) = 6.21403 6.76603 6.49590
#
# Compressibility (1/GPa) = 0.02009806
#
# Stress axis : x y z
#
# Youngs Moduli (GPa) = 122.23350 65.79864 62.43210
#
# Poissons Ratio (x) = 0.18916 0.00781
# Poissons Ratio (y) = 0.35139 0.41513
# Poissons Ratio (z) = 0.01529 0.43751
#
# Static dielectric constant tensor:
#      x y z
#    x 4.057720 0.000000 0.066500 
#    y 0.000000 3.909650 0.000000 
#    z 0.066500 0.000000 4.035790 
# 
# 
# High freq. dielectric constant tensor:
#      x y z
#    x 1.889850 0.000000 0.004230 
#    y 0.000000 1.875470 0.000000 
#    z 0.004230 0.000000 1.880700 
# 
# From -- ./inp_files/75889.got.cif
#   From: 2010.06.25/outbox.cif.g09.slc.cpg/sg12_38_cif.got.tgz:75889.got - 2010.06.28 00:19:55.
