data_PCOD8109757
_publ_section_title
;
Structure prediction by ZEFSAII (Michael W. Deem and Ramdas Pophale) SiO2 
 PCOD8109757
Probable space group: C 2/M
;
_chemical_formula_sum "Si O2"
_cell_formula_units_Z 56
_cell_length_a 20.108900
_cell_length_b 13.952250
_cell_length_c 9.512708
_cell_angle_alpha 90.000000
_cell_angle_beta 85.852757
_cell_angle_gamma 90.000000
_cell_volume 2661.938603
_symmetry_space_group_name_H-M "C 2/M"
_symmetry_group_IT_number 12
_symmetry_cell_setting 'monoclinic'
loop_
_space_group_symop_operation_xyz
x,y,z
-x,y,-z
-x,-y,-z
x,-y,z
1/2+x,1/2+y,z
1/2-x,1/2+y,-z
1/2-x,1/2-y,-z
1/2+x,1/2-y,z
loop_
_atom_site_type_symbol
_atom_site_label
_atom_site_fract_x
_atom_site_fract_y
_atom_site_fract_z
Si Si1 0.539784 0.888848 0.850908
Si Si2 0.277513 0.657534 0.571002
Si Si3 0.389659 0.388641 0.753992
Si Si4 0.811316 0.390280 0.161794
Si Si5 0.699929 0.388410 0.979154
Si Si6 0.351869 0.393878 0.302574
Si Si7 0.516209 0.278862 0.657867
O O1 0.614670 0.847736 0.859305
O O2 0.507042 0.822948 0.736507
O O3 0.538374 0.000000 0.802090
O O4 0.500000 0.874635 0.000000
O O5 0.250000 0.750000 0.500000
O O6 0.342456 0.674372 0.659034
O O7 0.218516 0.614966 0.675889
O O8 0.299813 0.590708 0.437752
O O9 0.382991 0.500000 0.709448
O O10 0.465472 0.355442 0.731663
O O11 0.366539 0.374302 0.917846
O O12 0.816572 0.500000 0.118621
O O13 0.763269 0.340256 0.051533
O O14 0.715855 0.500000 0.956936
O O15 0.685987 0.344720 0.826093
O O16 0.379258 0.500000 0.257639
O O17 0.410588 0.323440 0.339781
O O18 0.500000 0.258678 0.500000
#
# Coordination Sequence:
#
# PCOD8109757 Si02
#       7
#     8   8   8   8   8   8   8
#     4  10  24  47  70  90 120 164 215 270 328 383
#     4  11  21  36  57  89 128 164 213 251 304 369
#     4  10  21  40  62  88 131 177 210 257 318 379
#     4   9  18  39  65  85 114 160 203 253 320 376
#     4   8  18  36  60  91 123 160 208 258 314 377
#     4  11  22  38  62  97 136 170 210 262 313 375
#     4  12  25  39  62  94 130 169 220 257 312 382
#
# _framework density 21.037299000000001
#
# number of rings (size 3 to 8) (size 9 to 14) (size 15 to 20)
#    0.000    1.857    1.429    3.429    2.000    0.857 
#    2.571    4.286    0.000    0.000    0.000    0.000 
#    0.000    0.000    0.000    0.000    0.000    0.000 
#
# Total GULP energy -347065.372363 kJ/mol
# GULP energy per Si atom -12395.191870 kJ/mol
# Density = 2.098942 g / cm^3
# Si number density = 21.037299 Si / 1000 Ang^3
#
#
#
# Elastic Constant Matrix: (Units=GPa)
#
#
# Indices 1 2 3 4 5 6 
#
# 1 123.0541 27.7846 68.9877 0.0000 -9.0782 0.0000
# 2 27.7846 61.1739 31.4691 0.0000 10.9267 0.0000
# 3 68.9877 31.4691 164.3963 0.0000 6.6224 0.0000
# 4 0.0000 0.0000 0.0000 28.1380 0.0000 5.3301
# 5 -9.0782 10.9267 6.6224 0.0000 35.1124 0.0000
# 6 0.0000 0.0000 0.0000 5.3301 0.0000 19.1290
#
#
#
# Elastic Compliance Matrix: (Units=1/GPa)
#
#
# Indices 1 2 3 4 5 6 
#
# 1 0.011907 -0.004054 -0.004429 0.000000 0.005175 0.000000
# 2 -0.004054 0.020438 -0.001927 0.000000 -0.007045 0.000000
# 3 -0.004429 -0.001927 0.008396 0.000000 -0.002129 0.000000
# 4 0.000000 0.000000 0.000000 0.037520 0.000000 -0.010455
# 5 0.005175 -0.007045 -0.002129 0.000000 0.032412 0.000000
# 6 0.000000 0.000000 0.000000 -0.010455 0.000000 0.055190
#
#
# Mechanical properties :
#
#
# Convention : Reuss Voigt Hill
#
# Bulk Modulus (GPa) = 50.20019 67.23411 58.71715
# Shear Modulus (GPa) = 25.86354 31.16807 28.51581
#
# Velocity S-wave (km/s) = 3.51010 3.85328 3.68569
# Velocity P-wave (km/s) = 6.35154 7.19902 6.78852
#
# Compressibility (1/GPa) = 0.01992024
#
# Stress axis : x y z
#
# Youngs Moduli (GPa) = 83.98637 48.92885 119.10222
#
# Poissons Ratio (x) = 0.19835 0.52751
# Poissons Ratio (y) = 0.34048 0.22954
# Poissons Ratio (z) = 0.37198 0.09430
#
# Static dielectric constant tensor:
#      x y z
#    x 3.433980 0.000000 0.243340 
#    y 0.000000 5.447440 0.000000 
#    z 0.243340 0.000000 4.062880 
# 
# 
# High freq. dielectric constant tensor:
#      x y z
#    x 1.820660 0.000000 -0.003520 
#    y 0.000000 1.816110 0.000000 
#    z -0.003520 0.000000 1.833290 
# 
# From -- ./inp_files/86374.got.cif
#   From: 2010.06.25/outbox.cif.g09.slc.cpg/sg12_44_cif.got.tgz:86374.got - 2010.06.28 00:19:55.
