data_PCOD8109074
_publ_section_title
;
Structure prediction by ZEFSAII (Michael W. Deem and Ramdas Pophale) SiO2 
 PCOD8109074
Probable space group: C 2/M
;
_chemical_formula_sum "Si O2"
_cell_formula_units_Z 48
_cell_length_a 11.107959
_cell_length_b 13.638706
_cell_length_c 15.780678
_cell_angle_alpha 90.000000
_cell_angle_beta 58.971705
_cell_angle_gamma 90.000000
_cell_volume 2048.659345
_symmetry_space_group_name_H-M "C 2/M"
_symmetry_group_IT_number 12
_symmetry_cell_setting 'monoclinic'
loop_
_space_group_symop_operation_xyz
x,y,z
-x,y,-z
-x,-y,-z
x,-y,z
1/2+x,1/2+y,z
1/2-x,1/2+y,-z
1/2-x,1/2-y,-z
1/2+x,1/2-y,z
loop_
_atom_site_type_symbol
_atom_site_label
_atom_site_fract_x
_atom_site_fract_y
_atom_site_fract_z
Si Si1 0.938788 0.391926 0.779059
Si Si2 0.250407 0.608573 0.601657
Si Si3 0.658231 0.116558 0.455508
Si Si4 0.653059 0.295729 0.274034
Si Si5 0.953102 0.283150 0.112853
Si Si6 0.083548 0.113425 0.749855
O O1 0.866576 0.500000 0.800741
O O2 0.865797 0.320565 0.737541
O O3 0.100427 0.400992 0.699151
O O4 0.931788 0.347438 0.876930
O O5 0.320298 0.500000 0.572713
O O6 0.229119 0.656088 0.516734
O O7 0.344315 0.682065 0.625270
O O8 0.500000 0.158951 0.500000
O O9 0.762715 0.145270 0.340953
O O10 0.647535 0.000000 0.468654
O O11 0.798068 0.330563 0.176739
O O12 0.528767 0.360683 0.281456
O O13 0.947805 0.174015 0.154035
O O14 0.000000 0.276572 0.000000
O O15 0.075359 0.000000 0.775771
#
# Coordination Sequence:
#
# PCOD8109074 Si02
#       6
#     8   8   8   8   8   8
#     4   9  20  38  62  90 122 166 214 262 318 379
#     4   9  18  36  62  90 126 171 208 248 314 380
#     4   9  19  36  62  97 135 174 214 255 306 382
#     4  10  21  39  61  92 129 160 212 271 316 376
#     4  10  23  42  62  89 129 170 214 267 325 388
#     4  10  22  40  64  96 132 170 210 262 325 377
#
# _framework density 23.429956000000001
#
# number of rings (size 3 to 8) (size 9 to 14) (size 15 to 20)
#    0.000    2.500    0.000    0.500    2.333    5.333 
#    0.000   13.333    0.000    0.000    0.000    0.000 
#    0.000    0.667    0.000    0.000    0.000    0.000 
#
# Total GULP energy -297491.737147 kJ/mol
# GULP energy per Si atom -12395.489048 kJ/mol
# Density = 2.337663 g / cm^3
# Si number density = 23.429956 Si / 1000 Ang^3
#
#
#
# Elastic Constant Matrix: (Units=GPa)
#
#
# Indices 1 2 3 4 5 6 
#
# 1 123.2350 45.9014 41.5932 0.0000 19.9831 0.0000
# 2 45.9014 135.7439 51.9222 0.0000 23.3906 0.0000
# 3 41.5932 51.9222 113.2840 0.0000 30.1098 0.0000
# 4 0.0000 0.0000 0.0000 24.9636 0.0000 -2.4461
# 5 19.9831 23.3906 30.1098 0.0000 39.6067 0.0000
# 6 0.0000 0.0000 0.0000 -2.4461 0.0000 24.7841
#
#
#
# Elastic Compliance Matrix: (Units=1/GPa)
#
#
# Indices 1 2 3 4 5 6 
#
# 1 0.009990 -0.002211 -0.002083 0.000000 -0.002151 0.000000
# 2 -0.002211 0.009660 -0.003003 0.000000 -0.002307 0.000000
# 3 -0.002083 -0.003003 0.012805 0.000000 -0.006910 0.000000
# 4 0.000000 0.000000 0.000000 0.040450 0.000000 0.003992
# 5 -0.002151 -0.002307 -0.006910 0.000000 0.032950 0.000000
# 6 0.000000 0.000000 0.000000 0.003992 0.000000 0.040742
#
#
# Mechanical properties :
#
#
# Convention : Reuss Voigt Hill
#
# Bulk Modulus (GPa) = 55.98262 72.34404 64.16333
# Shear Modulus (GPa) = 29.91431 33.39394 31.65413
#
# Velocity S-wave (km/s) = 3.57705 3.77937 3.67960
# Velocity P-wave (km/s) = 6.40358 7.07026 6.74516
#
# Compressibility (1/GPa) = 0.01786269
#
# Stress axis : x y z
#
# Youngs Moduli (GPa) = 100.10221 103.51448 78.09336
#
# Poissons Ratio (x) = 0.22883 0.16265
# Poissons Ratio (y) = 0.22129 0.23451
# Poissons Ratio (z) = 0.20850 0.31085
#
# Static dielectric constant tensor:
#      x y z
#    x 4.538750 0.000000 0.203130 
#    y 0.000000 4.557180 0.000000 
#    z 0.203130 0.000000 3.875920 
# 
# 
# High freq. dielectric constant tensor:
#      x y z
#    x 1.940640 0.000000 0.020870 
#    y 0.000000 1.933260 0.000000 
#    z 0.020870 0.000000 1.894350 
# 
# From -- ./inp_files/204856.got.cif
#   From: 2010.06.25/outbox.cif.g09.slc.cpg/sg12_103_cif.got.tgz:204856.got - 2010.06.28 00:19:55.
