data_PCOD8109836
_publ_section_title
;
Structure prediction by ZEFSAII (Michael W. Deem and Ramdas Pophale) SiO2 
 PCOD8109836
Probable space group: C 2/M
;
_chemical_formula_sum "Si O2"
_cell_formula_units_Z 40
_cell_length_a 13.859221
_cell_length_b 13.003655
_cell_length_c 11.150670
_cell_angle_alpha 90.000000
_cell_angle_beta 109.452583
_cell_angle_gamma 90.000000
_cell_volume 1894.867652
_symmetry_space_group_name_H-M "C 2/M"
_symmetry_group_IT_number 12
_symmetry_cell_setting 'monoclinic'
loop_
_space_group_symop_operation_xyz
x,y,z
-x,y,-z
-x,-y,-z
x,-y,z
1/2+x,1/2+y,z
1/2-x,1/2+y,-z
1/2-x,1/2-y,-z
1/2+x,1/2-y,z
loop_
_atom_site_type_symbol
_atom_site_label
_atom_site_fract_x
_atom_site_fract_y
_atom_site_fract_z
Si Si1 0.320833 0.616992 0.615350
Si Si2 0.428884 0.281192 0.865508
Si Si3 0.385936 0.783510 0.460374
Si Si4 0.624261 0.247292 0.813306
Si Si5 0.202312 0.380904 0.043645
O O1 0.349553 0.500000 0.599505
O O2 0.349752 0.641773 0.766851
O O3 0.385388 0.687593 0.550985
O O4 0.199553 0.632650 0.538639
O O5 0.503696 0.244804 0.789766
O O6 0.369205 0.183786 0.895107
O O7 0.500000 0.332161 0.000000
O O8 0.500000 0.832456 0.500000
O O9 0.353074 0.744638 0.316642
O O10 0.679278 0.347845 0.893382
O O11 0.672505 0.144605 0.893732
O O12 0.187136 0.500000 0.065802
#
# Coordination Sequence:
#
# PCOD8109836 Si02
#       5
#     8   8   8   8   8
#     4  11  25  43  65  94 127 167 212 261 316 372
#     4  10  21  41  65  95 132 160 204 264 313 371
#     4  11  23  45  66  87 130 169 211 264 307 371
#     4  10  21  40  63  96 126 161 211 264 307 369
#     4  10  22  41  67  94 126 168 209 256 317 377
#
# _framework density 21.109655
#
# number of rings (size 3 to 8) (size 9 to 14) (size 15 to 20)
#    0.000    1.600    4.000    0.000    0.000    7.200 
#    0.000    0.000    0.000    0.000    0.000    0.000 
#    0.000    0.000    0.000    0.000    0.000    0.000 
#
# Total GULP energy -247861.364641 kJ/mol
# GULP energy per Si atom -12393.068232 kJ/mol
# Density = 2.106161 g / cm^3
# Si number density = 21.109655 Si / 1000 Ang^3
#
#
#
# Elastic Constant Matrix: (Units=GPa)
#
#
# Indices 1 2 3 4 5 6 
#
# 1 107.0818 24.1359 26.0807 0.0000 7.5532 0.0000
# 2 24.1359 107.5732 45.7740 0.0000 3.5991 0.0000
# 3 26.0807 45.7740 93.4106 0.0000 -6.9229 0.0000
# 4 0.0000 0.0000 0.0000 18.6303 0.0000 -6.3082
# 5 7.5532 3.5991 -6.9229 0.0000 35.4279 0.0000
# 6 0.0000 0.0000 0.0000 -6.3082 0.0000 15.4737
#
#
#
# Elastic Compliance Matrix: (Units=1/GPa)
#
#
# Indices 1 2 3 4 5 6 
#
# 1 0.010400 -0.001174 -0.002520 0.000000 -0.002590 0.000000
# 2 -0.001174 0.012074 -0.005744 0.000000 -0.002099 0.000000
# 3 -0.002520 -0.005744 0.014517 0.000000 0.003958 0.000000
# 4 0.000000 0.000000 0.000000 0.062272 0.000000 0.025386
# 5 -0.002590 -0.002099 0.003958 0.000000 0.029765 0.000000
# 6 0.000000 0.000000 0.000000 0.025386 0.000000 0.074975
#
#
# Mechanical properties :
#
#
# Convention : Reuss Voigt Hill
#
# Bulk Modulus (GPa) = 55.20754 55.56075 55.38415
# Shear Modulus (GPa) = 21.84181 28.04471 24.94326
#
# Velocity S-wave (km/s) = 3.22014 3.64885 3.44118
# Velocity P-wave (km/s) = 6.32734 6.64299 6.48709
#
# Compressibility (1/GPa) = 0.01811347
#
# Stress axis : x y z
#
# Youngs Moduli (GPa) = 96.15480 82.82289 68.88360
#
# Poissons Ratio (x) = 0.09726 0.17360
# Poissons Ratio (y) = 0.11292 0.39568
# Poissons Ratio (z) = 0.24233 0.47576
#
# Static dielectric constant tensor:
#      x y z
#    x 4.091670 0.000000 0.127700 
#    y 0.000000 3.250780 0.000000 
#    z 0.127700 0.000000 4.089780 
# 
# 
# High freq. dielectric constant tensor:
#      x y z
#    x 1.850070 0.000000 0.004580 
#    y 0.000000 1.770140 0.000000 
#    z 0.004580 0.000000 1.844970 
# 
# From -- ./inp_files/141098.got.cif
#   From: 2010.06.25/outbox.cif.g09.slc.cpg/sg12_71_cif.got.tgz:141098.got - 2010.06.28 00:19:55.
