data_PCOD8109770
_publ_section_title
;
Structure prediction by ZEFSAII (Michael W. Deem and Ramdas Pophale) SiO2 
 PCOD8109770
Probable space group: C 2/M
;
_chemical_formula_sum "Si O2"
_cell_formula_units_Z 64
_cell_length_a 25.292475
_cell_length_b 16.987430
_cell_length_c 15.098758
_cell_angle_alpha 90.000000
_cell_angle_beta 150.430686
_cell_angle_gamma 90.000000
_cell_volume 3201.299998
_symmetry_space_group_name_H-M "C 2/M"
_symmetry_group_IT_number 12
_symmetry_cell_setting 'monoclinic'
loop_
_space_group_symop_operation_xyz
x,y,z
-x,y,-z
-x,-y,-z
x,-y,z
1/2+x,1/2+y,z
1/2-x,1/2+y,-z
1/2-x,1/2-y,-z
1/2+x,1/2-y,z
loop_
_atom_site_type_symbol
_atom_site_label
_atom_site_fract_x
_atom_site_fract_y
_atom_site_fract_z
Si Si1 0.737261 0.159727 0.504446
Si Si2 0.437561 0.314543 0.153760
Si Si3 0.032422 0.907933 0.140990
Si Si4 0.623205 0.092036 0.172188
Si Si5 0.766344 0.841684 0.037255
Si Si6 0.454011 0.912122 0.335246
Si Si7 0.112281 0.289616 0.483977
Si Si8 0.725871 0.805347 0.166199
O O1 0.750000 0.250000 0.500000
O O2 0.847239 0.114242 0.663711
O O3 0.666045 0.114277 0.330380
O O4 0.684135 0.157500 0.523665
O O5 0.451777 0.377971 0.097935
O O6 0.377511 0.359443 0.147526
O O7 0.555174 0.284863 0.354517
O O8 0.373523 0.241201 0.019863
O O9 0.018544 0.000000 0.117262
O O10 0.000000 0.869339 0.000000
O O11 0.685165 0.139300 0.185865
O O12 0.638360 0.000000 0.174180
O O13 0.500000 0.116525 0.000000
O O14 0.774353 0.857932 0.155283
O O15 0.750000 0.750000 0.000000
O O16 0.671742 0.890980 0.852757
O O17 0.500000 0.910513 0.500000
O O18 0.518025 0.847079 0.375375
O O19 0.469358 0.000000 0.317662
O O20 0.184598 0.256205 0.669287
#
# Coordination Sequence:
#
# PCOD8109770 Si02
#       8
#     8   8   8   8   8   8   8   8
#     4  12  23  41  64  95 124 164 215 261 317 384
#     4  11  22  40  64  95 124 166 224 258 314 386
#     4  11  25  42  64  93 130 166 205 267 325 379
#     4  11  25  41  63  94 132 171 211 270 332 383
#     4  10  21  40  62  91 128 165 214 262 307 381
#     4  11  24  41  63  96 133 165 205 265 327 378
#     4  12  23  38  67  94 122 170 210 265 316 377
#     4  11  22  39  63  95 128 168 219 265 314 388
#
# _framework density 19.991876999999999
#
# number of rings (size 3 to 8) (size 9 to 14) (size 15 to 20)
#    0.000    0.875    5.000    3.375    0.000    2.000 
#    0.000    3.125    0.000    0.000    0.000    4.375 
#    0.000    0.000    0.000    0.000    0.000    0.000 
#
# Total GULP energy -396771.136463 kJ/mol
# GULP energy per Si atom -12399.098014 kJ/mol
# Density = 1.994637 g / cm^3
# Si number density = 19.991877 Si / 1000 Ang^3
#
#
#
# Elastic Constant Matrix: (Units=GPa)
#
#
# Indices 1 2 3 4 5 6 
#
# 1 145.5035 31.3032 37.9343 0.0000 1.1070 0.0000
# 2 31.3032 65.7312 16.7793 0.0000 0.0904 0.0000
# 3 37.9343 16.7793 98.3580 0.0000 -12.7519 0.0000
# 4 0.0000 0.0000 0.0000 28.8639 0.0000 3.4641
# 5 1.1070 0.0904 -12.7519 0.0000 32.7165 0.0000
# 6 0.0000 0.0000 0.0000 3.4641 0.0000 23.1840
#
#
#
# Elastic Compliance Matrix: (Units=1/GPa)
#
#
# Indices 1 2 3 4 5 6 
#
# 1 0.008318 -0.003236 -0.002835 0.000000 -0.001377 0.000000
# 2 -0.003236 0.017207 -0.001769 0.000000 -0.000627 0.000000
# 3 -0.002835 -0.001769 0.012191 0.000000 0.004853 0.000000
# 4 0.000000 0.000000 0.000000 0.035278 0.000000 -0.005271
# 5 -0.001377 -0.000627 0.004853 0.000000 0.032505 0.000000
# 6 0.000000 0.000000 0.000000 -0.005271 0.000000 0.043921
#
#
# Mechanical properties :
#
#
# Convention : Reuss Voigt Hill
#
# Bulk Modulus (GPa) = 45.37709 53.51403 49.44556
# Shear Modulus (GPa) = 28.99475 31.85795 30.42635
#
# Velocity S-wave (km/s) = 3.81245 3.99625 3.90543
# Velocity P-wave (km/s) = 6.49051 6.93681 6.71737
#
# Compressibility (1/GPa) = 0.02203755
#
# Stress axis : x y z
#
# Youngs Moduli (GPa) = 120.21565 58.11626 82.02714
#
# Poissons Ratio (x) = 0.18806 0.23253
# Poissons Ratio (y) = 0.38901 0.14508
# Poissons Ratio (z) = 0.34078 0.10279
#
# Static dielectric constant tensor:
#      x y z
#    x -0.028090 0.000000 -0.936040 
#    y 0.000000 3.625170 0.000000 
#    z -0.936040 0.000000 3.602160 
# 
# 
# High freq. dielectric constant tensor:
#      x y z
#    x 1.797030 0.000000 -0.002140 
#    y 0.000000 1.766530 0.000000 
#    z -0.002140 0.000000 1.789630 
# 
# From -- ./inp_files/241529.got.cif
#   From: 2010.06.25/outbox.cif.g09.slc.cpg/sg12_121_cif.got.tgz:241529.got - 2010.06.28 00:19:55.
