data_PCOD8109521
_publ_section_title
;
Structure prediction by ZEFSAII (Michael W. Deem and Ramdas Pophale) SiO2 
 PCOD8109521
Probable space group: C 2/M
;
_chemical_formula_sum "Si O2"
_cell_formula_units_Z 48
_cell_length_a 17.987734
_cell_length_b 12.860072
_cell_length_c 11.465852
_cell_angle_alpha 90.000000
_cell_angle_beta 64.641212
_cell_angle_gamma 90.000000
_cell_volume 2396.753436
_symmetry_space_group_name_H-M "C 2/M"
_symmetry_group_IT_number 12
_symmetry_cell_setting 'monoclinic'
loop_
_space_group_symop_operation_xyz
x,y,z
-x,y,-z
-x,-y,-z
x,-y,z
1/2+x,1/2+y,z
1/2-x,1/2+y,-z
1/2-x,1/2-y,-z
1/2+x,1/2-y,z
loop_
_atom_site_type_symbol
_atom_site_label
_atom_site_fract_x
_atom_site_fract_y
_atom_site_fract_z
Si Si1 0.749147 0.382671 0.719175
Si Si2 0.587112 0.880705 0.878830
Si Si3 0.115244 0.221998 0.663963
Si Si4 0.551984 0.620801 0.239995
Si Si5 0.673048 0.280846 0.977326
Si Si6 0.910314 0.270855 0.578420
O O1 0.752657 0.500000 0.674355
O O2 0.702848 0.317813 0.650452
O O3 0.697624 0.373119 0.872887
O O4 0.842753 0.345558 0.681893
O O5 0.586031 0.825798 0.752635
O O6 0.650863 0.822152 0.919537
O O7 0.615307 0.000000 0.842954
O O8 0.500000 0.874522 0.000000
O O9 0.128445 0.242612 0.519407
O O10 0.044249 0.134773 0.724910
O O11 0.575162 0.500000 0.229166
O O12 0.575584 0.670322 0.349144
O O13 0.599191 0.678626 0.105100
O O14 0.750000 0.250000 0.000000
O O15 0.000000 0.325643 0.500000
#
# Coordination Sequence:
#
# PCOD8109521 Si02
#       6
#     8   8   8   8   8   8
#     4  11  23  39  62  90 121 162 202 250 311 359
#     4  10  21  39  65  90 120 164 203 246 306 362
#     4  10  22  41  63  91 127 155 206 259 296 364
#     4  11  22  40  65  92 123 165 204 250 312 364
#     4  11  22  41  60  92 129 154 202 257 300 365
#     4  10  23  42  61  88 125 162 205 256 299 362
#
# _framework density 20.027093000000001
#
# number of rings (size 3 to 8) (size 9 to 14) (size 15 to 20)
#    0.000    1.500    3.333    1.500    0.000    6.000 
#    0.000    5.000    0.000    0.000    0.000    0.000 
#    0.000    0.000    0.000    0.000    0.000    0.000 
#
# Total GULP energy -297577.921140 kJ/mol
# GULP energy per Si atom -12399.080048 kJ/mol
# Density = 1.998151 g / cm^3
# Si number density = 20.027093 Si / 1000 Ang^3
#
#
#
# Elastic Constant Matrix: (Units=GPa)
#
#
# Indices 1 2 3 4 5 6 
#
# 1 101.5748 32.3624 28.8381 0.0000 1.3583 0.0000
# 2 32.3624 126.1833 34.3417 0.0000 2.7356 0.0000
# 3 28.8381 34.3417 96.4773 0.0000 9.7348 0.0000
# 4 0.0000 0.0000 0.0000 10.9989 0.0000 2.8438
# 5 1.3583 2.7356 9.7348 0.0000 37.5630 0.0000
# 6 0.0000 0.0000 0.0000 2.8438 0.0000 24.3955
#
#
#
# Elastic Compliance Matrix: (Units=1/GPa)
#
#
# Indices 1 2 3 4 5 6 
#
# 1 0.011285 -0.002185 -0.002639 0.000000 0.000435 0.000000
# 2 -0.002185 0.009199 -0.002631 0.000000 0.000091 0.000000
# 3 -0.002639 -0.002631 0.012385 0.000000 -0.002923 0.000000
# 4 0.000000 0.000000 0.000000 0.093744 0.000000 -0.010928
# 5 0.000435 0.000091 -0.002923 0.000000 0.027357 0.000000
# 6 0.000000 0.000000 0.000000 -0.010928 0.000000 0.042265
#
#
# Mechanical properties :
#
#
# Convention : Reuss Voigt Hill
#
# Bulk Modulus (GPa) = 55.68132 57.25775 56.46953
# Shear Modulus (GPa) = 23.02752 29.83769 26.43261
#
# Velocity S-wave (km/s) = 3.39458 3.86407 3.63690
# Velocity P-wave (km/s) = 6.57477 6.96852 6.77450
#
# Compressibility (1/GPa) = 0.01795935
#
# Stress axis : x y z
#
# Youngs Moduli (GPa) = 88.61568 108.70259 80.74117
#
# Poissons Ratio (x) = 0.23756 0.21308
# Poissons Ratio (y) = 0.19366 0.21239
# Poissons Ratio (z) = 0.23387 0.28594
#
# Static dielectric constant tensor:
#      x y z
#    x 3.667440 0.000000 0.222260 
#    y 0.000000 4.275550 0.000000 
#    z 0.222260 0.000000 2.737090 
# 
# 
# High freq. dielectric constant tensor:
#      x y z
#    x 1.794120 0.000000 -0.002070 
#    y 0.000000 1.761480 0.000000 
#    z -0.002070 0.000000 1.796730 
# 
# From -- ./inp_files/154185.got.cif
#   From: 2010.06.25/outbox.cif.g09.slc.cpg/sg12_78_cif.got.tgz:154185.got - 2010.06.28 00:19:55.
