data_PCOD8109951
_publ_section_title
;
Structure prediction by ZEFSAII (Michael W. Deem and Ramdas Pophale) SiO2 
 PCOD8109951
Probable space group: C 2/M
;
_chemical_formula_sum "Si O2"
_cell_formula_units_Z 64
_cell_length_a 19.745357
_cell_length_b 9.132511
_cell_length_c 19.723004
_cell_angle_alpha 90.000000
_cell_angle_beta 58.687564
_cell_angle_gamma 90.000000
_cell_volume 3038.519811
_symmetry_space_group_name_H-M "C 2/M"
_symmetry_group_IT_number 12
_symmetry_cell_setting 'monoclinic'
loop_
_space_group_symop_operation_xyz
x,y,z
-x,y,-z
-x,-y,-z
x,-y,z
1/2+x,1/2+y,z
1/2-x,1/2+y,-z
1/2-x,1/2-y,-z
1/2+x,1/2-y,z
loop_
_atom_site_type_symbol
_atom_site_label
_atom_site_fract_x
_atom_site_fract_y
_atom_site_fract_z
Si Si1 0.483026 0.827026 0.807961
Si Si2 0.968011 0.830367 0.590025
Si Si3 0.700712 0.829736 0.855075
Si Si4 0.062738 0.669753 0.020415
Si Si5 0.868325 0.830356 0.229666
Si Si6 0.364267 0.331832 0.457882
Si Si7 0.251252 0.833494 0.597217
Si Si8 0.634601 0.172698 0.252341
O O1 0.564352 0.736467 0.756278
O O2 0.424547 0.784632 0.777479
O O3 0.500422 0.000000 0.798462
O O4 0.445927 0.769585 0.898614
O O5 0.042628 0.804407 0.601450
O O6 0.000000 0.776828 0.500000
O O7 0.896253 0.736690 0.659475
O O8 0.941751 0.000000 0.599982
O O9 0.654343 0.806373 0.950144
O O10 0.637345 0.768337 0.833912
O O11 0.781209 0.739174 0.812138
O O12 0.718475 0.000000 0.831501
O O13 0.041612 0.500000 0.033985
O O14 0.000000 0.743808 0.000000
O O15 0.782003 0.816973 0.309913
O O16 0.887224 0.000000 0.203713
O O17 0.347343 0.500000 0.479188
O O18 0.332379 0.255321 0.543799
O O19 0.316952 0.270989 0.417821
O O20 0.270068 0.000000 0.569595
O O21 0.644782 0.000000 0.255932
#
# Coordination Sequence:
#
# PCOD8109951 Si02
#       8
#     8   8   8   8   8   8   8   8
#     4  10  21  40  65  91 122 165 208 248 304 372
#     4  10  22  40  61  84 113 156 208 251 295 359
#     4  11  23  40  64  89 121 164 207 251 304 366
#     4   9  17  36  65  93 120 156 205 252 299 363
#     4  11  22  36  58  90 124 158 201 255 309 360
#     4   9  18  34  54  78 107 142 190 242 288 345
#     4   9  19  33  51  77 112 148 183 234 297 354
#     4  11  25  42  61  91 129 162 202 257 310 365
#
# _framework density 21.062888000000001
#
# number of rings (size 3 to 8) (size 9 to 14) (size 15 to 20)
#    0.000    2.000    1.250    1.875    1.750    4.250 
#    0.000    4.375    0.000    0.000    0.000    0.000 
#    0.000    0.000    0.000    0.000    0.000    0.000 
#
# Total GULP energy -396688.359203 kJ/mol
# GULP energy per Si atom -12396.511225 kJ/mol
# Density = 2.101495 g / cm^3
# Si number density = 21.062888 Si / 1000 Ang^3
#
#
#
# Elastic Constant Matrix: (Units=GPa)
#
#
# Indices 1 2 3 4 5 6 
#
# 1 60.7195 29.7295 17.6736 0.0000 -10.5600 -0.0002
# 2 29.7295 72.5808 34.3145 0.0002 -10.3363 -0.0004
# 3 17.6736 34.3145 100.2277 0.0000 -10.2973 -0.0002
# 4 0.0000 0.0002 0.0000 26.7204 0.0000 -4.4208
# 5 -10.5600 -10.3363 -10.2973 0.0000 32.9408 0.0001
# 6 -0.0002 -0.0004 -0.0002 -4.4208 0.0001 31.0853
#
#
#
# Elastic Compliance Matrix: (Units=1/GPa)
#
#
# Indices 1 2 3 4 5 6 
#
# 1 0.021189 -0.007783 -0.000645 0.000000 0.004149 0.000000
# 2 -0.007783 0.019700 -0.005159 0.000000 0.002074 0.000000
# 3 -0.000645 -0.005159 0.012057 0.000000 0.001943 0.000000
# 4 0.000000 0.000000 0.000000 0.038326 0.000000 0.005451
# 5 0.004149 0.002074 0.001943 0.000000 0.032946 0.000000
# 6 0.000000 0.000000 0.000000 0.005451 0.000000 0.032945
#
#
# Mechanical properties :
#
#
# Convention : Reuss Voigt Hill
#
# Bulk Modulus (GPa) = 38.80343 44.10701 41.45522
# Shear Modulus (GPa) = 25.91619 28.27002 27.09310
#
# Velocity S-wave (km/s) = 3.51154 3.66754 3.59039
# Velocity P-wave (km/s) = 5.90795 6.23863 6.07554
#
# Compressibility (1/GPa) = 0.02577092
#
# Stress axis : x y z
#
# Youngs Moduli (GPa) = 47.19326 50.76067 82.93893
#
# Poissons Ratio (x) = 0.39509 0.05353
# Poissons Ratio (y) = 0.36732 0.42790
# Poissons Ratio (z) = 0.03046 0.26188
#
# Static dielectric constant tensor:
#      x y z
#    x 3.836150 0.000000 0.034370 
#    y 0.000000 3.545120 0.000000 
#    z 0.034370 0.000000 3.895370 
# 
# 
# High freq. dielectric constant tensor:
#      x y z
#    x 1.824340 0.000000 -0.004960 
#    y 0.000000 1.805690 0.000000 
#    z -0.004960 0.000000 1.833270 
# 
# From -- ./inp_files/319885.got.cif
#   From: 2010.06.25/outbox.cif.g09.slc.cpg/sg12_160_cif.got.tgz:319885.got - 2010.06.28 00:19:55.
