data_PCOD8109553
_publ_section_title
;
Structure prediction by ZEFSAII (Michael W. Deem and Ramdas Pophale) SiO2 
 PCOD8109553
Probable space group: C 2/M
;
_chemical_formula_sum "Si O2"
_cell_formula_units_Z 40
_cell_length_a 13.964732
_cell_length_b 23.340251
_cell_length_c 9.091412
_cell_angle_alpha 90.000000
_cell_angle_beta 37.343946
_cell_angle_gamma 90.000000
_cell_volume 1797.507425
_symmetry_space_group_name_H-M "C 2/M"
_symmetry_group_IT_number 12
_symmetry_cell_setting 'monoclinic'
loop_
_space_group_symop_operation_xyz
x,y,z
-x,y,-z
-x,-y,-z
x,-y,z
1/2+x,1/2+y,z
1/2-x,1/2+y,-z
1/2-x,1/2-y,-z
1/2+x,1/2-y,z
loop_
_atom_site_type_symbol
_atom_site_label
_atom_site_fract_x
_atom_site_fract_y
_atom_site_fract_z
Si Si1 0.670487 0.565022 0.742407
Si Si2 0.625379 0.673277 0.228861
Si Si3 0.708309 0.064186 0.094082
Si Si4 0.064235 0.613184 0.754014
Si Si5 0.557159 0.767498 0.087203
O O1 0.639508 0.500000 0.730794
O O2 0.794847 0.569554 0.725213
O O3 0.752304 0.596213 0.500630
O O4 0.500000 0.591702 0.000000
O O5 0.500000 0.655836 0.500000
O O6 0.542721 0.713409 0.209813
O O7 0.673402 0.612452 0.105910
O O8 0.765597 0.707987 0.136220
O O9 0.537247 0.073983 0.232132
O O10 0.766651 0.000000 0.979871
O O11 0.052396 0.680036 0.724121
O O12 0.000000 0.604083 0.000000
O O13 0.500000 0.745174 0.000000
#
# Coordination Sequence:
#
# PCOD8109553 Si02
#       5
#     8   8   8   8   8
#     4  10  22  39  60  90 127 166 207 250 301 363
#     4  10  22  39  60  89 121 156 206 260 306 361
#     4  10  22  39  59  86 123 165 204 246 304 370
#     4  10  21  39  65  94 123 161 208 252 301 366
#     4   9  21  40  61  87 118 156 203 254 311 370
#
# _framework density 22.253038
#
# number of rings (size 3 to 8) (size 9 to 14) (size 15 to 20)
#    0.000    2.200    0.000    1.200    0.000   14.800 
#    0.000    2.000    0.000    0.000    0.000    0.000 
#    0.000    0.000    0.000    0.000    0.000    0.000 
#
# Total GULP energy -247876.102412 kJ/mol
# GULP energy per Si atom -12393.805121 kJ/mol
# Density = 2.220239 g / cm^3
# Si number density = 22.253038 Si / 1000 Ang^3
#
#
#
# Elastic Constant Matrix: (Units=GPa)
#
#
# Indices 1 2 3 4 5 6 
#
# 1 99.0336 36.0050 27.1841 0.0000 11.6992 0.0000
# 2 36.0050 142.9444 70.8669 0.0000 7.8114 0.0000
# 3 27.1841 70.8669 173.1199 0.0000 -3.3263 0.0000
# 4 0.0000 0.0000 0.0000 17.6878 0.0000 3.2465
# 5 11.6992 7.8114 -3.3263 0.0000 18.9720 0.0000
# 6 0.0000 0.0000 0.0000 3.2465 0.0000 31.0867
#
#
#
# Elastic Compliance Matrix: (Units=1/GPa)
#
#
# Indices 1 2 3 4 5 6 
#
# 1 0.011964 -0.002071 -0.001160 0.000000 -0.006728 0.000000
# 2 -0.002071 0.009492 -0.003623 0.000000 -0.003267 0.000000
# 3 -0.001160 -0.003623 0.007509 0.000000 0.003524 0.000000
# 4 0.000000 0.000000 0.000000 0.057641 0.000000 -0.006020
# 5 -0.006728 -0.003267 0.003524 0.000000 0.058821 0.000000
# 6 0.000000 0.000000 0.000000 -0.006020 0.000000 0.032797
#
#
# Mechanical properties :
#
#
# Convention : Reuss Voigt Hill
#
# Bulk Modulus (GPa) = 65.54340 75.91223 70.72782
# Shear Modulus (GPa) = 25.37840 32.28541 28.83190
#
# Velocity S-wave (km/s) = 3.38071 3.81311 3.60340
# Velocity P-wave (km/s) = 6.69004 7.31940 7.01179
#
# Compressibility (1/GPa) = 0.01525707
#
# Stress axis : x y z
#
# Youngs Moduli (GPa) = 83.58625 105.35155 133.16607
#
# Poissons Ratio (x) = 0.21813 0.15451
# Poissons Ratio (y) = 0.17307 0.48249
# Poissons Ratio (z) = 0.09699 0.38171
#
# Static dielectric constant tensor:
#      x y z
#    x 4.231050 0.000000 -0.034700 
#    y 0.000000 4.035800 0.000000 
#    z -0.034700 0.000000 3.781380 
# 
# 
# High freq. dielectric constant tensor:
#      x y z
#    x 1.880980 0.000000 -0.002800 
#    y 0.000000 1.881230 0.000000 
#    z -0.002800 0.000000 1.861220 
# 
# From -- ./inp_files/65084.got.cif
#   From: 2010.06.25/outbox.cif.g09.slc.cpg/sg12_33_cif.got.tgz:65084.got - 2010.06.28 00:19:55.
