data_PCOD8109383
_publ_section_title
;
Structure prediction by ZEFSAII (Michael W. Deem and Ramdas Pophale) SiO2 
 PCOD8109383
Probable space group: C 2/M
;
_chemical_formula_sum "Si O2"
_cell_formula_units_Z 44
_cell_length_a 11.106126
_cell_length_b 27.688916
_cell_length_c 12.251233
_cell_angle_alpha 90.000000
_cell_angle_beta 33.129176
_cell_angle_gamma 90.000000
_cell_volume 2059.022729
_symmetry_space_group_name_H-M "C 2/M"
_symmetry_group_IT_number 12
_symmetry_cell_setting 'monoclinic'
loop_
_space_group_symop_operation_xyz
x,y,z
-x,y,-z
-x,-y,-z
x,-y,z
1/2+x,1/2+y,z
1/2-x,1/2+y,-z
1/2-x,1/2-y,-z
1/2+x,1/2-y,z
loop_
_atom_site_type_symbol
_atom_site_label
_atom_site_fract_x
_atom_site_fract_y
_atom_site_fract_z
Si Si1 0.348443 0.364376 0.022490
Si Si2 0.500000 0.349891 0.500000
Si Si3 0.201925 0.265083 0.764811
Si Si4 0.517970 0.791273 0.682595
Si Si5 0.330895 0.378443 0.414253
Si Si6 0.455726 0.945922 0.660603
O O1 0.494812 0.383349 0.813706
O O2 0.500000 0.338481 0.000000
O O3 0.172424 0.324277 0.116454
O O4 0.247591 0.411890 0.154758
O O5 0.279741 0.319732 0.693746
O O6 0.464707 0.382922 0.423405
O O7 0.414147 0.236670 0.656053
O O8 0.120777 0.254164 0.698292
O O9 0.000000 0.260209 0.000000
O O10 0.700511 0.827922 0.496511
O O11 0.176022 0.424554 0.544613
O O12 0.500000 0.945291 0.500000
O O13 0.410621 0.000000 0.738422
#
# Coordination Sequence:
#
# PCOD8109383 Si02
#       6
#     8   4   8   8   8   8
#     4  11  21  37  62  91 120 158 194 245 305 357
#     4  10  24  40  61  80 120 168 209 244 290 348
#     4  11  22  39  55  85 115 164 207 262 297 349
#     4  10  24  37  57  83 122 159 208 253 299 346
#     4  10  22  42  59  88 121 162 198 245 295 359
#     4  10  21  39  63  96 125 146 185 242 303 365
#
# _framework density 21.36936
#
# number of rings (size 3 to 8) (size 9 to 14) (size 15 to 20)
#    0.000    1.636    1.818    2.182    0.000    8.364 
#    0.000    0.455    0.000    1.091    0.000    0.000 
#    0.000    0.000    0.000    0.000    0.000    0.000 
#
# Total GULP energy -272637.949785 kJ/mol
# GULP energy per Si atom -12392.634081 kJ/mol
# Density = 2.132072 g / cm^3
# Si number density = 21.369360 Si / 1000 Ang^3
#
#
#
# Elastic Constant Matrix: (Units=GPa)
#
#
# Indices 1 2 3 4 5 6 
#
# 1 161.0361 44.8537 41.8745 0.0000 11.7558 0.0000
# 2 44.8537 74.1567 21.1140 0.0000 1.3224 0.0000
# 3 41.8745 21.1140 80.1442 0.0000 8.0646 0.0000
# 4 0.0000 0.0000 0.0000 5.5464 0.0000 6.6687
# 5 11.7558 1.3224 8.0646 0.0000 34.4875 0.0000
# 6 0.0000 0.0000 0.0000 6.6687 0.0000 18.0182
#
#
#
# Elastic Compliance Matrix: (Units=1/GPa)
#
#
# Indices 1 2 3 4 5 6 
#
# 1 0.008291 -0.004111 -0.003052 0.000000 -0.001955 0.000000
# 2 -0.004111 0.016621 -0.002363 0.000000 0.001317 0.000000
# 3 -0.003052 -0.002363 0.014932 0.000000 -0.002361 0.000000
# 4 0.000000 0.000000 0.000000 0.324862 0.000000 -0.120235
# 5 -0.001955 0.001317 -0.002361 0.000000 0.030164 0.000000
# 6 0.000000 0.000000 0.000000 -0.120235 0.000000 0.100000
#
#
# Mechanical properties :
#
#
# Convention : Reuss Voigt Hill
#
# Bulk Modulus (GPa) = 48.09697 59.00237 53.54967
# Shear Modulus (GPa) = 9.59961 25.44340 17.52150
#
# Velocity S-wave (km/s) = 2.12179 3.45432 2.86656
# Velocity P-wave (km/s) = 5.34406 6.60155 6.00581
#
# Compressibility (1/GPa) = 0.02079133
#
# Stress axis : x y z
#
# Youngs Moduli (GPa) = 120.60901 60.16508 66.96805
#
# Poissons Ratio (x) = 0.24734 0.20441
# Poissons Ratio (y) = 0.49583 0.15827
# Poissons Ratio (z) = 0.36814 0.14219
#
# Static dielectric constant tensor:
#      x y z
#    x 4.650350 0.000000 -0.311610 
#    y 0.000000 3.781750 0.000000 
#    z -0.311610 0.000000 4.034780 
# 
# 
# High freq. dielectric constant tensor:
#      x y z
#    x 1.850970 0.000000 -0.010010 
#    y 0.000000 1.804870 0.000000 
#    z -0.010010 0.000000 1.855610 
# 
# From -- ./inp_files/136868.got.cif
#   From: 2010.06.25/outbox.cif.g09.slc.cpg/sg12_69_cif.got.tgz:136868.got - 2010.06.28 00:19:55.
