data_PCOD8109793
_publ_section_title
;
Structure prediction by ZEFSAII (Michael W. Deem and Ramdas Pophale) SiO2 
 PCOD8109793
Probable space group: C 2/M
;
_chemical_formula_sum "Si O2"
_cell_formula_units_Z 56
_cell_length_a 17.679943
_cell_length_b 18.162183
_cell_length_c 9.896467
_cell_angle_alpha 90.000000
_cell_angle_beta 113.943903
_cell_angle_gamma 90.000000
_cell_volume 2904.345754
_symmetry_space_group_name_H-M "C 2/M"
_symmetry_group_IT_number 12
_symmetry_cell_setting 'monoclinic'
loop_
_space_group_symop_operation_xyz
x,y,z
-x,y,-z
-x,-y,-z
x,-y,z
1/2+x,1/2+y,z
1/2-x,1/2+y,-z
1/2-x,1/2-y,-z
1/2+x,1/2-y,z
loop_
_atom_site_type_symbol
_atom_site_label
_atom_site_fract_x
_atom_site_fract_y
_atom_site_fract_z
Si Si1 0.642549 0.227494 0.330444
Si Si2 0.517333 0.315423 0.867909
Si Si3 0.313755 0.704662 0.356052
Si Si4 0.406827 0.082519 0.577328
Si Si5 0.399905 0.917891 0.266451
Si Si6 0.160976 0.722200 0.890006
Si Si7 0.928505 0.085067 0.339042
O O1 0.559692 0.262051 0.214388
O O2 0.662217 0.278043 0.473762
O O3 0.715610 0.223089 0.271320
O O4 0.638518 0.141654 0.364338
O O5 0.595006 0.260502 0.939721
O O6 0.536469 0.378042 0.772373
O O7 0.500000 0.354339 0.000000
O O8 0.359970 0.755861 0.280655
O O9 0.344123 0.622262 0.336281
O O10 0.503452 0.100521 0.658292
O O11 0.369890 0.089824 0.399408
O O12 0.388986 0.000000 0.618247
O O13 0.350385 0.866135 0.124011
O O14 0.383293 0.000000 0.200730
O O15 0.250000 0.750000 0.000000
O O16 0.000000 0.094585 0.500000
O O17 0.908316 0.000000 0.294361
#
# Coordination Sequence:
#
# PCOD8109793 Si02
#       7
#     8   8   8   8   8   8   8
#     4  11  19  35  58  88 124 150 195 249 302 357
#     4  11  23  38  62  88 120 155 200 253 307 360
#     4  10  22  34  57  87 116 154 200 251 293 361
#     4   9  17  30  56  89 117 147 187 245 305 360
#     4   9  17  31  54  85 115 147 194 244 299 361
#     4  11  21  36  56  81 118 158 202 243 294 361
#     4  10  21  40  63  87 117 160 206 248 303 362
#
# _framework density 19.281451000000001
#
# number of rings (size 3 to 8) (size 9 to 14) (size 15 to 20)
#    0.000    1.857    4.286    1.714    0.000    0.857 
#    0.000    2.857    0.000    6.000    0.000    0.000 
#    0.000    0.000    0.000    0.000    0.000    0.000 
#
# Total GULP energy -346942.588541 kJ/mol
# GULP energy per Si atom -12390.806734 kJ/mol
# Density = 1.923757 g / cm^3
# Si number density = 19.281451 Si / 1000 Ang^3
#
#
#
# Elastic Constant Matrix: (Units=GPa)
#
#
# Indices 1 2 3 4 5 6 
#
# 1 109.9843 46.7155 37.4290 0.0000 -2.5523 0.0000
# 2 46.7155 138.9675 40.9806 0.0000 -3.2741 0.0000
# 3 37.4290 40.9806 62.5359 0.0000 -4.2621 0.0000
# 4 0.0000 0.0000 0.0000 22.9539 0.0000 6.2139
# 5 -2.5523 -3.2741 -4.2621 0.0000 37.1476 0.0000
# 6 0.0000 0.0000 0.0000 6.2139 0.0000 24.4492
#
#
#
# Elastic Compliance Matrix: (Units=1/GPa)
#
#
# Indices 1 2 3 4 5 6 
#
# 1 0.012021 -0.002379 -0.005638 0.000000 -0.000031 0.000000
# 2 -0.002379 0.009391 -0.004722 0.000000 0.000122 0.000000
# 3 -0.005638 -0.004722 0.022581 0.000000 0.001787 0.000000
# 4 0.000000 0.000000 0.000000 0.046784 0.000000 -0.011890
# 5 -0.000031 0.000122 0.001787 0.000000 0.027133 0.000000
# 6 0.000000 0.000000 0.000000 -0.011890 0.000000 0.043923
#
#
# Mechanical properties :
#
#
# Convention : Reuss Voigt Hill
#
# Bulk Modulus (GPa) = 54.00808 62.41534 58.21171
# Shear Modulus (GPa) = 25.84215 29.33432 27.58823
#
# Velocity S-wave (km/s) = 3.66493 3.90471 3.78672
# Velocity P-wave (km/s) = 6.78086 7.26429 7.02674
#
# Compressibility (1/GPa) = 0.01851575
#
# Stress axis : x y z
#
# Youngs Moduli (GPa) = 83.19088 106.48511 44.28483
#
# Poissons Ratio (x) = 0.25334 0.24966
# Poissons Ratio (y) = 0.19792 0.20910
# Poissons Ratio (z) = 0.46900 0.50280
#
# Static dielectric constant tensor:
#      x y z
#    x 3.580960 0.000000 -0.097300 
#    y 0.000000 3.535680 0.000000 
#    z -0.097300 0.000000 3.410300 
# 
# 
# High freq. dielectric constant tensor:
#      x y z
#    x 1.748440 0.000000 -0.005750 
#    y 0.000000 1.747330 0.000000 
#    z -0.005750 0.000000 1.737200 
# 
# From -- ./inp_files/75962.got.cif
#   From: 2010.06.25/outbox.cif.g09.slc.cpg/sg12_38_cif.got.tgz:75962.got - 2010.06.28 00:19:55.
