data_PCOD8109154
_publ_section_title
;
Structure prediction by ZEFSAII (Michael W. Deem and Ramdas Pophale) SiO2 
 PCOD8109154
Probable space group: C 2/M
;
_chemical_formula_sum "Si O2"
_cell_formula_units_Z 64
_cell_length_a 17.089205
_cell_length_b 14.465380
_cell_length_c 22.512269
_cell_angle_alpha 90.000000
_cell_angle_beta 32.518716
_cell_angle_gamma 90.000000
_cell_volume 2991.645315
_symmetry_space_group_name_H-M "C 2/M"
_symmetry_group_IT_number 12
_symmetry_cell_setting 'monoclinic'
loop_
_space_group_symop_operation_xyz
x,y,z
-x,y,-z
-x,-y,-z
x,-y,z
1/2+x,1/2+y,z
1/2-x,1/2+y,-z
1/2-x,1/2-y,-z
1/2+x,1/2-y,z
loop_
_atom_site_type_symbol
_atom_site_label
_atom_site_fract_x
_atom_site_fract_y
_atom_site_fract_z
Si Si1 0.153492 0.266043 0.426491
Si Si2 0.414266 0.228607 0.404703
Si Si3 0.135581 0.393951 0.879967
Si Si4 0.412029 0.391289 0.230763
Si Si5 0.440510 0.604927 0.739333
Si Si6 0.416368 0.390026 0.994739
Si Si7 0.912873 0.606179 0.797708
Si Si8 0.152232 0.606771 0.735366
O O1 0.094016 0.313023 0.524705
O O2 0.254655 0.342273 0.329837
O O3 0.244399 0.170215 0.372057
O O4 0.000000 0.237072 0.500000
O O5 0.250000 0.250000 0.500000
O O6 0.492370 0.328184 0.352721
O O7 0.489003 0.157180 0.313196
O O8 0.094952 0.500000 0.893596
O O9 0.267777 0.384651 0.841627
O O10 0.160704 0.353019 0.797540
O O11 0.000000 0.344466 0.000000
O O12 0.384573 0.500000 0.245266
O O13 0.506673 0.364143 0.228611
O O14 0.499866 0.354788 0.117352
O O15 0.490303 0.500000 0.694606
O O16 0.411974 0.500000 0.997260
O O17 0.500000 0.353420 0.000000
O O18 0.250469 0.351715 0.098328
O O19 0.907106 0.500000 0.781689
O O20 0.987505 0.616371 0.814923
O O21 0.204782 0.500000 0.697789
#
# Coordination Sequence:
#
# PCOD8109154 Si02
#       8
#     8   8   8   8   8   8   8   8
#     4  12  26  42  62  88 125 162 204 257 304 359
#     4  12  23  42  61  87 125 155 207 257 294 360
#     4   9  19  36  61  90 123 158 197 248 299 362
#     4  10  22  41  64  92 122 159 204 249 308 366
#     4  10  21  39  62  88 122 163 201 243 304 360
#     4   9  20  40  64  90 123 160 206 256 299 360
#     4  10  22  40  66  92 121 164 202 249 309 359
#     4  10  21  40  61  90 124 159 206 247 300 363
#
# _framework density 21.392909
#
# number of rings (size 3 to 8) (size 9 to 14) (size 15 to 20)
#    0.000    1.750    2.500    0.750    3.500    2.000 
#    2.250    1.250    0.000    0.000    0.000    0.000 
#    0.000    0.000    0.000    0.000    0.000    0.000 
#
# Total GULP energy -396487.862488 kJ/mol
# GULP energy per Si atom -12390.245703 kJ/mol
# Density = 2.134422 g / cm^3
# Si number density = 21.392909 Si / 1000 Ang^3
#
#
#
# Elastic Constant Matrix: (Units=GPa)
#
#
# Indices 1 2 3 4 5 6 
#
# 1 102.0432 18.5837 56.2588 0.0004 -8.8270 0.0001
# 2 18.5837 65.4845 45.9676 -0.0006 -2.4011 -0.0009
# 3 56.2588 45.9676 157.5126 0.0001 -2.6132 -0.0015
# 4 0.0004 -0.0006 0.0001 25.4528 -0.0001 -5.1929
# 5 -8.8270 -2.4011 -2.6132 -0.0001 46.6980 0.0003
# 6 0.0001 -0.0009 -0.0015 -5.1929 0.0003 14.5105
#
#
#
# Elastic Compliance Matrix: (Units=1/GPa)
#
#
# Indices 1 2 3 4 5 6 
#
# 1 0.012415 -0.000451 -0.004268 0.000000 0.002085 -0.000001
# 2 -0.000451 0.019243 -0.005445 0.000001 0.000600 0.000001
# 3 -0.004268 -0.005445 0.009453 0.000000 -0.000558 0.000001
# 4 0.000000 0.000001 0.000000 0.042383 0.000000 0.015168
# 5 0.002085 0.000600 -0.000558 0.000000 0.021808 0.000000
# 6 -0.000001 0.000001 0.000001 0.015168 0.000000 0.074344
#
#
# Mechanical properties :
#
#
# Convention : Reuss Voigt Hill
#
# Bulk Modulus (GPa) = 48.11509 62.96226 55.53867
# Shear Modulus (GPa) = 24.16616 30.94761 27.55688
#
# Velocity S-wave (km/s) = 3.36465 3.80758 3.59295
# Velocity P-wave (km/s) = 6.13469 6.98753 6.57495
#
# Compressibility (1/GPa) = 0.02078350
#
# Stress axis : x y z
#
# Youngs Moduli (GPa) = 80.54511 51.96777 105.78752
#
# Poissons Ratio (x) = 0.02342 0.45153
# Poissons Ratio (y) = 0.03630 0.57599
# Poissons Ratio (z) = 0.34379 0.28295
#
# Static dielectric constant tensor:
#      x y z
#    x 3.952660 0.000000 -0.077770 
#    y 0.000000 3.614750 0.000000 
#    z -0.077770 0.000000 3.936970 
# 
# 
# High freq. dielectric constant tensor:
#      x y z
#    x 1.848150 0.000000 -0.005250 
#    y 0.000000 1.830060 0.000000 
#    z -0.005250 0.000000 1.839910 
# 
# From -- ./inp_files/344000.got.cif
#   From: 2010.06.25/outbox.cif.g09.slc.cpg/sg12_172_cif.got.tgz:344000.got - 2010.06.28 00:19:55.
