data_PCOD8109263
_publ_section_title
;
Structure prediction by ZEFSAII (Michael W. Deem and Ramdas Pophale) SiO2 
 PCOD8109263
Probable space group: C 2/M
;
_chemical_formula_sum "Si O2"
_cell_formula_units_Z 64
_cell_length_a 23.614514
_cell_length_b 8.795959
_cell_length_c 28.620243
_cell_angle_alpha 90.000000
_cell_angle_beta 31.376054
_cell_angle_gamma 90.000000
_cell_volume 3095.164819
_symmetry_space_group_name_H-M "C 2/M"
_symmetry_group_IT_number 12
_symmetry_cell_setting 'monoclinic'
loop_
_space_group_symop_operation_xyz
x,y,z
-x,y,-z
-x,-y,-z
x,-y,z
1/2+x,1/2+y,z
1/2-x,1/2+y,-z
1/2-x,1/2-y,-z
1/2+x,1/2-y,z
loop_
_atom_site_type_symbol
_atom_site_label
_atom_site_fract_x
_atom_site_fract_y
_atom_site_fract_z
Si Si1 0.790954 0.823086 0.168541
Si Si2 0.131575 0.322418 0.972572
Si Si3 0.014368 0.823839 0.729413
Si Si4 0.302292 0.179113 0.917324
Si Si5 0.436711 0.676449 0.681812
Si Si6 0.691663 0.823254 0.661458
Si Si7 0.435668 0.679963 0.500347
Si Si8 0.898885 0.325350 0.174746
O O1 0.875479 0.729061 0.076434
O O2 0.668800 0.780332 0.241505
O O3 0.815459 0.777904 0.204539
O O4 0.809865 0.000000 0.147361
O O5 0.158052 0.500000 0.957930
O O6 0.231070 0.227339 0.923297
O O7 0.022164 0.278979 0.076613
O O8 0.924861 0.734294 0.822638
O O9 0.005196 0.794129 0.680496
O O10 0.133923 0.766465 0.660050
O O11 0.000598 0.000000 0.751005
O O12 0.304389 0.000000 0.922153
O O13 0.250000 0.250000 0.000000
O O14 0.402282 0.500000 0.701624
O O15 0.506437 0.729650 0.588236
O O16 0.812473 0.757122 0.585333
O O17 0.619822 0.794761 0.757934
O O18 0.697407 0.000000 0.643816
O O19 0.500000 0.748354 0.500000
O O20 0.431764 0.500000 0.508282
O O21 0.875932 0.500000 0.177614
#
# Coordination Sequence:
#
# PCOD8109263 Si02
#       8
#     8   8   8   8   8   8   8   8
#     4  12  24  37  58  88 121 159 204 258 312 366
#     4  11  22  38  59  86 120 161 208 252 304 370
#     4  11  23  39  60  87 124 167 209 254 309 369
#     4  12  24  39  61  88 122 163 211 260 309 364
#     4  10  21  39  63  88 121 165 210 256 310 375
#     4  10  21  39  64  92 122 157 205 260 311 368
#     4   9  18  36  65  96 121 155 207 259 310 372
#     4  10  22  39  60  85 117 160 202 249 310 374
#
# _framework density 20.677413000000001
#
# number of rings (size 3 to 8) (size 9 to 14) (size 15 to 20)
#    0.000    1.375    1.250    4.875    0.000    7.000 
#    0.000    0.625    0.000    1.500    0.000    0.000 
#    0.000    0.000    0.000    0.000    0.000    0.000 
#
# Total GULP energy -396967.325532 kJ/mol
# GULP energy per Si atom -12405.228923 kJ/mol
# Density = 2.063035 g / cm^3
# Si number density = 20.677413 Si / 1000 Ang^3
#
#
#
# Elastic Constant Matrix: (Units=GPa)
#
#
# Indices 1 2 3 4 5 6 
#
# 1 127.4111 47.9115 52.3520 -0.0089 -8.7915 0.0218
# 2 47.9115 93.6801 38.5541 -0.0127 -4.4907 0.0235
# 3 52.3520 38.5541 123.8602 0.0000 -0.5508 -0.0035
# 4 -0.0089 -0.0127 0.0000 18.4292 -0.0004 -5.7644
# 5 -8.7915 -4.4907 -0.5508 -0.0004 36.9525 -0.0129
# 6 0.0218 0.0235 -0.0035 -5.7644 -0.0129 33.7795
#
#
#
# Elastic Compliance Matrix: (Units=1/GPa)
#
#
# Indices 1 2 3 4 5 6 
#
# 1 0.010899 -0.004110 -0.003318 0.000001 0.002044 -0.000004
# 2 -0.004110 0.013869 -0.002577 0.000006 0.000669 -0.000006
# 3 -0.003318 -0.002577 0.010274 -0.000002 -0.000949 0.000004
# 4 0.000001 0.000006 -0.000002 0.057321 0.000005 0.009782
# 5 0.002044 0.000669 -0.000949 0.000005 0.027615 0.000010
# 6 -0.000004 -0.000006 0.000004 0.009782 0.000010 0.031273
#
#
# Mechanical properties :
#
#
# Convention : Reuss Voigt Hill
#
# Bulk Modulus (GPa) = 66.52709 69.17630 67.85169
# Shear Modulus (GPa) = 28.36516 31.57449 29.96983
#
# Velocity S-wave (km/s) = 3.70779 3.91193 3.81123
# Velocity P-wave (km/s) = 7.11154 7.34383 7.22862
#
# Compressibility (1/GPa) = 0.01503147
#
# Stress axis : x y z
#
# Youngs Moduli (GPa) = 91.75428 72.10091 97.33412
#
# Poissons Ratio (x) = 0.29637 0.32295
# Poissons Ratio (y) = 0.37715 0.25081
# Poissons Ratio (z) = 0.30444 0.18579
#
# Static dielectric constant tensor:
#      x y z
#    x 3.949780 -0.000060 0.050820 
#    y -0.000060 3.531180 0.000060 
#    z 0.050820 0.000060 3.812870 
# 
# 
# High freq. dielectric constant tensor:
#      x y z
#    x 1.822830 0.000000 0.001560 
#    y 0.000000 1.788720 0.000000 
#    z 0.001560 0.000000 1.811440 
# 
# From -- ./inp_files/382255.got.cif
#   From: 2010.06.25/outbox.cif.g09.slc.cpg/sg12_192_cif.got.tgz:382255.got - 2010.06.28 00:19:55.
