data_PCOD8109802
_publ_section_title
;
Structure prediction by ZEFSAII (Michael W. Deem and Ramdas Pophale) SiO2 
 PCOD8109802
Probable space group: C 2/M
;
_chemical_formula_sum "Si O2"
_cell_formula_units_Z 40
_cell_length_a 23.865188
_cell_length_b 9.118174
_cell_length_c 16.878429
_cell_angle_alpha 90.000000
_cell_angle_beta 33.380851
_cell_angle_gamma 90.000000
_cell_volume 2020.815565
_symmetry_space_group_name_H-M "C 2/M"
_symmetry_group_IT_number 12
_symmetry_cell_setting 'monoclinic'
loop_
_space_group_symop_operation_xyz
x,y,z
-x,y,-z
-x,-y,-z
x,-y,z
1/2+x,1/2+y,z
1/2-x,1/2+y,-z
1/2-x,1/2-y,-z
1/2+x,1/2-y,z
loop_
_atom_site_type_symbol
_atom_site_label
_atom_site_fract_x
_atom_site_fract_y
_atom_site_fract_z
Si Si1 0.619837 0.331462 0.857001
Si Si2 0.293780 0.169906 0.096041
Si Si3 0.058992 0.828376 0.352980
Si Si4 0.030458 0.668679 0.228101
Si Si5 0.839380 0.327356 0.348670
O O1 0.651346 0.500000 0.806300
O O2 0.666306 0.276297 0.883679
O O3 0.665289 0.231910 0.734526
O O4 0.500000 0.311543 0.000000
O O5 0.177511 0.212033 0.217254
O O6 0.306040 0.000000 0.107554
O O7 0.358494 0.200914 0.940127
O O8 0.011694 0.758366 0.330201
O O9 0.000000 0.766885 0.500000
O O10 0.040660 0.000000 0.367581
O O11 0.018322 0.500000 0.265557
O O12 0.946400 0.714915 0.262726
O O13 0.821100 0.500000 0.368822
O O14 0.750000 0.250000 0.500000
#
# Coordination Sequence:
#
# PCOD8109802 Si02
#       5
#     8   8   8   8   8
#     4  11  23  39  62  94 125 158 203 249 300 359
#     4  10  21  40  63  87 120 162 203 245 300 359
#     4  10  23  40  60  89 120 154 199 250 305 359
#     4  10  22  40  62  87 117 158 204 247 297 358
#     4  11  24  41  62  90 126 163 202 249 304 361
#
# _framework density 19.793989
#
# number of rings (size 3 to 8) (size 9 to 14) (size 15 to 20)
#    0.000    1.600    2.000    1.800    2.800    4.400 
#    0.000    0.000    0.000    0.000    0.000    0.000 
#    0.000    0.000    0.000    0.000    0.000    0.000 
#
# Total GULP energy -248098.099394 kJ/mol
# GULP energy per Si atom -12404.904970 kJ/mol
# Density = 1.974894 g / cm^3
# Si number density = 19.793989 Si / 1000 Ang^3
#
#
#
# Elastic Constant Matrix: (Units=GPa)
#
#
# Indices 1 2 3 4 5 6 
#
# 1 81.3301 40.1514 20.6934 0.0003 21.6494 -0.0002
# 2 40.1514 74.9248 36.5995 0.0013 8.4709 0.0000
# 3 20.6934 36.5995 107.1415 0.0005 12.1686 -0.0003
# 4 0.0003 0.0013 0.0005 33.7255 0.0000 1.8847
# 5 21.6494 8.4709 12.1686 0.0000 33.1582 0.0000
# 6 -0.0002 0.0000 -0.0003 1.8847 0.0000 47.4057
#
#
#
# Elastic Compliance Matrix: (Units=1/GPa)
#
#
# Indices 1 2 3 4 5 6 
#
# 1 0.019761 -0.009735 0.000722 0.000000 -0.010680 0.000000
# 2 -0.009735 0.020967 -0.005630 -0.000001 0.003066 0.000000
# 3 0.000722 -0.005630 0.011486 0.000000 -0.003248 0.000000
# 4 0.000000 -0.000001 0.000000 0.029717 0.000000 -0.001181
# 5 -0.010680 0.003066 -0.003248 0.000000 0.037540 0.000000
# 6 0.000000 0.000000 0.000000 -0.001181 0.000000 0.021141
#
#
# Mechanical properties :
#
#
# Convention : Reuss Voigt Hill
#
# Bulk Modulus (GPa) = 43.61567 50.92057 47.26812
# Shear Modulus (GPa) = 28.16231 33.92135 31.04183
#
# Velocity S-wave (km/s) = 3.77606 4.14420 3.96440
# Velocity P-wave (km/s) = 6.41047 6.97713 6.69979
#
# Compressibility (1/GPa) = 0.02292754
#
# Stress axis : x y z
#
# Youngs Moduli (GPa) = 50.60559 47.69364 87.06010
#
# Poissons Ratio (x) = 0.46428 -0.06283
# Poissons Ratio (y) = 0.49263 0.49018
# Poissons Ratio (z) = -0.03652 0.26853
#
# Static dielectric constant tensor:
#      x y z
#    x 3.429670 0.000000 -0.184300 
#    y 0.000000 3.575540 0.000000 
#    z -0.184300 0.000000 3.840420 
# 
# 
# High freq. dielectric constant tensor:
#      x y z
#    x 1.776110 0.000000 0.003630 
#    y 0.000000 1.770540 0.000000 
#    z 0.003630 0.000000 1.784320 
# 
# From -- ./inp_files/221219.got.cif
#   From: 2010.06.25/outbox.cif.g09.slc.cpg/sg12_111_cif.got.tgz:221219.got - 2010.06.28 00:19:55.
