data_PCOD8109919
_publ_section_title
;
Structure prediction by ZEFSAII (Michael W. Deem and Ramdas Pophale) SiO2 
 PCOD8109919
Probable space group: C 2/M
;
_chemical_formula_sum "Si O2"
_cell_formula_units_Z 48
_cell_length_a 10.931631
_cell_length_b 22.222276
_cell_length_c 15.016997
_cell_angle_alpha 90.000000
_cell_angle_beta 37.144622
_cell_angle_gamma 90.000000
_cell_volume 2202.777013
_symmetry_space_group_name_H-M "C 2/M"
_symmetry_group_IT_number 12
_symmetry_cell_setting 'monoclinic'
loop_
_space_group_symop_operation_xyz
x,y,z
-x,y,-z
-x,-y,-z
x,-y,z
1/2+x,1/2+y,z
1/2-x,1/2+y,-z
1/2-x,1/2-y,-z
1/2+x,1/2-y,z
loop_
_atom_site_type_symbol
_atom_site_label
_atom_site_fract_x
_atom_site_fract_y
_atom_site_fract_z
Si Si1 0.426140 0.068839 0.220988
Si Si2 0.264975 0.066343 0.657804
Si Si3 0.182649 0.766476 0.138452
Si Si4 0.000000 0.883237 0.500000
Si Si5 0.000000 0.636428 0.000000
Si Si6 0.596144 0.149539 0.278844
Si Si7 0.843650 0.839260 0.408960
O O1 0.184957 0.073449 0.368426
O O2 0.501141 0.093689 0.083878
O O3 0.531317 0.107191 0.236014
O O4 0.493835 0.000000 0.191979
O O5 0.500000 0.058723 0.500000
O O6 0.248726 0.111663 0.750475
O O7 0.139124 0.095106 0.648802
O O8 0.172909 0.000000 0.731541
O O9 0.222518 0.706510 0.171781
O O10 0.947719 0.787788 0.286268
O O11 0.250000 0.750000 0.000000
O O12 0.304930 0.821079 0.110945
O O13 0.945866 0.840950 0.447133
O O14 0.396581 0.174665 0.445900
#
# Coordination Sequence:
#
# PCOD8109919 Si02
#       7
#     8   8   8   4   4   8   8
#     4  11  22  40  64  92 125 164 209 257 316 374
#     4   9  19  38  63  94 126 157 200 254 312 370
#     4  12  25  43  63  87 130 165 214 254 313 377
#     4  10  21  40  64  96 126 156 209 264 314 368
#     4  12  25  44  60  90 127 170 206 262 316 378
#     4  10  22  40  66  94 123 164 208 261 310 367
#     4  10  22  41  65  97 124 161 209 258 314 366
#
# _framework density 21.790673999999999
#
# number of rings (size 3 to 8) (size 9 to 14) (size 15 to 20)
#    0.000    1.500    3.333    1.500    2.333    4.667 
#    4.500    0.000    0.000    1.000    0.000    0.000 
#    0.000    0.000    0.000    0.000    0.000    0.000 
#
# Total GULP energy -297572.911459 kJ/mol
# GULP energy per Si atom -12398.871311 kJ/mol
# Density = 2.174108 g / cm^3
# Si number density = 21.790674 Si / 1000 Ang^3
#
#
#
# Elastic Constant Matrix: (Units=GPa)
#
#
# Indices 1 2 3 4 5 6 
#
# 1 77.0532 12.8041 26.8791 -0.0102 21.2982 0.0060
# 2 12.8041 122.0089 57.8715 -0.0027 15.5015 0.0004
# 3 26.8791 57.8715 98.4104 -0.0177 23.9624 0.0031
# 4 -0.0102 -0.0027 -0.0177 54.7953 0.0102 23.8508
# 5 21.2982 15.5015 23.9624 0.0102 22.7655 -0.0026
# 6 0.0060 0.0004 0.0031 23.8508 -0.0026 30.2924
#
#
#
# Elastic Compliance Matrix: (Units=1/GPa)
#
#
# Indices 1 2 3 4 5 6 
#
# 1 0.017652 0.000850 -0.001559 0.000012 -0.015452 -0.000014
# 2 0.000850 0.011423 -0.006537 -0.000002 -0.001692 0.000002
# 3 -0.001559 -0.006537 0.017470 0.000013 -0.012479 -0.000013
# 4 0.000012 -0.000002 0.000013 0.027765 -0.000038 -0.021861
# 5 -0.015452 -0.001692 -0.012479 -0.000038 0.072670 0.000041
# 6 -0.000014 0.000002 -0.000013 -0.021861 0.000041 0.050224
#
#
# Mechanical properties :
#
#
# Convention : Reuss Voigt Hill
#
# Bulk Modulus (GPa) = 31.19859 54.73133 42.96496
# Shear Modulus (GPa) = 22.48403 34.89848 28.69125
#
# Velocity S-wave (km/s) = 3.21568 4.00626 3.63254
# Velocity P-wave (km/s) = 5.30433 6.82433 6.11177
#
# Compressibility (1/GPa) = 0.03205273
#
# Stress axis : x y z
#
# Youngs Moduli (GPa) = 56.65198 87.54447 57.24000
#
# Poissons Ratio (x) = -0.07442 0.08921
# Poissons Ratio (y) = -0.04816 0.37421
# Poissons Ratio (z) = 0.08830 0.57232
#
# Static dielectric constant tensor:
#      x y z
#    x 3.863840 0.000000 0.184730 
#    y 0.000000 4.003510 0.000020 
#    z 0.184730 0.000020 4.098330 
# 
# 
# High freq. dielectric constant tensor:
#      x y z
#    x 1.847940 0.000000 0.016630 
#    y 0.000000 1.861300 0.000000 
#    z 0.016630 0.000000 1.850250 
# 
# From -- ./inp_files/207947.got.cif
#   From: 2010.06.25/outbox.cif.g09.slc.cpg/sg12_104_cif.got.tgz:207947.got - 2010.06.28 00:19:55.
