data_PCOD8109883
_publ_section_title
;
Structure prediction by ZEFSAII (Michael W. Deem and Ramdas Pophale) SiO2 
 PCOD8109883
Probable space group: C 2/M
;
_chemical_formula_sum "Si O2"
_cell_formula_units_Z 64
_cell_length_a 13.642585
_cell_length_b 14.804122
_cell_length_c 17.727752
_cell_angle_alpha 90.000000
_cell_angle_beta 133.383060
_cell_angle_gamma 90.000000
_cell_volume 2602.163818
_symmetry_space_group_name_H-M "C 2/M"
_symmetry_group_IT_number 12
_symmetry_cell_setting 'monoclinic'
loop_
_space_group_symop_operation_xyz
x,y,z
-x,y,-z
-x,-y,-z
x,-y,z
1/2+x,1/2+y,z
1/2-x,1/2+y,-z
1/2-x,1/2-y,-z
1/2+x,1/2-y,z
loop_
_atom_site_type_symbol
_atom_site_label
_atom_site_fract_x
_atom_site_fract_y
_atom_site_fract_z
Si Si1 0.298507 0.398295 0.222029
Si Si2 0.455228 0.768312 0.893581
Si Si3 0.554544 0.838445 0.700230
Si Si4 0.153062 0.401597 0.605189
Si Si5 0.852051 0.604244 0.092714
Si Si6 0.779993 0.600120 0.514893
Si Si7 0.569422 0.603155 0.869771
Si Si8 0.019457 0.176261 0.427578
O O1 0.234468 0.500000 0.184108
O O2 0.378999 0.377210 0.187403
O O3 0.405638 0.398839 0.348500
O O4 0.190420 0.318297 0.180665
O O5 0.560418 0.844917 0.923346
O O6 0.460494 0.679772 0.840037
O O7 0.500000 0.735880 0.000000
O O8 0.664701 0.851432 0.691464
O O9 0.630947 0.845285 0.818801
O O10 0.427007 0.905753 0.631695
O O11 0.489303 0.741802 0.648989
O O12 0.219426 0.500000 0.652650
O O13 0.220584 0.350223 0.568504
O O14 0.000000 0.415040 0.500000
O O15 0.898365 0.500000 0.121193
O O16 0.695514 0.612865 0.992156
O O17 0.733017 0.500000 0.471800
O O18 0.671546 0.641709 0.513168
O O19 0.510705 0.500000 0.844218
O O20 0.000000 0.221540 0.500000
#
# Coordination Sequence:
#
# PCOD8109883 Si02
#       8
#     8   8   8   8   8   8   8   8
#     4  11  26  50  76 104 146 200 254 308 372 445
#     4  12  25  43  80 109 147 192 250 303 369 444
#     4  11  22  39  66  99 141 183 232 298 365 434
#     4   8  15  33  60  87 120 167 221 277 343 415
#     4  11  23  41  72 112 149 190 246 306 367 442
#     4  10  21  40  64  90 129 181 237 296 361 431
#     4  10  24  49  76 110 155 196 239 303 377 448
#     4  12  27  44  66  99 142 189 246 307 367 433
#
# _framework density 24.594915
#
# number of rings (size 3 to 8) (size 9 to 14) (size 15 to 20)
#    0.000    1.375    1.250    5.250    3.500    1.750 
#    4.500    0.000    0.000    0.000    0.000    0.000 
#    0.000    0.000    0.000    0.000    0.000    0.000 
#
# Total GULP energy -396438.996661 kJ/mol
# GULP energy per Si atom -12388.718646 kJ/mol
# Density = 2.453894 g / cm^3
# Si number density = 24.594915 Si / 1000 Ang^3
#
#
#
# Elastic Constant Matrix: (Units=GPa)
#
#
# Indices 1 2 3 4 5 6 
#
# 1 118.9915 47.0482 39.7595 0.0000 -6.6579 0.0000
# 2 47.0482 128.6519 14.9083 0.0000 -3.3558 0.0000
# 3 39.7595 14.9083 95.0813 0.0000 -17.5865 0.0000
# 4 0.0000 0.0000 0.0000 37.8442 0.0000 -0.9026
# 5 -6.6579 -3.3558 -17.5865 0.0000 31.2262 0.0000
# 6 0.0000 0.0000 0.0000 -0.9026 0.0000 38.6258
#
#
#
# Elastic Compliance Matrix: (Units=1/GPa)
#
#
# Indices 1 2 3 4 5 6 
#
# 1 0.011217 -0.003626 -0.004188 0.000000 -0.000357 0.000000
# 2 -0.003626 0.009090 0.000144 0.000000 0.000285 0.000000
# 3 -0.004188 0.000144 0.013489 0.000000 0.006719 0.000000
# 4 0.000000 0.000000 0.000000 0.026439 0.000000 0.000618
# 5 -0.000357 0.000285 0.006719 0.000000 0.035763 0.000000
# 6 0.000000 0.000000 0.000000 0.000618 0.000000 0.025904
#
#
# Mechanical properties :
#
#
# Convention : Reuss Voigt Hill
#
# Bulk Modulus (GPa) = 54.18592 60.68410 57.43501
# Shear Modulus (GPa) = 34.86891 37.60648 36.23769
#
# Velocity S-wave (km/s) = 3.76936 3.91453 3.84263
# Velocity P-wave (km/s) = 6.40494 6.72000 6.56436
#
# Compressibility (1/GPa) = 0.01845498
#
# Stress axis : x y z
#
# Youngs Moduli (GPa) = 89.14950 110.01393 74.13503
#
# Poissons Ratio (x) = 0.39892 0.31048
# Poissons Ratio (y) = 0.32327 -0.01066
# Poissons Ratio (z) = 0.37336 -0.01581
#
# Static dielectric constant tensor:
#      x y z
#    x 4.598880 0.000000 -0.111180 
#    y 0.000000 4.587070 0.000000 
#    z -0.111180 0.000000 4.382070 
# 
# 
# High freq. dielectric constant tensor:
#      x y z
#    x 1.974200 0.000000 -0.010490 
#    y 0.000000 1.986070 0.000000 
#    z -0.010490 0.000000 1.968890 
# 
# From -- ./inp_files/270727.got.cif
#   From: 2010.06.25/outbox.cif.g09.slc.cpg/sg12_136_cif.got.tgz:270727.got - 2010.06.28 00:19:55.
