data_PCOD8109079
_publ_section_title
;
Structure prediction by ZEFSAII (Michael W. Deem and Ramdas Pophale) SiO2 
 PCOD8109079
Probable space group: C 2/M
;
_chemical_formula_sum "Si O2"
_cell_formula_units_Z 48
_cell_length_a 20.791995
_cell_length_b 14.659207
_cell_length_c 11.108463
_cell_angle_alpha 90.000000
_cell_angle_beta 48.288999
_cell_angle_gamma 90.000000
_cell_volume 2527.531048
_symmetry_space_group_name_H-M "C 2/M"
_symmetry_group_IT_number 12
_symmetry_cell_setting 'monoclinic'
loop_
_space_group_symop_operation_xyz
x,y,z
-x,y,-z
-x,-y,-z
x,-y,z
1/2+x,1/2+y,z
1/2-x,1/2+y,-z
1/2-x,1/2-y,-z
1/2+x,1/2-y,z
loop_
_atom_site_type_symbol
_atom_site_label
_atom_site_fract_x
_atom_site_fract_y
_atom_site_fract_z
Si Si1 0.030249 0.000000 0.828842
Si Si2 0.792759 0.500000 0.019999
Si Si3 0.102291 0.500000 0.862026
Si Si4 0.863869 0.829437 0.384716
Si Si5 0.326583 0.803081 0.965063
Si Si6 0.519287 0.699517 0.347189
Si Si7 0.309901 0.175981 0.271980
Si Si8 0.912389 0.000000 0.761643
O O1 0.091611 0.915962 0.728187
O O2 0.939863 0.000000 0.867943
O O3 0.000000 0.000000 0.000000
O O4 0.825563 0.407343 0.915669
O O5 0.835829 0.500000 0.098009
O O6 0.688384 0.500000 0.146195
O O7 0.126520 0.594064 0.765022
O O8 0.000000 0.500000 0.000000
O O9 0.785086 0.855691 0.570292
O O10 0.835564 0.766780 0.309606
O O11 0.932533 0.781345 0.383570
O O12 0.412151 0.753497 0.817368
O O13 0.250000 0.750000 0.000000
O O14 0.315555 0.802660 0.122957
O O15 0.500000 0.745270 0.500000
O O16 0.545466 0.593644 0.340848
#
# Coordination Sequence:
#
# PCOD8109079 Si02
#       8
#     4   4   4   8   8   8   8   4
#     4  10  23  36  61  96 131 158 195 252 323 373
#     4  10  22  38  59  89 118 153 212 244 304 355
#     4  10  23  37  64  87 116 157 209 257 293 359
#     4  10  23  39  60  88 125 160 201 254 308 371
#     4  11  22  38  64  88 122 160 204 257 304 373
#     4  11  23  38  62  92 124 156 206 257 314 369
#     4  10  23  41  62  88 120 162 209 252 306 366
#     4  10  21  39  61  95 117 162 199 258 305 374
#
# _framework density 18.990863999999998
#
# number of rings (size 3 to 8) (size 9 to 14) (size 15 to 20)
#    0.000    1.667    1.667    1.750   11.667    0.000 
#    0.000    0.417    0.000    4.000    0.000    0.000 
#    0.000    0.000    0.000    0.000    0.000    0.000 
#
# Total GULP energy -297358.565272 kJ/mol
# GULP energy per Si atom -12389.940220 kJ/mol
# Density = 1.894764 g / cm^3
# Si number density = 18.990864 Si / 1000 Ang^3
#
#
#
# Elastic Constant Matrix: (Units=GPa)
#
#
# Indices 1 2 3 4 5 6 
#
# 1 113.0780 33.5195 72.6805 0.0000 -12.7188 0.0000
# 2 33.5195 101.3650 49.8316 0.0000 1.7491 0.0000
# 3 72.6805 49.8316 159.3121 0.0000 -1.4120 0.0000
# 4 0.0000 0.0000 0.0000 27.2024 0.0000 -0.2012
# 5 -12.7188 1.7491 -1.4120 0.0000 42.2184 0.0000
# 6 0.0000 0.0000 0.0000 -0.2012 0.0000 25.7333
#
#
#
# Elastic Compliance Matrix: (Units=1/GPa)
#
#
# Indices 1 2 3 4 5 6 
#
# 1 0.013343 -0.001778 -0.005497 0.000000 0.003910 0.000000
# 2 -0.001778 0.011910 -0.002924 0.000000 -0.001127 0.000000
# 3 -0.005497 -0.002924 0.009689 0.000000 -0.001211 0.000000
# 4 0.000000 0.000000 0.000000 0.036764 0.000000 0.000287
# 5 0.003910 -0.001127 -0.001211 0.000000 0.024870 0.000000
# 6 0.000000 0.000000 0.000000 0.000287 0.000000 0.038862
#
#
# Mechanical properties :
#
#
# Convention : Reuss Voigt Hill
#
# Bulk Modulus (GPa) = 68.75394 76.20201 72.47798
# Shear Modulus (GPa) = 31.11699 33.54572 32.33136
#
# Velocity S-wave (km/s) = 4.05226 4.20743 4.13057
# Velocity P-wave (km/s) = 7.62737 7.98849 7.81002
#
# Compressibility (1/GPa) = 0.01454462
#
# Stress axis : x y z
#
# Youngs Moduli (GPa) = 74.94532 83.96105 103.21349
#
# Poissons Ratio (x) = 0.14925 0.56733
# Poissons Ratio (y) = 0.13322 0.30185
# Poissons Ratio (z) = 0.41195 0.24554
#
# Static dielectric constant tensor:
#      x y z
#    x 3.593120 0.000000 -0.076240 
#    y 0.000000 3.862340 0.000000 
#    z -0.076240 0.000000 3.299520 
# 
# 
# High freq. dielectric constant tensor:
#      x y z
#    x 1.748390 0.000000 -0.012710 
#    y 0.000000 1.748910 0.000000 
#    z -0.012710 0.000000 1.733610 
# 
# From -- ./inp_files/167596.got.cif
#   From: 2010.06.25/outbox.cif.g09.slc.cpg/sg12_84_cif.got.tgz:167596.got - 2010.06.28 00:19:55.
