data_PCOD8109152
_publ_section_title
;
Structure prediction by ZEFSAII (Michael W. Deem and Ramdas Pophale) SiO2 
 PCOD8109152
Probable space group: C 2/M
;
_chemical_formula_sum "Si O2"
_cell_formula_units_Z 64
_cell_length_a 19.047888
_cell_length_b 10.977287
_cell_length_c 15.802605
_cell_angle_alpha 90.000000
_cell_angle_beta 80.281753
_cell_angle_gamma 90.000000
_cell_volume 3256.815475
_symmetry_space_group_name_H-M "C 2/M"
_symmetry_group_IT_number 12
_symmetry_cell_setting 'monoclinic'
loop_
_space_group_symop_operation_xyz
x,y,z
-x,y,-z
-x,-y,-z
x,-y,z
1/2+x,1/2+y,z
1/2-x,1/2+y,-z
1/2-x,1/2-y,-z
1/2+x,1/2-y,z
loop_
_atom_site_type_symbol
_atom_site_label
_atom_site_fract_x
_atom_site_fract_y
_atom_site_fract_z
Si Si1 0.669243 0.866314 0.080295
Si Si2 0.857186 0.141232 0.664064
Si Si3 0.292967 0.858594 0.250987
Si Si4 0.178664 0.783270 0.914052
Si Si5 0.922993 0.862962 0.475956
Si Si6 0.027966 0.862605 0.906795
Si Si7 0.580969 0.138893 0.653102
Si Si8 0.451013 0.220830 0.774410
O O1 0.750136 0.863670 0.097925
O O2 0.614267 0.847890 0.168047
O O3 0.655598 0.000000 0.044530
O O4 0.657782 0.764514 0.011366
O O5 0.781457 0.202589 0.704178
O O6 0.867391 0.164336 0.562343
O O7 0.921158 0.194462 0.706486
O O8 0.857726 0.000000 0.685958
O O9 0.307990 0.830270 0.150238
O O10 0.357480 0.815675 0.296474
O O11 0.283770 0.000000 0.262517
O O12 0.113901 0.861889 0.889928
O O13 0.918902 0.747086 0.415255
O O14 0.000000 0.868360 0.500000
O O15 0.907549 0.000000 0.439181
O O16 0.996399 0.794416 0.833414
O O17 0.999968 0.000000 0.906700
O O18 0.000000 0.801991 0.000000
O O19 0.506135 0.129274 0.718220
O O20 0.594726 0.000000 0.614285
#
# Coordination Sequence:
#
# PCOD8109152 Si02
#       8
#     8   8   8   8   8   8   8   8
#     4  11  24  38  57  85 118 157 201 248 297 355
#     4  10  21  39  64  89 116 157 200 248 298 361
#     4  10  21  39  62  88 121 157 199 242 295 363
#     4  11  21  41  59  82 118 159 201 243 299 352
#     4  10  21  40  65  92 122 156 202 252 304 363
#     4  11  23  38  58  87 120 156 202 257 303 348
#     4  11  24  40  63  93 127 160 198 248 308 370
#     4  12  21  39  60  88 122 156 201 249 297 358
#
# _framework density 19.651097
#
# number of rings (size 3 to 8) (size 9 to 14) (size 15 to 20)
#    0.000    1.250    5.000    1.500    0.000    1.250 
#    0.000    0.625    0.000    0.000    0.000    0.000 
#    0.000    0.000    0.000    0.000    0.000    0.000 
#
# Total GULP energy -396622.296815 kJ/mol
# GULP energy per Si atom -12394.446775 kJ/mol
# Density = 1.960637 g / cm^3
# Si number density = 19.651097 Si / 1000 Ang^3
#
#
#
# Elastic Constant Matrix: (Units=GPa)
#
#
# Indices 1 2 3 4 5 6 
#
# 1 104.7885 21.8145 30.2571 0.0000 -4.7854 0.0000
# 2 21.8145 88.7074 41.8673 0.0000 7.8718 0.0000
# 3 30.2571 41.8673 88.6710 0.0000 -2.6363 0.0000
# 4 0.0000 0.0000 0.0000 30.6292 0.0000 -0.8190
# 5 -4.7854 7.8718 -2.6363 0.0000 25.5304 0.0000
# 6 0.0000 0.0000 0.0000 -0.8190 0.0000 24.7617
#
#
#
# Elastic Compliance Matrix: (Units=1/GPa)
#
#
# Indices 1 2 3 4 5 6 
#
# 1 0.010792 -0.001466 -0.002926 0.000000 0.002173 0.000000
# 2 -0.001466 0.015426 -0.006954 0.000000 -0.005749 0.000000
# 3 -0.002926 -0.006954 0.015655 0.000000 0.003212 0.000000
# 4 0.000000 0.000000 0.000000 0.032678 0.000000 0.001081
# 5 0.002173 -0.005749 0.003212 0.000000 0.041681 0.000000
# 6 0.000000 0.000000 0.000000 0.001081 0.000000 0.040421
#
#
# Mechanical properties :
#
#
# Convention : Reuss Voigt Hill
#
# Bulk Modulus (GPa) = 52.13447 52.22719 52.18083
# Shear Modulus (GPa) = 26.91965 28.73278 27.82622
#
# Velocity S-wave (km/s) = 3.70520 3.82795 3.76708
# Velocity P-wave (km/s) = 6.70018 6.79504 6.74777
#
# Compressibility (1/GPa) = 0.01918117
#
# Stress axis : x y z
#
# Youngs Moduli (GPa) = 92.65919 64.82601 63.87681
#
# Poissons Ratio (x) = 0.09502 0.18690
# Poissons Ratio (y) = 0.13582 0.44422
# Poissons Ratio (z) = 0.27111 0.45082
#
# Static dielectric constant tensor:
#      x y z
#    x 4.025470 0.000000 -0.078090 
#    y 0.000000 3.392870 0.000000 
#    z -0.078090 0.000000 3.639130 
# 
# 
# High freq. dielectric constant tensor:
#      x y z
#    x 1.782540 0.000000 -0.008810 
#    y 0.000000 1.752280 0.000000 
#    z -0.008810 0.000000 1.761030 
# 
# From -- ./inp_files/223844.got.cif
#   From: 2010.06.25/outbox.cif.g09.slc.cpg/sg12_112_cif.got.tgz:223844.got - 2010.06.28 00:19:55.
