data_PCOD8109820
_publ_section_title
;
Structure prediction by ZEFSAII (Michael W. Deem and Ramdas Pophale) SiO2 
 PCOD8109820
Probable space group: C 2/M
;
_chemical_formula_sum "Si O2"
_cell_formula_units_Z 48
_cell_length_a 19.449359
_cell_length_b 8.994022
_cell_length_c 13.720349
_cell_angle_alpha 90.000000
_cell_angle_beta 90.129767
_cell_angle_gamma 90.000000
_cell_volume 2400.066543
_symmetry_space_group_name_H-M "C 2/M"
_symmetry_group_IT_number 12
_symmetry_cell_setting 'monoclinic'
loop_
_space_group_symop_operation_xyz
x,y,z
-x,y,-z
-x,-y,-z
x,-y,z
1/2+x,1/2+y,z
1/2-x,1/2+y,-z
1/2-x,1/2-y,-z
1/2+x,1/2-y,z
loop_
_atom_site_type_symbol
_atom_site_label
_atom_site_fract_x
_atom_site_fract_y
_atom_site_fract_z
Si Si1 0.860806 0.169981 0.095762
Si Si2 0.796305 0.825617 0.419618
Si Si3 0.952674 0.826113 0.408075
Si Si4 0.022537 0.675571 0.790618
Si Si5 0.892759 0.826253 0.875575
Si Si6 0.769641 0.670048 0.784067
O O1 0.781584 0.190423 0.125110
O O2 0.905064 0.277902 0.163372
O O3 0.884780 0.000000 0.114373
O O4 0.867790 0.214565 0.983556
O O5 0.750000 0.750000 0.500000
O O6 0.875126 0.771652 0.429745
O O7 0.768888 0.778686 0.313722
O O8 0.791687 0.000000 0.435963
O O9 0.000000 0.788976 0.500000
O O10 0.984849 0.737707 0.318185
O O11 0.953255 0.000000 0.381799
O O12 0.016255 0.500000 0.787917
O O13 0.963388 0.741198 0.858692
O O14 0.835692 0.773373 0.798545
O O15 0.905434 0.000000 0.861331
O O16 0.794701 0.500000 0.775974
#
# Coordination Sequence:
#
# PCOD8109820 Si02
#       6
#     8   8   8   8   8   8
#     4  10  21  42  66  88 121 164 208 254 306 362
#     4  10  22  40  63  91 124 159 198 249 304 361
#     4  10  22  43  68  91 119 161 206 250 303 364
#     4  12  25  40  62  92 127 163 202 255 308 363
#     4  11  24  39  62  92 123 164 210 253 300 365
#     4  10  21  40  63  89 126 162 198 254 312 360
#
# _framework density 19.999444
#
# number of rings (size 3 to 8) (size 9 to 14) (size 15 to 20)
#    0.000    1.500    1.667    3.000    2.333    5.667 
#    0.000    0.000    0.000    0.000    0.000    0.000 
#    0.000    0.000    0.000    0.000    0.000    0.000 
#
# Total GULP energy -297752.458683 kJ/mol
# GULP energy per Si atom -12406.352445 kJ/mol
# Density = 1.995392 g / cm^3
# Si number density = 19.999444 Si / 1000 Ang^3
#
#
#
# Elastic Constant Matrix: (Units=GPa)
#
#
# Indices 1 2 3 4 5 6 
#
# 1 61.9288 21.0301 19.9580 0.0000 4.0071 0.0000
# 2 21.0301 78.2490 35.8949 0.0000 2.3629 0.0000
# 3 19.9580 35.8949 92.8060 0.0000 -2.9282 0.0000
# 4 0.0000 0.0000 0.0000 31.1607 0.0000 -2.3549
# 5 4.0071 2.3629 -2.9282 0.0000 40.4947 0.0000
# 6 0.0000 0.0000 0.0000 -2.3549 0.0000 36.0129
#
#
#
# Elastic Compliance Matrix: (Units=1/GPa)
#
#
# Indices 1 2 3 4 5 6 
#
# 1 0.018348 -0.003697 -0.002572 0.000000 -0.001786 0.000000
# 2 -0.003697 0.016355 -0.005562 0.000000 -0.000991 0.000000
# 3 -0.002572 -0.005562 0.013529 0.000000 0.001557 0.000000
# 4 0.000000 0.000000 0.000000 0.032251 0.000000 0.002109
# 5 -0.001786 -0.000991 0.001557 0.000000 0.025042 0.000000
# 6 0.000000 0.000000 0.000000 0.002109 0.000000 0.027906
#
#
# Mechanical properties :
#
#
# Convention : Reuss Voigt Hill
#
# Bulk Modulus (GPa) = 40.70212 42.97221 41.83717
# Shear Modulus (GPa) = 30.25156 31.94037 31.09597
#
# Velocity S-wave (km/s) = 3.89346 4.00066 3.94743
# Velocity P-wave (km/s) = 6.37243 6.54780 6.46071
#
# Compressibility (1/GPa) = 0.02456874
#
# Stress axis : x y z
#
# Youngs Moduli (GPa) = 54.50318 61.14488 73.91790
#
# Poissons Ratio (x) = 0.22607 0.19012
# Poissons Ratio (y) = 0.20152 0.41111
# Poissons Ratio (z) = 0.14018 0.34007
#
# Static dielectric constant tensor:
#      x y z
#    x 3.677810 0.000000 -0.042710 
#    y 0.000000 3.543230 0.000000 
#    z -0.042710 0.000000 3.716820 
# 
# 
# High freq. dielectric constant tensor:
#      x y z
#    x 1.790600 0.000000 -0.002200 
#    y 0.000000 1.771520 0.000000 
#    z -0.002200 0.000000 1.790030 
# 
# From -- ./inp_files/221699.got.cif
#   From: 2010.06.25/outbox.cif.g09.slc.cpg/sg12_111_cif.got.tgz:221699.got - 2010.06.28 00:19:55.
