data_PCOD8109012
_publ_section_title
;
Structure prediction by ZEFSAII (Michael W. Deem and Ramdas Pophale) SiO2 
 PCOD8109012
Probable space group: C 2/M
;
_chemical_formula_sum "Si O2"
_cell_formula_units_Z 64
_cell_length_a 19.690003
_cell_length_b 8.844539
_cell_length_c 20.914542
_cell_angle_alpha 90.000000
_cell_angle_beta 62.239712
_cell_angle_gamma 90.000000
_cell_volume 3223.038617
_symmetry_space_group_name_H-M "C 2/M"
_symmetry_group_IT_number 12
_symmetry_cell_setting 'monoclinic'
loop_
_space_group_symop_operation_xyz
x,y,z
-x,y,-z
-x,-y,-z
x,-y,z
1/2+x,1/2+y,z
1/2-x,1/2+y,-z
1/2-x,1/2-y,-z
1/2+x,1/2-y,z
loop_
_atom_site_type_symbol
_atom_site_label
_atom_site_fract_x
_atom_site_fract_y
_atom_site_fract_z
Si Si1 0.189280 0.322714 0.815478
Si Si2 0.225523 0.178209 0.444321
Si Si3 0.932930 0.676676 0.481191
Si Si4 0.672898 0.177439 0.058458
Si Si5 0.845545 0.824998 0.299927
Si Si6 0.483825 0.326000 0.330388
Si Si7 0.583101 0.821387 0.976766
Si Si8 0.147187 0.175411 0.203732
O O1 0.176103 0.500000 0.808480
O O2 0.153333 0.228323 0.773476
O O3 0.145814 0.264626 0.898010
O O4 0.279613 0.286189 0.784150
O O5 0.250000 0.250000 0.500000
O O6 0.141003 0.232599 0.462344
O O7 0.283304 0.225295 0.363755
O O8 0.226044 0.000000 0.452046
O O9 0.914253 0.500000 0.491253
O O10 0.955263 0.720239 0.399639
O O11 0.000000 0.722087 0.500000
O O12 0.648427 0.230042 0.138713
O O13 0.685295 0.000000 0.053379
O O14 0.750000 0.250000 0.000000
O O15 0.606889 0.226649 0.037644
O O16 0.929852 0.798309 0.292599
O O17 0.821780 0.000000 0.314936
O O18 0.478999 0.500000 0.354895
O O19 0.570718 0.279942 0.275582
O O20 0.578087 0.000000 0.972744
O O21 0.500000 0.747512 0.000000
O O22 0.147429 0.000000 0.184324
#
# Coordination Sequence:
#
# PCOD8109012 Si02
#       8
#     8   8   8   8   8   8   8   8
#     4  10  21  39  61  86 120 162 204 251 304 363
#     4  12  24  42  68  94 122 163 207 253 311 369
#     4  11  25  43  65  96 129 161 206 261 307 361
#     4  11  21  37  62  88 115 156 199 249 306 360
#     4  11  24  41  61  90 126 162 204 254 305 364
#     4  10  23  42  63  87 123 168 205 249 306 366
#     4   9  19  36  58  86 119 154 199 248 296 356
#     4  10  22  41  61  87 121 159 206 252 303 367
#
# _framework density 19.857039
#
# number of rings (size 3 to 8) (size 9 to 14) (size 15 to 20)
#    0.000    1.500    2.500    2.250    3.500    2.500 
#    0.000    0.000    0.000    1.875    0.000    0.000 
#    0.000    0.000    0.000    0.000    0.000    0.000 
#
# Total GULP energy -396936.949498 kJ/mol
# GULP energy per Si atom -12404.279672 kJ/mol
# Density = 1.981184 g / cm^3
# Si number density = 19.857039 Si / 1000 Ang^3
#
#
#
# Elastic Constant Matrix: (Units=GPa)
#
#
# Indices 1 2 3 4 5 6 
#
# 1 131.5110 41.5517 30.3380 0.0002 -5.7266 0.0000
# 2 41.5517 79.3627 17.2764 0.0003 2.3908 -0.0001
# 3 30.3380 17.2764 61.2575 0.0000 -1.5338 0.0002
# 4 0.0002 0.0003 0.0000 33.4583 0.0000 3.9842
# 5 -5.7266 2.3908 -1.5338 0.0000 43.7378 0.0001
# 6 0.0000 -0.0001 0.0002 3.9842 0.0001 27.3678
#
#
#
# Elastic Compliance Matrix: (Units=1/GPa)
#
#
# Indices 1 2 3 4 5 6 
#
# 1 0.009903 -0.004440 -0.003617 0.000000 0.001412 0.000000
# 2 -0.004440 0.015448 -0.002196 0.000000 -0.001503 0.000000
# 3 -0.003617 -0.002196 0.018743 0.000000 0.000304 0.000000
# 4 0.000000 0.000000 0.000000 0.030415 0.000000 -0.004428
# 5 0.001412 -0.001503 0.000304 0.000000 0.023141 0.000000
# 6 0.000000 0.000000 0.000000 -0.004428 0.000000 0.037184
#
#
# Mechanical properties :
#
#
# Convention : Reuss Voigt Hill
#
# Bulk Modulus (GPa) = 42.39283 50.05147 46.22215
# Shear Modulus (GPa) = 30.63705 33.11046 31.87375
#
# Velocity S-wave (km/s) = 3.93221 4.08786 4.01079
# Velocity P-wave (km/s) = 6.48165 6.89503 6.69153
#
# Compressibility (1/GPa) = 0.02358889
#
# Stress axis : x y z
#
# Youngs Moduli (GPa) = 100.98381 64.73247 53.35447
#
# Poissons Ratio (x) = 0.28741 0.19297
# Poissons Ratio (y) = 0.44836 0.11714
# Poissons Ratio (z) = 0.36523 0.14213
#
# Static dielectric constant tensor:
#      x y z
#    x 3.754490 -0.000030 -0.567430 
#    y -0.000030 3.068670 -0.000060 
#    z -0.567430 -0.000060 2.327290 
# 
# 
# High freq. dielectric constant tensor:
#      x y z
#    x 1.792070 0.000000 -0.001520 
#    y 0.000000 1.764570 0.000000 
#    z -0.001520 0.000000 1.777600 
# 
# From -- ./inp_files/319982.got.cif
#   From: 2010.06.25/outbox.cif.g09.slc.cpg/sg12_160_cif.got.tgz:319982.got - 2010.06.28 00:19:55.
