data_PCOD8109513
_publ_section_title
;
Structure prediction by ZEFSAII (Michael W. Deem and Ramdas Pophale) SiO2 
 PCOD8109513
Probable space group: C 2/M
;
_chemical_formula_sum "Si O2"
_cell_formula_units_Z 44
_cell_length_a 28.261164
_cell_length_b 7.533894
_cell_length_c 10.468257
_cell_angle_alpha 90.000000
_cell_angle_beta 110.673598
_cell_angle_gamma 90.000000
_cell_volume 2085.342060
_symmetry_space_group_name_H-M "C 2/M"
_symmetry_group_IT_number 12
_symmetry_cell_setting 'monoclinic'
loop_
_space_group_symop_operation_xyz
x,y,z
-x,y,-z
-x,-y,-z
x,-y,z
1/2+x,1/2+y,z
1/2-x,1/2+y,-z
1/2-x,1/2-y,-z
1/2+x,1/2-y,z
loop_
_atom_site_type_symbol
_atom_site_label
_atom_site_fract_x
_atom_site_fract_y
_atom_site_fract_z
Si Si1 0.086291 0.500000 0.272648
Si Si2 0.544320 0.303108 0.643368
Si Si3 0.224723 0.294834 0.608756
Si Si4 0.712963 0.707133 0.081904
Si Si5 0.972305 0.500000 0.175577
Si Si6 0.113972 0.801806 0.493934
Si Si7 0.133571 0.500000 0.055488
O O1 0.095189 0.675475 0.363855
O O2 0.129615 0.500000 0.205265
O O3 0.028245 0.500000 0.164114
O O4 0.500000 0.299042 0.500000
O O5 0.552469 0.500000 0.707946
O O6 0.593720 0.237068 0.612754
O O7 0.531689 0.176295 0.746164
O O8 0.210321 0.500000 0.604101
O O9 0.250000 0.250000 0.500000
O O10 0.260092 0.239084 0.760230
O O11 0.173780 0.183926 0.565305
O O12 0.697534 0.500000 0.064982
O O13 0.662114 0.825843 0.027396
O O14 0.750000 0.750000 0.000000
O O15 0.925484 0.500000 0.035545
O O16 0.092844 0.000000 0.443910
#
# Coordination Sequence:
#
# PCOD8109513 Si02
#       7
#     4   8   8   8   4   8   4
#     4  12  24  46  66  97 138 181 224 283 337 399
#     4  10  21  39  65 100 131 165 215 284 341 389
#     4  11  24  40  65 100 135 173 219 273 342 412
#     4  11  26  47  70  98 135 179 228 280 336 407
#     4  12  25  42  69  94 136 185 234 275 328 403
#     4  11  23  38  67 100 132 169 216 276 346 404
#     4  12  29  45  68  96 137 184 233 275 332 394
#
# _framework density 21.099656
#
# number of rings (size 3 to 8) (size 9 to 14) (size 15 to 20)
#    0.000    0.909    3.636    2.727    5.091    2.909 
#    0.000    0.000    0.000    3.273    0.000    0.000 
#    0.000    0.000    0.000    0.000    0.000    0.000 
#
# Total GULP energy -272795.939508 kJ/mol
# GULP energy per Si atom -12399.815432 kJ/mol
# Density = 2.105163 g / cm^3
# Si number density = 21.099656 Si / 1000 Ang^3
#
#
#
# Elastic Constant Matrix: (Units=GPa)
#
#
# Indices 1 2 3 4 5 6 
#
# 1 138.0433 32.8355 24.5673 0.0000 -9.8917 0.0000
# 2 32.8355 116.5784 29.9332 0.0000 -4.9341 0.0000
# 3 24.5673 29.9332 74.2818 0.0000 -6.8593 0.0000
# 4 0.0000 0.0000 0.0000 50.1654 0.0000 2.5477
# 5 -9.8917 -4.9341 -6.8593 0.0000 43.7124 0.0000
# 6 0.0000 0.0000 0.0000 2.5477 0.0000 31.8795
#
#
#
# Elastic Compliance Matrix: (Units=1/GPa)
#
#
# Indices 1 2 3 4 5 6 
#
# 1 0.008084 -0.001746 -0.001846 0.000000 0.001343 0.000000
# 2 -0.001746 0.009955 -0.003416 0.000000 0.000192 0.000000
# 3 -0.001846 -0.003416 0.015601 0.000000 0.001645 0.000000
# 4 0.000000 0.000000 0.000000 0.020015 0.000000 -0.001600
# 5 0.001343 0.000192 0.001645 0.000000 0.023460 0.000000
# 6 0.000000 0.000000 0.000000 -0.001600 0.000000 0.031496
#
#
# Mechanical properties :
#
#
# Convention : Reuss Voigt Hill
#
# Bulk Modulus (GPa) = 50.95916 55.95283 53.45599
# Shear Modulus (GPa) = 38.70853 41.25597 39.98225
#
# Velocity S-wave (km/s) = 4.28782 4.42666 4.35780
# Velocity P-wave (km/s) = 6.97982 7.25969 7.12113
#
# Compressibility (1/GPa) = 0.01962356
#
# Stress axis : x y z
#
# Youngs Moduli (GPa) = 123.69800 100.45132 64.09709
#
# Poissons Ratio (x) = 0.17541 0.11833
# Poissons Ratio (y) = 0.21600 0.21897
# Poissons Ratio (z) = 0.22836 0.34317
#
# Static dielectric constant tensor:
#      x y z
#    x 3.788360 0.000000 0.234100 
#    y 0.000000 4.236060 0.000000 
#    z 0.234100 0.000000 3.421340 
# 
# 
# High freq. dielectric constant tensor:
#      x y z
#    x 1.846880 0.000000 -0.005870 
#    y 0.000000 1.840960 0.000000 
#    z -0.005870 0.000000 1.810020 
# 
# From -- ./inp_files/108340.got.cif
#   From: 2010.06.25/outbox.cif.g09.slc.cpg/sg12_55_cif.got.tgz:108340.got - 2010.06.28 00:19:55.
