data_PCOD8109440
_publ_section_title
;
Structure prediction by ZEFSAII (Michael W. Deem and Ramdas Pophale) SiO2 
 PCOD8109440
Probable space group: C 2/M
;
_chemical_formula_sum "Si O2"
_cell_formula_units_Z 28
_cell_length_a 9.473065
_cell_length_b 30.723998
_cell_length_c 5.048553
_cell_angle_alpha 90.000000
_cell_angle_beta 113.685411
_cell_angle_gamma 90.000000
_cell_volume 1345.609869
_symmetry_space_group_name_H-M "C 2/M"
_symmetry_group_IT_number 12
_symmetry_cell_setting 'monoclinic'
loop_
_space_group_symop_operation_xyz
x,y,z
-x,y,-z
-x,-y,-z
x,-y,z
1/2+x,1/2+y,z
1/2-x,1/2+y,-z
1/2-x,1/2-y,-z
1/2+x,1/2-y,z
loop_
_atom_site_type_symbol
_atom_site_label
_atom_site_fract_x
_atom_site_fract_y
_atom_site_fract_z
Si Si1 0.322256 0.727083 0.305886
Si Si2 0.109300 0.000000 0.324985
Si Si3 0.324996 0.079607 0.352612
Si Si4 0.324262 0.863828 0.843496
O O1 0.500000 0.733877 0.500000
O O2 0.250000 0.750000 0.500000
O O3 0.290888 0.676332 0.228569
O O4 0.250000 0.750000 0.000000
O O5 0.214918 0.042179 0.377546
O O6 0.000000 0.000000 0.500000
O O7 0.000000 0.000000 0.000000
O O8 0.500000 0.061742 0.500000
O O9 0.301351 0.119378 0.530859
O O10 0.285809 0.098087 0.029391
O O11 0.500000 0.847391 0.000000
#
# Coordination Sequence:
#
# PCOD8109440 Si02
#       4
#     8   4   8   8
#     4  12  25  42  65  94 129 169 211 261 316 377
#     4  12  25  40  61  92 126 160 202 260 313 366
#     4  10  22  41  64  88 121 164 207 251 309 378
#     4  10  21  39  64  92 121 160 209 260 310 370
#
# _framework density 20.808406999999999
#
# number of rings (size 3 to 8) (size 9 to 14) (size 15 to 20)
#    0.000    1.143    0.000    6.429    0.000    5.714 
#    0.000    5.714    0.000    0.000    0.000    0.000 
#    0.000    0.000    0.000    0.000    0.000    0.000 
#
# Total GULP energy -173511.646081 kJ/mol
# GULP energy per Si atom -12393.689006 kJ/mol
# Density = 2.076105 g / cm^3
# Si number density = 20.808407 Si / 1000 Ang^3
#
#
#
# Elastic Constant Matrix: (Units=GPa)
#
#
# Indices 1 2 3 4 5 6 
#
# 1 160.8286 69.3882 69.1398 0.0000 3.6027 0.0000
# 2 69.3882 94.7412 36.4713 0.0000 15.1682 0.0000
# 3 69.1398 36.4713 136.9746 0.0000 0.5010 0.0000
# 4 0.0000 0.0000 0.0000 8.3636 0.0000 0.1029
# 5 3.6027 15.1682 0.5010 0.0000 44.0430 0.0000
# 6 0.0000 0.0000 0.0000 0.1029 0.0000 48.3197
#
#
#
# Elastic Compliance Matrix: (Units=1/GPa)
#
#
# Indices 1 2 3 4 5 6 
#
# 1 0.010572 -0.006594 -0.003586 0.000000 0.001447 0.000000
# 2 -0.006594 0.016629 -0.001080 0.000000 -0.005175 0.000000
# 3 -0.003586 -0.001080 0.009396 0.000000 0.000558 0.000000
# 4 0.000000 0.000000 0.000000 0.119569 0.000000 -0.000255
# 5 0.001447 -0.005175 0.000558 0.000000 0.024363 0.000000
# 6 0.000000 0.000000 0.000000 -0.000255 0.000000 0.020696
#
#
# Mechanical properties :
#
#
# Convention : Reuss Voigt Hill
#
# Bulk Modulus (GPa) = 71.03963 82.50480 76.77222
# Shear Modulus (GPa) = 21.88786 34.64827 28.26806
#
# Velocity S-wave (km/s) = 3.24678 4.08500 3.68977
# Velocity P-wave (km/s) = 6.94762 7.87309 7.42479
#
# Compressibility (1/GPa) = 0.01407665
#
# Stress axis : x y z
#
# Youngs Moduli (GPa) = 94.59039 60.13587 106.42570
#
# Poissons Ratio (x) = 0.39654 0.38163
# Poissons Ratio (y) = 0.62374 0.11497
# Poissons Ratio (z) = 0.33919 0.06497
#
# Static dielectric constant tensor:
#      x y z
#    x 4.246890 0.000000 0.187750 
#    y 0.000000 3.673770 0.000000 
#    z 0.187750 0.000000 4.160990 
# 
# 
# High freq. dielectric constant tensor:
#      x y z
#    x 1.825210 0.000000 -0.006770 
#    y 0.000000 1.818990 0.000000 
#    z -0.006770 0.000000 1.835500 
# 
# From -- ./inp_files/3616.got.cif
#   From: 2010.06.25/outbox.cif.g09.slc.cpg/sg12_2_cif.got.tgz:3616.got - 2010.06.28 00:19:55.
