data_PCOD8109773
_publ_section_title
;
Structure prediction by ZEFSAII (Michael W. Deem and Ramdas Pophale) SiO2 
 PCOD8109773
Probable space group: C 2/M
;
_chemical_formula_sum "Si O2"
_cell_formula_units_Z 44
_cell_length_a 14.075563
_cell_length_b 26.899846
_cell_length_c 7.610123
_cell_angle_alpha 90.000000
_cell_angle_beta 135.529991
_cell_angle_gamma 90.000000
_cell_volume 2018.541086
_symmetry_space_group_name_H-M "C 2/M"
_symmetry_group_IT_number 12
_symmetry_cell_setting 'monoclinic'
loop_
_space_group_symop_operation_xyz
x,y,z
-x,y,-z
-x,-y,-z
x,-y,z
1/2+x,1/2+y,z
1/2-x,1/2+y,-z
1/2-x,1/2-y,-z
1/2+x,1/2-y,z
loop_
_atom_site_type_symbol
_atom_site_label
_atom_site_fract_x
_atom_site_fract_y
_atom_site_fract_z
Si Si1 0.747062 0.879648 0.487200
Si Si2 0.120776 0.716209 0.853477
Si Si3 0.023937 0.195879 0.233862
Si Si4 0.340553 0.442757 0.300907
Si Si5 0.000000 0.336418 0.000000
Si Si6 0.731942 0.629740 0.089890
O O1 0.793744 0.925866 0.431944
O O2 0.772498 0.894464 0.723233
O O3 0.831061 0.829653 0.547290
O O4 0.587836 0.869759 0.249911
O O5 0.988377 0.753230 0.661584
O O6 0.139913 0.668771 0.748941
O O7 0.250000 0.750000 0.000000
O O8 0.110662 0.694895 0.037404
O O9 0.907930 0.157544 0.139657
O O10 0.000000 0.211183 0.000000
O O11 0.500000 0.433527 0.500000
O O12 0.302721 0.500000 0.225739
O O13 0.256002 0.413019 0.040689
#
# Coordination Sequence:
#
# PCOD8109773 Si02
#       6
#     8   8   8   8   4   8
#     4  11  24  42  65  94 138 179 225 283 330 403
#     4  10  21  40  62  95 134 178 232 270 331 399
#     4   9  18  37  63  92 128 178 222 267 331 388
#     4  11  23  42  73 105 131 168 219 288 359 407
#     4  12  24  42  63  94 138 186 233 274 332 394
#     4  10  21  42  65  94 135 173 215 280 339 400
#
# _framework density 21.797920999999999
#
# number of rings (size 3 to 8) (size 9 to 14) (size 15 to 20)
#    0.000    1.636    4.545    0.000    0.000    2.182 
#    3.273    2.273    0.000    1.091    0.000    0.000 
#    0.000    0.000    0.000    0.000    0.000    0.000 
#
# Total GULP energy -272610.570889 kJ/mol
# GULP energy per Si atom -12391.389586 kJ/mol
# Density = 2.174831 g / cm^3
# Si number density = 21.797921 Si / 1000 Ang^3
#
#
#
# Elastic Constant Matrix: (Units=GPa)
#
#
# Indices 1 2 3 4 5 6 
#
# 1 122.1546 53.3251 25.0977 0.0000 -18.5239 0.0000
# 2 53.3251 126.9947 44.6490 0.0000 -13.5860 0.0000
# 3 25.0977 44.6490 80.9651 0.0000 -2.6549 0.0000
# 4 0.0000 0.0000 0.0000 13.8128 0.0000 -7.3106
# 5 -18.5239 -13.5860 -2.6549 0.0000 34.1824 0.0000
# 6 0.0000 0.0000 0.0000 -7.3106 0.0000 25.4514
#
#
#
# Elastic Compliance Matrix: (Units=1/GPa)
#
#
# Indices 1 2 3 4 5 6 
#
# 1 0.010644 -0.003603 -0.001173 0.000000 0.004245 0.000000
# 2 -0.003603 0.011417 -0.005107 0.000000 0.002189 0.000000
# 3 -0.001173 -0.005107 0.015483 0.000000 -0.001463 0.000000
# 4 0.000000 0.000000 0.000000 0.085375 0.000000 0.024523
# 5 0.004245 0.002189 -0.001463 0.000000 0.032312 0.000000
# 6 0.000000 0.000000 0.000000 0.024523 0.000000 0.046334
#
#
# Mechanical properties :
#
#
# Convention : Reuss Voigt Hill
#
# Bulk Modulus (GPa) = 56.25262 64.02866 60.14064
# Shear Modulus (GPa) = 22.00139 28.49216 25.24677
#
# Velocity S-wave (km/s) = 3.18045 3.61931 3.40695
# Velocity P-wave (km/s) = 6.27291 6.84861 6.56707
#
# Compressibility (1/GPa) = 0.01777695
#
# Stress axis : x y z
#
# Youngs Moduli (GPa) = 93.95076 87.58917 64.58559
#
# Poissons Ratio (x) = 0.31555 0.07579
# Poissons Ratio (y) = 0.33847 0.32987
# Poissons Ratio (z) = 0.11025 0.44736
#
# Static dielectric constant tensor:
#      x y z
#    x 4.340620 0.000000 0.050450 
#    y 0.000000 3.829220 0.000000 
#    z 0.050450 0.000000 3.512690 
# 
# 
# High freq. dielectric constant tensor:
#      x y z
#    x 1.878460 0.000000 -0.003010 
#    y 0.000000 1.831010 0.000000 
#    z -0.003010 0.000000 1.830650 
# 
# From -- ./inp_files/67168.got.cif
#   From: 2010.06.25/outbox.cif.g09.slc.cpg/sg12_34_cif.got.tgz:67168.got - 2010.06.28 00:19:55.
