data_PCOD8109587
_publ_section_title
;
Structure prediction by ZEFSAII (Michael W. Deem and Ramdas Pophale) SiO2 
 PCOD8109587
Probable space group: C 2/M
;
_chemical_formula_sum "Si O2"
_cell_formula_units_Z 48
_cell_length_a 28.887699
_cell_length_b 8.926770
_cell_length_c 9.539149
_cell_angle_alpha 90.000000
_cell_angle_beta 80.832013
_cell_angle_gamma 90.000000
_cell_volume 2428.472931
_symmetry_space_group_name_H-M "C 2/M"
_symmetry_group_IT_number 12
_symmetry_cell_setting 'monoclinic'
loop_
_space_group_symop_operation_xyz
x,y,z
-x,y,-z
-x,-y,-z
x,-y,z
1/2+x,1/2+y,z
1/2-x,1/2+y,-z
1/2-x,1/2-y,-z
1/2+x,1/2-y,z
loop_
_atom_site_type_symbol
_atom_site_label
_atom_site_fract_x
_atom_site_fract_y
_atom_site_fract_z
Si Si1 0.956691 0.822814 0.423650
Si Si2 0.371833 0.677937 0.657888
Si Si3 0.231843 0.177416 0.370006
Si Si4 0.278412 0.668760 0.104111
Si Si5 0.042696 0.323893 0.880848
Si Si6 0.384916 0.668402 0.963619
O O1 0.908924 0.767755 0.522805
O O2 0.961409 0.750649 0.269111
O O3 0.000000 0.772392 0.500000
O O4 0.956309 0.000000 0.402984
O O5 0.370029 0.500000 0.666719
O O6 0.320130 0.738799 0.644079
O O7 0.387815 0.735847 0.804184
O O8 0.250000 0.250000 0.500000
O O9 0.270993 0.230672 0.243144
O O10 0.231208 0.000000 0.382482
O O11 0.259523 0.500000 0.136333
O O12 0.250000 0.750000 0.000000
O O13 0.331952 0.663654 0.037428
O O14 0.043486 0.500000 0.856920
O O15 0.089233 0.274166 0.938839
O O16 0.000000 0.272328 0.000000
O O17 0.406254 0.500000 0.957842
#
# Coordination Sequence:
#
# PCOD8109587 Si02
#       6
#     8   8   8   8   8   8
#     4  10  21  39  66  92 116 153 201 246 293 357
#     4   9  19  38  61  87 118 154 197 248 299 347
#     4  11  23  40  59  86 126 165 206 255 303 361
#     4  11  22  39  63  91 122 163 208 255 305 359
#     4  11  25  42  60  89 126 158 192 244 305 362
#     4  10  21  40  65  89 117 158 205 250 295 354
#
# _framework density 19.765505999999998
#
# number of rings (size 3 to 8) (size 9 to 14) (size 15 to 20)
#    0.000    1.667    1.667    2.500    2.333    4.333 
#    0.000    1.667    0.000    0.000    0.000    0.000 
#    0.000    0.000    0.000    0.000    0.000    0.000 
#
# Total GULP energy -297588.828137 kJ/mol
# GULP energy per Si atom -12399.534506 kJ/mol
# Density = 1.972052 g / cm^3
# Si number density = 19.765506 Si / 1000 Ang^3
#
#
#
# Elastic Constant Matrix: (Units=GPa)
#
#
# Indices 1 2 3 4 5 6 
#
# 1 86.3524 38.1159 58.7522 0.0000 4.4165 0.0000
# 2 38.1159 63.0963 50.0385 0.0000 2.9791 0.0000
# 3 58.7522 50.0385 193.4515 0.0000 6.5479 0.0000
# 4 0.0000 0.0000 0.0000 35.4796 0.0000 0.4095
# 5 4.4165 2.9791 6.5479 0.0000 40.1933 0.0000
# 6 0.0000 0.0000 0.0000 0.4095 0.0000 26.8915
#
#
#
# Elastic Compliance Matrix: (Units=1/GPa)
#
#
# Indices 1 2 3 4 5 6 
#
# 1 0.017256 -0.007865 -0.003179 0.000000 -0.000795 0.000000
# 2 -0.007865 0.023540 -0.003691 0.000000 -0.000279 0.000000
# 3 -0.003179 -0.003691 0.007108 0.000000 -0.000535 0.000000
# 4 0.000000 0.000000 0.000000 0.028190 0.000000 -0.000429
# 5 -0.000795 -0.000279 -0.000535 0.000000 0.025075 0.000000
# 6 0.000000 0.000000 0.000000 -0.000429 0.000000 0.037193
#
#
# Mechanical properties :
#
#
# Convention : Reuss Voigt Hill
#
# Bulk Modulus (GPa) = 54.25033 70.74592 62.49813
# Shear Modulus (GPa) = 28.73937 33.57911 31.15924
#
# Velocity S-wave (km/s) = 3.81729 4.12621 3.97475
# Velocity P-wave (km/s) = 6.85095 7.65318 7.26315
#
# Compressibility (1/GPa) = 0.01843307
#
# Stress axis : x y z
#
# Youngs Moduli (GPa) = 57.95073 42.48039 140.69391
#
# Poissons Ratio (x) = 0.33412 0.44732
# Poissons Ratio (y) = 0.45580 0.51927
# Poissons Ratio (z) = 0.18425 0.15679
#
# Static dielectric constant tensor:
#      x y z
#    x 3.119310 0.000000 0.937550 
#    y 0.000000 3.481660 0.000000 
#    z 0.937550 0.000000 2.085980 
# 
# 
# High freq. dielectric constant tensor:
#      x y z
#    x 1.778810 0.000000 -0.001700 
#    y 0.000000 1.753450 0.000000 
#    z -0.001700 0.000000 1.790520 
# 
# From -- ./inp_files/108698.got.cif
#   From: 2010.06.25/outbox.cif.g09.slc.cpg/sg12_55_cif.got.tgz:108698.got - 2010.06.28 00:19:55.
