data_PCOD8109123
_publ_section_title
;
Structure prediction by ZEFSAII (Michael W. Deem and Ramdas Pophale) SiO2 
 PCOD8109123
Probable space group: C 2/M
;
_chemical_formula_sum "Si O2"
_cell_formula_units_Z 64
_cell_length_a 15.396433
_cell_length_b 8.705761
_cell_length_c 28.340017
_cell_angle_alpha 90.000000
_cell_angle_beta 122.399217
_cell_angle_gamma 90.000000
_cell_volume 3207.316977
_symmetry_space_group_name_H-M "C 2/M"
_symmetry_group_IT_number 12
_symmetry_cell_setting 'monoclinic'
loop_
_space_group_symop_operation_xyz
x,y,z
-x,y,-z
-x,-y,-z
x,-y,z
1/2+x,1/2+y,z
1/2-x,1/2+y,-z
1/2-x,1/2-y,-z
1/2+x,1/2-y,z
loop_
_atom_site_type_symbol
_atom_site_label
_atom_site_fract_x
_atom_site_fract_y
_atom_site_fract_z
Si Si1 0.543319 0.822898 0.137023
Si Si2 0.896208 0.679822 0.242413
Si Si3 0.813055 0.181807 0.561104
Si Si4 0.534704 0.818518 0.633503
Si Si5 0.267653 0.824434 0.867935
Si Si6 0.310976 0.820140 0.060761
Si Si7 0.917045 0.819743 0.756451
Si Si8 0.266928 0.181661 0.362565
O O1 0.611865 0.805803 0.109779
O O2 0.428664 0.761469 0.093258
O O3 0.595328 0.717207 0.192148
O O4 0.541125 0.000000 0.153339
O O5 0.872081 0.500000 0.233094
O O6 0.924777 0.731673 0.303447
O O7 0.796207 0.771445 0.196445
O O8 0.988281 0.720289 0.234331
O O9 0.750000 0.250000 0.500000
O O10 0.763456 0.248222 0.595041
O O11 0.930992 0.230497 0.591074
O O12 0.805633 0.000000 0.557537
O O13 0.619267 0.764429 0.619653
O O14 0.514251 0.000000 0.625453
O O15 0.242198 0.722524 0.905613
O O16 0.240147 0.000000 0.871845
O O17 0.307873 0.000000 0.053668
O O18 0.250000 0.750000 0.000000
O O19 0.815217 0.761871 0.699968
O O20 0.937039 0.000000 0.753948
O O21 0.264401 0.000000 0.363469
#
# Coordination Sequence:
#
# PCOD8109123 Si02
#       8
#     8   8   8   8   8   8   8   8
#     4  10  23  41  61  89 125 159 195 245 305 354
#     4  11  21  35  59  91 126 157 192 242 300 357
#     4  11  23  41  61  84 116 153 200 249 297 351
#     4  10  21  39  62  87 117 156 196 238 294 353
#     4  11  23  40  63  91 122 160 201 244 299 360
#     4  11  24  43  64  87 120 160 204 255 304 354
#     4  11  20  35  62  91 121 159 201 239 291 361
#     4   9  20  38  60  86 118 155 194 238 292 354
#
# _framework density 19.954371999999999
#
# number of rings (size 3 to 8) (size 9 to 14) (size 15 to 20)
#    0.000    1.500    2.500    2.625    0.000    4.000 
#    0.000    7.500    0.000    0.000    0.000    0.000 
#    0.000    0.000    0.000    0.000    0.000    0.000 
#
# Total GULP energy -396906.147595 kJ/mol
# GULP energy per Si atom -12403.317112 kJ/mol
# Density = 1.990896 g / cm^3
# Si number density = 19.954372 Si / 1000 Ang^3
#
#
#
# Elastic Constant Matrix: (Units=GPa)
#
#
# Indices 1 2 3 4 5 6 
#
# 1 140.4597 22.7076 65.4038 0.0000 10.9593 0.0000
# 2 22.7076 42.4040 34.4862 0.0000 2.3597 0.0000
# 3 65.4038 34.4862 152.9894 0.0000 -0.6848 0.0000
# 4 0.0000 0.0000 0.0000 35.8966 0.0000 0.4948
# 5 10.9593 2.3597 -0.6848 0.0000 14.5642 0.0000
# 6 0.0000 0.0000 0.0000 0.4948 0.0000 28.9483
#
#
#
# Elastic Compliance Matrix: (Units=1/GPa)
#
#
# Indices 1 2 3 4 5 6 
#
# 1 0.009733 -0.001714 -0.003807 0.000000 -0.007225 0.000000
# 2 -0.001714 0.029545 -0.005944 0.000000 -0.003777 0.000000
# 3 -0.003807 -0.005944 0.009523 0.000000 0.004275 0.000000
# 4 0.000000 0.000000 0.000000 0.027864 0.000000 -0.000476
# 5 -0.007225 -0.003777 0.004275 0.000000 0.074911 0.000000
# 6 0.000000 0.000000 0.000000 -0.000476 0.000000 0.034553
#
#
# Mechanical properties :
#
#
# Convention : Reuss Voigt Hill
#
# Bulk Modulus (GPa) = 38.65345 64.56092 51.60719
# Shear Modulus (GPa) = 22.96930 30.09887 26.53408
#
# Velocity S-wave (km/s) = 3.39645 3.88801 3.65051
# Velocity P-wave (km/s) = 5.89866 7.25120 6.60962
#
# Compressibility (1/GPa) = 0.02587091
#
# Stress axis : x y z
#
# Youngs Moduli (GPa) = 102.74397 33.84688 105.01030
#
# Poissons Ratio (x) = 0.05801 0.39976
# Poissons Ratio (y) = 0.17610 0.62419
# Poissons Ratio (z) = 0.39113 0.20119
#
# Static dielectric constant tensor:
#      x y z
#    x 4.130940 0.000000 -0.130970 
#    y 0.000000 3.496740 0.000000 
#    z -0.130970 0.000000 3.743010 
# 
# 
# High freq. dielectric constant tensor:
#      x y z
#    x 1.792770 0.000000 0.003060 
#    y 0.000000 1.769200 0.000000 
#    z 0.003060 0.000000 1.777360 
# 
# From -- ./inp_files/338869.got.cif
#   From: 2010.06.25/outbox.cif.g09.slc.cpg/sg12_170_cif.got.tgz:338869.got - 2010.06.28 00:19:55.
