data_PCOD8109815
_publ_section_title
;
Structure prediction by ZEFSAII (Michael W. Deem and Ramdas Pophale) SiO2 
 PCOD8109815
Probable space group: C 2/M
;
_chemical_formula_sum "Si O2"
_cell_formula_units_Z 64
_cell_length_a 27.912551
_cell_length_b 8.683833
_cell_length_c 15.391492
_cell_angle_alpha 90.000000
_cell_angle_beta 57.843284
_cell_angle_gamma 90.000000
_cell_volume 3158.403858
_symmetry_space_group_name_H-M "C 2/M"
_symmetry_group_IT_number 12
_symmetry_cell_setting 'monoclinic'
loop_
_space_group_symop_operation_xyz
x,y,z
-x,y,-z
-x,-y,-z
x,-y,z
1/2+x,1/2+y,z
1/2-x,1/2+y,-z
1/2-x,1/2-y,-z
1/2+x,1/2-y,z
loop_
_atom_site_type_symbol
_atom_site_label
_atom_site_fract_x
_atom_site_fract_y
_atom_site_fract_z
Si Si1 0.366159 0.682520 0.052503
Si Si2 0.251430 0.819701 0.593608
Si Si3 0.246469 0.680144 0.908389
Si Si4 0.376419 0.821147 0.533921
Si Si5 0.139883 0.681469 0.763946
Si Si6 0.561627 0.317353 0.178543
Si Si7 0.066567 0.181233 0.682555
Si Si8 0.130077 0.180071 0.278411
O O1 0.366837 0.500000 0.054807
O O2 0.302653 0.739188 0.098372
O O3 0.388924 0.747513 0.122191
O O4 0.407269 0.746723 0.937381
O O5 0.250000 0.750000 0.500000
O O6 0.311147 0.782490 0.579416
O O7 0.204233 0.739747 0.698131
O O8 0.238861 0.000000 0.599919
O O9 0.234229 0.500000 0.928193
O O10 0.304262 0.713820 0.801982
O O11 0.250000 0.750000 0.000000
O O12 0.415589 0.722427 0.432167
O O13 0.391265 0.772618 0.617268
O O14 0.389644 0.000000 0.506612
O O15 0.139454 0.500000 0.771167
O O16 0.106826 0.731574 0.710302
O O17 0.565084 0.500000 0.175584
O O18 0.497193 0.260052 0.240620
O O19 0.593905 0.255162 0.232374
O O20 0.072209 0.000000 0.692462
O O21 0.118939 0.000000 0.304259
#
# Coordination Sequence:
#
# PCOD8109815 Si02
#       8
#     8   8   8   8   8   8   8   8
#     4  11  22  41  65  91 125 161 205 255 305 364
#     4  11  22  38  63  91 124 162 201 245 302 364
#     4  11  21  36  62  94 128 163 201 247 306 365
#     4  11  24  40  60  92 127 157 195 251 308 362
#     4  12  25  41  61  92 129 160 201 251 307 371
#     4   9  21  42  65  89 117 158 211 258 299 358
#     4  11  23  42  67  88 114 160 212 256 305 361
#     4  10  21  40  63  89 122 162 204 247 294 359
#
# _framework density 20.263400000000001
#
# number of rings (size 3 to 8) (size 9 to 14) (size 15 to 20)
#    0.000    1.250    2.500    3.750    0.000    5.500 
#    0.000    8.750    0.000    0.000    0.000    0.000 
#    0.000    0.000    0.000    0.000    0.000    0.000 
#
# Total GULP energy -396987.083246 kJ/mol
# GULP energy per Si atom -12405.846351 kJ/mol
# Density = 2.021728 g / cm^3
# Si number density = 20.263400 Si / 1000 Ang^3
#
#
#
# Elastic Constant Matrix: (Units=GPa)
#
#
# Indices 1 2 3 4 5 6 
#
# 1 59.3568 26.4932 51.0684 0.0000 -13.8651 0.0000
# 2 26.4932 84.5937 38.5678 0.0000 -5.8330 0.0000
# 3 51.0684 38.5678 142.3230 0.0000 10.2193 0.0000
# 4 0.0000 0.0000 0.0000 32.6550 0.0000 6.8327
# 5 -13.8651 -5.8330 10.2193 0.0000 35.3146 0.0000
# 6 0.0000 0.0000 0.0000 6.8327 0.0000 27.1879
#
#
#
# Elastic Compliance Matrix: (Units=1/GPa)
#
#
# Indices 1 2 3 4 5 6 
#
# 1 0.032063 -0.003693 -0.011605 0.000000 0.015337 0.000000
# 2 -0.003693 0.014314 -0.002675 0.000000 0.001688 0.000000
# 3 -0.011605 -0.002675 0.012535 0.000000 -0.008626 0.000000
# 4 0.000000 0.000000 0.000000 0.032323 0.000000 -0.008123
# 5 0.015337 0.001688 -0.008626 0.000000 0.037113 0.000000
# 6 0.000000 0.000000 0.000000 -0.008123 0.000000 0.038823
#
#
# Mechanical properties :
#
#
# Convention : Reuss Voigt Hill
#
# Bulk Modulus (GPa) = 43.54466 57.61471 50.57968
# Shear Modulus (GPa) = 23.72236 30.37444 27.04840
#
# Velocity S-wave (km/s) = 3.42526 3.87587 3.65751
# Velocity P-wave (km/s) = 6.09747 6.96595 6.54613
#
# Compressibility (1/GPa) = 0.02296493
#
# Stress axis : x y z
#
# Youngs Moduli (GPa) = 31.18870 69.86281 79.77818
#
# Poissons Ratio (x) = 0.25800 0.92585
# Poissons Ratio (y) = 0.11518 0.21341
# Poissons Ratio (z) = 0.36196 0.18688
#
# Static dielectric constant tensor:
#      x y z
#    x 3.817510 0.000000 -0.025190 
#    y 0.000000 3.588370 0.000000 
#    z -0.025190 0.000000 3.895750 
# 
# 
# High freq. dielectric constant tensor:
#      x y z
#    x 1.790620 0.000000 0.007400 
#    y 0.000000 1.787200 0.000000 
#    z 0.007400 0.000000 1.807300 
# 
# From -- ./inp_files/249114.got.cif
#   From: 2010.06.25/outbox.cif.g09.slc.cpg/sg12_125_cif.got.tgz:249114.got - 2010.06.28 00:19:55.
