data_PCOD8109406
_publ_section_title
;
Structure prediction by ZEFSAII (Michael W. Deem and Ramdas Pophale) SiO2 
 PCOD8109406
Probable space group: C 2/M
;
_chemical_formula_sum "Si O2"
_cell_formula_units_Z 48
_cell_length_a 9.661027
_cell_length_b 17.195271
_cell_length_c 14.702524
_cell_angle_alpha 90.000000
_cell_angle_beta 98.942069
_cell_angle_gamma 90.000000
_cell_volume 2412.756339
_symmetry_space_group_name_H-M "C 2/M"
_symmetry_group_IT_number 12
_symmetry_cell_setting 'monoclinic'
loop_
_space_group_symop_operation_xyz
x,y,z
-x,y,-z
-x,-y,-z
x,-y,z
1/2+x,1/2+y,z
1/2-x,1/2+y,-z
1/2-x,1/2-y,-z
1/2+x,1/2-y,z
loop_
_atom_site_type_symbol
_atom_site_label
_atom_site_fract_x
_atom_site_fract_y
_atom_site_fract_z
Si Si1 0.482914 0.677279 0.896014
Si Si2 0.453331 0.181024 0.761582
Si Si3 0.396566 0.254751 0.561917
Si Si4 0.738136 0.089057 0.789998
Si Si5 0.193021 0.912367 0.807341
Si Si6 0.557159 0.585270 0.354559
O O1 0.500844 0.746493 0.826330
O O2 0.330950 0.636388 0.872488
O O3 0.609344 0.617648 0.887437
O O4 0.500000 0.708634 0.000000
O O5 0.401259 0.210243 0.658091
O O6 0.583802 0.123811 0.763704
O O7 0.328463 0.138886 0.801123
O O8 0.500000 0.214562 0.500000
O O9 0.250000 0.250000 0.500000
O O10 0.436215 0.345790 0.572928
O O11 0.813874 0.095949 0.701141
O O12 0.726572 0.000000 0.821254
O O13 0.090595 0.908952 0.711117
O O14 0.242467 0.000000 0.832338
O O15 0.569489 0.500000 0.403091
#
# Coordination Sequence:
#
# PCOD8109406 Si02
#       6
#     8   8   8   8   8   8
#     4  11  24  41  67  93 122 166 211 254 313 382
#     4  12  23  40  63  94 133 161 205 268 313 369
#     4  12  24  37  62  93 125 168 215 258 311 368
#     4  10  21  39  64  89 125 166 203 254 319 371
#     4  10  21  39  65  91 124 166 206 251 310 370
#     4   9  19  39  61  85 121 166 208 254 307 369
#
# _framework density 19.894258000000001
#
# number of rings (size 3 to 8) (size 9 to 14) (size 15 to 20)
#    0.000    1.333    3.333    5.000    0.000    4.333 
#    0.000    1.667    0.000    7.500    0.000    0.000 
#    0.000    0.000    0.000    0.000    0.000    0.000 
#
# Total GULP energy -297598.872317 kJ/mol
# GULP energy per Si atom -12399.953013 kJ/mol
# Density = 1.984898 g / cm^3
# Si number density = 19.894258 Si / 1000 Ang^3
#
#
#
# Elastic Constant Matrix: (Units=GPa)
#
#
# Indices 1 2 3 4 5 6 
#
# 1 110.9457 13.6517 17.6796 0.0000 1.2516 0.0000
# 2 13.6517 81.6824 13.6219 0.0000 1.6953 0.0000
# 3 17.6796 13.6219 98.5057 0.0000 1.6637 0.0000
# 4 0.0000 0.0000 0.0000 9.1709 0.0000 -9.8852
# 5 1.2516 1.6953 1.6637 0.0000 15.3161 0.0000
# 6 0.0000 0.0000 0.0000 -9.8852 0.0000 31.0903
#
#
#
# Elastic Compliance Matrix: (Units=1/GPa)
#
#
# Indices 1 2 3 4 5 6 
#
# 1 0.009420 -0.001314 -0.001501 0.000000 -0.000461 0.000000
# 2 -0.001314 0.012737 -0.001506 0.000000 -0.001139 0.000000
# 3 -0.001501 -0.001506 0.010644 0.000000 -0.000867 0.000000
# 4 0.000000 0.000000 0.000000 0.165895 0.000000 0.052747
# 5 -0.000461 -0.001139 -0.000867 0.000000 0.065549 0.000000
# 6 0.000000 0.000000 0.000000 0.052747 0.000000 0.048935
#
#
# Mechanical properties :
#
#
# Convention : Reuss Voigt Hill
#
# Bulk Modulus (GPa) = 41.39534 42.33779 41.86656
# Shear Modulus (GPa) = 15.15724 27.52752 21.34238
#
# Velocity S-wave (km/s) = 2.76323 3.72384 3.27890
# Velocity P-wave (km/s) = 5.57077 6.31006 5.95190
#
# Compressibility (1/GPa) = 0.02415731
#
# Stress axis : x y z
#
# Youngs Moduli (GPa) = 106.16216 78.51117 93.94943
#
# Poissons Ratio (x) = 0.10320 0.14102
# Poissons Ratio (y) = 0.13954 0.14151
# Poissons Ratio (z) = 0.15935 0.11825
#
# Static dielectric constant tensor:
#      x y z
#    x 3.905750 0.000000 -0.230950 
#    y 0.000000 3.968800 0.000000 
#    z -0.230950 0.000000 3.511040 
# 
# 
# High freq. dielectric constant tensor:
#      x y z
#    x 1.784900 0.000000 -0.005970 
#    y 0.000000 1.786950 0.000000 
#    z -0.005970 0.000000 1.757720 
# 
# From -- ./inp_files/195910.got.cif
#   From: 2010.06.25/outbox.cif.g09.slc.cpg/sg12_98_cif.got.tgz:195910.got - 2010.06.28 00:19:55.
