data_PCOD8109100
_publ_section_title
;
Structure prediction by ZEFSAII (Michael W. Deem and Ramdas Pophale) SiO2 
 PCOD8109100
Probable space group: C 2/M
;
_chemical_formula_sum "Si O2"
_cell_formula_units_Z 48
_cell_length_a 27.285940
_cell_length_b 8.466896
_cell_length_c 15.451373
_cell_angle_alpha 90.000000
_cell_angle_beta 139.044312
_cell_angle_gamma 90.000000
_cell_volume 2339.841567
_symmetry_space_group_name_H-M "C 2/M"
_symmetry_group_IT_number 12
_symmetry_cell_setting 'monoclinic'
loop_
_space_group_symop_operation_xyz
x,y,z
-x,y,-z
-x,-y,-z
x,-y,z
1/2+x,1/2+y,z
1/2-x,1/2+y,-z
1/2-x,1/2-y,-z
1/2+x,1/2-y,z
loop_
_atom_site_type_symbol
_atom_site_label
_atom_site_fract_x
_atom_site_fract_y
_atom_site_fract_z
Si Si1 0.464625 0.316264 0.043611
Si Si2 0.457675 0.685493 0.361084
Si Si3 0.300859 0.185334 0.818938
Si Si4 0.208613 0.186680 0.862016
Si Si5 0.284321 0.186276 0.458121
Si Si6 0.542217 0.817484 0.312750
O O1 0.478391 0.500000 0.080641
O O2 0.505702 0.216011 0.171599
O O3 0.500000 0.263889 0.000000
O O4 0.377021 0.282278 0.924767
O O5 0.500000 0.761211 0.500000
O O6 0.451037 0.500000 0.365377
O O7 0.374732 0.759431 0.248369
O O8 0.500911 0.717582 0.330516
O O9 0.250617 0.243451 0.831920
O O10 0.256362 0.223155 0.672981
O O11 0.318825 0.000000 0.847341
O O12 0.206134 0.000000 0.863157
O O13 0.250000 0.250000 0.000000
O O14 0.250000 0.250000 0.500000
O O15 0.371339 0.231345 0.573061
O O16 0.270988 0.000000 0.431802
O O17 0.532068 0.000000 0.321709
#
# Coordination Sequence:
#
# PCOD8109100 Si02
#       6
#     8   8   8   8   8   8
#     4  11  24  41  62  88 119 157 200 245 295 353
#     4  10  21  39  62  86 115 154 199 243 290 348
#     4  11  23  40  63  90 121 156 197 246 297 351
#     4  10  22  38  58  86 117 152 193 239 291 346
#     4  11  24  41  62  89 121 157 198 245 296 352
#     4  11  24  40  60  89 122 156 197 246 297 349
#
# _framework density 20.514209999999999
#
# number of rings (size 3 to 8) (size 9 to 14) (size 15 to 20)
#    0.000    1.333    0.000    5.000    0.000   13.000 
#    0.000    0.000    0.000    0.000    0.000    0.000 
#    0.000    0.000    0.000    0.000    0.000    0.000 
#
# Total GULP energy -297744.553096 kJ/mol
# GULP energy per Si atom -12406.023046 kJ/mol
# Density = 2.046752 g / cm^3
# Si number density = 20.514210 Si / 1000 Ang^3
#
#
#
# Elastic Constant Matrix: (Units=GPa)
#
#
# Indices 1 2 3 4 5 6 
#
# 1 199.9430 13.8156 93.0165 0.0000 -1.7694 0.0000
# 2 13.8156 24.3695 6.7842 0.0000 3.8241 0.0000
# 3 93.0165 6.7842 181.5794 0.0000 -0.1651 0.0000
# 4 0.0000 0.0000 0.0000 35.9203 0.0000 0.2858
# 5 -1.7694 3.8241 -0.1651 0.0000 47.6201 0.0000
# 6 0.0000 0.0000 0.0000 0.2858 0.0000 2.9476
#
#
#
# Elastic Compliance Matrix: (Units=1/GPa)
#
#
# Indices 1 2 3 4 5 6 
#
# 1 0.006774 -0.002981 -0.003358 0.000000 0.000479 0.000000
# 2 -0.002981 0.043314 -0.000095 0.000000 -0.003589 0.000000
# 3 -0.003358 -0.000095 0.007231 0.000000 -0.000092 0.000000
# 4 0.000000 0.000000 0.000000 0.027861 0.000000 -0.002702
# 5 0.000479 -0.003589 -0.000092 0.000000 0.021305 0.000000
# 6 0.000000 0.000000 0.000000 -0.002702 0.000000 0.339522
#
#
# Mechanical properties :
#
#
# Convention : Reuss Voigt Hill
#
# Bulk Modulus (GPa) = 22.49610 70.34718 46.42164
# Shear Modulus (GPa) = 10.55538 36.78261 23.66900
#
# Velocity S-wave (km/s) = 2.27081 4.23901 3.40043
# Velocity P-wave (km/s) = 4.22674 7.63710 6.17214
#
# Compressibility (1/GPa) = 0.04445215
#
# Stress axis : x y z
#
# Youngs Moduli (GPa) = 147.62481 23.08701 138.29367
#
# Poissons Ratio (x) = 0.06881 0.46442
# Poissons Ratio (y) = 0.44002 0.01310
# Poissons Ratio (z) = 0.49576 0.00219
#
# Static dielectric constant tensor:
#      x y z
#    x 3.887860 0.000000 0.119580 
#    y 0.000000 3.622980 0.000000 
#    z 0.119580 0.000000 3.945900 
# 
# 
# High freq. dielectric constant tensor:
#      x y z
#    x 1.821750 0.000000 0.001650 
#    y 0.000000 1.797790 0.000000 
#    z 0.001650 0.000000 1.823030 
# 
# From -- ./inp_files/244919.got.cif
#   From: 2010.06.25/outbox.cif.g09.slc.cpg/sg12_123_cif.got.tgz:244919.got - 2010.06.28 00:19:55.
