data_PCOD8109678
_publ_section_title
;
Structure prediction by ZEFSAII (Michael W. Deem and Ramdas Pophale) SiO2 
 PCOD8109678
Probable space group: C 2/M
;
_chemical_formula_sum "Si O2"
_cell_formula_units_Z 36
_cell_length_a 14.024693
_cell_length_b 9.623158
_cell_length_c 21.473159
_cell_angle_alpha 90.000000
_cell_angle_beta 37.404863
_cell_angle_gamma 90.000000
_cell_volume 1760.405189
_symmetry_space_group_name_H-M "C 2/M"
_symmetry_group_IT_number 12
_symmetry_cell_setting 'monoclinic'
loop_
_space_group_symop_operation_xyz
x,y,z
-x,y,-z
-x,-y,-z
x,-y,z
1/2+x,1/2+y,z
1/2-x,1/2+y,-z
1/2-x,1/2-y,-z
1/2+x,1/2-y,z
loop_
_atom_site_type_symbol
_atom_site_label
_atom_site_fract_x
_atom_site_fract_y
_atom_site_fract_z
Si Si1 0.843689 0.846167 0.653988
Si Si2 0.632017 0.500000 0.141324
Si Si3 0.319003 0.000000 0.162844
Si Si4 0.407422 0.839069 0.418600
Si Si5 0.885145 0.500000 0.914892
Si Si6 0.031163 0.282093 0.751004
O O1 0.715341 0.799627 0.670092
O O2 0.979922 0.731279 0.587810
O O3 0.910543 0.000000 0.600008
O O4 0.757434 0.862239 0.765755
O O5 0.782105 0.500000 0.109311
O O6 0.515694 0.624872 0.214578
O O7 0.705983 0.500000 0.033244
O O8 0.503722 0.000000 0.081654
O O9 0.250000 0.750000 0.500000
O O10 0.492226 0.831098 0.307709
O O11 0.375398 0.000000 0.453285
O O12 0.916693 0.367440 0.855560
#
# Coordination Sequence:
#
# PCOD8109678 Si02
#       6
#     8   4   4   8   4   8
#     4   9  19  41  63  85 124 160 201 242 312 360
#     4  12  21  34  66  92 127 157 217 245 291 365
#     4   8  17  36  63  82 121 160 207 241 292 357
#     4  12  25  41  66  91 120 157 203 252 309 366
#     4  10  21  40  59  93 118 174 201 248 310 354
#     4  11  22  41  62  88 129 162 196 257 303 357
#
# _framework density 20.449838
#
# number of rings (size 3 to 8) (size 9 to 14) (size 15 to 20)
#    0.667    0.889    4.444    1.667    3.111    0.889 
#    0.000    3.333    0.000    1.333    0.000    0.000 
#    0.000    0.000    0.000    0.000    0.000    0.000 
#
# Total GULP energy -223077.144778 kJ/mol
# GULP energy per Si atom -12393.174710 kJ/mol
# Density = 2.040329 g / cm^3
# Si number density = 20.449838 Si / 1000 Ang^3
#
#
#
# Elastic Constant Matrix: (Units=GPa)
#
#
# Indices 1 2 3 4 5 6 
#
# 1 66.3474 34.0618 0.7928 0.0000 -2.1896 0.0000
# 2 34.0618 166.2989 19.8957 0.0000 -11.4453 0.0000
# 3 0.7928 19.8957 56.0310 -0.0001 -2.5987 0.0001
# 4 0.0000 0.0000 -0.0001 38.6576 0.0001 -45.7971
# 5 -2.1896 -11.4453 -2.5987 0.0001 21.7757 0.0000
# 6 0.0000 0.0000 0.0001 -45.7971 0.0000 130.9616
#
#
#
# Elastic Compliance Matrix: (Units=1/GPa)
#
#
# Indices 1 2 3 4 5 6 
#
# 1 0.016901 -0.003590 0.001033 0.000000 -0.000064 0.000000
# 2 -0.003590 0.007251 -0.002377 0.000000 0.003166 0.000000
# 3 0.001033 -0.002377 0.018727 0.000000 0.001089 0.000000
# 4 0.000000 0.000000 0.000000 0.044165 0.000000 0.015444
# 5 -0.000064 0.003166 0.001089 0.000000 0.047711 0.000000
# 6 0.000000 0.000000 0.000000 0.015444 0.000000 0.013037
#
#
# Mechanical properties :
#
#
# Convention : Reuss Voigt Hill
#
# Bulk Modulus (GPa) = 30.29343 44.24199 37.26771
# Shear Modulus (GPa) = 29.64507 53.87414 41.75960
#
# Velocity S-wave (km/s) = 3.81156 5.13826 4.52381
# Velocity P-wave (km/s) = 5.84947 7.54213 6.74907
#
# Compressibility (1/GPa) = 0.03301046
#
# Stress axis : x y z
#
# Youngs Moduli (GPa) = 59.16960 137.91594 53.39826
#
# Poissons Ratio (x) = 0.49506 -0.05513
# Poissons Ratio (y) = 0.21239 0.12693
# Poissons Ratio (z) = -0.06109 0.32783
#
# Static dielectric constant tensor:
#      x y z
#    x 3.613920 0.000000 0.095850 
#    y 0.000000 3.667850 0.000000 
#    z 0.095850 0.000000 3.458290 
# 
# 
# High freq. dielectric constant tensor:
#      x y z
#    x 1.792630 0.000000 0.005300 
#    y 0.000000 1.795550 0.000000 
#    z 0.005300 0.000000 1.794590 
# 
# From -- ./inp_files/308859.got.cif
#   From: 2010.06.25/outbox.cif.g09.slc.cpg/sg12_155_cif.got.tgz:308859.got - 2010.06.28 00:19:55.
