data_PCOD8109565
_publ_section_title
;
Structure prediction by ZEFSAII (Michael W. Deem and Ramdas Pophale) SiO2 
 PCOD8109565
Probable space group: C 2/M
;
_chemical_formula_sum "Si O2"
_cell_formula_units_Z 48
_cell_length_a 20.055133
_cell_length_b 8.449025
_cell_length_c 28.434407
_cell_angle_alpha 90.000000
_cell_angle_beta 29.263172
_cell_angle_gamma 90.000000
_cell_volume 2355.195119
_symmetry_space_group_name_H-M "C 2/M"
_symmetry_group_IT_number 12
_symmetry_cell_setting 'monoclinic'
loop_
_space_group_symop_operation_xyz
x,y,z
-x,y,-z
-x,-y,-z
x,-y,z
1/2+x,1/2+y,z
1/2-x,1/2+y,-z
1/2-x,1/2-y,-z
1/2+x,1/2-y,z
loop_
_atom_site_type_symbol
_atom_site_label
_atom_site_fract_x
_atom_site_fract_y
_atom_site_fract_z
Si Si1 0.647080 0.683074 0.285030
Si Si2 0.309224 0.815985 0.011780
Si Si3 0.891012 0.317654 0.791319
Si Si4 0.643026 0.682656 0.688967
Si Si5 0.098657 0.817803 0.823237
Si Si6 0.428204 0.685761 0.496224
O O1 0.681064 0.500000 0.272829
O O2 0.603303 0.711506 0.258647
O O3 0.781095 0.784106 0.214131
O O4 0.522740 0.736616 0.394676
O O5 0.241314 0.726621 0.097110
O O6 0.273389 0.000000 0.037266
O O7 0.250000 0.750000 0.000000
O O8 0.470595 0.790469 0.915303
O O9 0.882456 0.500000 0.781986
O O10 0.026541 0.289072 0.737878
O O11 0.605966 0.500000 0.703608
O O12 0.651392 0.725580 0.738842
O O13 0.786973 0.721771 0.576549
O O14 0.053829 0.000000 0.854190
O O15 0.500000 0.741062 0.500000
O O16 0.396987 0.500000 0.516297
#
# Coordination Sequence:
#
# PCOD8109565 Si02
#       6
#     8   8   8   8   8   8
#     4  11  24  43  66  94 132 170 212 266 323 381
#     4  12  24  41  67  97 128 167 214 262 317 378
#     4  12  26  44  66  93 131 170 212 266 323 380
#     4  11  23  39  65  96 129 167 214 264 314 378
#     4  11  23  40  65  97 130 167 213 263 316 378
#     4  10  21  39  65  95 127 167 214 262 316 379
#
# _framework density 20.380478
#
# number of rings (size 3 to 8) (size 9 to 14) (size 15 to 20)
#    0.000    0.833    3.333    4.500    0.000    4.333 
#    0.000    3.333    0.000    0.000    0.000    0.000 
#    0.000    0.000    0.000    0.000    0.000    0.000 
#
# Total GULP energy -297824.552235 kJ/mol
# GULP energy per Si atom -12409.356343 kJ/mol
# Density = 2.033409 g / cm^3
# Si number density = 20.380478 Si / 1000 Ang^3
#
#
#
# Elastic Constant Matrix: (Units=GPa)
#
#
# Indices 1 2 3 4 5 6 
#
# 1 67.2701 24.8744 26.2368 -0.0271 9.1417 0.0749
# 2 24.8744 61.6070 31.4632 0.0168 -3.4934 -0.0494
# 3 26.2368 31.4632 130.7636 -0.0159 1.3941 0.0210
# 4 -0.0271 0.0168 -0.0159 35.2513 0.0002 -2.5207
# 5 9.1417 -3.4934 1.3941 0.0002 39.8131 -0.0084
# 6 0.0749 -0.0494 0.0210 -2.5207 -0.0084 34.7557
#
#
#
# Elastic Compliance Matrix: (Units=1/GPa)
#
#
# Indices 1 2 3 4 5 6 
#
# 1 0.018865 -0.006824 -0.002091 0.000013 -0.004857 -0.000049
# 2 -0.006824 0.021102 -0.003746 -0.000014 0.003550 0.000047
# 3 -0.002091 -0.003746 0.008970 0.000004 -0.000163 -0.000006
# 4 0.000013 -0.000014 0.000004 0.028516 -0.000004 0.002068
# 5 -0.004857 0.003550 -0.000163 -0.000004 0.026550 0.000022
# 6 -0.000049 0.000047 -0.000006 0.002068 0.000022 0.028922
#
#
# Mechanical properties :
#
#
# Convention : Reuss Voigt Hill
#
# Bulk Modulus (GPa) = 42.34865 47.19881 44.77373
# Shear Modulus (GPa) = 30.09907 33.76844 31.93376
#
# Velocity S-wave (km/s) = 3.84716 4.07492 3.96268
# Velocity P-wave (km/s) = 6.36854 6.73417 6.55391
#
# Compressibility (1/GPa) = 0.02361351
#
# Stress axis : x y z
#
# Youngs Moduli (GPa) = 53.00937 47.38970 111.48226
#
# Poissons Ratio (x) = 0.32340 0.23314
# Poissons Ratio (y) = 0.36175 0.41760
# Poissons Ratio (z) = 0.11086 0.17752
#
# Static dielectric constant tensor:
#      x y z
#    x 3.501180 -0.000050 0.043810 
#    y -0.000050 3.687300 0.000000 
#    z 0.043810 0.000000 3.808320 
# 
# 
# High freq. dielectric constant tensor:
#      x y z
#    x 1.792950 0.000000 -0.002750 
#    y 0.000000 1.803360 0.000000 
#    z -0.002750 0.000000 1.809050 
# 
# From -- ./inp_files/380141.got.cif
#   From: 2010.06.25/outbox.cif.g09.slc.cpg/sg12_191_cif.got.tgz:380141.got - 2010.06.28 00:19:55.
