data_PCOD8109528
_publ_section_title
;
Structure prediction by ZEFSAII (Michael W. Deem and Ramdas Pophale) SiO2 
 PCOD8109528
Probable space group: C 2/M
;
_chemical_formula_sum "Si O2"
_cell_formula_units_Z 48
_cell_length_a 31.987289
_cell_length_b 7.502868
_cell_length_c 10.013305
_cell_angle_alpha 90.000000
_cell_angle_beta 76.767233
_cell_angle_gamma 90.000000
_cell_volume 2339.348956
_symmetry_space_group_name_H-M "C 2/M"
_symmetry_group_IT_number 12
_symmetry_cell_setting 'monoclinic'
loop_
_space_group_symop_operation_xyz
x,y,z
-x,y,-z
-x,-y,-z
x,-y,z
1/2+x,1/2+y,z
1/2-x,1/2+y,-z
1/2-x,1/2-y,-z
1/2+x,1/2-y,z
loop_
_atom_site_type_symbol
_atom_site_label
_atom_site_fract_x
_atom_site_fract_y
_atom_site_fract_z
Si Si1 0.541180 0.792795 0.881543
Si Si2 0.631959 0.788495 0.236890
Si Si3 0.973558 0.000000 0.317701
Si Si4 0.198198 0.703274 0.679669
Si Si5 0.434538 0.500000 0.634826
Si Si6 0.868731 0.709601 0.063246
Si Si7 0.292501 0.789695 0.622016
O O1 0.540000 0.679022 0.748466
O O2 0.582946 0.735501 0.934901
O O3 0.542392 0.000000 0.839777
O O4 0.500000 0.746328 0.000000
O O5 0.591109 0.681861 0.319933
O O6 0.672660 0.729892 0.295359
O O7 0.622229 0.000000 0.254094
O O8 0.641489 0.724663 0.078884
O O9 0.947698 0.000000 0.472410
O O10 0.024463 0.000000 0.299628
O O11 0.183909 0.500000 0.676385
O O12 0.164954 0.797482 0.806921
O O13 0.246357 0.716775 0.702620
O O14 0.195719 0.791307 0.533229
O O15 0.862922 0.500000 0.070317
O O16 0.289304 0.000000 0.613631
#
# Coordination Sequence:
#
# PCOD8109528 Si02
#       7
#     8   8   4   8   4   8   8
#     4  10  21  39  65  91 121 163 204 251 306 359
#     4  10  22  41  63  85 121 163 198 252 304 361
#     4  11  25  42  60  92 127 158 203 264 297 362
#     4   9  18  34  56  83 117 153 199 253 292 359
#     4  11  26  42  60  92 124 159 210 245 311 371
#     4   9  19  36  59  89 117 154 208 249 299 362
#     4   9  19  35  55  84 118 156 198 244 305 356
#
# _framework density 20.518530999999999
#
# number of rings (size 3 to 8) (size 9 to 14) (size 15 to 20)
#    0.000    2.333    0.000    1.250    3.500    4.000 
#    3.000    1.667    0.000    0.000    0.000    0.000 
#    0.000    0.000    0.000    0.000    0.000    0.000 
#
# Total GULP energy -297578.464385 kJ/mol
# GULP energy per Si atom -12399.102683 kJ/mol
# Density = 2.047183 g / cm^3
# Si number density = 20.518531 Si / 1000 Ang^3
#
#
#
# Elastic Constant Matrix: (Units=GPa)
#
#
# Indices 1 2 3 4 5 6 
#
# 1 166.5710 25.3717 109.4357 0.0000 -0.6763 0.0000
# 2 25.3717 59.0761 34.4881 0.0000 1.9630 0.0000
# 3 109.4357 34.4881 144.1018 0.0000 12.0706 0.0000
# 4 0.0000 0.0000 0.0000 17.4344 0.0000 -6.9189
# 5 -0.6763 1.9630 12.0706 0.0000 39.4702 0.0000
# 6 0.0000 0.0000 0.0000 -6.9189 0.0000 16.4578
#
#
#
# Elastic Compliance Matrix: (Units=1/GPa)
#
#
# Indices 1 2 3 4 5 6 
#
# 1 0.012358 0.000257 -0.009712 0.000000 0.003169 0.000000
# 2 0.000257 0.019690 -0.004953 0.000000 0.000540 0.000000
# 3 -0.009712 -0.004953 0.015901 0.000000 -0.004783 0.000000
# 4 0.000000 0.000000 0.000000 0.068843 0.000000 0.028942
# 5 0.003169 0.000540 -0.004783 0.000000 0.026826 0.000000
# 6 0.000000 0.000000 0.000000 0.028942 0.000000 0.072929
#
#
# Mechanical properties :
#
#
# Convention : Reuss Voigt Hill
#
# Bulk Modulus (GPa) = 52.26367 78.70442 65.48405
# Shear Modulus (GPa) = 19.86169 28.03604 23.94887
#
# Velocity S-wave (km/s) = 3.11463 3.70046 3.42011
# Velocity P-wave (km/s) = 6.20172 7.52987 6.89783
#
# Compressibility (1/GPa) = 0.01913375
#
# Stress axis : x y z
#
# Youngs Moduli (GPa) = 80.92066 50.78595 62.88872
#
# Poissons Ratio (x) = -0.01305 0.61077
# Poissons Ratio (y) = -0.02080 0.31149
# Poissons Ratio (z) = 0.78589 0.25154
#
# Static dielectric constant tensor:
#      x y z
#    x 3.841480 0.000000 0.006970 
#    y 0.000000 3.524740 0.000000 
#    z 0.006970 0.000000 4.009270 
# 
# 
# High freq. dielectric constant tensor:
#      x y z
#    x 1.808030 0.000000 0.000820 
#    y 0.000000 1.794910 0.000000 
#    z 0.000820 0.000000 1.806770 
# 
# From -- ./inp_files/108825.got.cif
#   From: 2010.06.25/outbox.cif.g09.slc.cpg/sg12_55_cif.got.tgz:108825.got - 2010.06.28 00:19:55.
