data_PCOD8109370
_publ_section_title
;
Structure prediction by ZEFSAII (Michael W. Deem and Ramdas Pophale) SiO2 
 PCOD8109370
Probable space group: C 2/M
;
_chemical_formula_sum "Si O2"
_cell_formula_units_Z 56
_cell_length_a 10.972708
_cell_length_b 17.635254
_cell_length_c 14.217758
_cell_angle_alpha 90.000000
_cell_angle_beta 109.904769
_cell_angle_gamma 90.000000
_cell_volume 2586.869523
_symmetry_space_group_name_H-M "C 2/M"
_symmetry_group_IT_number 12
_symmetry_cell_setting 'monoclinic'
loop_
_space_group_symop_operation_xyz
x,y,z
-x,y,-z
-x,-y,-z
x,-y,z
1/2+x,1/2+y,z
1/2-x,1/2+y,-z
1/2-x,1/2-y,-z
1/2+x,1/2-y,z
loop_
_atom_site_type_symbol
_atom_site_label
_atom_site_fract_x
_atom_site_fract_y
_atom_site_fract_z
Si Si1 0.457840 0.324199 0.090320
Si Si2 0.508345 0.585854 0.724325
Si Si3 0.149515 0.272991 0.555907
Si Si4 0.769771 0.085219 0.537290
Si Si5 0.253398 0.360820 0.321747
Si Si6 0.519813 0.851508 0.135475
Si Si7 0.698655 0.087771 0.018774
O O1 0.532913 0.363153 0.197265
O O2 0.483448 0.235102 0.103506
O O3 0.500000 0.355759 0.000000
O O4 0.309917 0.350036 0.058823
O O5 0.493110 0.500000 0.754026
O O6 0.414686 0.604055 0.611778
O O7 0.657533 0.597966 0.732038
O O8 0.250000 0.250000 0.500000
O O9 0.167076 0.363521 0.568847
O O10 0.195091 0.226303 0.659431
O O11 0.000000 0.252307 0.500000
O O12 0.767607 0.098000 0.425167
O O13 0.729129 0.000000 0.549513
O O14 0.101333 0.359928 0.253392
O O15 0.382834 0.897289 0.099899
O O16 0.604867 0.891540 0.078867
O O17 0.746583 0.000000 0.035555
#
# Coordination Sequence:
#
# PCOD8109370 Si02
#       7
#     8   8   8   8   8   8   8
#     4  12  25  43  69  96 136 180 229 284 352 415
#     4  11  23  40  65  98 137 181 230 282 341 407
#     4  10  21  39  63  93 130 175 224 277 335 402
#     4  10  22  40  62  96 139 179 223 278 343 413
#     4  11  21  38  67  99 132 176 228 280 335 407
#     4  11  23  40  68  97 128 170 226 282 338 408
#     4  11  24  44  66  93 132 172 222 285 341 403
#
# _framework density 21.647787000000001
#
# number of rings (size 3 to 8) (size 9 to 14) (size 15 to 20)
#    0.000    1.143    2.857    5.143    0.000    5.429 
#    0.000    2.857    0.000    0.000    0.000    0.000 
#    0.000    0.000    0.000    0.000    0.000    0.000 
#
# Total GULP energy -346949.208233 kJ/mol
# GULP energy per Si atom -12391.043151 kJ/mol
# Density = 2.159852 g / cm^3
# Si number density = 21.647787 Si / 1000 Ang^3
#
#
#
# Elastic Constant Matrix: (Units=GPa)
#
#
# Indices 1 2 3 4 5 6 
#
# 1 59.9132 25.0651 31.0445 0.0000 21.4091 0.0000
# 2 25.0651 121.7786 42.1838 0.0000 8.0921 0.0000
# 3 31.0445 42.1838 130.3001 0.0000 27.0899 0.0000
# 4 0.0000 0.0000 0.0000 35.1473 0.0000 -0.0785
# 5 21.4091 8.0921 27.0899 0.0000 39.5930 0.0000
# 6 0.0000 0.0000 0.0000 -0.0785 0.0000 35.9257
#
#
#
# Elastic Compliance Matrix: (Units=1/GPa)
#
#
# Indices 1 2 3 4 5 6 
#
# 1 0.022851 -0.003237 -0.002291 0.000000 -0.010127 0.000000
# 2 -0.003237 0.009708 -0.002709 0.000000 0.001619 0.000000
# 3 -0.002291 -0.002709 0.010172 0.000000 -0.005167 0.000000
# 4 0.000000 0.000000 0.000000 0.028452 0.000000 0.000062
# 5 -0.010127 0.001619 -0.005167 0.000000 0.033937 0.000000
# 6 0.000000 0.000000 0.000000 0.000062 0.000000 0.027835
#
#
# Mechanical properties :
#
#
# Convention : Reuss Voigt Hill
#
# Bulk Modulus (GPa) = 38.08317 56.50874 47.29595
# Shear Modulus (GPa) = 31.60944 36.37977 33.99460
#
# Velocity S-wave (km/s) = 3.82536 4.10387 3.96706
# Velocity P-wave (km/s) = 6.09439 6.97252 6.54819
#
# Compressibility (1/GPa) = 0.02625832
#
# Stress axis : x y z
#
# Youngs Moduli (GPa) = 43.76225 103.00294 98.31346
#
# Poissons Ratio (x) = 0.33340 0.22523
# Poissons Ratio (y) = 0.14165 0.26628
# Poissons Ratio (z) = 0.10026 0.27898
#
# Static dielectric constant tensor:
#      x y z
#    x 3.997400 0.000000 0.469350 
#    y 0.000000 4.380710 0.000000 
#    z 0.469350 0.000000 4.304270 
# 
# 
# High freq. dielectric constant tensor:
#      x y z
#    x 1.828100 0.000000 0.028500 
#    y 0.000000 1.862560 0.000000 
#    z 0.028500 0.000000 1.854750 
# 
# From -- ./inp_files/206266.got.cif
#   From: 2010.06.25/outbox.cif.g09.slc.cpg/sg12_104_cif.got.tgz:206266.got - 2010.06.28 00:19:55.
