data_PCOD8109025
_publ_section_title
;
Structure prediction by ZEFSAII (Michael W. Deem and Ramdas Pophale) SiO2 
 PCOD8109025
Probable space group: C 2/M
;
_chemical_formula_sum "Si O2"
_cell_formula_units_Z 48
_cell_length_a 29.766674
_cell_length_b 9.136460
_cell_length_c 9.277721
_cell_angle_alpha 90.000000
_cell_angle_beta 99.209772
_cell_angle_gamma 90.000000
_cell_volume 2490.661345
_symmetry_space_group_name_H-M "C 2/M"
_symmetry_group_IT_number 12
_symmetry_cell_setting 'monoclinic'
loop_
_space_group_symop_operation_xyz
x,y,z
-x,y,-z
-x,-y,-z
x,-y,z
1/2+x,1/2+y,z
1/2-x,1/2+y,-z
1/2-x,1/2-y,-z
1/2+x,1/2-y,z
loop_
_atom_site_type_symbol
_atom_site_label
_atom_site_fract_x
_atom_site_fract_y
_atom_site_fract_z
Si Si1 0.621382 0.329225 0.976066
Si Si2 0.780246 0.160570 0.911013
Si Si3 0.871094 0.826451 0.354889
Si Si4 0.221188 0.334787 0.601535
Si Si5 0.453417 0.171773 0.557352
Si Si6 0.956353 0.327636 0.892297
O O1 0.612058 0.500000 0.994484
O O2 0.619301 0.287266 0.806473
O O3 0.669046 0.275034 0.068555
O O4 0.586284 0.240121 0.051226
O O5 0.757138 0.156069 0.746657
O O6 0.784738 0.000000 0.982667
O O7 0.750000 0.250000 0.000000
O O8 0.824303 0.751710 0.380614
O O9 0.912418 0.764477 0.469885
O O10 0.866830 0.000000 0.376971
O O11 0.208044 0.500000 0.545006
O O12 0.250000 0.250000 0.500000
O O13 0.500000 0.212483 0.500000
O O14 0.458986 0.218805 0.726591
O O15 0.442375 0.000000 0.535175
O O16 0.952597 0.500000 0.904993
O O17 0.000000 0.267323 0.000000
#
# Coordination Sequence:
#
# PCOD8109025 Si02
#       6
#     8   8   8   8   8   8
#     4  10  22  39  60  88 121 156 197 246 296 350
#     4  10  21  39  61  87 119 158 202 245 294 347
#     4  11  23  40  62  88 121 160 202 247 299 357
#     4  11  24  40  61  89 123 162 203 248 300 353
#     4  10  22  41  64  90 122 157 197 247 300 359
#     4  10  22  40  63  91 118 152 197 244 297 356
#
# _framework density 19.271989000000001
#
# number of rings (size 3 to 8) (size 9 to 14) (size 15 to 20)
#    0.000    1.667    1.667    2.000    2.333    5.333 
#    0.000    0.000    0.000    0.000    0.000    0.000 
#    0.000    0.000    0.000    0.000    0.000    0.000 
#
# Total GULP energy -297581.730228 kJ/mol
# GULP energy per Si atom -12399.238759 kJ/mol
# Density = 1.922813 g / cm^3
# Si number density = 19.271989 Si / 1000 Ang^3
#
#
#
# Elastic Constant Matrix: (Units=GPa)
#
#
# Indices 1 2 3 4 5 6 
#
# 1 177.9403 60.6534 85.6669 0.0000 -1.8802 0.0000
# 2 60.6534 75.4566 58.1740 0.0000 -2.1411 0.0000
# 3 85.6669 58.1740 125.6560 0.0000 -8.5400 0.0000
# 4 0.0000 0.0000 0.0000 28.9365 0.0000 -3.8819
# 5 -1.8802 -2.1411 -8.5400 0.0000 42.3443 0.0000
# 6 0.0000 0.0000 0.0000 -3.8819 0.0000 40.7149
#
#
#
# Elastic Compliance Matrix: (Units=1/GPa)
#
#
# Indices 1 2 3 4 5 6 
#
# 1 0.009073 -0.003900 -0.004427 0.000000 -0.000687 0.000000
# 2 -0.003900 0.022318 -0.007714 0.000000 -0.000601 0.000000
# 3 -0.004427 -0.007714 0.014710 0.000000 0.002380 0.000000
# 4 0.000000 0.000000 0.000000 0.035006 0.000000 0.003338
# 5 -0.000687 -0.000601 0.002380 0.000000 0.024035 0.000000
# 6 0.000000 0.000000 0.000000 0.003338 0.000000 0.024879
#
#
# Mechanical properties :
#
#
# Convention : Reuss Voigt Hill
#
# Bulk Modulus (GPa) = 71.33528 87.56015 79.44771
# Shear Modulus (GPa) = 29.98031 34.03639 32.00835
#
# Velocity S-wave (km/s) = 3.94844 4.20707 4.07980
# Velocity P-wave (km/s) = 7.60804 8.31455 7.96913
#
# Compressibility (1/GPa) = 0.01401831
#
# Stress axis : x y z
#
# Youngs Moduli (GPa) = 110.21504 44.80736 67.98251
#
# Poissons Ratio (x) = 0.17473 0.30096
# Poissons Ratio (y) = 0.42980 0.52445
# Poissons Ratio (z) = 0.48792 0.34567
#
# Static dielectric constant tensor:
#      x y z
#    x 3.600840 0.000000 0.014460 
#    y 0.000000 3.708900 0.000000 
#    z 0.014460 0.000000 3.563820 
# 
# 
# High freq. dielectric constant tensor:
#      x y z
#    x 1.768460 0.000000 0.003390 
#    y 0.000000 1.751270 0.000000 
#    z 0.003390 0.000000 1.760410 
# 
# From -- ./inp_files/108656.got.cif
#   From: 2010.06.25/outbox.cif.g09.slc.cpg/sg12_55_cif.got.tgz:108656.got - 2010.06.28 00:19:55.
