data_PCOD8109860
_publ_section_title
;
Structure prediction by ZEFSAII (Michael W. Deem and Ramdas Pophale) SiO2 
 PCOD8109860
Probable space group: C 2/M
;
_chemical_formula_sum "Si O2"
_cell_formula_units_Z 60
_cell_length_a 27.314998
_cell_length_b 14.971957
_cell_length_c 9.761398
_cell_angle_alpha 90.000000
_cell_angle_beta 129.128954
_cell_angle_gamma 90.000000
_cell_volume 3096.713367
_symmetry_space_group_name_H-M "C 2/M"
_symmetry_group_IT_number 12
_symmetry_cell_setting 'monoclinic'
loop_
_space_group_symop_operation_xyz
x,y,z
-x,y,-z
-x,-y,-z
x,-y,z
1/2+x,1/2+y,z
1/2-x,1/2+y,-z
1/2-x,1/2-y,-z
1/2+x,1/2-y,z
loop_
_atom_site_type_symbol
_atom_site_label
_atom_site_fract_x
_atom_site_fract_y
_atom_site_fract_z
Si Si1 0.932249 0.769331 0.882398
Si Si2 0.080568 0.102245 0.890745
Si Si3 0.784106 0.104453 0.955095
Si Si4 0.216843 0.895471 0.739225
Si Si5 0.098720 0.773509 0.471090
Si Si6 0.201186 0.321542 0.349818
Si Si7 0.500000 0.663908 0.500000
Si Si8 0.826026 0.398982 0.428703
O O1 0.926551 0.809440 0.719208
O O2 0.869192 0.714280 0.806262
O O3 0.941943 0.845654 0.014082
O O4 0.000000 0.715206 0.000000
O O5 0.147567 0.144842 0.961140
O O6 0.033873 0.105386 0.677168
O O7 0.087079 0.000000 0.947079
O O8 0.762080 0.126594 0.069449
O O9 0.788838 0.000000 0.938655
O O10 0.731020 0.143218 0.760923
O O11 0.154701 0.840509 0.600574
O O12 0.273919 0.864270 0.745054
O O13 0.201772 0.000000 0.692577
O O14 0.116413 0.669105 0.488751
O O15 0.049088 0.773793 0.506629
O O16 0.250000 0.250000 0.500000
O O17 0.195521 0.400229 0.451411
O O18 0.844706 0.500000 0.417130
#
# Coordination Sequence:
#
# PCOD8109860 Si02
#       8
#     8   8   8   8   8   8   4   8
#     4  11  23  41  58  86 123 160 203 257 299 368
#     4  11  23  37  59  89 121 163 203 243 297 366
#     4   9  20  36  56  90 121 147 194 248 304 364
#     4  11  22  38  61  91 125 159 202 253 304 364
#     4  11  24  41  62  89 121 163 207 247 309 366
#     4  11  21  39  62  91 120 159 206 252 307 364
#     4  12  23  42  57  86 124 170 198 242 302 368
#     4  10  21  40  64  89 119 155 201 262 313 359
#
# _framework density 19.375381000000001
#
# number of rings (size 3 to 8) (size 9 to 14) (size 15 to 20)
#    0.000    1.333    5.333    1.400    0.000    2.933 
#    0.000    0.333    0.000   10.000    0.000    0.000 
#    0.000    0.000    0.000    0.000    0.000    0.000 
#
# Total GULP energy -371772.381043 kJ/mol
# GULP energy per Si atom -12392.412701 kJ/mol
# Density = 1.933128 g / cm^3
# Si number density = 19.375381 Si / 1000 Ang^3
#
#
#
# Elastic Constant Matrix: (Units=GPa)
#
#
# Indices 1 2 3 4 5 6 
#
# 1 151.9994 45.6214 61.5471 0.0000 -0.6718 0.0000
# 2 45.6214 77.3395 39.2769 0.0000 -0.3703 0.0000
# 3 61.5471 39.2769 124.0250 0.0000 -15.3661 0.0000
# 4 0.0000 0.0000 0.0000 20.8383 0.0000 -6.6268
# 5 -0.6718 -0.3703 -15.3661 0.0000 24.5695 0.0000
# 6 0.0000 0.0000 0.0000 -6.6268 0.0000 19.7649
#
#
#
# Elastic Compliance Matrix: (Units=1/GPa)
#
#
# Indices 1 2 3 4 5 6 
#
# 1 0.009111 -0.003523 -0.003666 0.000000 -0.002096 0.000000
# 2 -0.003523 0.016985 -0.003914 0.000000 -0.002288 0.000000
# 3 -0.003666 -0.003914 0.012034 0.000000 0.007367 0.000000
# 4 0.000000 0.000000 0.000000 0.053716 0.000000 0.018010
# 5 -0.002096 -0.002288 0.007367 0.000000 0.045217 0.000000
# 6 0.000000 0.000000 0.000000 0.018010 0.000000 0.056633
#
#
# Mechanical properties :
#
#
# Convention : Reuss Voigt Hill
#
# Bulk Modulus (GPa) = 62.79375 71.80606 67.29990
# Shear Modulus (GPa) = 22.60295 26.82911 24.71603
#
# Velocity S-wave (km/s) = 3.41923 3.72519 3.57549
# Velocity P-wave (km/s) = 6.93308 7.45947 7.20109
#
# Compressibility (1/GPa) = 0.01592515
#
# Stress axis : x y z
#
# Youngs Moduli (GPa) = 109.75274 58.87520 83.09668
#
# Poissons Ratio (x) = 0.20743 0.30459
# Poissons Ratio (y) = 0.38668 0.32525
# Poissons Ratio (z) = 0.40230 0.23044
#
# Static dielectric constant tensor:
#      x y z
#    x 3.813570 0.000000 -0.088440 
#    y 0.000000 3.236760 0.000000 
#    z -0.088440 0.000000 4.051420 
# 
# 
# High freq. dielectric constant tensor:
#      x y z
#    x 1.764550 0.000000 -0.008540 
#    y 0.000000 1.724800 0.000000 
#    z -0.008540 0.000000 1.770440 
# 
# From -- ./inp_files/112045.got.cif
#   From: 2010.06.25/outbox.cif.g09.slc.cpg/sg12_57_cif.got.tgz:112045.got - 2010.06.28 00:19:55.
