data_PCOD8109986
_publ_section_title
;
Structure prediction by ZEFSAII (Michael W. Deem and Ramdas Pophale) SiO2 
 PCOD8109986
Probable space group: C 2/M
;
_chemical_formula_sum "Si O2"
_cell_formula_units_Z 48
_cell_length_a 14.324505
_cell_length_b 26.726902
_cell_length_c 9.114318
_cell_angle_alpha 90.000000
_cell_angle_beta 41.606252
_cell_angle_gamma 90.000000
_cell_volume 2316.997724
_symmetry_space_group_name_H-M "C 2/M"
_symmetry_group_IT_number 12
_symmetry_cell_setting 'monoclinic'
loop_
_space_group_symop_operation_xyz
x,y,z
-x,y,-z
-x,-y,-z
x,-y,z
1/2+x,1/2+y,z
1/2-x,1/2+y,-z
1/2-x,1/2-y,-z
1/2+x,1/2-y,z
loop_
_atom_site_type_symbol
_atom_site_label
_atom_site_fract_x
_atom_site_fract_y
_atom_site_fract_z
Si Si1 0.136897 0.710442 0.427179
Si Si2 0.107436 0.355388 0.741692
Si Si3 0.598131 0.343115 0.018481
Si Si4 0.078287 0.556728 0.558141
Si Si5 0.360532 0.447174 0.073744
Si Si6 0.396979 0.676398 0.498694
O O1 0.119877 0.690875 0.613358
O O2 0.164279 0.769592 0.386661
O O3 0.000000 0.694018 0.500000
O O4 0.267571 0.687591 0.187426
O O5 0.050223 0.405066 0.726030
O O6 0.266505 0.361049 0.620309
O O7 0.000000 0.342604 0.000000
O O8 0.502108 0.312138 0.241173
O O9 0.500000 0.357393 0.000000
O O10 0.641011 0.398550 0.031724
O O11 0.032777 0.500000 0.656374
O O12 0.242785 0.560895 0.335925
O O13 0.000000 0.573338 0.500000
O O14 0.330820 0.500000 0.021846
O O15 0.500000 0.454095 0.000000
O O16 0.500000 0.652752 0.500000
#
# Coordination Sequence:
#
# PCOD8109986 Si02
#       6
#     8   8   8   8   8   8
#     4  11  25  41  63  91 122 168 221 260 315 375
#     4  12  25  40  62  93 131 165 205 263 323 378
#     4  11  21  39  66  85 123 167 209 267 310 379
#     4  10  21  40  65  94 125 161 209 256 311 384
#     4   9  17  32  58  89 116 150 203 253 299 362
#     4  11  27  42  60  92 126 169 215 264 320 371
#
# _framework density 20.716463000000001
#
# number of rings (size 3 to 8) (size 9 to 14) (size 15 to 20)
#    0.000    1.333    3.333    2.000    4.667    1.667 
#    0.000    0.000    0.000    2.000    0.000    0.000 
#    0.000    0.000    0.000    0.000    0.000    0.000 
#
# Total GULP energy -297342.898654 kJ/mol
# GULP energy per Si atom -12389.287444 kJ/mol
# Density = 2.066931 g / cm^3
# Si number density = 20.716463 Si / 1000 Ang^3
#
#
#
# Elastic Constant Matrix: (Units=GPa)
#
#
# Indices 1 2 3 4 5 6 
#
# 1 111.8111 21.9901 46.6239 0.0000 -3.3375 0.0000
# 2 21.9901 98.9069 22.9721 0.0000 -3.8871 0.0000
# 3 46.6239 22.9721 138.0962 0.0000 -17.3899 0.0000
# 4 0.0000 0.0000 0.0000 23.3900 0.0000 -4.8879
# 5 -3.3375 -3.8871 -17.3899 0.0000 25.1967 0.0000
# 6 0.0000 0.0000 0.0000 -4.8879 0.0000 28.1803
#
#
#
# Elastic Compliance Matrix: (Units=1/GPa)
#
#
# Indices 1 2 3 4 5 6 
#
# 1 0.010681 -0.001612 -0.003495 0.000000 -0.001246 0.000000
# 2 -0.001612 0.010765 -0.001166 0.000000 0.000643 0.000000
# 3 -0.003495 -0.001166 0.009346 0.000000 0.005808 0.000000
# 4 0.000000 0.000000 0.000000 0.044361 0.000000 0.007694
# 5 -0.001246 0.000643 0.005808 0.000000 0.043630 0.000000
# 6 0.000000 0.000000 0.000000 0.007694 0.000000 0.036820
#
#
# Mechanical properties :
#
#
# Convention : Reuss Voigt Hill
#
# Bulk Modulus (GPa) = 54.80179 59.10960 56.95570
# Shear Modulus (GPa) = 28.69751 32.50194 30.59972
#
# Velocity S-wave (km/s) = 3.72593 3.96522 3.84744
# Velocity P-wave (km/s) = 6.70975 7.03979 6.87675
#
# Compressibility (1/GPa) = 0.01824758
#
# Stress axis : x y z
#
# Youngs Moduli (GPa) = 93.62613 92.89470 106.99201
#
# Poissons Ratio (x) = 0.14974 0.37391
# Poissons Ratio (y) = 0.15092 0.12471
# Poissons Ratio (z) = 0.32720 0.10827
#
# Static dielectric constant tensor:
#      x y z
#    x 3.681260 0.000000 -0.519830 
#    y 0.000000 4.095530 0.000000 
#    z -0.519830 0.000000 3.102260 
# 
# 
# High freq. dielectric constant tensor:
#      x y z
#    x 1.806000 0.000000 -0.029860 
#    y 0.000000 1.818280 0.000000 
#    z -0.029860 0.000000 1.798520 
# 
# From -- ./inp_files/67326.got.cif
#   From: 2010.06.25/outbox.cif.g09.slc.cpg/sg12_34_cif.got.tgz:67326.got - 2010.06.28 00:19:55.
