data_PCOD8109743
_publ_section_title
;
Structure prediction by ZEFSAII (Michael W. Deem and Ramdas Pophale) SiO2 
 PCOD8109743
Probable space group: C 2/M
;
_chemical_formula_sum "Si O2"
_cell_formula_units_Z 40
_cell_length_a 20.707239
_cell_length_b 20.669986
_cell_length_c 12.590459
_cell_angle_alpha 90.000000
_cell_angle_beta 159.551538
_cell_angle_gamma 90.000000
_cell_volume 1882.707956
_symmetry_space_group_name_H-M "C 2/M"
_symmetry_group_IT_number 12
_symmetry_cell_setting 'monoclinic'
loop_
_space_group_symop_operation_xyz
x,y,z
-x,y,-z
-x,-y,-z
x,-y,z
1/2+x,1/2+y,z
1/2-x,1/2+y,-z
1/2-x,1/2-y,-z
1/2+x,1/2-y,z
loop_
_atom_site_type_symbol
_atom_site_label
_atom_site_fract_x
_atom_site_fract_y
_atom_site_fract_z
Si Si1 0.673875 0.297009 0.469840
Si Si2 0.232305 0.749919 0.166996
Si Si3 0.335469 0.427579 0.069615
Si Si4 0.000000 0.847970 0.500000
Si Si5 0.936749 0.072278 0.783141
Si Si6 0.500000 0.149457 0.500000
O O1 0.750000 0.250000 0.500000
O O2 0.794437 0.283751 0.760005
O O3 0.699994 0.370883 0.468161
O O4 0.460176 0.280342 0.168941
O O5 0.312886 0.695318 0.211768
O O6 0.382063 0.807760 0.401488
O O7 0.323586 0.500000 0.095572
O O8 0.490737 0.390668 0.378798
O O9 0.388420 0.426842 0.026653
O O10 0.135871 0.395415 0.778366
O O11 0.844476 0.000000 0.637685
O O12 0.000000 0.089035 0.000000
#
# Coordination Sequence:
#
# PCOD8109743 Si02
#       6
#     8   8   8   4   8   4
#     4  12  23  39  64  92 118 159 210 256 303 362
#     4  11  22  38  60  90 124 158 197 254 311 356
#     4  11  22  38  63  90 123 162 204 246 303 372
#     4  11  21  40  60  88 129 161 196 246 312 369
#     4  10  21  40  62  86 119 162 205 252 304 355
#     4  11  21  38  60  90 127 155 204 250 302 359
#
# _framework density 21.245992000000001
#
# number of rings (size 3 to 8) (size 9 to 14) (size 15 to 20)
#    0.000    1.000    4.000    3.600    0.000    3.200 
#    0.000    0.000    0.000    3.600    0.000    0.000 
#    0.000    0.000    0.000    0.000    0.000    0.000 
#
# Total GULP energy -247939.442227 kJ/mol
# GULP energy per Si atom -12396.972111 kJ/mol
# Density = 2.119764 g / cm^3
# Si number density = 21.245992 Si / 1000 Ang^3
#
#
#
# Elastic Constant Matrix: (Units=GPa)
#
#
# Indices 1 2 3 4 5 6 
#
# 1 82.8923 18.9943 -2.4962 0.0000 -7.6258 0.0000
# 2 18.9943 151.9008 16.6656 0.0000 -3.2158 0.0000
# 3 -2.4962 16.6656 44.9135 0.0000 0.9978 0.0000
# 4 0.0000 0.0000 0.0000 22.4787 0.0000 -3.5961
# 5 -7.6258 -3.2158 0.9978 0.0000 30.7764 0.0000
# 6 0.0000 0.0000 0.0000 -3.5961 0.0000 28.3964
#
#
#
# Elastic Compliance Matrix: (Units=1/GPa)
#
#
# Indices 1 2 3 4 5 6 
#
# 1 0.012756 -0.001671 0.001264 0.000000 0.002945 0.000000
# 2 -0.001671 0.007101 -0.002737 0.000000 0.000417 0.000000
# 3 0.001264 -0.002737 0.023367 0.000000 -0.000730 0.000000
# 4 0.000000 0.000000 0.000000 0.045406 0.000000 0.005750
# 5 0.002945 0.000417 -0.000730 0.000000 0.033289 0.000000
# 6 0.000000 0.000000 0.000000 0.005750 0.000000 0.035944
#
#
# Mechanical properties :
#
#
# Convention : Reuss Voigt Hill
#
# Bulk Modulus (GPa) = 27.07487 38.44823 32.76155
# Shear Modulus (GPa) = 28.33420 32.76651 30.55036
#
# Velocity S-wave (km/s) = 3.65585 3.93140 3.79613
# Velocity P-wave (km/s) = 5.53095 6.22446 5.88793
#
# Compressibility (1/GPa) = 0.03693462
#
# Stress axis : x y z
#
# Youngs Moduli (GPa) = 78.39569 140.81815 42.79517
#
# Poissons Ratio (x) = 0.23535 -0.05408
# Poissons Ratio (y) = 0.13103 0.11714
# Poissons Ratio (z) = -0.09907 0.38544
#
# Static dielectric constant tensor:
#      x y z
#    x 3.814250 0.000000 0.035240 
#    y 0.000000 4.350770 0.000000 
#    z 0.035240 0.000000 3.574000 
# 
# 
# High freq. dielectric constant tensor:
#      x y z
#    x 1.835040 0.000000 -0.004470 
#    y 0.000000 1.857140 0.000000 
#    z -0.004470 0.000000 1.793110 
# 
# From -- ./inp_files/241350.got.cif
#   From: 2010.06.25/outbox.cif.g09.slc.cpg/sg12_121_cif.got.tgz:241350.got - 2010.06.28 00:19:55.
