data_PCOD8109959
_publ_section_title
;
Structure prediction by ZEFSAII (Michael W. Deem and Ramdas Pophale) SiO2 
 PCOD8109959
Probable space group: C 2/M
;
_chemical_formula_sum "Si O2"
_cell_formula_units_Z 64
_cell_length_a 24.091371
_cell_length_b 8.527350
_cell_length_c 15.379040
_cell_angle_alpha 90.000000
_cell_angle_beta 90.527566
_cell_angle_gamma 90.000000
_cell_volume 3159.267649
_symmetry_space_group_name_H-M "C 2/M"
_symmetry_group_IT_number 12
_symmetry_cell_setting 'monoclinic'
loop_
_space_group_symop_operation_xyz
x,y,z
-x,y,-z
-x,-y,-z
x,-y,z
1/2+x,1/2+y,z
1/2-x,1/2+y,-z
1/2-x,1/2-y,-z
1/2+x,1/2-y,z
loop_
_atom_site_type_symbol
_atom_site_label
_atom_site_fract_x
_atom_site_fract_y
_atom_site_fract_z
Si Si1 0.884244 0.316732 0.656352
Si Si2 0.113995 0.181765 0.650682
Si Si3 0.064606 0.316113 0.001153
Si Si4 0.497445 0.173255 0.398541
Si Si5 0.188466 0.814841 0.494778
Si Si6 0.368820 0.681780 0.157286
Si Si7 0.754614 0.318901 0.905978
Si Si8 0.864165 0.182173 0.840687
O O1 0.878763 0.500000 0.636602
O O2 0.944916 0.253213 0.632601
O O3 0.838269 0.230465 0.597790
O O4 0.878394 0.284897 0.757649
O O5 0.153041 0.256506 0.575698
O O6 0.123566 0.254786 0.746337
O O7 0.050036 0.206246 0.627572
O O8 0.128028 0.000000 0.656092
O O9 0.070122 0.500000 0.018665
O O10 0.092839 0.275842 0.909517
O O11 0.096637 0.226355 0.078052
O O12 0.000000 0.264411 0.000000
O O13 0.500000 0.154563 0.500000
O O14 0.486847 0.000000 0.356971
O O15 0.250000 0.750000 0.500000
O O16 0.190219 0.000000 0.501694
O O17 0.386685 0.500000 0.151556
O O18 0.304062 0.702862 0.139992
O O19 0.773459 0.500000 0.908585
O O20 0.799953 0.215703 0.857816
O O21 0.750000 0.250000 0.000000
O O22 0.872371 0.000000 0.820105
#
# Coordination Sequence:
#
# PCOD8109959 Si02
#       8
#     8   8   8   8   8   8   8   8
#     4  11  24  43  66  92 128 168 211 265 318 374
#     4  10  23  41  63  93 127 164 207 256 313 372
#     4  11  25  44  65  92 127 167 211 261 317 376
#     4  10  21  40  65  92 122 162 209 259 315 372
#     4  11  24  42  64  93 129 170 214 260 316 377
#     4  10  23  42  64  93 126 166 208 255 315 375
#     4  11  22  40  67  94 126 165 211 262 316 374
#     4  12  26  43  65  95 128 167 214 261 318 383
#
# _framework density 20.257860999999998
#
# number of rings (size 3 to 8) (size 9 to 14) (size 15 to 20)
#    0.000    1.250    2.500    2.625    3.500    3.750 
#    0.000    0.000    0.000    0.000    0.000    0.000 
#    0.000    0.000    0.000    0.000    0.000    0.000 
#
# Total GULP energy -396854.067388 kJ/mol
# GULP energy per Si atom -12401.689606 kJ/mol
# Density = 2.021175 g / cm^3
# Si number density = 20.257861 Si / 1000 Ang^3
#
#
#
# Elastic Constant Matrix: (Units=GPa)
#
#
# Indices 1 2 3 4 5 6 
#
# 1 145.4442 28.4695 54.5658 0.0000 -6.7899 0.0000
# 2 28.4695 48.1755 17.1368 0.0000 4.1491 0.0000
# 3 54.5658 17.1368 131.4188 0.0000 -2.5093 0.0000
# 4 0.0000 0.0000 0.0000 30.0151 0.0000 -1.1122
# 5 -6.7899 4.1491 -2.5093 0.0000 34.7364 0.0000
# 6 0.0000 0.0000 0.0000 -1.1122 0.0000 34.3755
#
#
#
# Elastic Compliance Matrix: (Units=1/GPa)
#
#
# Indices 1 2 3 4 5 6 
#
# 1 0.009003 -0.004385 -0.003127 0.000000 0.002058 0.000000
# 2 -0.004385 0.024180 -0.001406 0.000000 -0.003847 0.000000
# 3 -0.003127 -0.001406 0.009095 0.000000 0.000214 0.000000
# 4 0.000000 0.000000 0.000000 0.033357 0.000000 0.001079
# 5 0.002058 -0.003847 0.000214 0.000000 0.029665 0.000000
# 6 0.000000 0.000000 0.000000 0.001079 0.000000 0.029125
#
#
# Mechanical properties :
#
#
# Convention : Reuss Voigt Hill
#
# Bulk Modulus (GPa) = 40.91266 58.37585 49.64426
# Shear Modulus (GPa) = 31.17027 34.81650 32.99339
#
# Velocity S-wave (km/s) = 3.92685 4.15018 4.04006
# Velocity P-wave (km/s) = 6.38749 7.20030 6.80604
#
# Compressibility (1/GPa) = 0.02444231
#
# Stress axis : x y z
#
# Youngs Moduli (GPa) = 111.07302 41.35598 109.95057
#
# Poissons Ratio (x) = 0.18136 0.34382
# Poissons Ratio (y) = 0.48709 0.15456
# Poissons Ratio (z) = 0.34733 0.05814
#
# Static dielectric constant tensor:
#      x y z
#    x 3.903520 0.000000 -0.326650 
#    y 0.000000 3.711440 0.000000 
#    z -0.326650 0.000000 4.165190 
# 
# 
# High freq. dielectric constant tensor:
#      x y z
#    x 1.804670 0.000000 -0.003330 
#    y 0.000000 1.787690 0.000000 
#    z -0.003330 0.000000 1.803960 
# 
# From -- ./inp_files/238604.got.cif
#   From: 2010.06.25/outbox.cif.g09.slc.cpg/sg12_120_cif.got.tgz:238604.got - 2010.06.28 00:19:55.
