data_PCOD8109826
_publ_section_title
;
Structure prediction by ZEFSAII (Michael W. Deem and Ramdas Pophale) SiO2 
 PCOD8109826
Probable space group: C 2/M
;
_chemical_formula_sum "Si O2"
_cell_formula_units_Z 48
_cell_length_a 29.517184
_cell_length_b 8.831465
_cell_length_c 18.571952
_cell_angle_alpha 90.000000
_cell_angle_beta 150.365013
_cell_angle_gamma 90.000000
_cell_volume 2393.908601
_symmetry_space_group_name_H-M "C 2/M"
_symmetry_group_IT_number 12
_symmetry_cell_setting 'monoclinic'
loop_
_space_group_symop_operation_xyz
x,y,z
-x,y,-z
-x,-y,-z
x,-y,z
1/2+x,1/2+y,z
1/2-x,1/2+y,-z
1/2-x,1/2-y,-z
1/2+x,1/2-y,z
loop_
_atom_site_type_symbol
_atom_site_label
_atom_site_fract_x
_atom_site_fract_y
_atom_site_fract_z
Si Si1 0.500714 0.175826 0.917249
Si Si2 0.525197 0.165263 0.616014
Si Si3 0.650836 0.178721 0.539226
Si Si4 0.206670 0.322416 0.160605
Si Si5 0.654959 0.678986 0.391936
Si Si6 0.709994 0.675830 0.874468
O O1 0.425093 0.275495 0.773270
O O2 0.475489 0.000000 0.872333
O O3 0.500000 0.220294 0.000000
O O4 0.599134 0.212691 0.018329
O O5 0.500000 0.140204 0.500000
O O6 0.436158 0.225282 0.533630
O O7 0.602553 0.291448 0.727998
O O8 0.556998 0.000000 0.691075
O O9 0.742619 0.236523 0.704659
O O10 0.631854 0.261460 0.438659
O O11 0.659707 0.000000 0.539308
O O12 0.227159 0.500000 0.197483
O O13 0.242595 0.260431 0.132986
O O14 0.664690 0.500000 0.405866
O O15 0.750000 0.750000 0.500000
O O16 0.728808 0.500000 0.904631
O O17 0.750000 0.750000 0.000000
#
# Coordination Sequence:
#
# PCOD8109826 Si02
#       6
#     8   8   8   8   8   8
#     4  10  22  42  67  93 125 164 202 251 313 373
#     4  10  21  40  63  90 124 167 213 259 311 368
#     4  11  23  40  66  94 126 165 209 261 314 368
#     4  10  22  40  62  91 126 165 208 257 316 373
#     4  12  26  44  67  96 128 162 206 255 308 372
#     4  11  24  39  59  88 126 169 213 263 313 369
#
# _framework density 20.050891
#
# number of rings (size 3 to 8) (size 9 to 14) (size 15 to 20)
#    0.000    1.333    1.667    3.500    2.333    4.667 
#    0.000    0.000    0.000    0.000    0.000    0.000 
#    0.000    0.000    0.000    0.000    0.000    0.000 
#
# Total GULP energy -297670.709128 kJ/mol
# GULP energy per Si atom -12402.946214 kJ/mol
# Density = 2.000525 g / cm^3
# Si number density = 20.050891 Si / 1000 Ang^3
#
#
#
# Elastic Constant Matrix: (Units=GPa)
#
#
# Indices 1 2 3 4 5 6 
#
# 1 131.9244 49.9586 62.4790 0.0000 2.4499 0.0000
# 2 49.9586 98.6814 59.4901 0.0000 -1.6496 0.0000
# 3 62.4790 59.4901 130.9671 0.0000 -0.5325 0.0000
# 4 0.0000 0.0000 0.0000 43.8623 0.0000 -2.4123
# 5 2.4499 -1.6496 -0.5325 0.0000 38.9713 0.0000
# 6 0.0000 0.0000 0.0000 -2.4123 0.0000 30.9543
#
#
#
# Elastic Compliance Matrix: (Units=1/GPa)
#
#
# Indices 1 2 3 4 5 6 
#
# 1 0.010486 -0.003174 -0.003564 0.000000 -0.000842 0.000000
# 2 -0.003174 0.014926 -0.005263 0.000000 0.000759 0.000000
# 3 -0.003564 -0.005263 0.011727 0.000000 0.000162 0.000000
# 4 0.000000 0.000000 0.000000 0.022897 0.000000 0.001784
# 5 -0.000842 0.000759 0.000162 0.000000 0.025747 0.000000
# 6 0.000000 0.000000 0.000000 0.001784 0.000000 0.032445
#
#
# Mechanical properties :
#
#
# Convention : Reuss Voigt Hill
#
# Bulk Modulus (GPa) = 76.11989 78.38092 77.25041
# Shear Modulus (GPa) = 34.10485 35.40060 34.75273
#
# Velocity S-wave (km/s) = 4.12869 4.20639 4.16772
# Velocity P-wave (km/s) = 7.79576 7.92259 7.85943
#
# Compressibility (1/GPa) = 0.01313717
#
# Stress axis : x y z
#
# Youngs Moduli (GPa) = 95.36916 66.99848 85.27488
#
# Poissons Ratio (x) = 0.21265 0.30391
# Poissons Ratio (y) = 0.30270 0.44876
# Poissons Ratio (z) = 0.33989 0.35258
#
# Static dielectric constant tensor:
#      x y z
#    x 3.812270 0.000000 -0.006950 
#    y 0.000000 21.853170 0.000000 
#    z -0.006950 0.000000 3.423880 
# 
# 
# High freq. dielectric constant tensor:
#      x y z
#    x 1.802020 0.000000 0.000390 
#    y 0.000000 1.780870 0.000000 
#    z 0.000390 0.000000 1.789670 
# 
# From -- ./inp_files/295908.got.cif
#   From: 2010.06.25/outbox.cif.g09.slc.cpg/sg12_148_cif.got.tgz:295908.got - 2010.06.28 00:19:55.
