data_PCOD8109385
_publ_section_title
;
Structure prediction by ZEFSAII (Michael W. Deem and Ramdas Pophale) SiO2 
 PCOD8109385
Probable space group: C 2/M
;
_chemical_formula_sum "Si O2"
_cell_formula_units_Z 56
_cell_length_a 29.829785
_cell_length_b 21.976725
_cell_length_c 11.891530
_cell_angle_alpha 90.000000
_cell_angle_beta 19.870557
_cell_angle_gamma 90.000000
_cell_volume 2649.703540
_symmetry_space_group_name_H-M "C 2/M"
_symmetry_group_IT_number 12
_symmetry_cell_setting 'monoclinic'
loop_
_space_group_symop_operation_xyz
x,y,z
-x,y,-z
-x,-y,-z
x,-y,z
1/2+x,1/2+y,z
1/2-x,1/2+y,-z
1/2-x,1/2-y,-z
1/2+x,1/2-y,z
loop_
_atom_site_type_symbol
_atom_site_label
_atom_site_fract_x
_atom_site_fract_y
_atom_site_fract_z
Si Si1 0.473974 0.851298 0.771104
Si Si2 0.554192 0.340462 0.687245
Si Si3 0.377652 0.856922 0.362603
Si Si4 0.819955 0.930151 0.304544
Si Si5 0.753178 0.567701 0.261057
Si Si6 0.408096 0.745213 0.613821
Si Si7 0.764050 0.235020 0.596450
O O1 0.566573 0.877999 0.649950
O O2 0.559861 0.816571 0.476831
O O3 0.402618 0.910409 0.889342
O O4 0.365484 0.801520 0.065140
O O5 0.659646 0.391778 0.403658
O O6 0.545037 0.294790 0.603647
O O7 0.606542 0.303565 0.673235
O O8 0.422765 0.377471 0.028783
O O9 0.310706 0.914627 0.458831
O O10 0.275809 0.801350 0.626931
O O11 0.500000 0.832254 0.000000
O O12 0.788580 0.924775 0.509921
O O13 0.866452 0.000000 0.168172
O O14 0.739766 0.500000 0.248917
O O15 0.500000 0.720991 0.500000
O O16 0.250000 0.750000 0.000000
O O17 0.750000 0.250000 0.500000
#
# Coordination Sequence:
#
# PCOD8109385 Si02
#       7
#     8   8   8   8   8   8   8
#     4  11  23  38  61  90 124 166 209 254 328 379
#     4  11  23  40  65  91 126 168 211 261 324 382
#     4  12  21  34  55  90 132 170 200 245 306 385
#     4  11  24  38  60  95 136 177 208 237 296 388
#     4  10  21  39  63  96 134 169 206 243 297 392
#     4  12  27  46  68  94 125 163 222 291 343 380
#     4  11  21  35  58  96 133 160 194 252 320 404
#
# _framework density 21.134440000000001
#
# number of rings (size 3 to 8) (size 9 to 14) (size 15 to 20)
#    0.000    0.857    4.286    4.286    2.000    5.429 
#    0.000    0.000    0.000    6.429    0.000    0.000 
#    0.000    0.000    0.000    0.000    0.000    0.000 
#
# Total GULP energy -346870.936553 kJ/mol
# GULP energy per Si atom -12388.247734 kJ/mol
# Density = 2.108634 g / cm^3
# Si number density = 21.134440 Si / 1000 Ang^3
#
#
#
# Elastic Constant Matrix: (Units=GPa)
#
#
# Indices 1 2 3 4 5 6 
#
# 1 86.4613 30.3882 26.1702 -0.0003 -25.5760 0.0000
# 2 30.3882 111.7197 24.7891 -0.0019 -7.7125 0.0001
# 3 26.1702 24.7891 76.2706 -0.0049 -13.0845 0.0008
# 4 -0.0003 -0.0019 -0.0049 30.0755 0.0022 -2.0320
# 5 -25.5760 -7.7125 -13.0845 0.0022 28.8050 -0.0001
# 6 0.0000 0.0001 0.0008 -2.0320 -0.0001 24.5632
#
#
#
# Elastic Compliance Matrix: (Units=1/GPa)
#
#
# Indices 1 2 3 4 5 6 
#
# 1 0.017485 -0.003242 -0.002637 -0.000001 0.013459 0.000000
# 2 -0.003242 0.010290 -0.002444 0.000000 -0.001233 0.000000
# 3 -0.002637 -0.002444 0.015505 0.000002 0.004047 0.000000
# 4 -0.000001 0.000000 0.000002 0.033437 -0.000003 0.002766
# 5 0.013459 -0.001233 0.004047 -0.000003 0.048175 0.000000
# 6 0.000000 0.000000 0.000000 0.002766 0.000000 0.040940
#
#
# Mechanical properties :
#
#
# Convention : Reuss Voigt Hill
#
# Bulk Modulus (GPa) = 37.54510 48.57184 43.05847
# Shear Modulus (GPa) = 26.12975 29.56233 27.84604
#
# Velocity S-wave (km/s) = 3.52000 3.74408 3.63377
# Velocity P-wave (km/s) = 5.85867 6.45934 6.16632
#
# Compressibility (1/GPa) = 0.02663463
#
# Stress axis : x y z
#
# Youngs Moduli (GPa) = 57.19318 97.18373 64.49734
#
# Poissons Ratio (x) = 0.31504 0.17007
# Poissons Ratio (y) = 0.18540 0.15761
# Poissons Ratio (z) = 0.15081 0.23748
#
# Static dielectric constant tensor:
#      x y z
#    x 3.958730 0.000000 -0.340170 
#    y 0.000000 4.072200 0.000010 
#    z -0.340170 0.000010 3.425440 
# 
# 
# High freq. dielectric constant tensor:
#      x y z
#    x 1.817410 0.000000 -0.036970 
#    y 0.000000 1.828140 0.000000 
#    z -0.036970 0.000000 1.820950 
# 
# From -- ./inp_files/190385.got.cif
#   From: 2010.06.25/outbox.cif.g09.slc.cpg/sg12_96_cif.got.tgz:190385.got - 2010.06.28 00:19:55.
