data_PCOD8109230
_publ_section_title
;
Structure prediction by ZEFSAII (Michael W. Deem and Ramdas Pophale) SiO2 
 PCOD8109230
Probable space group: C 2/M
;
_chemical_formula_sum "Si O2"
_cell_formula_units_Z 60
_cell_length_a 5.142358
_cell_length_b 30.664756
_cell_length_c 17.828469
_cell_angle_alpha 90.000000
_cell_angle_beta 103.823701
_cell_angle_gamma 90.000000
_cell_volume 2729.926726
_symmetry_space_group_name_H-M "C 2/M"
_symmetry_group_IT_number 12
_symmetry_cell_setting 'monoclinic'
loop_
_space_group_symop_operation_xyz
x,y,z
-x,y,-z
-x,-y,-z
x,-y,z
1/2+x,1/2+y,z
1/2-x,1/2+y,-z
1/2-x,1/2-y,-z
1/2+x,1/2-y,z
loop_
_atom_site_type_symbol
_atom_site_label
_atom_site_fract_x
_atom_site_fract_y
_atom_site_fract_z
Si Si1 0.000000 0.098140 0.500000
Si Si2 0.559040 0.547999 0.233440
Si Si3 0.451528 0.902312 0.796651
Si Si4 0.621262 0.779102 0.680172
Si Si5 0.802455 0.549542 0.400452
Si Si6 0.721494 0.854619 0.951467
Si Si7 0.885101 0.631947 0.637162
Si Si8 0.191118 0.224236 0.144393
O O1 0.784547 0.065188 0.522603
O O2 0.892560 0.131416 0.428223
O O3 0.510899 0.500000 0.198202
O O4 0.849538 0.562623 0.225337
O O5 0.553795 0.548490 0.324411
O O6 0.315683 0.576984 0.186430
O O7 0.607025 0.881422 0.875178
O O8 0.351610 0.868544 0.725275
O O9 0.872416 0.754532 0.660418
O O10 0.550880 0.823681 0.629686
O O11 0.690441 0.794547 0.769612
O O12 0.924354 0.500000 0.413314
O O13 0.997151 0.586148 0.381743
O O14 0.796379 0.807743 0.924436
O O15 0.500000 0.850794 0.000000
O O16 0.000000 0.876060 0.000000
O O17 0.378152 0.265096 0.134675
#
# Coordination Sequence:
#
# PCOD8109230 Si02
#       8
#     4   8   8   8   8   8   8   8
#     4  12  23  40  64 100 140 176 222 272 341 408
#     4  10  21  39  67  97 125 171 223 268 320 391
#     4  11  22  42  65  92 132 173 216 269 322 398
#     4  10  23  42  70  96 129 176 235 282 329 386
#     4  10  23  40  64 100 142 177 214 274 347 415
#     4  12  25  40  63  97 132 169 210 265 331 396
#     4  11  24  42  67  95 134 182 227 276 333 403
#     4  10  21  39  62  93 128 167 208 261 326 395
#
# _framework density 21.978611000000001
#
# number of rings (size 3 to 8) (size 9 to 14) (size 15 to 20)
#    0.000    1.333    2.667    2.600    1.867    3.733 
#    0.000    0.667    0.000    8.000    0.000    0.000 
#    0.000    0.000    0.000    0.000    0.000    0.000 
#
# Total GULP energy -371780.189763 kJ/mol
# GULP energy per Si atom -12392.672992 kJ/mol
# Density = 2.192859 g / cm^3
# Si number density = 21.978611 Si / 1000 Ang^3
#
#
#
# Elastic Constant Matrix: (Units=GPa)
#
#
# Indices 1 2 3 4 5 6 
#
# 1 73.2590 0.1209 7.2118 0.0000 9.1819 0.0000
# 2 0.1209 73.6794 38.5280 0.0000 12.8667 0.0000
# 3 7.2118 38.5280 106.6558 0.0000 17.4503 0.0000
# 4 0.0000 0.0000 0.0000 20.3723 0.0000 5.8975
# 5 9.1819 12.8667 17.4503 0.0000 34.9383 0.0000
# 6 0.0000 0.0000 0.0000 5.8975 0.0000 26.6793
#
#
#
# Elastic Compliance Matrix: (Units=1/GPa)
#
#
# Indices 1 2 3 4 5 6 
#
# 1 0.014187 0.001001 -0.000708 0.000000 -0.003743 0.000000
# 2 0.001001 0.017188 -0.005661 0.000000 -0.003766 0.000000
# 3 -0.000708 -0.005661 0.012085 0.000000 -0.003765 0.000000
# 4 0.000000 0.000000 0.000000 0.052442 0.000000 -0.011592
# 5 -0.003743 -0.003766 -0.003765 0.000000 0.032873 0.000000
# 6 0.000000 0.000000 0.000000 -0.011592 0.000000 0.040045
#
#
# Mechanical properties :
#
#
# Convention : Reuss Voigt Hill
#
# Bulk Modulus (GPa) = 30.55850 38.36837 34.46344
# Shear Modulus (GPa) = 26.25163 30.24690 28.24926
#
# Velocity S-wave (km/s) = 3.45978 3.71374 3.58901
# Velocity P-wave (km/s) = 5.46755 5.99034 5.73490
#
# Compressibility (1/GPa) = 0.03272412
#
# Stress axis : x y z
#
# Youngs Moduli (GPa) = 70.48479 58.17917 82.74944
#
# Poissons Ratio (x) = -0.05823 0.05862
# Poissons Ratio (y) = -0.07055 0.46841
# Poissons Ratio (z) = 0.04993 0.32933
#
# Static dielectric constant tensor:
#      x y z
#    x 4.000360 0.000000 0.118110 
#    y 0.000000 3.788940 0.000000 
#    z 0.118110 0.000000 4.261620 
# 
# 
# High freq. dielectric constant tensor:
#      x y z
#    x 1.864070 0.000000 0.013810 
#    y 0.000000 1.853270 0.000000 
#    z 0.013810 0.000000 1.864030 
# 
# From -- ./inp_files/254032.got.cif
#   From: 2010.06.25/outbox.cif.g09.slc.cpg/sg12_128_cif.got.tgz:254032.got - 2010.06.28 00:19:55.
