data_PCOD8109266
_publ_section_title
;
Structure prediction by ZEFSAII (Michael W. Deem and Ramdas Pophale) SiO2 
 PCOD8109266
Probable space group: C 2/M
;
_chemical_formula_sum "Si O2"
_cell_formula_units_Z 64
_cell_length_a 14.621092
_cell_length_b 13.875553
_cell_length_c 17.991833
_cell_angle_alpha 90.000000
_cell_angle_beta 125.862956
_cell_angle_gamma 90.000000
_cell_volume 2958.121344
_symmetry_space_group_name_H-M "C 2/M"
_symmetry_group_IT_number 12
_symmetry_cell_setting 'monoclinic'
loop_
_space_group_symop_operation_xyz
x,y,z
-x,y,-z
-x,-y,-z
x,-y,z
1/2+x,1/2+y,z
1/2-x,1/2+y,-z
1/2-x,1/2-y,-z
1/2+x,1/2-y,z
loop_
_atom_site_type_symbol
_atom_site_label
_atom_site_fract_x
_atom_site_fract_y
_atom_site_fract_z
Si Si1 0.619713 0.388449 0.539346
Si Si2 0.204672 0.242704 0.896246
Si Si3 0.340045 0.894166 0.723987
Si Si4 0.617082 0.106848 0.083394
Si Si5 0.616595 0.113160 0.584931
Si Si6 0.318756 0.387762 0.588214
Si Si7 0.239896 0.115374 0.208186
Si Si8 0.444921 0.701536 0.769886
O O1 0.500000 0.338093 0.500000
O O2 0.596988 0.500000 0.511469
O O3 0.706203 0.374265 0.648965
O O4 0.667680 0.341096 0.486517
O O5 0.270212 0.156736 0.889222
O O6 0.227777 0.338456 0.856638
O O7 0.076455 0.210402 0.847959
O O8 0.250000 0.250000 0.000000
O O9 0.378040 0.895247 0.826432
O O10 0.407408 0.806434 0.719879
O O11 0.369264 0.000000 0.702204
O O12 0.618594 0.000000 0.049685
O O13 0.500000 0.157655 0.000000
O O14 0.500000 0.159548 0.500000
O O15 0.711897 0.161462 0.578179
O O16 0.651468 0.135233 0.686943
O O17 0.612704 0.000000 0.570869
O O18 0.295568 0.500000 0.570205
O O19 0.427286 0.371511 0.692947
O O20 0.127770 0.166110 0.191704
O O21 0.217783 0.000000 0.188690
#
# Coordination Sequence:
#
# PCOD8109266 Si02
#       8
#     8   8   8   8   8   8   8   8
#     4   9  19  34  56  87 125 168 211 263 323 386
#     4  12  27  42  69  99 129 169 219 275 331 402
#     4  10  21  39  63  88 124 171 214 263 328 387
#     4  10  22  43  70  93 122 164 212 267 327 390
#     4   8  15  32  60  89 122 170 218 262 317 383
#     4   9  19  35  57  89 127 166 214 266 319 385
#     4  10  23  45  68  97 138 178 219 276 336 394
#     4  11  23  41  66  94 128 172 222 270 333 392
#
# _framework density 21.635354
#
# number of rings (size 3 to 8) (size 9 to 14) (size 15 to 20)
#    0.000    2.125    1.250    1.875    1.750    3.500 
#    0.000    6.875    0.000    0.000    0.000    0.000 
#    0.000    0.500    0.000    0.000    0.000    0.000 
#
# Total GULP energy -396428.121488 kJ/mol
# GULP energy per Si atom -12388.378797 kJ/mol
# Density = 2.158611 g / cm^3
# Si number density = 21.635354 Si / 1000 Ang^3
#
#
#
# Elastic Constant Matrix: (Units=GPa)
#
#
# Indices 1 2 3 4 5 6 
#
# 1 103.6989 30.2874 69.3814 0.0000 12.4251 0.0000
# 2 30.2874 72.0190 19.8377 0.0000 0.1318 0.0000
# 3 69.3814 19.8377 154.2863 0.0000 13.6855 0.0000
# 4 0.0000 0.0000 0.0000 19.9075 0.0000 0.8308
# 5 12.4251 0.1318 13.6855 0.0000 44.5191 0.0000
# 6 0.0000 0.0000 0.0000 0.8308 0.0000 22.4289
#
#
#
# Elastic Compliance Matrix: (Units=1/GPa)
#
#
# Indices 1 2 3 4 5 6 
#
# 1 0.015416 -0.004798 -0.006102 0.000000 -0.002413 0.000000
# 2 -0.004798 0.015901 -0.000001 0.000000 0.001293 0.000000
# 3 -0.006102 -0.000001 0.009329 0.000000 -0.001165 0.000000
# 4 0.000000 0.000000 0.000000 0.050310 0.000000 -0.001864
# 5 -0.002413 0.001293 -0.001165 0.000000 0.023490 0.000000
# 6 0.000000 0.000000 0.000000 -0.001864 0.000000 0.044654
#
#
# Mechanical properties :
#
#
# Convention : Reuss Voigt Hill
#
# Bulk Modulus (GPa) = 53.06821 63.22413 58.14617
# Shear Modulus (GPa) = 26.71167 31.40427 29.05797
#
# Velocity S-wave (km/s) = 3.51754 3.81402 3.66878
# Velocity P-wave (km/s) = 6.40931 6.97723 6.69929
#
# Compressibility (1/GPa) = 0.01884367
#
# Stress axis : x y z
#
# Youngs Moduli (GPa) = 64.86707 62.88873 107.19486
#
# Poissons Ratio (x) = 0.30175 0.65406
# Poissons Ratio (y) = 0.31124 0.00016
# Poissons Ratio (z) = 0.39579 0.00009
#
# Static dielectric constant tensor:
#      x y z
#    x 4.018590 0.000000 0.146990 
#    y 0.000000 4.147540 0.000000 
#    z 0.146990 0.000000 4.020950 
# 
# 
# High freq. dielectric constant tensor:
#      x y z
#    x 1.833560 0.000000 0.005940 
#    y 0.000000 1.854450 0.000000 
#    z 0.005940 0.000000 1.855680 
# 
# From -- ./inp_files/270724.got.cif
#   From: 2010.06.25/outbox.cif.g09.slc.cpg/sg12_136_cif.got.tgz:270724.got - 2010.06.28 00:19:55.
