data_PCOD8109946
_publ_section_title
;
Structure prediction by ZEFSAII (Michael W. Deem and Ramdas Pophale) SiO2 
 PCOD8109946
Probable space group: C 2/M
;
_chemical_formula_sum "Si O2"
_cell_formula_units_Z 44
_cell_length_a 8.731566
_cell_length_b 24.816484
_cell_length_c 12.069388
_cell_angle_alpha 90.000000
_cell_angle_beta 124.933594
_cell_angle_gamma 90.000000
_cell_volume 2144.046373
_symmetry_space_group_name_H-M "C 2/M"
_symmetry_group_IT_number 12
_symmetry_cell_setting 'monoclinic'
loop_
_space_group_symop_operation_xyz
x,y,z
-x,y,-z
-x,-y,-z
x,-y,z
1/2+x,1/2+y,z
1/2-x,1/2+y,-z
1/2-x,1/2-y,-z
1/2+x,1/2-y,z
loop_
_atom_site_type_symbol
_atom_site_label
_atom_site_fract_x
_atom_site_fract_y
_atom_site_fract_z
Si Si1 0.015196 0.912664 0.726740
Si Si2 0.455618 0.000000 0.223898
Si Si3 0.832525 0.000000 0.512708
Si Si4 0.955568 0.306393 0.666972
Si Si5 0.561603 0.500000 0.146398
Si Si6 0.933762 0.395215 0.847731
Si Si7 0.201843 0.807615 0.354619
O O1 0.856569 0.945299 0.593041
O O2 0.036022 0.946724 0.846483
O O3 0.948483 0.853502 0.730300
O O4 0.214650 0.909513 0.749164
O O5 0.450281 0.052634 0.143598
O O6 0.634256 0.000000 0.375304
O O7 0.287203 0.000000 0.242764
O O8 0.000000 0.000000 0.500000
O O9 0.968436 0.346786 0.775802
O O10 0.914038 0.247371 0.696628
O O11 0.791576 0.320438 0.511944
O O12 0.150066 0.306461 0.682717
O O13 0.500000 0.500000 0.000000
O O14 0.000000 0.379180 0.000000
#
# Coordination Sequence:
#
# PCOD8109946 Si02
#       7
#     8   4   4   8   4   8   8
#     4  11  23  38  61  89 124 157 204 252 311 362
#     4  12  22  38  66  87 125 166 206 256 310 365
#     4  11  21  39  60  96 122 154 201 260 310 358
#     4  10  22  40  63  92 122 155 204 250 311 367
#     4  11  24  42  58  87 127 167 207 249 300 374
#     4  12  24  40  61  90 124 167 206 247 304 377
#     4  10  21  40  65  91 118 155 199 259 312 360
#
# _framework density 20.521944999999999
#
# number of rings (size 3 to 8) (size 9 to 14) (size 15 to 20)
#    0.000    1.091    1.818    5.182    0.000    4.364 
#    0.000    4.545    0.000    0.000    0.000    0.000 
#    0.000    0.000    0.000    0.000    0.000    0.000 
#
# Total GULP energy -272762.736961 kJ/mol
# GULP energy per Si atom -12398.306225 kJ/mol
# Density = 2.047524 g / cm^3
# Si number density = 20.521945 Si / 1000 Ang^3
#
#
#
# Elastic Constant Matrix: (Units=GPa)
#
#
# Indices 1 2 3 4 5 6 
#
# 1 101.7726 52.0582 14.9152 0.0000 -9.6931 0.0000
# 2 52.0582 171.3387 43.4948 0.0000 -21.8175 0.0000
# 3 14.9152 43.4948 98.4880 0.0000 -22.1227 0.0000
# 4 0.0000 0.0000 0.0000 69.2693 0.0000 -28.1831
# 5 -9.6931 -21.8175 -22.1227 0.0000 36.2606 0.0000
# 6 0.0000 0.0000 0.0000 -28.1831 0.0000 48.7221
#
#
#
# Elastic Compliance Matrix: (Units=1/GPa)
#
#
# Indices 1 2 3 4 5 6 
#
# 1 0.011672 -0.003405 -0.000027 0.000000 0.001055 0.000000
# 2 -0.003405 0.007773 -0.002400 0.000000 0.002303 0.000000
# 3 -0.000027 -0.002400 0.012621 0.000000 0.006249 0.000000
# 4 0.000000 0.000000 0.000000 0.018880 0.000000 0.010921
# 5 0.001055 0.002303 0.006249 0.000000 0.033058 0.000000
# 6 0.000000 0.000000 0.000000 0.010921 0.000000 0.026842
#
#
# Mechanical properties :
#
#
# Convention : Reuss Voigt Hill
#
# Bulk Modulus (GPa) = 49.01362 65.83729 57.42546
# Shear Modulus (GPa) = 38.66642 48.25916 43.46279
#
# Velocity S-wave (km/s) = 4.34539 4.85458 4.60702
# Velocity P-wave (km/s) = 7.00799 7.97331 7.50618
#
# Compressibility (1/GPa) = 0.02040249
#
# Stress axis : x y z
#
# Youngs Moduli (GPa) = 85.67484 128.64283 79.23196
#
# Poissons Ratio (x) = 0.43805 0.00213
# Poissons Ratio (y) = 0.29174 0.19016
# Poissons Ratio (z) = 0.00230 0.30875
#
# Static dielectric constant tensor:
#      x y z
#    x 3.516610 0.000000 -0.149890 
#    y 0.000000 4.206610 0.000000 
#    z -0.149890 0.000000 3.558770 
# 
# 
# High freq. dielectric constant tensor:
#      x y z
#    x 1.819340 0.000000 -0.009170 
#    y 0.000000 1.811660 0.000000 
#    z -0.009170 0.000000 1.791450 
# 
# From -- ./inp_files/122399.got.cif
#   From: 2010.06.25/outbox.cif.g09.slc.cpg/sg12_62_cif.got.tgz:122399.got - 2010.06.28 00:19:55.
