data_PCOD8109975
_publ_section_title
;
Structure prediction by ZEFSAII (Michael W. Deem and Ramdas Pophale) SiO2 
 PCOD8109975
Probable space group: C 2/M
;
_chemical_formula_sum "Si O2"
_cell_formula_units_Z 56
_cell_length_a 20.169344
_cell_length_b 8.668454
_cell_length_c 27.542346
_cell_angle_alpha 90.000000
_cell_angle_beta 145.066113
_cell_angle_gamma 90.000000
_cell_volume 2757.459159
_symmetry_space_group_name_H-M "C 2/M"
_symmetry_group_IT_number 12
_symmetry_cell_setting 'monoclinic'
loop_
_space_group_symop_operation_xyz
x,y,z
-x,y,-z
-x,-y,-z
x,-y,z
1/2+x,1/2+y,z
1/2-x,1/2+y,-z
1/2-x,1/2-y,-z
1/2+x,1/2-y,z
loop_
_atom_site_type_symbol
_atom_site_label
_atom_site_fract_x
_atom_site_fract_y
_atom_site_fract_z
Si Si1 0.692627 0.821697 0.331420
Si Si2 0.923687 0.680175 0.499836
Si Si3 0.690637 0.178618 0.217932
Si Si4 0.917989 0.680120 0.314661
Si Si5 0.972228 0.181309 0.246473
Si Si6 0.972399 0.178008 0.038821
Si Si7 0.247373 0.180176 0.945559
O O1 0.805490 0.776343 0.429808
O O2 0.718477 0.786922 0.290646
O O3 0.586672 0.717352 0.284864
O O4 0.662277 0.000000 0.322159
O O5 0.893404 0.500000 0.478332
O O6 0.000000 0.733005 0.500000
O O7 0.991423 0.723264 0.589180
O O8 0.799316 0.227248 0.250576
O O9 0.663413 0.000000 0.192097
O O10 0.579622 0.277663 0.136873
O O11 0.887964 0.500000 0.297371
O O12 0.976579 0.727650 0.299559
O O13 0.862948 0.243297 0.150200
O O14 0.963818 0.000000 0.251867
O O15 0.862372 0.279915 0.985549
O O16 0.942115 0.000000 0.029550
O O17 0.000000 0.213937 0.000000
O O18 0.236289 0.000000 0.945231
O O19 0.250000 0.250000 0.000000
#
# Coordination Sequence:
#
# PCOD8109975 Si02
#       7
#     8   8   8   8   8   8   8
#     4  11  24  40  63  93 124 160 205 254 302 362
#     4  10  21  40  65  93 124 161 204 251 305 364
#     4  11  23  39  62  92 124 160 204 254 306 364
#     4  11  23  40  65  93 125 164 205 253 308 366
#     4  11  25  43  63  90 126 165 205 252 309 368
#     4  11  24  40  61  90 123 161 205 255 307 363
#     4  11  24  42  65  91 122 164 208 255 309 367
#
# _framework density 20.308551999999999
#
# number of rings (size 3 to 8) (size 9 to 14) (size 15 to 20)
#    0.000    1.143    1.429    4.286    0.000   11.714 
#    0.000    0.000    0.000    0.000    0.000    0.000 
#    0.000    0.000    0.000    0.000    0.000    0.000 
#
# Total GULP energy -347442.298034 kJ/mol
# GULP energy per Si atom -12408.653501 kJ/mol
# Density = 2.026233 g / cm^3
# Si number density = 20.308552 Si / 1000 Ang^3
#
#
#
# Elastic Constant Matrix: (Units=GPa)
#
#
# Indices 1 2 3 4 5 6 
#
# 1 80.6102 28.9667 32.7511 0.0000 -3.5712 0.0001
# 2 28.9667 39.0702 32.6528 0.0000 -13.9877 0.0006
# 3 32.7511 32.6528 129.9690 0.0000 -1.0037 0.0000
# 4 0.0000 0.0000 0.0000 35.1528 0.0000 2.6903
# 5 -3.5712 -13.9877 -1.0037 0.0000 37.8844 0.0000
# 6 0.0001 0.0006 0.0000 2.6903 0.0000 38.9999
#
#
#
# Elastic Compliance Matrix: (Units=1/GPa)
#
#
# Indices 1 2 3 4 5 6 
#
# 1 0.017445 -0.013165 -0.001113 0.000000 -0.003246 0.000000
# 2 -0.013165 0.048567 -0.008757 0.000000 0.016459 -0.000001
# 3 -0.001113 -0.008757 0.010151 0.000000 -0.003069 0.000000
# 4 0.000000 0.000000 0.000000 0.028598 0.000000 -0.001973
# 5 -0.003246 0.016459 -0.003069 0.000000 0.032086 0.000000
# 6 0.000000 -0.000001 0.000000 -0.001973 0.000000 0.025777
#
#
# Mechanical properties :
#
#
# Convention : Reuss Voigt Hill
#
# Bulk Modulus (GPa) = 33.23209 48.71004 40.97107
# Shear Modulus (GPa) = 22.85973 32.75935 27.80954
#
# Velocity S-wave (km/s) = 3.35867 4.02068 3.70449
# Velocity P-wave (km/s) = 5.60714 6.75215 6.20611
#
# Compressibility (1/GPa) = 0.03009140
#
# Stress axis : x y z
#
# Youngs Moduli (GPa) = 57.32391 20.59022 98.51136
#
# Poissons Ratio (x) = 0.27107 0.10969
# Poissons Ratio (y) = 0.75467 0.86267
# Poissons Ratio (z) = 0.06383 0.18031
#
# Static dielectric constant tensor:
#      x y z
#    x 3.659840 0.000000 -0.022330 
#    y 0.000000 3.679070 0.000000 
#    z -0.022330 0.000000 3.999620 
# 
# 
# High freq. dielectric constant tensor:
#      x y z
#    x 1.801300 0.000000 -0.001520 
#    y 0.000000 1.800350 0.000000 
#    z -0.001520 0.000000 1.807470 
# 
# From -- ./inp_files/380807.got.cif
#   From: 2010.06.25/outbox.cif.g09.slc.cpg/sg12_191_cif.got.tgz:380807.got - 2010.06.28 00:19:55.
