data_PCOD8109088
_publ_section_title
;
Structure prediction by ZEFSAII (Michael W. Deem and Ramdas Pophale) SiO2 
 PCOD8109088
Probable space group: C 2/M
;
_chemical_formula_sum "Si O2"
_cell_formula_units_Z 56
_cell_length_a 19.082184
_cell_length_b 8.975029
_cell_length_c 18.861013
_cell_angle_alpha 90.000000
_cell_angle_beta 120.231398
_cell_angle_gamma 90.000000
_cell_volume 2790.886681
_symmetry_space_group_name_H-M "C 2/M"
_symmetry_group_IT_number 12
_symmetry_cell_setting 'monoclinic'
loop_
_space_group_symop_operation_xyz
x,y,z
-x,y,-z
-x,-y,-z
x,-y,z
1/2+x,1/2+y,z
1/2-x,1/2+y,-z
1/2-x,1/2-y,-z
1/2+x,1/2-y,z
loop_
_atom_site_type_symbol
_atom_site_label
_atom_site_fract_x
_atom_site_fract_y
_atom_site_fract_z
Si Si1 0.807225 0.172959 0.586784
Si Si2 0.767184 0.825959 0.325135
Si Si3 0.994725 0.829388 0.676252
Si Si4 0.571594 0.172115 0.589441
Si Si5 0.583343 0.322551 0.006084
Si Si6 0.603948 0.326380 0.858423
Si Si7 0.259443 0.823851 0.851256
O O1 0.750000 0.250000 0.500000
O O2 0.798890 0.242626 0.660661
O O3 0.900533 0.199065 0.614845
O O4 0.784513 0.000000 0.577502
O O5 0.853846 0.772023 0.398240
O O6 0.758509 0.780941 0.239009
O O7 0.757895 0.000000 0.333273
O O8 0.045487 0.716817 0.654653
O O9 0.023180 0.794625 0.771072
O O10 0.018457 0.000000 0.669231
O O11 0.500000 0.209905 0.500000
O O12 0.596890 0.000000 0.600865
O O13 0.587714 0.500000 0.009753
O O14 0.589067 0.257537 0.928757
O O15 0.500000 0.266963 0.000000
O O16 0.658144 0.257912 0.087436
O O17 0.618493 0.500000 0.874823
O O18 0.685274 0.262128 0.861988
O O19 0.270353 0.000000 0.865552
#
# Coordination Sequence:
#
# PCOD8109088 Si02
#       7
#     8   8   8   8   8   8   8
#     4  11  24  40  62  89 122 164 205 253 307 362
#     4  11  23  40  62  87 120 163 206 249 302 362
#     4  10  21  39  62  85 116 161 202 242 299 364
#     4  11  23  38  59  89 122 153 196 255 304 352
#     4  10  22  37  61  92 121 154 193 242 296 356
#     4   9  18  38  61  85 118 153 195 242 293 355
#     4  10  21  39  62  85 118 158 196 244 296 355
#
# _framework density 20.065308000000002
#
# number of rings (size 3 to 8) (size 9 to 14) (size 15 to 20)
#    0.000    1.714    1.429    2.571    2.000    6.000 
#    0.000    0.714    0.000    0.000    0.000    0.000 
#    0.000    0.000    0.000    0.000    0.000    0.000 
#
# Total GULP energy -347239.399293 kJ/mol
# GULP energy per Si atom -12401.407118 kJ/mol
# Density = 2.001964 g / cm^3
# Si number density = 20.065308 Si / 1000 Ang^3
#
#
#
# Elastic Constant Matrix: (Units=GPa)
#
#
# Indices 1 2 3 4 5 6 
#
# 1 98.5319 25.6147 41.7261 0.0000 0.3080 0.0000
# 2 25.6147 41.6043 29.5469 0.0000 4.4944 0.0000
# 3 41.7261 29.5469 92.4203 0.0000 5.2603 0.0000
# 4 0.0000 0.0000 0.0000 29.6003 0.0000 2.2074
# 5 0.3080 4.4944 5.2603 0.0000 41.0616 0.0000
# 6 0.0000 0.0000 0.0000 2.2074 0.0000 31.1062
#
#
#
# Elastic Compliance Matrix: (Units=1/GPa)
#
#
# Indices 1 2 3 4 5 6 
#
# 1 0.013375 -0.005196 -0.004437 0.000000 0.001037 0.000000
# 2 -0.005196 0.033304 -0.008156 0.000000 -0.002561 0.000000
# 3 -0.004437 -0.008156 0.015491 0.000000 -0.001059 0.000000
# 4 0.000000 0.000000 0.000000 0.033963 0.000000 -0.002410
# 5 0.001037 -0.002561 -0.001059 0.000000 0.024762 0.000000
# 6 0.000000 0.000000 0.000000 -0.002410 0.000000 0.032319
#
#
# Mechanical properties :
#
#
# Convention : Reuss Voigt Hill
#
# Bulk Modulus (GPa) = 37.60310 47.37020 42.48665
# Shear Modulus (GPa) = 25.29666 29.39822 27.34744
#
# Velocity S-wave (km/s) = 3.55451 3.83185 3.69578
# Velocity P-wave (km/s) = 5.96884 6.57546 6.27948
#
# Compressibility (1/GPa) = 0.02659355
#
# Stress axis : x y z
#
# Youngs Moduli (GPa) = 74.76452 30.02666 64.55466
#
# Poissons Ratio (x) = 0.15602 0.28640
# Poissons Ratio (y) = 0.38848 0.52648
# Poissons Ratio (z) = 0.33170 0.24488
#
# Static dielectric constant tensor:
#      x y z
#    x 3.847710 0.000000 -0.104890 
#    y 0.000000 3.453810 0.000000 
#    z -0.104890 0.000000 3.821730 
# 
# 
# High freq. dielectric constant tensor:
#      x y z
#    x 1.792540 0.000000 -0.001140 
#    y 0.000000 1.764910 0.000000 
#    z -0.001140 0.000000 1.794960 
# 
# From -- ./inp_files/275685.got.cif
#   From: 2010.06.25/outbox.cif.g09.slc.cpg/sg12_138_cif.got.tgz:275685.got - 2010.06.28 00:19:55.
