data_PCOD8109534
_publ_section_title
;
Structure prediction by ZEFSAII (Michael W. Deem and Ramdas Pophale) SiO2 
 PCOD8109534
Probable space group: C 2/M
;
_chemical_formula_sum "Si O2"
_cell_formula_units_Z 64
_cell_length_a 18.534651
_cell_length_b 30.331114
_cell_length_c 8.746226
_cell_angle_alpha 90.000000
_cell_angle_beta 39.813628
_cell_angle_gamma 90.000000
_cell_volume 3148.268979
_symmetry_space_group_name_H-M "C 2/M"
_symmetry_group_IT_number 12
_symmetry_cell_setting 'monoclinic'
loop_
_space_group_symop_operation_xyz
x,y,z
-x,y,-z
-x,-y,-z
x,-y,z
1/2+x,1/2+y,z
1/2-x,1/2+y,-z
1/2-x,1/2-y,-z
1/2+x,1/2-y,z
loop_
_atom_site_type_symbol
_atom_site_label
_atom_site_fract_x
_atom_site_fract_y
_atom_site_fract_z
Si Si1 0.785721 0.687237 0.534248
Si Si2 0.101067 0.949768 0.927576
Si Si3 0.171733 0.594169 0.939542
Si Si4 0.969536 0.678885 0.724740
Si Si5 0.619390 0.759029 0.887481
Si Si6 0.977739 0.450701 0.365299
Si Si7 0.376068 0.448607 0.767706
Si Si8 0.705661 0.093364 0.530381
O O1 0.698884 0.715831 0.777745
O O2 0.803638 0.707734 0.337120
O O3 0.730767 0.638732 0.616902
O O4 0.910172 0.677525 0.391866
O O5 0.208991 0.946429 0.641544
O O6 0.066703 0.000000 0.012001
O O7 0.125479 0.930128 0.055799
O O8 0.000000 0.925810 0.000000
O O9 0.295451 0.584538 0.805088
O O10 0.170804 0.599177 0.760733
O O11 0.107920 0.635482 0.123847
O O12 0.099654 0.549964 0.087500
O O13 0.000000 0.688045 0.500000
O O14 0.901611 0.720013 0.911174
O O15 0.500000 0.747326 0.000000
O O16 0.926171 0.500000 0.445182
O O17 0.000000 0.433900 0.500000
O O18 0.901648 0.415358 0.401985
O O19 0.500000 0.443034 0.500000
O O20 0.337125 0.500000 0.820707
#
# Coordination Sequence:
#
# PCOD8109534 Si02
#       8
#     8   8   8   8   8   8   8   8
#     4  10  21  39  65  92 122 165 208 256 315 382
#     4  10  22  40  61  87 121 165 214 264 315 369
#     4  12  23  37  60  92 127 167 212 262 320 377
#     4  11  23  39  66  95 127 166 203 259 326 381
#     4   9  20  42  67  91 123 162 209 255 318 389
#     4  11  24  39  57  88 130 172 214 262 316 376
#     4  10  22  41  63  86 124 173 216 263 320 374
#     4  12  23  36  61  91 125 164 214 263 311 374
#
# _framework density 20.328631999999999
#
# number of rings (size 3 to 8) (size 9 to 14) (size 15 to 20)
#    0.000    1.375    2.500    3.000    1.750    6.500 
#    0.000    0.000    0.000    0.000    0.000    0.000 
#    0.000    0.000    0.000    0.000    0.000    0.000 
#
# Total GULP energy -396501.631381 kJ/mol
# GULP energy per Si atom -12390.675981 kJ/mol
# Density = 2.028236 g / cm^3
# Si number density = 20.328632 Si / 1000 Ang^3
#
#
#
# Elastic Constant Matrix: (Units=GPa)
#
#
# Indices 1 2 3 4 5 6 
#
# 1 119.1556 59.6720 48.4646 0.0000 8.0280 0.0000
# 2 59.6720 93.4348 50.0817 0.0000 4.3986 0.0000
# 3 48.4646 50.0817 122.1875 0.0000 10.1017 0.0000
# 4 0.0000 0.0000 0.0000 46.0411 0.0000 1.4887
# 5 8.0280 4.3986 10.1017 0.0000 42.9051 0.0000
# 6 0.0000 0.0000 0.0000 1.4887 0.0000 26.5956
#
#
#
# Elastic Compliance Matrix: (Units=1/GPa)
#
#
# Indices 1 2 3 4 5 6 
#
# 1 0.012847 -0.007010 -0.002124 0.000000 -0.001185 0.000000
# 2 -0.007010 0.017542 -0.004456 0.000000 0.000562 0.000000
# 3 -0.002124 -0.004456 0.010996 0.000000 -0.001735 0.000000
# 4 0.000000 0.000000 0.000000 0.021759 0.000000 -0.001218
# 5 -0.001185 0.000562 -0.001735 0.000000 0.023880 0.000000
# 6 0.000000 0.000000 0.000000 -0.001218 0.000000 0.037668
#
#
# Mechanical properties :
#
#
# Convention : Reuss Voigt Hill
#
# Bulk Modulus (GPa) = 70.40150 72.35715 71.37932
# Shear Modulus (GPa) = 31.92690 34.87900 33.40295
#
# Velocity S-wave (km/s) = 3.96730 4.14666 4.05797
# Velocity P-wave (km/s) = 7.46276 7.65489 7.55944
#
# Compressibility (1/GPa) = 0.01420424
#
# Stress axis : x y z
#
# Youngs Moduli (GPa) = 77.83972 57.00737 90.93810
#
# Poissons Ratio (x) = 0.39963 0.19318
# Poissons Ratio (y) = 0.54567 0.40520
# Poissons Ratio (z) = 0.16536 0.25401
#
# Static dielectric constant tensor:
#      x y z
#    x 0.805290 0.000000 0.363130 
#    y 0.000000 3.659600 0.000000 
#    z 0.363130 0.000000 3.735080 
# 
# 
# High freq. dielectric constant tensor:
#      x y z
#    x 1.791380 0.000000 -0.000170 
#    y 0.000000 1.780440 0.000000 
#    z -0.000170 0.000000 1.803910 
# 
# From -- ./inp_files/80738.got.cif
#   From: 2010.06.25/outbox.cif.g09.slc.cpg/sg12_41_cif.got.tgz:80738.got - 2010.06.28 00:19:55.
