data_PCOD8109907
_publ_section_title
;
Structure prediction by ZEFSAII (Michael W. Deem and Ramdas Pophale) SiO2 
 PCOD8109907
Probable space group: C 2/M
;
_chemical_formula_sum "Si O2"
_cell_formula_units_Z 48
_cell_length_a 31.952236
_cell_length_b 7.758372
_cell_length_c 18.772157
_cell_angle_alpha 90.000000
_cell_angle_beta 28.830623
_cell_angle_gamma 90.000000
_cell_volume 2244.052548
_symmetry_space_group_name_H-M "C 2/M"
_symmetry_group_IT_number 12
_symmetry_cell_setting 'monoclinic'
loop_
_space_group_symop_operation_xyz
x,y,z
-x,y,-z
-x,-y,-z
x,-y,z
1/2+x,1/2+y,z
1/2-x,1/2+y,-z
1/2-x,1/2-y,-z
1/2+x,1/2-y,z
loop_
_atom_site_type_symbol
_atom_site_label
_atom_site_fract_x
_atom_site_fract_y
_atom_site_fract_z
Si Si1 0.490915 0.802991 0.435105
Si Si2 0.158567 0.195246 0.105686
Si Si3 0.848791 0.200457 0.049784
Si Si4 0.037017 0.500000 0.066455
Si Si5 0.392209 0.000000 0.191815
Si Si6 0.321374 0.799940 0.613846
Si Si7 0.732771 0.698793 0.606069
O O1 0.500000 0.714790 0.500000
O O2 0.579544 0.799806 0.258042
O O3 0.410644 0.714687 0.510932
O O4 0.465466 0.000000 0.485458
O O5 0.138704 0.000000 0.155016
O O6 0.250000 0.250000 0.000000
O O7 0.166444 0.225430 0.010515
O O8 0.763802 0.271347 0.217921
O O9 0.870142 0.000000 0.036997
O O10 0.929387 0.324489 0.947958
O O11 0.931439 0.500000 0.215535
O O12 0.047941 0.500000 0.965989
O O13 0.341318 0.822965 0.255734
O O14 0.313691 0.767894 0.539878
O O15 0.324279 0.000000 0.626612
O O16 0.702658 0.500000 0.656006
O O17 0.750000 0.750000 0.500000
#
# Coordination Sequence:
#
# PCOD8109907 Si02
#       7
#     8   8   8   4   4   8   8
#     4  10  21  40  64  92 126 162 206 257 314 374
#     4  11  24  41  62  93 129 167 211 258 312 377
#     4  10  22  42  65  92 127 170 219 261 323 380
#     4  11  24  40  68  90 127 172 210 268 319 391
#     4  11  24  42  60 100 124 159 226 260 326 389
#     4   9  19  38  63  89 121 165 208 259 318 375
#     4  11  22  40  64  92 130 167 210 267 322 383
#
# _framework density 21.389873000000001
#
# number of rings (size 3 to 8) (size 9 to 14) (size 15 to 20)
#    0.000    1.667    2.500    1.500    2.333    5.000 
#    3.000    3.333    0.000    0.000    0.000    0.000 
#    0.000    0.000    0.000    0.000    0.000    0.000 
#
# Total GULP energy -297353.055288 kJ/mol
# GULP energy per Si atom -12389.710637 kJ/mol
# Density = 2.134119 g / cm^3
# Si number density = 21.389873 Si / 1000 Ang^3
#
#
#
# Elastic Constant Matrix: (Units=GPa)
#
#
# Indices 1 2 3 4 5 6 
#
# 1 176.0408 57.6214 44.3429 0.0023 -11.4701 -0.0009
# 2 57.6214 94.4262 13.6697 0.0091 -12.4940 -0.0068
# 3 44.3429 13.6697 59.6272 0.0084 -0.7555 -0.0046
# 4 0.0023 0.0091 0.0084 23.7195 -0.0032 2.0276
# 5 -11.4701 -12.4940 -0.7555 -0.0032 46.7919 0.0013
# 6 -0.0009 -0.0068 -0.0046 2.0276 0.0013 23.9651
#
#
#
# Elastic Compliance Matrix: (Units=1/GPa)
#
#
# Indices 1 2 3 4 5 6 
#
# 1 0.008478 -0.004293 -0.005310 0.000003 0.000846 -0.000002
# 2 -0.004293 0.013531 0.000123 -0.000005 0.002563 0.000004
# 3 -0.005310 0.000123 0.020680 -0.000007 -0.000935 0.000004
# 4 0.000003 -0.000005 -0.000007 0.042467 0.000002 -0.003593
# 5 0.000846 0.002563 -0.000935 0.000002 0.022248 -0.000001
# 6 -0.000002 0.000004 0.000004 -0.003593 -0.000001 0.042031
#
#
# Mechanical properties :
#
#
# Convention : Reuss Voigt Hill
#
# Bulk Modulus (GPa) = 42.14247 62.37356 52.25802
# Shear Modulus (GPa) = 28.35987 33.19266 30.77626
#
# Velocity S-wave (km/s) = 3.64518 3.94355 3.79730
# Velocity P-wave (km/s) = 6.12056 7.06818 6.61137
#
# Compressibility (1/GPa) = 0.02372903
#
# Stress axis : x y z
#
# Youngs Moduli (GPa) = 117.94632 73.90279 48.35619
#
# Poissons Ratio (x) = 0.31727 0.25678
# Poissons Ratio (y) = 0.50635 -0.00595
# Poissons Ratio (z) = 0.62632 -0.00909
#
# Static dielectric constant tensor:
#      x y z
#    x 4.401110 -0.000140 -0.077520 
#    y -0.000140 11.363300 -0.000500 
#    z -0.077520 -0.000500 3.920640 
# 
# 
# High freq. dielectric constant tensor:
#      x y z
#    x 1.867280 0.000000 0.002290 
#    y 0.000000 1.828790 0.000000 
#    z 0.002290 0.000000 1.824620 
# 
# From -- ./inp_files/274146.got.cif
#   From: 2010.06.25/outbox.cif.g09.slc.cpg/sg12_138_cif.got.tgz:274146.got - 2010.06.28 00:19:55.
