data_PCOD8109715
_publ_section_title
;
Structure prediction by ZEFSAII (Michael W. Deem and Ramdas Pophale) SiO2 
 PCOD8109715
Probable space group: C 2/M
;
_chemical_formula_sum "Si O2"
_cell_formula_units_Z 48
_cell_length_a 19.935324
_cell_length_b 7.797472
_cell_length_c 15.730427
_cell_angle_alpha 90.000000
_cell_angle_beta 75.540584
_cell_angle_gamma 90.000000
_cell_volume 2367.765375
_symmetry_space_group_name_H-M "C 2/M"
_symmetry_group_IT_number 12
_symmetry_cell_setting 'monoclinic'
loop_
_space_group_symop_operation_xyz
x,y,z
-x,y,-z
-x,-y,-z
x,-y,z
1/2+x,1/2+y,z
1/2-x,1/2+y,-z
1/2-x,1/2-y,-z
1/2+x,1/2-y,z
loop_
_atom_site_type_symbol
_atom_site_label
_atom_site_fract_x
_atom_site_fract_y
_atom_site_fract_z
Si Si1 0.954406 0.500000 0.650034
Si Si2 0.676895 0.697774 0.559581
Si Si3 0.353969 0.195919 0.912084
Si Si4 0.367852 0.696360 0.238453
Si Si5 0.905818 0.500000 0.492368
Si Si6 0.022724 0.195228 0.231281
Si Si7 0.214033 0.305181 0.895890
O O1 0.893261 0.500000 0.598776
O O2 0.950366 0.326888 0.706128
O O3 0.017767 0.500000 0.566798
O O4 0.659007 0.500000 0.543791
O O5 0.750000 0.750000 0.500000
O O6 0.673952 0.728314 0.661553
O O7 0.623306 0.822160 0.532671
O O8 0.420313 0.305393 0.861351
O O9 0.288254 0.209486 0.868217
O O10 0.378653 0.000000 0.908230
O O11 0.332023 0.268800 0.011623
O O12 0.366901 0.500000 0.210982
O O13 0.447573 0.758966 0.222019
O O14 0.328306 0.798968 0.177974
O O15 0.015933 0.000000 0.269548
O O16 0.231824 0.500000 0.912260
#
# Coordination Sequence:
#
# PCOD8109715 Si02
#       7
#     4   8   8   8   4   8   8
#     4  11  24  42  66  90 127 164 206 257 313 377
#     4  11  23  41  65  93 126 163 208 259 312 373
#     4  10  21  40  61  89 129 166 205 258 306 368
#     4  10  23  40  61  91 123 162 208 258 310 370
#     4  11  24  42  66  93 122 170 201 255 327 364
#     4  11  23  41  66  92 127 166 207 258 311 368
#     4  10  22  37  62  92 123 165 209 254 311 369
#
# _framework density 20.272279000000001
#
# number of rings (size 3 to 8) (size 9 to 14) (size 15 to 20)
#    0.000    1.500    3.333    1.000    2.333    4.667 
#    0.000    5.000    0.000    0.000    0.000    0.000 
#    0.000    0.000    0.000    0.000    0.000    0.000 
#
# Total GULP energy -297534.902195 kJ/mol
# GULP energy per Si atom -12397.287591 kJ/mol
# Density = 2.022614 g / cm^3
# Si number density = 20.272279 Si / 1000 Ang^3
#
#
#
# Elastic Constant Matrix: (Units=GPa)
#
#
# Indices 1 2 3 4 5 6 
#
# 1 57.1570 24.1247 60.7094 0.0000 -1.1899 0.0000
# 2 24.1247 102.3293 36.3243 0.0000 12.2690 0.0000
# 3 60.7094 36.3243 115.1636 0.0000 -0.7011 0.0000
# 4 0.0000 0.0000 0.0000 27.0241 0.0000 -0.6996
# 5 -1.1899 12.2690 -0.7011 0.0000 44.1114 0.0000
# 6 0.0000 0.0000 0.0000 -0.6996 0.0000 26.5333
#
#
#
# Elastic Compliance Matrix: (Units=1/GPa)
#
#
# Indices 1 2 3 4 5 6 
#
# 1 0.040278 -0.002402 -0.020466 0.000000 0.001429 0.000000
# 2 -0.002402 0.011593 -0.002411 0.000000 -0.003328 0.000000
# 3 -0.020466 -0.002411 0.020235 0.000000 0.000440 0.000000
# 4 0.000000 0.000000 0.000000 0.037029 0.000000 0.000976
# 5 0.001429 -0.003328 0.000440 0.000000 0.023641 0.000000
# 6 0.000000 0.000000 0.000000 0.000976 0.000000 0.037714
#
#
# Mechanical properties :
#
#
# Convention : Reuss Voigt Hill
#
# Bulk Modulus (GPa) = 46.40764 57.44073 51.92418
# Shear Modulus (GPa) = 21.90756 29.76652 25.83704
#
# Velocity S-wave (km/s) = 3.29091 3.83604 3.57389
# Velocity P-wave (km/s) = 6.11408 6.92939 6.53447
#
# Compressibility (1/GPa) = 0.02154818
#
# Stress axis : x y z
#
# Youngs Moduli (GPa) = 24.82769 86.25598 49.41855
#
# Poissons Ratio (x) = 0.20719 1.01141
# Poissons Ratio (y) = 0.05964 0.11913
# Poissons Ratio (z) = 0.50813 0.20794
#
# Static dielectric constant tensor:
#      x y z
#    x 3.329530 0.000000 -0.168380 
#    y 0.000000 3.680220 0.000000 
#    z -0.168380 0.000000 3.795640 
# 
# 
# High freq. dielectric constant tensor:
#      x y z
#    x 1.786550 0.000000 -0.011690 
#    y 0.000000 1.802020 0.000000 
#    z -0.011690 0.000000 1.793130 
# 
# From -- ./inp_files/230006.got.cif
#   From: 2010.06.25/outbox.cif.g09.slc.cpg/sg12_116_cif.got.tgz:230006.got - 2010.06.28 00:19:55.
