data_PCOD8109532
_publ_section_title
;
Structure prediction by ZEFSAII (Michael W. Deem and Ramdas Pophale) SiO2 
 PCOD8109532
Probable space group: C 2/M
;
_chemical_formula_sum "Si O2"
_cell_formula_units_Z 56
_cell_length_a 13.899930
_cell_length_b 21.463298
_cell_length_c 9.307656
_cell_angle_alpha 90.000000
_cell_angle_beta 105.677896
_cell_angle_gamma 90.000000
_cell_volume 2673.521623
_symmetry_space_group_name_H-M "C 2/M"
_symmetry_group_IT_number 12
_symmetry_cell_setting 'monoclinic'
loop_
_space_group_symop_operation_xyz
x,y,z
-x,y,-z
-x,-y,-z
x,-y,z
1/2+x,1/2+y,z
1/2-x,1/2+y,-z
1/2-x,1/2-y,-z
1/2+x,1/2-y,z
loop_
_atom_site_type_symbol
_atom_site_label
_atom_site_fract_x
_atom_site_fract_y
_atom_site_fract_z
Si Si1 0.735717 0.361899 0.266070
Si Si2 0.495590 0.930351 0.653024
Si Si3 0.668922 0.925677 0.933916
Si Si4 0.766353 0.568153 0.562394
Si Si5 0.128823 0.749624 0.679494
Si Si6 0.711956 0.159776 0.214122
Si Si7 0.096783 0.239233 0.335713
O O1 0.733139 0.402528 0.117679
O O2 0.749504 0.413769 0.392392
O O3 0.837451 0.321674 0.297623
O O4 0.638766 0.318660 0.257328
O O5 0.500000 0.893637 0.500000
O O6 0.569118 0.905850 0.806644
O O7 0.382184 0.930320 0.660557
O O8 0.535520 0.000000 0.637676
O O9 0.675379 0.000000 0.972720
O O10 0.663413 0.883101 0.073114
O O11 0.719910 0.500000 0.566120
O O12 0.718156 0.616709 0.653531
O O13 0.207696 0.789337 0.807217
O O14 0.138000 0.767463 0.514259
O O15 0.022437 0.761264 0.708051
O O16 0.627266 0.195396 0.274546
#
# Coordination Sequence:
#
# PCOD8109532 Si02
#       7
#     8   8   8   8   8   8   8
#     4  11  20  38  63  91 121 159 209 249 303 372
#     4   9  18  32  52  83 116 156 199 232 282 358
#     4  11  24  39  59  90 132 167 197 248 310 374
#     4  11  20  33  59  87 120 160 199 245 302 366
#     4  10  21  39  65  92 119 156 206 266 309 356
#     4  11  22  40  59  91 126 162 200 250 318 367
#     4  10  21  39  66  93 117 157 210 262 309 354
#
# _framework density 20.946154
#
# number of rings (size 3 to 8) (size 9 to 14) (size 15 to 20)
#    0.000    1.571    4.286    1.714    2.000    2.857 
#    0.000    4.286    0.000    5.143    0.000    0.000 
#    0.000    0.000    0.000    0.000    0.000    0.000 
#
# Total GULP energy -346880.997102 kJ/mol
# GULP energy per Si atom -12388.607039 kJ/mol
# Density = 2.089848 g / cm^3
# Si number density = 20.946154 Si / 1000 Ang^3
#
#
#
# Elastic Constant Matrix: (Units=GPa)
#
#
# Indices 1 2 3 4 5 6 
#
# 1 83.0375 20.6386 21.0596 0.0000 -9.2637 0.0000
# 2 20.6386 92.2365 37.9505 0.0000 -0.5026 0.0000
# 3 21.0596 37.9505 98.5145 0.0000 -3.4877 0.0000
# 4 0.0000 0.0000 0.0000 44.3645 0.0000 -3.4107
# 5 -9.2637 -0.5026 -3.4877 0.0000 22.4324 0.0000
# 6 0.0000 0.0000 0.0000 -3.4107 0.0000 15.9390
#
#
#
# Elastic Compliance Matrix: (Units=1/GPa)
#
#
# Indices 1 2 3 4 5 6 
#
# 1 0.013669 -0.002263 -0.001862 0.000000 0.005305 0.000000
# 2 -0.002263 0.013264 -0.004674 0.000000 -0.001364 0.000000
# 3 -0.001862 -0.004674 0.012387 0.000000 0.001052 0.000000
# 4 0.000000 0.000000 0.000000 0.022918 0.000000 0.004904
# 5 0.005305 -0.001364 0.001052 0.000000 0.046902 0.000000
# 6 0.000000 0.000000 0.000000 0.004904 0.000000 0.063789
#
#
# Mechanical properties :
#
#
# Convention : Reuss Voigt Hill
#
# Bulk Modulus (GPa) = 46.03997 48.12065 47.08031
# Shear Modulus (GPa) = 25.28214 29.48984 27.38599
#
# Velocity S-wave (km/s) = 3.47797 3.75625 3.61979
# Velocity P-wave (km/s) = 6.17707 6.46807 6.32425
#
# Compressibility (1/GPa) = 0.02172026
#
# Stress axis : x y z
#
# Youngs Moduli (GPa) = 73.15589 75.39288 80.73158
#
# Poissons Ratio (x) = 0.17065 0.15035
# Poissons Ratio (y) = 0.16559 0.37734
# Poissons Ratio (z) = 0.13624 0.35239
#
# Static dielectric constant tensor:
#      x y z
#    x 3.447490 0.000000 -0.135880 
#    y 0.000000 4.004840 0.000000 
#    z -0.135880 0.000000 3.681450 
# 
# 
# High freq. dielectric constant tensor:
#      x y z
#    x 1.780380 0.000000 -0.015070 
#    y 0.000000 1.838110 0.000000 
#    z -0.015070 0.000000 1.810760 
# 
# From -- ./inp_files/64079.got.cif
#   From: 2010.06.25/outbox.cif.g09.slc.cpg/sg12_33_cif.got.tgz:64079.got - 2010.06.28 00:19:55.
