data_PCOD8109652
_publ_section_title
;
Structure prediction by ZEFSAII (Michael W. Deem and Ramdas Pophale) SiO2 
 PCOD8109652
Probable space group: C 2/M
;
_chemical_formula_sum "Si O2"
_cell_formula_units_Z 64
_cell_length_a 19.565535
_cell_length_b 18.684605
_cell_length_c 23.165707
_cell_angle_alpha 90.000000
_cell_angle_beta 21.096641
_cell_angle_gamma 90.000000
_cell_volume 3048.273069
_symmetry_space_group_name_H-M "C 2/M"
_symmetry_group_IT_number 12
_symmetry_cell_setting 'monoclinic'
loop_
_space_group_symop_operation_xyz
x,y,z
-x,y,-z
-x,-y,-z
x,-y,z
1/2+x,1/2+y,z
1/2-x,1/2+y,-z
1/2-x,1/2-y,-z
1/2+x,1/2-y,z
loop_
_atom_site_type_symbol
_atom_site_label
_atom_site_fract_x
_atom_site_fract_y
_atom_site_fract_z
Si Si1 0.363528 0.346484 0.326856
Si Si2 0.857318 0.838445 0.990096
Si Si3 0.783977 0.077014 0.156483
Si Si4 0.503139 0.191870 0.909317
Si Si5 0.025055 0.315543 0.413886
Si Si6 0.965256 0.684460 0.246104
Si Si7 0.146870 0.085135 0.543003
Si Si8 0.677338 0.671550 0.251919
O O1 0.366800 0.260827 0.332429
O O2 0.409810 0.389876 0.348212
O O3 0.151512 0.361010 0.471302
O O4 0.513349 0.374552 0.161193
O O5 0.769350 0.895647 0.102690
O O6 0.675680 0.802561 0.103744
O O7 0.985444 0.778400 0.921587
O O8 0.700725 0.130584 0.269658
O O9 0.679835 0.000000 0.241989
O O10 0.000000 0.066929 0.000000
O O11 0.520964 0.160569 0.831445
O O12 0.693554 0.166990 0.792433
O O13 0.313923 0.163109 0.089107
O O14 0.064601 0.246647 0.342517
O O15 0.000000 0.291695 0.500000
O O16 0.847394 0.622439 0.370523
O O17 0.981482 0.109480 0.628369
O O18 0.169876 0.000000 0.521482
#
# Coordination Sequence:
#
# PCOD8109652 Si02
#       8
#     8   8   8   8   8   8   8   8
#     4  11  23  40  65  96 129 166 218 270 324 386
#     4  11  21  39  66  97 126 164 222 269 322 384
#     4  11  24  41  60  91 135 175 212 258 322 391
#     4  10  21  39  68  98 123 166 222 271 323 378
#     4  12  23  38  67  99 132 168 216 268 330 389
#     4  11  22  41  66  95 129 165 217 271 325 389
#     4  12  27  44  63  95 135 178 219 270 337 394
#     4  11  22  41  67  95 132 167 217 274 318 388
#
# _framework density 20.995494999999998
#
# number of rings (size 3 to 8) (size 9 to 14) (size 15 to 20)
#    0.000    0.875    2.500    7.125    0.000    2.750 
#    0.000    4.375    0.000    0.000    0.000    0.000 
#    0.000    0.000    0.000    0.000    0.000    0.000 
#
# Total GULP energy -396796.929205 kJ/mol
# GULP energy per Si atom -12399.904038 kJ/mol
# Density = 2.094771 g / cm^3
# Si number density = 20.995495 Si / 1000 Ang^3
#
#
#
# Elastic Constant Matrix: (Units=GPa)
#
#
# Indices 1 2 3 4 5 6 
#
# 1 93.0147 19.6835 22.0011 -0.0358 -0.4077 0.0395
# 2 19.6835 100.5148 26.5360 -0.0203 6.8765 0.0180
# 3 22.0011 26.5360 89.3072 0.2482 5.1044 -0.0975
# 4 -0.0358 -0.0203 0.2482 18.8712 -0.0619 -5.9627
# 5 -0.4077 6.8765 5.1044 -0.0619 38.5663 0.0248
# 6 0.0395 0.0180 -0.0975 -5.9627 0.0248 18.7496
#
#
#
# Elastic Compliance Matrix: (Units=1/GPa)
#
#
# Indices 1 2 3 4 5 6 
#
# 1 0.011686 -0.001702 -0.002416 0.000048 0.000747 -0.000021
# 2 -0.001702 0.011132 -0.002795 0.000038 -0.001633 -0.000007
# 3 -0.002416 -0.002795 0.012693 -0.000172 -0.001207 0.000021
# 4 0.000048 0.000038 -0.000172 0.058913 0.000099 0.018734
# 5 0.000747 -0.001633 -0.001207 0.000099 0.026388 -0.000010
# 6 -0.000021 -0.000007 0.000021 0.018734 -0.000010 0.059292
#
#
# Mechanical properties :
#
#
# Convention : Reuss Voigt Hill
#
# Bulk Modulus (GPa) = 46.11625 46.58642 46.35134
# Shear Modulus (GPa) = 24.85610 29.54516 27.20063
#
# Velocity S-wave (km/s) = 3.44449 3.75536 3.60327
# Velocity P-wave (km/s) = 6.15076 6.40629 6.27982
#
# Compressibility (1/GPa) = 0.02168433
#
# Stress axis : x y z
#
# Youngs Moduli (GPa) = 85.57342 89.83399 78.78636
#
# Poissons Ratio (x) = 0.15286 0.19035
# Poissons Ratio (y) = 0.14562 0.22022
# Poissons Ratio (z) = 0.20675 0.25110
#
# Static dielectric constant tensor:
#      x y z
#    x 4.169210 -0.000200 -0.028190 
#    y -0.000200 3.523770 0.000300 
#    z -0.028190 0.000300 4.013230 
# 
# 
# High freq. dielectric constant tensor:
#      x y z
#    x 1.832600 -0.000010 -0.002630 
#    y -0.000010 1.779220 0.000030 
#    z -0.002630 0.000030 1.843910 
# 
# From -- ./inp_files/347846.got.cif
#   From: 2010.06.25/outbox.cif.g09.slc.cpg/sg12_174_cif.got.tgz:347846.got - 2010.06.28 00:19:55.
