data_PCOD8109373
_publ_section_title
;
Structure prediction by ZEFSAII (Michael W. Deem and Ramdas Pophale) SiO2 
 PCOD8109373
Probable space group: C 2/M
;
_chemical_formula_sum "Si O2"
_cell_formula_units_Z 64
_cell_length_a 29.848465
_cell_length_b 17.756430
_cell_length_c 9.686114
_cell_angle_alpha 90.000000
_cell_angle_beta 141.888668
_cell_angle_gamma 90.000000
_cell_volume 3168.452279
_symmetry_space_group_name_H-M "C 2/M"
_symmetry_group_IT_number 12
_symmetry_cell_setting 'monoclinic'
loop_
_space_group_symop_operation_xyz
x,y,z
-x,y,-z
-x,-y,-z
x,-y,z
1/2+x,1/2+y,z
1/2-x,1/2+y,-z
1/2-x,1/2-y,-z
1/2+x,1/2-y,z
loop_
_atom_site_type_symbol
_atom_site_label
_atom_site_fract_x
_atom_site_fract_y
_atom_site_fract_z
Si Si1 0.371368 0.659094 0.883595
Si Si2 0.774672 0.086343 0.442169
Si Si3 0.999510 0.347690 0.341416
Si Si4 0.161022 0.913730 0.687485
Si Si5 0.129466 0.332416 0.165578
Si Si6 0.516373 0.672080 0.384513
Si Si7 0.608093 0.086700 0.388095
Si Si8 0.728051 0.413659 0.140644
O O1 0.348770 0.603488 0.705289
O O2 0.362903 0.743217 0.806918
O O3 0.318645 0.645086 0.885018
O O4 0.453472 0.642853 0.129942
O O5 0.787072 0.107473 0.313677
O O6 0.709454 0.133889 0.347530
O O7 0.753304 0.000000 0.410072
O O8 0.024802 0.261512 0.399847
O O9 0.053815 0.396238 0.381132
O O10 0.000000 0.378325 0.500000
O O11 0.918582 0.355947 0.083264
O O12 0.090773 0.862019 0.511647
O O13 0.134874 0.000000 0.614995
O O14 0.209761 0.898183 0.938082
O O15 0.091187 0.362558 0.212570
O O16 0.500000 0.644009 0.500000
O O17 0.688099 0.104761 0.636422
O O18 0.599389 0.000000 0.323323
O O19 0.709874 0.500000 0.139253
#
# Coordination Sequence:
#
# PCOD8109373 Si02
#       8
#     8   8   8   8   8   8   8   8
#     4  11  22  39  64  92 122 162 210 252 304 365
#     4  11  24  41  61  91 128 161 202 259 309 362
#     4  10  25  43  63  93 124 158 207 258 311 366
#     4  10  23  39  61  93 126 166 208 250 310 364
#     4  11  24  41  64  93 123 164 204 251 311 374
#     4  10  21  41  62  88 126 163 203 255 306 361
#     4  11  24  43  67  92 122 163 206 253 310 372
#     4  10  21  39  63  94 125 161 209 255 302 366
#
# _framework density 20.199134999999998
#
# number of rings (size 3 to 8) (size 9 to 14) (size 15 to 20)
#    0.000    1.500    2.500    1.500    3.500    3.500 
#    0.000    2.500    0.000    0.000    0.000    0.000 
#    0.000    0.000    0.000    0.000    0.000    0.000 
#
# Total GULP energy -396955.400299 kJ/mol
# GULP energy per Si atom -12404.856259 kJ/mol
# Density = 2.015316 g / cm^3
# Si number density = 20.199135 Si / 1000 Ang^3
#
#
#
# Elastic Constant Matrix: (Units=GPa)
#
#
# Indices 1 2 3 4 5 6 
#
# 1 95.2454 37.2751 32.9751 0.0000 -20.1057 0.0000
# 2 37.2751 38.6913 22.0949 0.0000 -4.7773 0.0000
# 3 32.9751 22.0949 104.5213 0.0000 -15.5927 0.0000
# 4 0.0000 0.0000 0.0000 29.1498 0.0000 -2.2283
# 5 -20.1057 -4.7773 -15.5927 0.0000 38.1568 0.0000
# 6 0.0000 0.0000 0.0000 -2.2283 0.0000 35.7469
#
#
#
# Elastic Compliance Matrix: (Units=1/GPa)
#
#
# Indices 1 2 3 4 5 6 
#
# 1 0.019058 -0.016654 -0.001390 0.000000 0.007389 0.000000
# 2 -0.016654 0.044001 -0.004829 0.000000 -0.005240 0.000000
# 3 -0.001390 -0.004829 0.011530 0.000000 0.003375 0.000000
# 4 0.000000 0.000000 0.000000 0.034470 0.000000 0.002149
# 5 0.007389 -0.005240 0.003375 0.000000 0.030824 0.000000
# 6 0.000000 0.000000 0.000000 0.002149 0.000000 0.028108
#
#
# Mechanical properties :
#
#
# Convention : Reuss Voigt Hill
#
# Bulk Modulus (GPa) = 34.67027 47.01647 40.84337
# Shear Modulus (GPa) = 22.38622 30.35155 26.36889
#
# Velocity S-wave (km/s) = 3.33269 3.88056 3.61702
# Velocity P-wave (km/s) = 5.65779 6.58828 6.14068
#
# Compressibility (1/GPa) = 0.02884315
#
# Stress axis : x y z
#
# Youngs Moduli (GPa) = 52.47163 22.72678 86.72951
#
# Poissons Ratio (x) = 0.37850 0.12052
# Poissons Ratio (y) = 0.87389 0.41881
# Poissons Ratio (z) = 0.07291 0.10974
#
# Static dielectric constant tensor:
#      x y z
#    x 3.598870 0.000000 -0.152650 
#    y 0.000000 3.618980 0.000000 
#    z -0.152650 0.000000 3.935950 
# 
# 
# High freq. dielectric constant tensor:
#      x y z
#    x 1.787480 0.000000 -0.006840 
#    y 0.000000 1.784630 0.000000 
#    z -0.006840 0.000000 1.806840 
# 
# From -- ./inp_files/112832.got.cif
#   From: 2010.06.25/outbox.cif.g09.slc.cpg/sg12_57_cif.got.tgz:112832.got - 2010.06.28 00:19:55.
