data_PCOD8109892
_publ_section_title
;
Structure prediction by ZEFSAII (Michael W. Deem and Ramdas Pophale) SiO2 
 PCOD8109892
Probable space group: C 2/M
;
_chemical_formula_sum "Si O2"
_cell_formula_units_Z 64
_cell_length_a 16.083981
_cell_length_b 18.420596
_cell_length_c 14.984284
_cell_angle_alpha 90.000000
_cell_angle_beta 133.066746
_cell_angle_gamma 90.000000
_cell_volume 3243.309198
_symmetry_space_group_name_H-M "C 2/M"
_symmetry_group_IT_number 12
_symmetry_cell_setting 'monoclinic'
loop_
_space_group_symop_operation_xyz
x,y,z
-x,y,-z
-x,-y,-z
x,-y,z
1/2+x,1/2+y,z
1/2-x,1/2+y,-z
1/2-x,1/2-y,-z
1/2+x,1/2-y,z
loop_
_atom_site_type_symbol
_atom_site_label
_atom_site_fract_x
_atom_site_fract_y
_atom_site_fract_z
Si Si1 0.720317 0.845445 0.812564
Si Si2 0.446405 0.175796 0.054030
Si Si3 0.155791 0.914400 0.259724
Si Si4 0.867737 0.085310 0.394896
Si Si5 0.752265 0.584796 0.515809
Si Si6 0.071880 0.163864 0.906009
Si Si7 0.494651 0.915296 0.257373
Si Si8 0.805705 0.179392 0.182273
O O1 0.762173 0.875351 0.749552
O O2 0.606199 0.887431 0.754461
O O3 0.690535 0.761139 0.778821
O O4 0.815408 0.858499 0.957696
O O5 0.477247 0.258973 0.098140
O O6 0.499802 0.123670 0.166233
O O7 0.500000 0.152812 0.000000
O O8 0.311560 0.164920 0.955196
O O9 0.191102 0.883851 0.382962
O O10 0.024320 0.895655 0.144791
O O11 0.173325 0.000000 0.263803
O O12 0.804130 0.117374 0.435641
O O13 0.817020 0.124374 0.271633
O O14 0.000000 0.103641 0.500000
O O15 0.845909 0.000000 0.366035
O O16 0.727970 0.500000 0.501381
O O17 0.886064 0.601970 0.606887
O O18 0.095677 0.166424 0.817778
O O19 0.478858 0.000000 0.227888
#
# Coordination Sequence:
#
# PCOD8109892 Si02
#       8
#     8   8   8   8   8   8   8   8
#     4  11  22  42  60  90 128 163 203 255 312 369
#     4  11  21  38  61  87 122 162 201 248 314 374
#     4  11  24  41  65  92 120 165 216 260 312 371
#     4  10  21  40  64  91 125 162 205 260 311 358
#     4   9  21  41  59  85 123 159 198 249 311 362
#     4  11  21  40  62  88 126 160 199 258 319 367
#     4  11  22  39  62  85 121 163 204 256 303 365
#     4  11  21  39  62  90 124 165 203 247 315 380
#
# _framework density 19.732932000000002
#
# number of rings (size 3 to 8) (size 9 to 14) (size 15 to 20)
#    0.000    1.375    2.500    4.500    0.000    4.250 
#    2.250    3.125    0.000    0.000    0.000    0.000 
#    0.000    0.000    0.000    0.000    0.000    0.000 
#
# Total GULP energy -396946.693200 kJ/mol
# GULP energy per Si atom -12404.584163 kJ/mol
# Density = 1.968802 g / cm^3
# Si number density = 19.732932 Si / 1000 Ang^3
#
#
#
# Elastic Constant Matrix: (Units=GPa)
#
#
# Indices 1 2 3 4 5 6 
#
# 1 138.4634 24.0079 34.7530 0.0001 -13.8567 0.0000
# 2 24.0079 54.5192 31.4762 0.0000 -4.0339 0.0000
# 3 34.7530 31.4762 84.4259 0.0000 -10.1670 0.0000
# 4 0.0001 0.0000 0.0000 -3.2800 0.0001 -21.0156
# 5 -13.8567 -4.0339 -10.1670 0.0001 37.2603 0.0000
# 6 0.0000 0.0000 0.0000 -21.0156 0.0000 20.1815
#
#
#
# Elastic Compliance Matrix: (Units=1/GPa)
#
#
# Indices 1 2 3 4 5 6 
#
# 1 0.008422 -0.002163 -0.002390 0.000000 0.002246 0.000000
# 2 -0.002163 0.023929 -0.008082 0.000000 -0.000419 0.000000
# 3 -0.002390 -0.008082 0.016160 0.000000 0.002646 0.000000
# 4 0.000000 0.000000 0.000000 -0.039739 0.000000 -0.041381
# 5 0.002246 -0.000419 0.002646 0.000000 0.028350 0.000000
# 6 0.000000 0.000000 0.000000 -0.041381 0.000000 0.006459
#
#
# Mechanical properties :
#
#
# Convention : Reuss Voigt Hill
#
# Bulk Modulus (GPa) = 43.02423 50.87585 46.95004
# Shear Modulus (GPa) = 65.27669 23.31045 44.29357
#
# Velocity S-wave (km/s) = 5.75777 3.44073 4.74292
# Velocity P-wave (km/s) = 8.12731 6.45159 7.33744
#
# Compressibility (1/GPa) = 0.02324272
#
# Stress axis : x y z
#
# Youngs Moduli (GPa) = 118.74106 41.78955 61.88031
#
# Poissons Ratio (x) = 0.09037 0.14789
# Poissons Ratio (y) = 0.25678 0.50010
# Poissons Ratio (z) = 0.28379 0.33773
#
# Static dielectric constant tensor:
#      x y z
#    x 3.904280 0.000000 -0.017970 
#    y 0.000000 3.501930 0.000000 
#    z -0.017970 0.000000 3.635080 
# 
# 
# High freq. dielectric constant tensor:
#      x y z
#    x 1.790050 0.000000 -0.001780 
#    y 0.000000 1.757620 0.000000 
#    z -0.001780 0.000000 1.769750 
# 
# From -- ./inp_files/226873.got.cif
#   From: 2010.06.25/outbox.cif.g09.slc.cpg/sg12_114_cif.got.tgz:226873.got - 2010.06.28 00:19:55.
