data_PCOD8109197
_publ_section_title
;
Structure prediction by ZEFSAII (Michael W. Deem and Ramdas Pophale) SiO2 
 PCOD8109197
Probable space group: C 2/M
;
_chemical_formula_sum "Si O2"
_cell_formula_units_Z 48
_cell_length_a 18.655213
_cell_length_b 15.198769
_cell_length_c 17.430331
_cell_angle_alpha 90.000000
_cell_angle_beta 152.559510
_cell_angle_gamma 90.000000
_cell_volume 2277.467812
_symmetry_space_group_name_H-M "C 2/M"
_symmetry_group_IT_number 12
_symmetry_cell_setting 'monoclinic'
loop_
_space_group_symop_operation_xyz
x,y,z
-x,y,-z
-x,-y,-z
x,-y,z
1/2+x,1/2+y,z
1/2-x,1/2+y,-z
1/2-x,1/2-y,-z
1/2+x,1/2-y,z
loop_
_atom_site_type_symbol
_atom_site_label
_atom_site_fract_x
_atom_site_fract_y
_atom_site_fract_z
Si Si1 0.914433 0.170931 0.996671
Si Si2 0.426292 0.000000 0.514895
Si Si3 0.215281 0.846403 0.374015
Si Si4 0.862323 0.166183 0.529191
Si Si5 0.275290 0.692782 0.099543
Si Si6 0.934669 0.000000 0.523313
Si Si7 0.708474 0.500000 0.907043
Si Si8 0.253930 0.500000 0.883081
O O1 0.036276 0.149051 0.179314
O O2 0.812760 0.257666 0.915968
O O3 0.000000 0.191303 0.000000
O O4 0.804657 0.085921 0.883724
O O5 0.500000 0.000000 0.500000
O O6 0.319216 0.084733 0.426377
O O7 0.566292 0.000000 0.709799
O O8 0.219502 0.863285 0.469156
O O9 0.278522 0.750107 0.413709
O O10 0.042736 0.188722 0.711088
O O11 0.834770 0.088304 0.441158
O O12 0.202903 0.593158 0.024107
O O13 0.250000 0.750000 0.000000
O O14 0.000000 0.000000 0.500000
O O15 0.058561 0.000000 0.710383
O O16 0.667181 0.500000 0.958071
#
# Coordination Sequence:
#
# PCOD8109197 Si02
#       8
#     8   4   8   8   8   4   4   4
#     4  12  24  39  63  94 130 170 213 273 332 388
#     4  12  26  40  60  96 136 168 203 268 338 394
#     4  11  23  40  62  91 128 159 216 266 316 387
#     4  10  22  40  66  91 120 167 216 263 318 380
#     4  11  20  41  65  91 127 167 223 265 320 394
#     4  10  21  39  62  90 124 162 208 264 320 372
#     4  10  22  36  67  95 115 167 225 267 304 392
#     4  12  22  41  67  89 128 173 223 263 328 406
#
# _framework density 21.076039000000002
#
# number of rings (size 3 to 8) (size 9 to 14) (size 15 to 20)
#    0.000    1.000    3.333    4.250    0.000    3.333 
#    0.000    1.250    0.000    0.000    0.000    0.000 
#    0.000    0.000    0.000    0.000    0.000    0.000 
#
# Total GULP energy -297570.452650 kJ/mol
# GULP energy per Si atom -12398.768860 kJ/mol
# Density = 2.102807 g / cm^3
# Si number density = 21.076039 Si / 1000 Ang^3
#
#
#
# Elastic Constant Matrix: (Units=GPa)
#
#
# Indices 1 2 3 4 5 6 
#
# 1 122.1592 65.8137 1.2009 -0.0003 13.0287 0.0000
# 2 65.8137 196.7349 20.0828 0.0000 22.4979 -0.0002
# 3 1.2009 20.0828 61.6512 -0.0012 13.9768 -0.0006
# 4 -0.0003 0.0000 -0.0012 21.8019 -0.0005 11.0552
# 5 13.0287 22.4979 13.9768 -0.0005 30.0053 -0.0007
# 6 0.0000 -0.0002 -0.0006 11.0552 -0.0007 35.1705
#
#
#
# Elastic Compliance Matrix: (Units=1/GPa)
#
#
# Indices 1 2 3 4 5 6 
#
# 1 0.010214 -0.003261 0.001470 0.000000 -0.002674 0.000000
# 2 -0.003261 0.006653 -0.001447 0.000000 -0.002899 0.000000
# 3 0.001470 -0.001447 0.018517 0.000001 -0.008179 0.000000
# 4 0.000000 0.000000 0.000001 0.054564 0.000000 -0.017151
# 5 -0.002674 -0.002899 -0.008179 0.000000 0.040472 0.000001
# 6 0.000000 0.000000 0.000000 -0.017151 0.000001 0.033824
#
#
# Mechanical properties :
#
#
# Convention : Reuss Voigt Hill
#
# Bulk Modulus (GPa) = 34.59249 61.63778 48.11513
# Shear Modulus (GPa) = 27.72291 36.95875 32.34083
#
# Velocity S-wave (km/s) = 3.63075 4.19213 3.92150
# Velocity P-wave (km/s) = 5.83312 7.26229 6.58658
#
# Compressibility (1/GPa) = 0.02890801
#
# Stress axis : x y z
#
# Youngs Moduli (GPa) = 97.90795 150.30787 54.00413
#
# Poissons Ratio (x) = 0.49015 -0.07937
# Poissons Ratio (y) = 0.31927 0.07812
# Poissons Ratio (z) = -0.14389 0.21743
#
# Static dielectric constant tensor:
#      x y z
#    x 3.720260 0.000000 0.043550 
#    y 0.000000 4.602150 -0.000020 
#    z 0.043550 -0.000020 3.821770 
# 
# 
# High freq. dielectric constant tensor:
#      x y z
#    x 1.820500 0.000000 0.001240 
#    y 0.000000 1.850530 0.000000 
#    z 0.001240 0.000000 1.808490 
# 
# From -- ./inp_files/278285.got.cif
#   From: 2010.06.25/outbox.cif.g09.slc.cpg/sg12_140_cif.got.tgz:278285.got - 2010.06.28 00:19:55.
