data_PCOD8109338
_publ_section_title
;
Structure prediction by ZEFSAII (Michael W. Deem and Ramdas Pophale) SiO2 
 PCOD8109338
Probable space group: C 2/M
;
_chemical_formula_sum "Si O2"
_cell_formula_units_Z 48
_cell_length_a 14.966082
_cell_length_b 8.433094
_cell_length_c 29.359809
_cell_angle_alpha 90.000000
_cell_angle_beta 40.386854
_cell_angle_gamma 90.000000
_cell_volume 2400.968902
_symmetry_space_group_name_H-M "C 2/M"
_symmetry_group_IT_number 12
_symmetry_cell_setting 'monoclinic'
loop_
_space_group_symop_operation_xyz
x,y,z
-x,y,-z
-x,-y,-z
x,-y,z
1/2+x,1/2+y,z
1/2-x,1/2+y,-z
1/2-x,1/2-y,-z
1/2+x,1/2-y,z
loop_
_atom_site_type_symbol
_atom_site_label
_atom_site_fract_x
_atom_site_fract_y
_atom_site_fract_z
Si Si1 0.869406 0.813503 0.422078
Si Si2 0.622672 0.685206 0.683496
Si Si3 0.332065 0.815480 0.172128
Si Si4 0.174806 0.812952 0.324529
Si Si5 0.148273 0.682711 0.167165
Si Si6 0.872374 0.184696 0.922228
O O1 0.750000 0.750000 0.500000
O O2 0.848677 0.752836 0.378613
O O3 0.016962 0.756139 0.383506
O O4 0.863564 0.000000 0.424905
O O5 0.583601 0.500000 0.699170
O O6 0.759290 0.717533 0.659416
O O7 0.496158 0.783084 0.752621
O O8 0.250070 0.761954 0.248886
O O9 0.274895 0.718717 0.151454
O O10 0.491968 0.780356 0.116478
O O11 0.308146 0.000000 0.171849
O O12 0.189878 0.000000 0.327102
O O13 0.152353 0.500000 0.150802
O O14 0.164028 0.789439 0.116341
O O15 0.896130 0.000000 0.922315
O O16 0.750000 0.250000 0.000000
#
# Coordination Sequence:
#
# PCOD8109338 Si02
#       6
#     8   8   8   8   8   8
#     4  10  23  42  61  88 127 166 206 260 317 374
#     4  11  22  39  63  92 125 163 212 263 314 374
#     4  11  22  41  67  96 129 166 212 263 316 376
#     4  10  21  39  63  91 125 163 208 258 314 377
#     4  12  24  40  65  97 129 168 215 260 313 377
#     4  12  26  45  67  96 132 169 210 261 320 376
#
# _framework density 19.99193
#
# number of rings (size 3 to 8) (size 9 to 14) (size 15 to 20)
#    0.000    1.000    3.333    4.000    0.000    4.000 
#    0.000    6.667    0.000    0.000    0.000    0.000 
#    0.000    0.000    0.000    0.000    0.000    0.000 
#
# Total GULP energy -297761.670827 kJ/mol
# GULP energy per Si atom -12406.736284 kJ/mol
# Density = 1.994643 g / cm^3
# Si number density = 19.991930 Si / 1000 Ang^3
#
#
#
# Elastic Constant Matrix: (Units=GPa)
#
#
# Indices 1 2 3 4 5 6 
#
# 1 108.5053 18.8666 51.3384 0.0006 13.9676 -0.0004
# 2 18.8666 54.4634 17.0923 0.0003 -0.1430 0.0014
# 3 51.3384 17.0923 150.0839 0.0003 -2.6594 0.0000
# 4 0.0006 0.0003 0.0003 33.1632 -0.0003 -0.7710
# 5 13.9676 -0.1430 -2.6594 -0.0003 29.6941 -0.0002
# 6 -0.0004 0.0014 0.0000 -0.7710 -0.0002 36.6985
#
#
#
# Elastic Compliance Matrix: (Units=1/GPa)
#
#
# Indices 1 2 3 4 5 6 
#
# 1 0.012455 -0.003069 -0.004021 0.000000 -0.006233 0.000000
# 2 -0.003069 0.019798 -0.001180 0.000000 0.001433 -0.000001
# 3 -0.004021 -0.001180 0.008219 0.000000 0.002622 0.000000
# 4 0.000000 0.000000 0.000000 0.030169 0.000000 0.000634
# 5 -0.006233 0.001433 0.002622 0.000000 0.036851 0.000000
# 6 0.000000 -0.000001 0.000000 0.000634 0.000000 0.027262
#
#
# Mechanical properties :
#
#
# Convention : Reuss Voigt Hill
#
# Bulk Modulus (GPa) = 41.78386 54.18302 47.98344
# Shear Modulus (GPa) = 31.39313 34.96153 33.17733
#
# Velocity S-wave (km/s) = 3.96699 4.18638 4.07816
# Velocity P-wave (km/s) = 6.47521 7.10838 6.79917
#
# Compressibility (1/GPa) = 0.02393269
#
# Stress axis : x y z
#
# Youngs Moduli (GPa) = 80.29032 50.51019 121.66514
#
# Poissons Ratio (x) = 0.15501 0.48925
# Poissons Ratio (y) = 0.24640 0.14351
# Poissons Ratio (z) = 0.32287 0.05958
#
# Static dielectric constant tensor:
#      x y z
#    x 5.821350 0.000030 -0.266970 
#    y 0.000030 3.441830 -0.000010 
#    z -0.266970 -0.000010 3.501720 
# 
# 
# High freq. dielectric constant tensor:
#      x y z
#    x 1.797790 0.000000 0.000380 
#    y 0.000000 1.782120 0.000000 
#    z 0.000380 0.000000 1.779070 
# 
# From -- ./inp_files/360238.got.cif
#   From: 2010.06.25/outbox.cif.g09.slc.cpg/sg12_181_cif.got.tgz:360238.got - 2010.06.28 00:19:55.
