data_PCOD8109029
_publ_section_title
;
Structure prediction by ZEFSAII (Michael W. Deem and Ramdas Pophale) SiO2 
 PCOD8109029
Probable space group: C 2/M
;
_chemical_formula_sum "Si O2"
_cell_formula_units_Z 48
_cell_length_a 28.451747
_cell_length_b 8.763062
_cell_length_c 15.739642
_cell_angle_alpha 90.000000
_cell_angle_beta 141.996265
_cell_angle_gamma 90.000000
_cell_volume 2416.227846
_symmetry_space_group_name_H-M "C 2/M"
_symmetry_group_IT_number 12
_symmetry_cell_setting 'monoclinic'
loop_
_space_group_symop_operation_xyz
x,y,z
-x,y,-z
-x,-y,-z
x,-y,z
1/2+x,1/2+y,z
1/2-x,1/2+y,-z
1/2-x,1/2-y,-z
1/2+x,1/2-y,z
loop_
_atom_site_type_symbol
_atom_site_label
_atom_site_fract_x
_atom_site_fract_y
_atom_site_fract_z
Si Si1 0.651445 0.676903 0.425927
Si Si2 0.698918 0.676618 0.304555
Si Si3 0.568530 0.678139 0.658012
Si Si4 0.773167 0.679345 0.122016
Si Si5 0.480379 0.678274 0.221600
Si Si6 0.649969 0.178708 0.067591
O O1 0.667541 0.500000 0.468451
O O2 0.657873 0.710840 0.335157
O O3 0.712433 0.775229 0.565239
O O4 0.568268 0.727280 0.338924
O O5 0.694238 0.500000 0.272578
O O6 0.653437 0.775966 0.171116
O O7 0.500000 0.729703 0.500000
O O8 0.586381 0.500000 0.672660
O O9 0.641644 0.772286 0.731818
O O10 0.548443 0.719464 0.725829
O O11 0.766740 0.500000 0.104157
O O12 0.716928 0.733375 0.115036
O O13 0.750000 0.750000 0.000000
O O14 0.470171 0.500000 0.186864
O O15 0.432264 0.774089 0.085479
O O16 0.662020 0.000000 0.073065
#
# Coordination Sequence:
#
# PCOD8109029 Si02
#       6
#     8   8   8   8   8   8
#     4   9  20  39  63  90 122 160 198 245 303 361
#     4  10  21  39  62  90 122 157 201 248 299 359
#     4  10  22  39  61  91 124 160 199 242 294 353
#     4  12  24  41  63  89 122 159 199 244 296 353
#     4  10  21  39  61  87 122 159 199 246 299 358
#     4  12  25  40  61  88 120 159 204 249 299 355
#
# _framework density 19.865676000000001
#
# number of rings (size 3 to 8) (size 9 to 14) (size 15 to 20)
#    0.000    1.500    1.667    3.500    2.333    2.333 
#    0.000    3.333    0.000    0.000    0.000    0.000 
#    0.000    0.000    0.000    0.000    0.000    0.000 
#
# Total GULP energy -297763.390565 kJ/mol
# GULP energy per Si atom -12406.807940 kJ/mol
# Density = 1.982046 g / cm^3
# Si number density = 19.865676 Si / 1000 Ang^3
#
#
#
# Elastic Constant Matrix: (Units=GPa)
#
#
# Indices 1 2 3 4 5 6 
#
# 1 36.9699 8.5368 1.9838 0.0000 12.2855 0.0000
# 2 8.5368 89.1931 33.7460 0.0000 1.9617 0.0000
# 3 1.9838 33.7460 95.1361 0.0000 -2.9881 0.0000
# 4 0.0000 0.0000 0.0000 37.3711 0.0000 2.8523
# 5 12.2855 1.9617 -2.9881 0.0000 35.4727 0.0000
# 6 0.0000 0.0000 0.0000 2.8523 0.0000 28.5930
#
#
#
# Elastic Compliance Matrix: (Units=1/GPa)
#
#
# Indices 1 2 3 4 5 6 
#
# 1 0.031229 -0.002750 -0.000011 0.000000 -0.010664 0.000000
# 2 -0.002750 0.013235 -0.004643 0.000000 -0.000170 0.000000
# 3 -0.000011 -0.004643 0.012199 0.000000 0.001288 0.000000
# 4 0.000000 0.000000 0.000000 0.026964 0.000000 -0.002690
# 5 -0.010664 -0.000170 0.001288 0.000000 0.032002 0.000000
# 6 0.000000 0.000000 0.000000 -0.002690 0.000000 0.035242
#
#
# Mechanical properties :
#
#
# Convention : Reuss Voigt Hill
#
# Bulk Modulus (GPa) = 23.89184 34.42580 29.15882
# Shear Modulus (GPa) = 27.83508 32.08953 29.96230
#
# Velocity S-wave (km/s) = 3.74727 4.02347 3.88783
# Velocity P-wave (km/s) = 5.54757 6.24110 5.90453
#
# Compressibility (1/GPa) = 0.04185530
#
# Stress axis : x y z
#
# Youngs Moduli (GPa) = 32.02195 75.55625 81.97562
#
# Poissons Ratio (x) = 0.20781 0.00086
# Poissons Ratio (y) = 0.08807 0.38059
# Poissons Ratio (z) = 0.00034 0.35078
#
# Static dielectric constant tensor:
#      x y z
#    x 3.727660 0.000000 0.020160 
#    y 0.000000 3.595990 0.000000 
#    z 0.020160 0.000000 3.716630 
# 
# 
# High freq. dielectric constant tensor:
#      x y z
#    x 1.778090 0.000000 0.000940 
#    y 0.000000 1.773360 0.000000 
#    z 0.000940 0.000000 1.785350 
# 
# From -- ./inp_files/244611.got.cif
#   From: 2010.06.25/outbox.cif.g09.slc.cpg/sg12_123_cif.got.tgz:244611.got - 2010.06.28 00:19:55.
