data_PCOD8109558
_publ_section_title
;
Structure prediction by ZEFSAII (Michael W. Deem and Ramdas Pophale) SiO2 
 PCOD8109558
Probable space group: C 2/M
;
_chemical_formula_sum "Si O2"
_cell_formula_units_Z 64
_cell_length_a 8.530562
_cell_length_b 29.659004
_cell_length_c 17.425785
_cell_angle_alpha 90.000000
_cell_angle_beta 134.970969
_cell_angle_gamma 90.000000
_cell_volume 3119.115807
_symmetry_space_group_name_H-M "C 2/M"
_symmetry_group_IT_number 12
_symmetry_cell_setting 'monoclinic'
loop_
_space_group_symop_operation_xyz
x,y,z
-x,y,-z
-x,-y,-z
x,-y,z
1/2+x,1/2+y,z
1/2-x,1/2+y,-z
1/2-x,1/2-y,-z
1/2+x,1/2-y,z
loop_
_atom_site_type_symbol
_atom_site_label
_atom_site_fract_x
_atom_site_fract_y
_atom_site_fract_z
Si Si1 0.657910 0.298031 0.623701
Si Si2 0.877011 0.264195 0.244032
Si Si3 0.441954 0.052201 0.701961
Si Si4 0.705798 0.052738 0.519139
Si Si5 0.892757 0.786479 0.096020
Si Si6 0.751362 0.881145 0.092114
Si Si7 0.548654 0.552424 0.102944
Si Si8 0.631287 0.609864 0.694981
O O1 0.500000 0.283556 0.500000
O O2 0.617928 0.260255 0.673181
O O3 0.586725 0.347177 0.626645
O O4 0.917842 0.299094 0.689383
O O5 0.901237 0.226690 0.187498
O O6 0.643601 0.290060 0.150490
O O7 0.335542 0.065270 0.583647
O O8 0.700222 0.063192 0.788120
O O9 0.334472 0.080988 0.732429
O O10 0.399951 0.000000 0.706440
O O11 0.500000 0.067618 0.500000
O O12 0.914355 0.079501 0.622351
O O13 0.754251 0.000000 0.545662
O O14 0.782255 0.835662 0.052455
O O15 0.750000 0.750000 0.000000
O O16 0.813879 0.872446 0.201676
O O17 0.897423 0.921274 0.109969
O O18 0.500000 0.897085 0.000000
O O19 0.491664 0.500000 0.092681
O O20 0.500000 0.568806 0.000000
#
# Coordination Sequence:
#
# PCOD8109558 Si02
#       8
#     8   8   8   8   8   8   8   8
#     4  11  23  42  63  92 128 172 215 263 322 401
#     4  10  23  42  66  91 125 169 210 269 331 397
#     4  10  21  39  65  94 130 176 224 271 323 387
#     4  10  21  40  65  96 133 177 224 275 331 380
#     4  11  23  43  68  97 126 163 216 279 337 389
#     4  12  26  42  64  96 130 167 213 273 330 404
#     4  10  23  43  65  93 131 174 219 267 329 399
#     4  12  24  40  62  97 134 166 221 272 326 391
#
# _framework density 20.518636000000001
#
# number of rings (size 3 to 8) (size 9 to 14) (size 15 to 20)
#    0.000    1.250    1.250    4.500    3.500    4.250 
#    2.250    0.625    0.000    0.000    0.000    0.000 
#    0.000    0.000    0.000    0.000    0.000    0.000 
#
# Total GULP energy -396982.222945 kJ/mol
# GULP energy per Si atom -12405.694467 kJ/mol
# Density = 2.047193 g / cm^3
# Si number density = 20.518636 Si / 1000 Ang^3
#
#
#
# Elastic Constant Matrix: (Units=GPa)
#
#
# Indices 1 2 3 4 5 6 
#
# 1 113.6718 45.3742 33.3483 0.0000 10.8373 0.0000
# 2 45.3742 77.8134 28.6503 0.0000 4.4596 0.0000
# 3 33.3483 28.6503 109.9831 0.0000 4.5711 0.0000
# 4 0.0000 0.0000 0.0000 26.8179 0.0000 -1.6317
# 5 10.8373 4.4596 4.5711 0.0000 29.5585 0.0000
# 6 0.0000 0.0000 0.0000 -1.6317 0.0000 27.6724
#
#
#
# Elastic Compliance Matrix: (Units=1/GPa)
#
#
# Indices 1 2 3 4 5 6 
#
# 1 0.012140 -0.006181 -0.001937 0.000000 -0.003219 0.000000
# 2 -0.006181 0.017436 -0.002670 0.000000 0.000049 0.000000
# 3 -0.001937 -0.002670 0.010396 0.000000 -0.000495 0.000000
# 4 0.000000 0.000000 0.000000 0.037423 0.000000 0.002207
# 5 -0.003219 0.000049 -0.000495 0.000000 0.035081 0.000000
# 6 0.000000 0.000000 0.000000 0.002207 0.000000 0.036267
#
#
# Mechanical properties :
#
#
# Convention : Reuss Voigt Hill
#
# Bulk Modulus (GPa) = 54.36171 57.35711 55.85941
# Shear Modulus (GPa) = 28.33674 29.74947 29.04311
#
# Velocity S-wave (km/s) = 3.72025 3.81185 3.76633
# Velocity P-wave (km/s) = 6.70857 6.88389 6.79680
#
# Compressibility (1/GPa) = 0.01839530
#
# Stress axis : x y z
#
# Youngs Moduli (GPa) = 82.37415 57.35314 96.19412
#
# Poissons Ratio (x) = 0.35451 0.18632
# Poissons Ratio (y) = 0.50917 0.25682
# Poissons Ratio (z) = 0.15955 0.15312
#
# Static dielectric constant tensor:
#      x y z
#    x 3.955120 0.000000 0.053760 
#    y 0.000000 3.581730 0.000000 
#    z 0.053760 0.000000 3.828450 
# 
# 
# High freq. dielectric constant tensor:
#      x y z
#    x 1.816980 0.000000 0.001900 
#    y 0.000000 1.796710 0.000000 
#    z 0.001900 0.000000 1.813440 
# 
# From -- ./inp_files/260349.got.cif
#   From: 2010.06.25/outbox.cif.g09.slc.cpg/sg12_131_cif.got.tgz:260349.got - 2010.06.28 00:19:55.
