data_PCOD8109676
_publ_section_title
;
Structure prediction by ZEFSAII (Michael W. Deem and Ramdas Pophale) SiO2 
 PCOD8109676
Probable space group: C 2/M
;
_chemical_formula_sum "Si O2"
_cell_formula_units_Z 48
_cell_length_a 12.968212
_cell_length_b 20.489349
_cell_length_c 9.549384
_cell_angle_alpha 90.000000
_cell_angle_beta 116.016733
_cell_angle_gamma 90.000000
_cell_volume 2280.247153
_symmetry_space_group_name_H-M "C 2/M"
_symmetry_group_IT_number 12
_symmetry_cell_setting 'monoclinic'
loop_
_space_group_symop_operation_xyz
x,y,z
-x,y,-z
-x,-y,-z
x,-y,z
1/2+x,1/2+y,z
1/2-x,1/2+y,-z
1/2-x,1/2-y,-z
1/2+x,1/2-y,z
loop_
_atom_site_type_symbol
_atom_site_label
_atom_site_fract_x
_atom_site_fract_y
_atom_site_fract_z
Si Si1 0.633139 0.426727 0.563757
Si Si2 0.961081 0.500000 0.317631
Si Si3 0.413986 0.210209 0.687430
Si Si4 0.707333 0.862708 0.153072
Si Si5 0.650429 0.138875 0.806957
Si Si6 0.788498 0.840172 0.620375
Si Si7 0.610679 0.000000 0.157634
O O1 0.500000 0.434281 0.500000
O O2 0.687635 0.500000 0.622479
O O3 0.670788 0.366692 0.691379
O O4 0.665386 0.406268 0.423682
O O5 0.889913 0.564393 0.233558
O O6 0.000000 0.500000 0.500000
O O7 0.079428 0.500000 0.303260
O O8 0.383561 0.184449 0.825114
O O9 0.544103 0.189583 0.725729
O O10 0.329783 0.178770 0.524744
O O11 0.392078 0.287719 0.671598
O O12 0.677532 0.936989 0.155216
O O13 0.711030 0.846003 0.991962
O O14 0.753377 0.151286 0.760675
O O15 0.500000 0.000000 0.000000
#
# Coordination Sequence:
#
# PCOD8109676 Si02
#       7
#     8   4   8   8   8   8   4
#     4  10  23  44  67  88 120 171 222 262 313 393
#     4  12  24  32  60  99 138 168 201 273 331 369
#     4  10  21  40  59  88 132 173 214 249 315 389
#     4  11  21  37  64  93 126 167 211 261 324 394
#     4  12  23  38  62 101 134 162 211 269 326 381
#     4  10  24  39  63  92 124 173 213 268 310 370
#     4  12  18  36  57  95 132 173 199 257 334 386
#
# _framework density 21.050350000000002
#
# number of rings (size 3 to 8) (size 9 to 14) (size 15 to 20)
#    0.000    1.167    4.167    2.000    3.500    4.667 
#    0.000    2.500    0.000    2.000    0.000    0.000 
#    0.000    0.000    0.000    0.000    0.000    0.000 
#
# Total GULP energy -297406.375575 kJ/mol
# GULP energy per Si atom -12391.932316 kJ/mol
# Density = 2.100244 g / cm^3
# Si number density = 21.050350 Si / 1000 Ang^3
#
#
#
# Elastic Constant Matrix: (Units=GPa)
#
#
# Indices 1 2 3 4 5 6 
#
# 1 93.9668 31.6165 35.6043 0.0000 -16.8699 0.0000
# 2 31.6165 81.1942 15.6986 0.0000 3.6562 0.0000
# 3 35.6043 15.6986 109.7924 0.0000 -28.9453 0.0000
# 4 0.0000 0.0000 0.0000 18.5805 0.0000 7.4102
# 5 -16.8699 3.6562 -28.9453 0.0000 33.7457 0.0000
# 6 0.0000 0.0000 0.0000 7.4102 0.0000 33.7556
#
#
#
# Elastic Compliance Matrix: (Units=1/GPa)
#
#
# Indices 1 2 3 4 5 6 
#
# 1 0.014392 -0.005402 -0.002382 0.000000 0.005737 0.000000
# 2 -0.005402 0.015078 -0.001999 0.000000 -0.006049 0.000000
# 3 -0.002382 -0.001999 0.012805 0.000000 0.010009 0.000000
# 4 0.000000 0.000000 0.000000 0.058984 0.000000 -0.012948
# 5 0.005737 -0.006049 0.010009 0.000000 0.041742 0.000000
# 6 0.000000 0.000000 0.000000 -0.012948 0.000000 0.032467
#
#
# Mechanical properties :
#
#
# Convention : Reuss Voigt Hill
#
# Bulk Modulus (GPa) = 44.03438 50.08801 47.06119
# Shear Modulus (GPa) = 24.67853 30.68532 27.68192
#
# Velocity S-wave (km/s) = 3.42768 3.82214 3.63027
# Velocity P-wave (km/s) = 6.05222 6.58213 6.32273
#
# Compressibility (1/GPa) = 0.02270953
#
# Stress axis : x y z
#
# Youngs Moduli (GPa) = 69.48198 66.31971 78.09257
#
# Poissons Ratio (x) = 0.35825 0.18605
# Poissons Ratio (y) = 0.37534 0.15610
# Poissons Ratio (z) = 0.16554 0.13257
#
# Static dielectric constant tensor:
#      x y z
#    x 3.557250 0.000000 -0.339780 
#    y 0.000000 3.930320 0.000000 
#    z -0.339780 0.000000 3.989700 
# 
# 
# High freq. dielectric constant tensor:
#      x y z
#    x 1.811270 0.000000 -0.005110 
#    y 0.000000 1.827560 0.000000 
#    z -0.005110 0.000000 1.830450 
# 
# From -- ./inp_files/51507.got.cif
#   From: 2010.06.25/outbox.cif.g09.slc.cpg/sg12_26_cif.got.tgz:51507.got - 2010.06.28 00:19:55.
