data_PCOD8109555
_publ_section_title
;
Structure prediction by ZEFSAII (Michael W. Deem and Ramdas Pophale) SiO2 
 PCOD8109555
Probable space group: C 2/M
;
_chemical_formula_sum "Si O2"
_cell_formula_units_Z 32
_cell_length_a 19.655499
_cell_length_b 8.480093
_cell_length_c 9.824496
_cell_angle_alpha 90.000000
_cell_angle_beta 77.560670
_cell_angle_gamma 90.000000
_cell_volume 1599.109406
_symmetry_space_group_name_H-M "C 2/M"
_symmetry_group_IT_number 12
_symmetry_cell_setting 'monoclinic'
loop_
_space_group_symop_operation_xyz
x,y,z
-x,y,-z
-x,-y,-z
x,-y,z
1/2+x,1/2+y,z
1/2-x,1/2+y,-z
1/2-x,1/2-y,-z
1/2+x,1/2-y,z
loop_
_atom_site_type_symbol
_atom_site_label
_atom_site_fract_x
_atom_site_fract_y
_atom_site_fract_z
Si Si1 0.689775 0.185815 0.122633
Si Si2 0.540250 0.313817 0.119771
Si Si3 0.691635 0.311908 0.425444
Si Si4 0.449259 0.326176 0.397360
O O1 0.615477 0.233526 0.091592
O O2 0.701614 0.251438 0.268635
O O3 0.695433 0.000000 0.126271
O O4 0.750000 0.250000 0.000000
O O5 0.551782 0.500000 0.137069
O O6 0.490464 0.238915 0.258212
O O7 0.500000 0.273602 0.000000
O O8 0.689678 0.500000 0.420655
O O9 0.750000 0.250000 0.500000
O O10 0.620631 0.240058 0.521257
O O11 0.500000 0.341424 0.500000
O O12 0.428259 0.500000 0.352243
#
# Coordination Sequence:
#
# PCOD8109555 Si02
#       4
#     8   8   8   8
#     4  12  26  44  64  90 127 170 215 268 323 378
#     4  10  21  39  65  94 125 165 208 255 315 383
#     4  11  23  41  65  95 129 168 212 260 315 378
#     4   9  17  35  62  89 120 160 204 250 306 372
#
# _framework density 20.011137999999999
#
# number of rings (size 3 to 8) (size 9 to 14) (size 15 to 20)
#    0.000    1.500    2.500    3.000    3.500    0.500 
#    0.000    3.750    0.000    0.000    0.000    0.000 
#    0.000    0.000    0.000    0.000    0.000    0.000 
#
# Total GULP energy -198336.018491 kJ/mol
# GULP energy per Si atom -12396.001156 kJ/mol
# Density = 1.996559 g / cm^3
# Si number density = 20.011138 Si / 1000 Ang^3
#
#
#
# Elastic Constant Matrix: (Units=GPa)
#
#
# Indices 1 2 3 4 5 6 
#
# 1 180.1949 48.5564 100.8274 0.0000 -17.5731 0.0000
# 2 48.5564 90.7686 46.9371 0.0000 -3.2719 0.0000
# 3 100.8274 46.9371 182.4124 0.0000 -21.1170 0.0000
# 4 0.0000 0.0000 0.0000 30.5295 0.0000 15.0077
# 5 -17.5731 -3.2719 -21.1170 0.0000 47.9961 0.0000
# 6 0.0000 0.0000 0.0000 15.0077 0.0000 68.0771
#
#
#
# Elastic Compliance Matrix: (Units=1/GPa)
#
#
# Indices 1 2 3 4 5 6 
#
# 1 0.008545 -0.002489 -0.003941 0.000000 0.001225 0.000000
# 2 -0.002489 0.013450 -0.002196 0.000000 -0.000961 0.000000
# 3 -0.003941 -0.002196 0.008473 0.000000 0.002135 0.000000
# 4 0.000000 0.000000 0.000000 0.036736 0.000000 -0.008099
# 5 0.001225 -0.000961 0.002135 0.000000 0.022157 0.000000
# 6 0.000000 0.000000 0.000000 -0.008099 0.000000 0.016475
#
#
# Mechanical properties :
#
#
# Convention : Reuss Voigt Hill
#
# Bulk Modulus (GPa) = 75.67188 94.00197 84.83693
# Shear Modulus (GPa) = 39.21805 46.45753 42.83779
#
# Velocity S-wave (km/s) = 4.43178 4.82351 4.63179
# Velocity P-wave (km/s) = 8.00528 8.83733 8.43158
#
# Compressibility (1/GPa) = 0.01321495
#
# Stress axis : x y z
#
# Youngs Moduli (GPa) = 117.03040 74.35199 118.02725
#
# Poissons Ratio (x) = 0.18506 0.46512
# Poissons Ratio (y) = 0.29129 0.25921
# Poissons Ratio (z) = 0.46119 0.16329
#
# Static dielectric constant tensor:
#      x y z
#    x 3.813090 0.000000 -0.220480 
#    y 0.000000 3.522740 0.000000 
#    z -0.220480 0.000000 3.842110 
# 
# 
# High freq. dielectric constant tensor:
#      x y z
#    x 1.797950 0.000000 -0.008290 
#    y 0.000000 1.753470 0.000000 
#    z -0.008290 0.000000 1.801780 
# 
# From -- ./inp_files/81689.got.cif
#   From: 2010.06.25/outbox.cif.g09.slc.cpg/sg12_41_cif.got.tgz:81689.got - 2010.06.28 00:19:55.
