data_PCOD8109319
_publ_section_title
;
Structure prediction by ZEFSAII (Michael W. Deem and Ramdas Pophale) SiO2 
 PCOD8109319
Probable space group: C 2/M
;
_chemical_formula_sum "Si O2"
_cell_formula_units_Z 48
_cell_length_a 28.414853
_cell_length_b 8.695917
_cell_length_c 9.833613
_cell_angle_alpha 90.000000
_cell_angle_beta 79.974729
_cell_angle_gamma 90.000000
_cell_volume 2392.718195
_symmetry_space_group_name_H-M "C 2/M"
_symmetry_group_IT_number 12
_symmetry_cell_setting 'monoclinic'
loop_
_space_group_symop_operation_xyz
x,y,z
-x,y,-z
-x,-y,-z
x,-y,z
1/2+x,1/2+y,z
1/2-x,1/2+y,-z
1/2-x,1/2-y,-z
1/2+x,1/2-y,z
loop_
_atom_site_type_symbol
_atom_site_label
_atom_site_fract_x
_atom_site_fract_y
_atom_site_fract_z
Si Si1 0.941839 0.680071 0.413380
Si Si2 0.387033 0.321716 0.953930
Si Si3 0.738745 0.680758 0.650460
Si Si4 0.361939 0.178755 0.240138
Si Si5 0.541320 0.680415 0.314399
Si Si6 0.286223 0.320372 0.875160
O O1 0.953268 0.500000 0.401625
O O2 0.894803 0.721910 0.351867
O O3 0.933666 0.731676 0.572673
O O4 0.986437 0.770339 0.326060
O O5 0.388377 0.500000 0.995211
O O6 0.389924 0.220189 0.088145
O O7 0.431959 0.275937 0.838087
O O8 0.339706 0.282919 0.893113
O O9 0.743479 0.500000 0.640171
O O10 0.750000 0.750000 0.500000
O O11 0.686185 0.723330 0.729056
O O12 0.778586 0.744014 0.732794
O O13 0.348463 0.000000 0.247439
O O14 0.544995 0.500000 0.342625
O O15 0.276120 0.500000 0.869232
O O16 0.250000 0.250000 0.000000
#
# Coordination Sequence:
#
# PCOD8109319 Si02
#       6
#     8   8   8   8   8   8
#     4  10  22  40  61  89 122 156 197 249 305 359
#     4  10  23  40  61  90 122 159 203 247 298 359
#     4  12  26  43  63  90 124 162 205 253 304 359
#     4  11  24  41  62  90 122 159 204 249 304 363
#     4  10  21  39  63  91 118 156 203 244 299 364
#     4  11  22  40  63  91 124 162 204 247 299 357
#
# _framework density 20.060866000000001
#
# number of rings (size 3 to 8) (size 9 to 14) (size 15 to 20)
#    0.000    1.333    1.667    4.500    2.333    5.333 
#    0.000    3.333    0.000    0.000    0.000    0.000 
#    0.000    0.000    0.000    0.000    0.000    0.000 
#
# Total GULP energy -297745.512052 kJ/mol
# GULP energy per Si atom -12406.063002 kJ/mol
# Density = 2.001521 g / cm^3
# Si number density = 20.060866 Si / 1000 Ang^3
#
#
#
# Elastic Constant Matrix: (Units=GPa)
#
#
# Indices 1 2 3 4 5 6 
#
# 1 43.1559 18.0183 8.6936 0.0000 1.8881 0.0000
# 2 18.0183 90.7584 29.1565 0.0000 7.8390 0.0000
# 3 8.6936 29.1565 97.1474 0.0000 -0.9505 0.0000
# 4 0.0000 0.0000 0.0000 39.1579 0.0000 -0.2636
# 5 1.8881 7.8390 -0.9505 0.0000 38.7648 0.0000
# 6 0.0000 0.0000 0.0000 -0.2636 0.0000 29.1104
#
#
#
# Elastic Compliance Matrix: (Units=1/GPa)
#
#
# Indices 1 2 3 4 5 6 
#
# 1 0.025331 -0.004730 -0.000850 0.000000 -0.000298 0.000000
# 2 -0.004730 0.013336 -0.003604 0.000000 -0.002555 0.000000
# 3 -0.000850 -0.003604 0.011462 0.000000 0.001051 0.000000
# 4 0.000000 0.000000 0.000000 0.025539 0.000000 0.000231
# 5 -0.000298 -0.002555 0.001051 0.000000 0.026354 0.000000
# 6 0.000000 0.000000 0.000000 0.000231 0.000000 0.034354
#
#
# Mechanical properties :
#
#
# Convention : Reuss Voigt Hill
#
# Bulk Modulus (GPa) = 31.48635 38.08871 34.78753
# Shear Modulus (GPa) = 30.24242 33.08618 31.66430
#
# Velocity S-wave (km/s) = 3.88691 4.06555 3.97723
# Velocity P-wave (km/s) = 5.98945 6.40828 6.20240
#
# Compressibility (1/GPa) = 0.03175980
#
# Stress axis : x y z
#
# Youngs Moduli (GPa) = 39.47730 74.98588 87.24711
#
# Poissons Ratio (x) = 0.35469 0.07417
# Poissons Ratio (y) = 0.18673 0.31445
# Poissons Ratio (z) = 0.03356 0.27026
#
# Static dielectric constant tensor:
#      x y z
#    x 3.545780 0.000000 0.069840 
#    y 0.000000 3.766550 0.000000 
#    z 0.069840 0.000000 3.806850 
# 
# 
# High freq. dielectric constant tensor:
#      x y z
#    x 1.783810 0.000000 0.001730 
#    y 0.000000 1.794220 0.000000 
#    z 0.001730 0.000000 1.794020 
# 
# From -- ./inp_files/108695.got.cif
#   From: 2010.06.25/outbox.cif.g09.slc.cpg/sg12_55_cif.got.tgz:108695.got - 2010.06.28 00:19:55.
