data_PCOD8109235
_publ_section_title
;
Structure prediction by ZEFSAII (Michael W. Deem and Ramdas Pophale) SiO2 
 PCOD8109235
Probable space group: C 2/M
;
_chemical_formula_sum "Si O2"
_cell_formula_units_Z 56
_cell_length_a 14.667925
_cell_length_b 17.382172
_cell_length_c 10.966717
_cell_angle_alpha 90.000000
_cell_angle_beta 110.552674
_cell_angle_gamma 90.000000
_cell_volume 2618.107645
_symmetry_space_group_name_H-M "C 2/M"
_symmetry_group_IT_number 12
_symmetry_cell_setting 'monoclinic'
loop_
_space_group_symop_operation_xyz
x,y,z
-x,y,-z
-x,-y,-z
x,-y,z
1/2+x,1/2+y,z
1/2-x,1/2+y,-z
1/2-x,1/2-y,-z
1/2+x,1/2-y,z
loop_
_atom_site_type_symbol
_atom_site_label
_atom_site_fract_x
_atom_site_fract_y
_atom_site_fract_z
Si Si1 0.751457 0.413398 0.101986
Si Si2 0.383916 0.161267 0.336477
Si Si3 0.425246 0.334883 0.356130
Si Si4 0.226177 0.412034 0.262566
Si Si5 0.071421 0.587996 0.388801
Si Si6 0.572851 0.678746 0.921841
Si Si7 0.895445 0.351791 0.998185
O O1 0.721240 0.500000 0.121932
O O2 0.778696 0.363960 0.234234
O O3 0.666613 0.374312 0.984319
O O4 0.851740 0.413289 0.071983
O O5 0.381029 0.251229 0.362270
O O6 0.479738 0.140059 0.297703
O O7 0.399657 0.111100 0.462596
O O8 0.500000 0.354916 0.500000
O O9 0.340081 0.396615 0.332504
O O10 0.467690 0.338897 0.235217
O O11 0.212870 0.500000 0.210075
O O12 0.169510 0.397788 0.360697
O O13 0.179947 0.350252 0.148889
O O14 0.037441 0.500000 0.367475
O O15 0.500000 0.659817 0.000000
O O16 0.602785 0.767870 0.939162
O O17 0.000000 0.380206 0.000000
#
# Coordination Sequence:
#
# PCOD8109235 Si02
#       7
#     8   8   8   8   8   8   8
#     4  12  23  39  66  96 130 170 213 268 336 396
#     4  11  21  39  63  97 131 169 215 261 331 400
#     4  12  25  45  68  92 129 179 229 273 325 383
#     4  11  25  42  64  98 133 169 217 271 329 393
#     4  10  21  39  62  96 138 169 204 264 329 401
#     4  11  26  45  66  95 133 174 227 282 323 386
#     4  11  22  39  68  96 131 164 208 265 336 395
#
# _framework density 21.389496000000001
#
# number of rings (size 3 to 8) (size 9 to 14) (size 15 to 20)
#    0.000    0.857    4.286    4.286    2.000    4.571 
#    0.000    0.000    0.000    0.000    0.000    0.000 
#    0.000    0.000    0.000    0.000    0.000    0.000 
#
# Total GULP energy -347041.809139 kJ/mol
# GULP energy per Si atom -12394.350326 kJ/mol
# Density = 2.134081 g / cm^3
# Si number density = 21.389496 Si / 1000 Ang^3
#
#
#
# Elastic Constant Matrix: (Units=GPa)
#
#
# Indices 1 2 3 4 5 6 
#
# 1 88.5015 31.2978 39.2118 0.0000 -4.5568 0.0000
# 2 31.2978 56.6390 14.5906 0.0000 5.1348 0.0000
# 3 39.2118 14.5906 139.9438 0.0000 16.3129 0.0000
# 4 0.0000 0.0000 0.0000 26.2192 0.0000 4.3955
# 5 -4.5568 5.1348 16.3129 0.0000 30.6849 0.0000
# 6 0.0000 0.0000 0.0000 4.3955 0.0000 23.7619
#
#
#
# Elastic Compliance Matrix: (Units=1/GPa)
#
#
# Indices 1 2 3 4 5 6 
#
# 1 0.016672 -0.008624 -0.004508 0.000000 0.006316 0.000000
# 2 -0.008624 0.022740 0.000680 0.000000 -0.005448 0.000000
# 3 -0.004508 0.000680 0.008986 0.000000 -0.005561 0.000000
# 4 0.000000 0.000000 0.000000 0.039361 0.000000 -0.007281
# 5 0.006316 -0.005448 -0.005561 0.000000 0.037395 0.000000
# 6 0.000000 0.000000 0.000000 -0.007281 0.000000 0.043431
#
#
# Mechanical properties :
#
#
# Convention : Reuss Voigt Hill
#
# Bulk Modulus (GPa) = 42.56359 50.58716 46.57538
# Shear Modulus (GPa) = 24.83624 29.46546 27.15085
#
# Velocity S-wave (km/s) = 3.41125 3.71559 3.56667
# Velocity P-wave (km/s) = 5.95466 6.48916 6.22765
#
# Compressibility (1/GPa) = 0.02349426
#
# Stress axis : x y z
#
# Youngs Moduli (GPa) = 59.98220 43.97628 111.28149
#
# Poissons Ratio (x) = 0.37923 0.50170
# Poissons Ratio (y) = 0.51726 -0.07573
# Poissons Ratio (z) = 0.27043 -0.02993
#
# Static dielectric constant tensor:
#      x y z
#    x 4.039740 0.000000 -0.047150 
#    y 0.000000 3.752240 0.000000 
#    z -0.047150 0.000000 4.186360 
# 
# 
# High freq. dielectric constant tensor:
#      x y z
#    x 1.827070 0.000000 -0.004870 
#    y 0.000000 1.832780 0.000000 
#    z -0.004870 0.000000 1.854360 
# 
# From -- ./inp_files/146253.got.cif
#   From: 2010.06.25/outbox.cif.g09.slc.cpg/sg12_74_cif.got.tgz:146253.got - 2010.06.28 00:19:55.
