data_PCOD8109921
_publ_section_title
;
Structure prediction by ZEFSAII (Michael W. Deem and Ramdas Pophale) SiO2 
 PCOD8109921
Probable space group: C 2/M
;
_chemical_formula_sum "Si O2"
_cell_formula_units_Z 48
_cell_length_a 17.380931
_cell_length_b 17.449965
_cell_length_c 14.684423
_cell_angle_alpha 90.000000
_cell_angle_beta 28.800073
_cell_angle_gamma 90.000000
_cell_volume 2145.608712
_symmetry_space_group_name_H-M "C 2/M"
_symmetry_group_IT_number 12
_symmetry_cell_setting 'monoclinic'
loop_
_space_group_symop_operation_xyz
x,y,z
-x,y,-z
-x,-y,-z
x,-y,z
1/2+x,1/2+y,z
1/2-x,1/2+y,-z
1/2-x,1/2-y,-z
1/2+x,1/2-y,z
loop_
_atom_site_type_symbol
_atom_site_label
_atom_site_fract_x
_atom_site_fract_y
_atom_site_fract_z
Si Si1 0.245914 0.338732 0.573735
Si Si2 0.127556 0.675101 0.000983
Si Si3 0.672495 0.586161 0.342503
Si Si4 0.853805 0.324806 0.511025
Si Si5 0.662686 0.337595 0.886949
Si Si6 0.672454 0.089459 0.132287
O O1 0.303551 0.410827 0.573095
O O2 0.262119 0.358277 0.449467
O O3 0.356506 0.266539 0.488066
O O4 0.060969 0.322794 0.788543
O O5 0.218338 0.632929 0.990701
O O6 0.180158 0.630799 0.855389
O O7 0.181852 0.761850 0.928582
O O8 0.500000 0.623446 0.500000
O O9 0.676761 0.500000 0.302269
O O10 0.797631 0.342072 0.670388
O O11 0.023454 0.365319 0.329012
O O12 0.687974 0.404815 0.935710
O O13 0.500000 0.344837 0.000000
O O14 0.635597 0.000000 0.150619
#
# Coordination Sequence:
#
# PCOD8109921 Si02
#       6
#     8   8   8   8   8   8
#     4  10  21  40  64  96 128 171 226 276 335 394
#     4  11  22  44  70  97 133 173 230 282 330 400
#     4  11  24  38  61  99 139 177 218 271 339 404
#     4  10  22  40  66  95 128 168 227 281 321 402
#     4  12  23  41  68 103 132 174 229 280 334 395
#     4  11  27  45  67  99 136 185 226 273 340 401
#
# _framework density 22.371274
#
# number of rings (size 3 to 8) (size 9 to 14) (size 15 to 20)
#    0.000    1.167    3.333    2.000    2.333    7.000 
#    0.000    0.000    0.000    0.000    0.000    0.000 
#    0.000    0.000    0.000    0.000    0.000    0.000 
#
# Total GULP energy -297419.879177 kJ/mol
# GULP energy per Si atom -12392.494966 kJ/mol
# Density = 2.232036 g / cm^3
# Si number density = 22.371274 Si / 1000 Ang^3
#
#
#
# Elastic Constant Matrix: (Units=GPa)
#
#
# Indices 1 2 3 4 5 6 
#
# 1 142.8715 44.1276 24.3330 0.0029 17.9979 0.0015
# 2 44.1276 80.8042 38.3433 0.0133 -4.5569 -0.0113
# 3 24.3330 38.3433 56.2371 0.0133 8.6709 -0.0170
# 4 0.0029 0.0133 0.0133 16.8097 -0.0044 4.3314
# 5 17.9979 -4.5569 8.6709 -0.0044 20.0843 0.0061
# 6 0.0015 -0.0113 -0.0170 4.3314 0.0061 33.2272
#
#
#
# Elastic Compliance Matrix: (Units=1/GPa)
#
#
# Indices 1 2 3 4 5 6 
#
# 1 0.010448 -0.007597 0.002537 -0.000001 -0.012182 0.000001
# 2 -0.007597 0.026009 -0.017576 0.000001 0.020296 -0.000004
# 3 0.002537 -0.017576 0.031746 -0.000021 -0.019967 0.000017
# 4 -0.000001 0.000001 -0.000021 0.061557 0.000026 -0.008024
# 5 -0.012182 0.020296 -0.019967 0.000026 0.073932 -0.000020
# 6 0.000001 -0.000004 0.000017 -0.008024 -0.000020 0.031142
#
#
# Mechanical properties :
#
#
# Convention : Reuss Voigt Hill
#
# Bulk Modulus (GPa) = 43.60648 54.83564 49.22106
# Shear Modulus (GPa) = 17.37634 25.56483 21.47059
#
# Velocity S-wave (km/s) = 2.79000 3.38413 3.10133
# Velocity P-wave (km/s) = 5.46931 6.31147 5.90542
#
# Compressibility (1/GPa) = 0.02293237
#
# Stress axis : x y z
#
# Youngs Moduli (GPa) = 95.71169 38.44874 31.49998
#
# Poissons Ratio (x) = 0.29208 -0.07991
# Poissons Ratio (y) = 0.72707 0.55363
# Poissons Ratio (z) = -0.24281 0.67576
#
# Static dielectric constant tensor:
#      x y z
#    x 4.417450 0.000000 0.312370 
#    y 0.000000 3.783010 0.000000 
#    z 0.312370 0.000000 4.053460 
# 
# 
# High freq. dielectric constant tensor:
#      x y z
#    x 1.903500 0.000000 0.014700 
#    y 0.000000 1.855080 0.000000 
#    z 0.014700 0.000000 1.875440 
# 
# From -- ./inp_files/226724.got.cif
#   From: 2010.06.25/outbox.cif.g09.slc.cpg/sg12_114_cif.got.tgz:226724.got - 2010.06.28 00:19:55.
