data_PCOD8109472
_publ_section_title
;
Structure prediction by ZEFSAII (Michael W. Deem and Ramdas Pophale) SiO2 
 PCOD8109472
Probable space group: C 2/M
;
_chemical_formula_sum "Si O2"
_cell_formula_units_Z 64
_cell_length_a 19.810569
_cell_length_b 8.842395
_cell_length_c 30.701232
_cell_angle_alpha 90.000000
_cell_angle_beta 143.000970
_cell_angle_gamma 90.000000
_cell_volume 3236.502390
_symmetry_space_group_name_H-M "C 2/M"
_symmetry_group_IT_number 12
_symmetry_cell_setting 'monoclinic'
loop_
_space_group_symop_operation_xyz
x,y,z
-x,y,-z
-x,-y,-z
x,-y,z
1/2+x,1/2+y,z
1/2-x,1/2+y,-z
1/2-x,1/2-y,-z
1/2+x,1/2-y,z
loop_
_atom_site_type_symbol
_atom_site_label
_atom_site_fract_x
_atom_site_fract_y
_atom_site_fract_z
Si Si1 0.419973 0.675459 0.089189
Si Si2 0.670112 0.676554 0.196105
Si Si3 0.266834 0.175294 0.077368
Si Si4 0.181336 0.676131 0.643814
Si Si5 0.253498 0.823922 0.595797
Si Si6 0.797591 0.178315 0.183342
Si Si7 0.471654 0.323330 0.569884
Si Si8 0.016065 0.677397 0.330850
O O1 0.417409 0.500000 0.101166
O O2 0.544656 0.730250 0.142253
O O3 0.377090 0.770172 0.108377
O O4 0.343384 0.707410 0.007861
O O5 0.673500 0.500000 0.186293
O O6 0.747886 0.715410 0.277017
O O7 0.712745 0.768290 0.176774
O O8 0.249682 0.268018 0.112560
O O9 0.281518 0.000000 0.096259
O O10 0.152480 0.500000 0.625958
O O11 0.253354 0.725532 0.639334
O O12 0.066425 0.772006 0.584472
O O13 0.148680 0.781124 0.511542
O O14 0.363745 0.777543 0.626240
O O15 0.252188 0.000000 0.607627
O O16 0.921566 0.244740 0.253179
O O17 0.805510 0.000000 0.188517
O O18 0.482366 0.500000 0.585383
O O19 0.492158 0.230661 0.624055
O O20 0.994147 0.500000 0.318576
#
# Coordination Sequence:
#
# PCOD8109472 Si02
#       8
#     8   8   8   8   8   8   8   8
#     4   9  20  40  65  93 125 160 198 241 293 351
#     4  10  22  41  62  87 121 159 201 247 296 351
#     4  10  21  39  64  93 126 161 196 242 294 348
#     4  11  23  38  60  89 121 158 200 247 295 350
#     4  10  24  41  60  87 120 156 198 248 300 357
#     4  12  25  40  61  88 121 161 202 247 297 353
#     4  11  22  40  63  87 119 158 197 244 301 357
#     4  11  23  41  62  88 120 155 199 249 300 356
#
# _framework density 19.774432999999998
#
# number of rings (size 3 to 8) (size 9 to 14) (size 15 to 20)
#    0.000    1.500    1.250    3.375    1.750    5.500 
#    0.000    2.500    0.000    0.000    0.000    0.000 
#    0.000    0.000    0.000    0.000    0.000    0.000 
#
# Total GULP energy -397035.645373 kJ/mol
# GULP energy per Si atom -12407.363918 kJ/mol
# Density = 1.972943 g / cm^3
# Si number density = 19.774433 Si / 1000 Ang^3
#
#
#
# Elastic Constant Matrix: (Units=GPa)
#
#
# Indices 1 2 3 4 5 6 
#
# 1 81.5081 38.9194 43.2717 0.0000 4.9896 0.0000
# 2 38.9194 84.2501 37.8081 0.0002 -0.2556 -0.0001
# 3 43.2717 37.8081 67.5170 0.0000 13.1038 0.0000
# 4 0.0000 0.0002 0.0000 30.9571 0.0000 -4.0342
# 5 4.9896 -0.2556 13.1038 0.0000 41.4068 0.0000
# 6 0.0000 -0.0001 0.0000 -4.0342 0.0000 39.4002
#
#
#
# Elastic Compliance Matrix: (Units=1/GPa)
#
#
# Indices 1 2 3 4 5 6 
#
# 1 0.019887 -0.004527 -0.010377 0.000000 0.000860 0.000000
# 2 -0.004527 0.017266 -0.007345 0.000000 0.002976 0.000000
# 3 -0.010377 -0.007345 0.026999 0.000000 -0.007339 0.000000
# 4 0.000000 0.000000 0.000000 0.032740 0.000000 0.003352
# 5 0.000860 0.002976 -0.007339 0.000000 0.026388 0.000000
# 6 0.000000 0.000000 0.000000 0.003352 0.000000 0.025724
#
#
# Mechanical properties :
#
#
# Convention : Reuss Voigt Hill
#
# Bulk Modulus (GPa) = 50.88133 52.58594 51.73364
# Shear Modulus (GPa) = 24.99341 29.90456 27.44899
#
# Velocity S-wave (km/s) = 3.55903 3.89303 3.72977
# Velocity P-wave (km/s) = 6.53266 6.84530 6.69081
#
# Compressibility (1/GPa) = 0.01965358
#
# Stress axis : x y z
#
# Youngs Moduli (GPa) = 50.28408 57.91792 37.03837
#
# Poissons Ratio (x) = 0.26221 0.38436
# Poissons Ratio (y) = 0.22765 0.27203
# Poissons Ratio (z) = 0.52181 0.42538
#
# Static dielectric constant tensor:
#      x y z
#    x 3.676140 0.000000 0.079020 
#    y 0.000000 3.586700 0.000000 
#    z 0.079020 0.000000 3.680830 
# 
# 
# High freq. dielectric constant tensor:
#      x y z
#    x 1.782210 0.000000 0.001690 
#    y 0.000000 1.774940 0.000000 
#    z 0.001690 0.000000 1.777750 
# 
# From -- ./inp_files/378280.got.cif
#   From: 2010.06.25/outbox.cif.g09.slc.cpg/sg12_190_cif.got.tgz:378280.got - 2010.06.28 00:19:55.
