data_PCOD8109484
_publ_section_title
;
Structure prediction by ZEFSAII (Michael W. Deem and Ramdas Pophale) SiO2 
 PCOD8109484
Probable space group: C 2/M
;
_chemical_formula_sum "Si O2"
_cell_formula_units_Z 56
_cell_length_a 9.441574
_cell_length_b 26.784930
_cell_length_c 12.102063
_cell_angle_alpha 90.000000
_cell_angle_beta 112.213313
_cell_angle_gamma 90.000000
_cell_volume 2833.370830
_symmetry_space_group_name_H-M "C 2/M"
_symmetry_group_IT_number 12
_symmetry_cell_setting 'monoclinic'
loop_
_space_group_symop_operation_xyz
x,y,z
-x,y,-z
-x,-y,-z
x,-y,z
1/2+x,1/2+y,z
1/2-x,1/2+y,-z
1/2-x,1/2-y,-z
1/2+x,1/2-y,z
loop_
_atom_site_type_symbol
_atom_site_label
_atom_site_fract_x
_atom_site_fract_y
_atom_site_fract_z
Si Si1 0.175805 0.851158 0.765858
Si Si2 0.648006 0.689415 0.360263
Si Si3 0.026050 0.556692 0.380093
Si Si4 0.835532 0.695727 0.621945
Si Si5 0.133010 0.349822 0.744111
Si Si6 0.641922 0.556937 0.619139
Si Si7 0.835587 0.697450 0.008220
O O1 0.314042 0.834754 0.728133
O O2 0.139861 0.909388 0.730183
O O3 0.229670 0.840269 0.905849
O O4 0.032964 0.816585 0.690445
O O5 0.721722 0.672142 0.497629
O O6 0.694438 0.746879 0.360542
O O7 0.708470 0.657206 0.274601
O O8 0.975824 0.500000 0.339712
O O9 0.203840 0.565164 0.405070
O O10 0.000000 0.570201 0.500000
O O11 0.919230 0.592319 0.273808
O O12 0.010859 0.684518 0.640573
O O13 0.147961 0.331107 0.872605
O O14 0.500000 0.572514 0.500000
O O15 0.625216 0.500000 0.654484
O O16 0.750000 0.750000 0.000000
O O17 0.000000 0.707437 0.000000
#
# Coordination Sequence:
#
# PCOD8109484 Si02
#       7
#     8   8   8   8   8   8   8
#     4  12  24  39  61  89 125 165 208 255 308 364
#     4  11  24  35  60  90 123 161 199 256 316 384
#     4  10  21  39  64  94 125 160 205 258 318 377
#     4  11  20  39  58  88 123 157 203 250 320 370
#     4  12  24  39  61  89 125 165 208 255 308 364
#     4  10  21  39  64  94 125 160 205 258 318 377
#     4  12  26  44  65  87 124 172 219 256 298 366
#
# _framework density 19.764446
#
# number of rings (size 3 to 8) (size 9 to 14) (size 15 to 20)
#    0.000    0.857    2.857    5.143    4.000    2.286 
#    0.000    0.714    0.000    2.571    0.000    2.000 
#    0.000    0.000    0.000    0.000    0.000    0.000 
#
# Total GULP energy -347233.614265 kJ/mol
# GULP energy per Si atom -12401.200509 kJ/mol
# Density = 1.971946 g / cm^3
# Si number density = 19.764446 Si / 1000 Ang^3
#
#
#
# Elastic Constant Matrix: (Units=GPa)
#
#
# Indices 1 2 3 4 5 6 
#
# 1 71.6464 38.4175 32.9750 0.0000 -0.6193 0.0000
# 2 38.4175 134.4621 67.9129 0.0000 0.7928 0.0000
# 3 32.9750 67.9129 125.9963 0.0000 5.0530 0.0000
# 4 0.0000 0.0000 0.0000 34.1267 0.0000 0.6940
# 5 -0.6193 0.7928 5.0530 0.0000 26.8247 0.0000
# 6 0.0000 0.0000 0.0000 0.6940 0.0000 27.7920
#
#
#
# Elastic Compliance Matrix: (Units=1/GPa)
#
#
# Indices 1 2 3 4 5 6 
#
# 1 0.017073 -0.003582 -0.002577 0.000000 0.000985 0.000000
# 2 -0.003582 0.010985 -0.005005 0.000000 0.000535 0.000000
# 3 -0.002577 -0.005005 0.011391 0.000000 -0.002057 0.000000
# 4 0.000000 0.000000 0.000000 0.029317 0.000000 -0.000732
# 5 0.000985 0.000535 -0.002057 0.000000 0.037674 0.000000
# 6 0.000000 0.000000 0.000000 -0.000732 0.000000 0.036000
#
#
# Mechanical properties :
#
#
# Convention : Reuss Voigt Hill
#
# Bulk Modulus (GPa) = 58.40736 67.85729 63.13232
# Shear Modulus (GPa) = 29.32968 30.60197 29.96582
#
# Velocity S-wave (km/s) = 3.85640 3.93916 3.89800
# Velocity P-wave (km/s) = 7.03171 7.42272 7.22986
#
# Compressibility (1/GPa) = 0.01712113
#
# Stress axis : x y z
#
# Youngs Moduli (GPa) = 58.57281 91.03061 87.78515
#
# Poissons Ratio (x) = 0.32609 0.22621
# Poissons Ratio (y) = 0.20982 0.43938
# Poissons Ratio (z) = 0.15093 0.45562
#
# Static dielectric constant tensor:
#      x y z
#    x 3.681320 0.000000 0.036050 
#    y 0.000000 3.712620 0.000000 
#    z 0.036050 0.000000 3.522820 
# 
# 
# High freq. dielectric constant tensor:
#      x y z
#    x 1.784870 0.000000 0.002960 
#    y 0.000000 1.771890 0.000000 
#    z 0.002960 0.000000 1.752140 
# 
# From -- ./inp_files/124328.got.cif
#   From: 2010.06.25/outbox.cif.g09.slc.cpg/sg12_63_cif.got.tgz:124328.got - 2010.06.28 00:19:55.
