data_PCOD8109284
_publ_section_title
;
Structure prediction by ZEFSAII (Michael W. Deem and Ramdas Pophale) SiO2 
 PCOD8109284
Probable space group: C 2/M
;
_chemical_formula_sum "Si O2"
_cell_formula_units_Z 48
_cell_length_a 9.447598
_cell_length_b 16.308025
_cell_length_c 14.271617
_cell_angle_alpha 90.000000
_cell_angle_beta 90.133736
_cell_angle_gamma 90.000000
_cell_volume 2198.845795
_symmetry_space_group_name_H-M "C 2/M"
_symmetry_group_IT_number 12
_symmetry_cell_setting 'monoclinic'
loop_
_space_group_symop_operation_xyz
x,y,z
-x,y,-z
-x,-y,-z
x,-y,z
1/2+x,1/2+y,z
1/2-x,1/2+y,-z
1/2-x,1/2-y,-z
1/2+x,1/2-y,z
loop_
_atom_site_type_symbol
_atom_site_label
_atom_site_fract_x
_atom_site_fract_y
_atom_site_fract_z
Si Si1 0.880868 0.405631 0.425343
Si Si2 0.883534 0.093916 0.285390
Si Si3 0.915682 0.662404 0.713106
Si Si4 0.411826 0.407142 0.082278
Si Si5 0.089667 0.593683 0.087271
Si Si6 0.085634 0.179344 0.409216
O O1 0.834204 0.500000 0.438400
O O2 0.744641 0.346666 0.436668
O O3 0.000000 0.378670 0.500000
O O4 0.954438 0.392362 0.325293
O O5 0.736916 0.131442 0.322699
O O6 0.930943 0.134055 0.185530
O O7 0.003383 0.101674 0.364795
O O8 0.848640 0.000000 0.265099
O O9 0.930789 0.655234 0.825178
O O10 0.926282 0.754218 0.673593
O O11 0.469735 0.500000 0.089198
O O12 0.249460 0.404020 0.052008
O O13 0.500000 0.360906 0.000000
O O14 0.046857 0.500000 0.114825
O O15 0.000000 0.627090 0.000000
O O16 0.000000 0.210746 0.500000
#
# Coordination Sequence:
#
# PCOD8109284 Si02
#       6
#     8   8   8   8   8   8
#     4  11  24  41  64  92 120 157 209 263 309 362
#     4  10  21  39  63  89 120 162 209 254 301 359
#     4  11  22  40  62  89 125 161 200 248 307 370
#     4   8  15  30  54  84 116 150 190 238 292 349
#     4   9  18  34  60  92 123 158 201 249 299 353
#     4  12  26  42  61  88 123 162 203 253 317 375
#
# _framework density 21.829633999999999
#
# number of rings (size 3 to 8) (size 9 to 14) (size 15 to 20)
#    0.000    1.833    0.000    5.500    0.000    6.000 
#    0.000    4.167    0.000    5.000    0.000    0.000 
#    0.000    0.000    0.000    0.000    0.000    0.000 
#
# Total GULP energy -297514.666174 kJ/mol
# GULP energy per Si atom -12396.444424 kJ/mol
# Density = 2.177995 g / cm^3
# Si number density = 21.829634 Si / 1000 Ang^3
#
#
#
# Elastic Constant Matrix: (Units=GPa)
#
#
# Indices 1 2 3 4 5 6 
#
# 1 125.9236 31.2869 75.1340 0.0000 -3.7011 0.0000
# 2 31.2869 67.1502 46.1126 0.0000 -3.6274 0.0000
# 3 75.1340 46.1126 126.2763 0.0000 -0.8101 0.0000
# 4 0.0000 0.0000 0.0000 28.4696 0.0000 3.5092
# 5 -3.7011 -3.6274 -0.8101 0.0000 48.7435 0.0000
# 6 0.0000 0.0000 0.0000 3.5092 0.0000 21.5190
#
#
#
# Elastic Compliance Matrix: (Units=1/GPa)
#
#
# Indices 1 2 3 4 5 6 
#
# 1 0.012385 -0.000898 -0.007036 0.000000 0.000757 0.000000
# 2 -0.000898 0.020032 -0.006773 0.000000 0.001310 0.000000
# 3 -0.007036 -0.006773 0.014574 0.000000 -0.000796 0.000000
# 4 0.000000 0.000000 0.000000 0.035846 0.000000 -0.005845
# 5 0.000757 0.001310 -0.000796 0.000000 0.020657 0.000000
# 6 0.000000 0.000000 0.000000 -0.005845 0.000000 0.047424
#
#
# Mechanical properties :
#
#
# Convention : Reuss Voigt Hill
#
# Bulk Modulus (GPa) = 56.89129 69.37971 63.13550
# Shear Modulus (GPa) = 26.85438 30.86754 28.86096
#
# Velocity S-wave (km/s) = 3.51120 3.76443 3.64001
# Velocity P-wave (km/s) = 6.52350 7.12361 6.83015
#
# Compressibility (1/GPa) = 0.01757738
#
# Stress axis : x y z
#
# Youngs Moduli (GPa) = 80.74343 49.92079 68.61642
#
# Poissons Ratio (x) = 0.04481 0.48281
# Poissons Ratio (y) = 0.07248 0.46471
# Poissons Ratio (z) = 0.56814 0.33809
#
# Static dielectric constant tensor:
#      x y z
#    x 3.910970 0.000000 -0.162410 
#    y 0.000000 3.560530 0.000000 
#    z -0.162410 0.000000 4.079730 
# 
# 
# High freq. dielectric constant tensor:
#      x y z
#    x 1.859400 0.000000 -0.005800 
#    y 0.000000 1.831720 0.000000 
#    z -0.005800 0.000000 1.867000 
# 
# From -- ./inp_files/195953.got.cif
#   From: 2010.06.25/outbox.cif.g09.slc.cpg/sg12_98_cif.got.tgz:195953.got - 2010.06.28 00:19:55.
