data_PCOD8109336
_publ_section_title
;
Structure prediction by ZEFSAII (Michael W. Deem and Ramdas Pophale) SiO2 
 PCOD8109336
Probable space group: C 2/M
;
_chemical_formula_sum "Si O2"
_cell_formula_units_Z 48
_cell_length_a 19.535855
_cell_length_b 24.598241
_cell_length_c 8.798706
_cell_angle_alpha 90.000000
_cell_angle_beta 146.689896
_cell_angle_gamma 90.000000
_cell_volume 2322.000166
_symmetry_space_group_name_H-M "C 2/M"
_symmetry_group_IT_number 12
_symmetry_cell_setting 'monoclinic'
loop_
_space_group_symop_operation_xyz
x,y,z
-x,y,-z
-x,-y,-z
x,-y,z
1/2+x,1/2+y,z
1/2-x,1/2+y,-z
1/2-x,1/2-y,-z
1/2+x,1/2-y,z
loop_
_atom_site_type_symbol
_atom_site_label
_atom_site_fract_x
_atom_site_fract_y
_atom_site_fract_z
Si Si1 0.638633 0.362903 0.195098
Si Si2 0.276108 0.061050 0.254974
Si Si3 0.024138 0.653023 0.368028
Si Si4 0.238137 0.649828 0.265006
Si Si5 0.777185 0.267384 0.378511
Si Si6 0.365079 0.560637 0.312487
O O1 0.659889 0.418702 0.143212
O O2 0.744479 0.357504 0.522169
O O3 0.668417 0.311739 0.136695
O O4 0.500000 0.359158 0.000000
O O5 0.394232 0.099053 0.497562
O O6 0.310526 0.000000 0.368846
O O7 0.237798 0.062934 0.009187
O O8 0.089045 0.705034 0.408254
O O9 0.000000 0.666744 0.500000
O O10 0.901117 0.637579 0.046399
O O11 0.269323 0.711581 0.266991
O O12 0.335091 0.606618 0.378217
O O13 0.750000 0.250000 0.500000
O O14 0.500000 0.574670 0.500000
O O15 0.364682 0.500000 0.385558
#
# Coordination Sequence:
#
# PCOD8109336 Si02
#       6
#     8   8   8   8   8   8
#     4  10  22  40  62  92 123 167 213 257 315 379
#     4  10  22  41  62  89 128 166 205 264 322 373
#     4  11  23  42  62  95 128 164 216 259 318 385
#     4  11  23  39  65  90 126 165 209 261 314 379
#     4   9  23  39  61  90 126 169 206 258 318 375
#     4  10  21  39  63  91 124 165 210 258 318 376
#
# _framework density 20.671832999999999
#
# number of rings (size 3 to 8) (size 9 to 14) (size 15 to 20)
#    0.000    1.833    1.667    1.000    4.667    8.667 
#    0.000    0.833    0.000    0.000    0.000    0.000 
#    0.000    0.000    0.000    0.000    0.000    0.000 
#
# Total GULP energy -297466.101528 kJ/mol
# GULP energy per Si atom -12394.420897 kJ/mol
# Density = 2.062478 g / cm^3
# Si number density = 20.671833 Si / 1000 Ang^3
#
#
#
# Elastic Constant Matrix: (Units=GPa)
#
#
# Indices 1 2 3 4 5 6 
#
# 1 93.8771 60.3952 9.8459 0.0000 14.5982 0.0000
# 2 60.3952 171.1677 20.7512 0.0000 13.0012 0.0000
# 3 9.8459 20.7512 68.4144 0.0000 11.3446 0.0000
# 4 0.0000 0.0000 0.0000 25.6368 0.0000 1.0524
# 5 14.5982 13.0012 11.3446 0.0000 30.8038 0.0000
# 6 0.0000 0.0000 0.0000 1.0524 0.0000 35.1154
#
#
#
# Elastic Compliance Matrix: (Units=1/GPa)
#
#
# Indices 1 2 3 4 5 6 
#
# 1 0.014452 -0.004747 0.000174 0.000000 -0.004909 0.000000
# 2 -0.004747 0.007743 -0.001594 0.000000 -0.000431 0.000000
# 3 0.000174 -0.001594 0.015952 0.000000 -0.005285 0.000000
# 4 0.000000 0.000000 0.000000 0.039054 0.000000 -0.001170
# 5 -0.004909 -0.000431 -0.005285 0.000000 0.036918 0.000000
# 6 0.000000 0.000000 0.000000 -0.001170 0.000000 0.028513
#
#
# Mechanical properties :
#
#
# Convention : Reuss Voigt Hill
#
# Bulk Modulus (GPa) = 38.74143 57.27153 48.00648
# Shear Modulus (GPa) = 30.56799 34.47567 32.52183
#
# Velocity S-wave (km/s) = 3.84959 4.08825 3.97072
# Velocity P-wave (km/s) = 6.20814 7.07463 6.65550
#
# Compressibility (1/GPa) = 0.02581216
#
# Stress axis : x y z
#
# Youngs Moduli (GPa) = 69.19686 129.14419 62.69003
#
# Poissons Ratio (x) = 0.61309 -0.01092
# Poissons Ratio (y) = 0.32850 0.09992
# Poissons Ratio (z) = -0.01205 0.20585
#
# Static dielectric constant tensor:
#      x y z
#    x 3.760040 0.000000 0.014060 
#    y 0.000000 4.346490 0.000000 
#    z 0.014060 0.000000 3.556820 
# 
# 
# High freq. dielectric constant tensor:
#      x y z
#    x 1.803200 0.000000 0.010740 
#    y 0.000000 1.828200 0.000000 
#    z 0.010740 0.000000 1.795420 
# 
# From -- ./inp_files/91273.got.cif
#   From: 2010.06.25/outbox.cif.g09.slc.cpg/sg12_46_cif.got.tgz:91273.got - 2010.06.28 00:19:55.
