data_PCOD8109960
_publ_section_title
;
Structure prediction by ZEFSAII (Michael W. Deem and Ramdas Pophale) SiO2 
 PCOD8109960
Probable space group: C 2/M
;
_chemical_formula_sum "Si O2"
_cell_formula_units_Z 56
_cell_length_a 16.020961
_cell_length_b 8.969340
_cell_length_c 19.765615
_cell_angle_alpha 90.000000
_cell_angle_beta 78.043892
_cell_angle_gamma 90.000000
_cell_volume 2778.653284
_symmetry_space_group_name_H-M "C 2/M"
_symmetry_group_IT_number 12
_symmetry_cell_setting 'monoclinic'
loop_
_space_group_symop_operation_xyz
x,y,z
-x,y,-z
-x,-y,-z
x,-y,z
1/2+x,1/2+y,z
1/2-x,1/2+y,-z
1/2-x,1/2-y,-z
1/2+x,1/2-y,z
loop_
_atom_site_type_symbol
_atom_site_label
_atom_site_fract_x
_atom_site_fract_y
_atom_site_fract_z
Si Si1 0.257000 0.329845 0.797458
Si Si2 0.510394 0.831126 0.074497
Si Si3 0.137774 0.172332 0.348922
Si Si4 0.454346 0.325113 0.344993
Si Si5 0.229081 0.178011 0.574599
Si Si6 0.409395 0.325969 0.206219
Si Si7 0.292572 0.831360 0.930443
O O1 0.239289 0.500000 0.819928
O O2 0.337685 0.314516 0.734372
O O3 0.177804 0.263258 0.770011
O O4 0.267239 0.241947 0.864740
O O5 0.457529 0.722095 0.130695
O O6 0.607026 0.822765 0.080182
O O7 0.474804 0.000000 0.086558
O O8 0.500000 0.772523 0.000000
O O9 0.198910 0.272458 0.384339
O O10 0.039508 0.232843 0.369757
O O11 0.144933 0.000000 0.371558
O O12 0.451595 0.500000 0.355726
O O13 0.365151 0.260592 0.388966
O O14 0.464056 0.286697 0.263781
O O15 0.250000 0.250000 0.500000
O O16 0.230538 0.000000 0.569964
O O17 0.388424 0.500000 0.205479
O O18 0.259148 0.000000 0.935787
O O19 0.250000 0.750000 0.000000
#
# Coordination Sequence:
#
# PCOD8109960 Si02
#       7
#     8   8   8   8   8   8   8
#     4  11  22  37  60  88 122 158 202 256 310 370
#     4  10  22  39  56  80 116 155 197 251 314 368
#     4  10  21  40  65  92 122 164 211 252 307 373
#     4   9  20  39  63  90 124 163 203 252 308 371
#     4  11  23  42  65  92 129 165 205 257 312 372
#     4  11  21  37  62  89 118 156 206 253 307 371
#     4  11  23  38  58  84 118 158 203 254 312 374
#
# _framework density 20.153646999999999
#
# number of rings (size 3 to 8) (size 9 to 14) (size 15 to 20)
#    0.000    1.571    1.429    3.429    0.000    4.857 
#    0.000    5.714    0.000    0.000    0.000    0.000 
#    0.000    0.000    0.000    0.000    0.000    0.000 
#
# Total GULP energy -347188.866614 kJ/mol
# GULP energy per Si atom -12399.602379 kJ/mol
# Density = 2.010778 g / cm^3
# Si number density = 20.153647 Si / 1000 Ang^3
#
#
#
# Elastic Constant Matrix: (Units=GPa)
#
#
# Indices 1 2 3 4 5 6 
#
# 1 138.3596 45.3046 51.8164 0.0000 2.4046 0.0000
# 2 45.3046 100.4328 42.1215 0.0000 0.0218 0.0000
# 3 51.8164 42.1215 112.4970 0.0000 -2.8948 0.0000
# 4 0.0000 0.0000 0.0000 41.0574 0.0000 7.3204
# 5 2.4046 0.0218 -2.8948 0.0000 29.3088 0.0000
# 6 0.0000 0.0000 0.0000 7.3204 0.0000 34.1605
#
#
#
# Elastic Compliance Matrix: (Units=1/GPa)
#
#
# Indices 1 2 3 4 5 6 
#
# 1 0.009419 -0.002867 -0.003293 0.000000 -0.001096 0.000000
# 2 -0.002867 0.012691 -0.003434 0.000000 -0.000113 0.000000
# 3 -0.003293 -0.003434 0.011728 0.000000 0.001431 0.000000
# 4 0.000000 0.000000 0.000000 0.025324 0.000000 -0.005427
# 5 -0.001096 -0.000113 0.001431 0.000000 0.034351 0.000000
# 6 0.000000 0.000000 0.000000 -0.005427 0.000000 0.030437
#
#
# Mechanical properties :
#
#
# Convention : Reuss Voigt Hill
#
# Bulk Modulus (GPa) = 68.26213 69.97493 69.11853
# Shear Modulus (GPa) = 33.77922 35.04179 34.41051
#
# Velocity S-wave (km/s) = 4.09844 4.17433 4.13656
# Velocity P-wave (km/s) = 7.50604 7.61771 7.56208
#
# Compressibility (1/GPa) = 0.01464941
#
# Stress axis : x y z
#
# Youngs Moduli (GPa) = 106.17179 78.79871 85.26367
#
# Poissons Ratio (x) = 0.22595 0.28076
# Poissons Ratio (y) = 0.30444 0.29278
# Poissons Ratio (z) = 0.34961 0.27058
#
# Static dielectric constant tensor:
#      x y z
#    x 3.894920 0.000000 -0.104210 
#    y 0.000000 3.655410 0.000000 
#    z -0.104210 0.000000 3.646830 
# 
# 
# High freq. dielectric constant tensor:
#      x y z
#    x 1.801220 0.000000 0.001780 
#    y 0.000000 1.776690 0.000000 
#    z 0.001780 0.000000 1.792410 
# 
# From -- ./inp_files/308902.got.cif
#   From: 2010.06.25/outbox.cif.g09.slc.cpg/sg12_155_cif.got.tgz:308902.got - 2010.06.28 00:19:55.
