data_PCOD8109096
_publ_section_title
;
Structure prediction by ZEFSAII (Michael W. Deem and Ramdas Pophale) SiO2 
 PCOD8109096
Probable space group: C 2/M
;
_chemical_formula_sum "Si O2"
_cell_formula_units_Z 48
_cell_length_a 23.883862
_cell_length_b 8.634929
_cell_length_c 11.999228
_cell_angle_alpha 90.000000
_cell_angle_beta 102.594611
_cell_angle_gamma 90.000000
_cell_volume 2415.119006
_symmetry_space_group_name_H-M "C 2/M"
_symmetry_group_IT_number 12
_symmetry_cell_setting 'monoclinic'
loop_
_space_group_symop_operation_xyz
x,y,z
-x,y,-z
-x,-y,-z
x,-y,z
1/2+x,1/2+y,z
1/2-x,1/2+y,-z
1/2-x,1/2-y,-z
1/2+x,1/2-y,z
loop_
_atom_site_type_symbol
_atom_site_label
_atom_site_fract_x
_atom_site_fract_y
_atom_site_fract_z
Si Si1 0.161797 0.820513 0.156794
Si Si2 0.218466 0.820098 0.759794
Si Si3 0.856239 0.678960 0.086831
Si Si4 0.036450 0.322700 0.721061
Si Si5 0.584345 0.678226 0.330954
Si Si6 0.875591 0.678701 0.428955
O O1 0.223785 0.776964 0.231468
O O2 0.114720 0.779746 0.228770
O O3 0.160261 0.000000 0.123176
O O4 0.146197 0.718801 0.043280
O O5 0.189958 0.779581 0.865937
O O6 0.176805 0.780396 0.639273
O O7 0.233720 0.000000 0.764519
O O8 0.840519 0.500000 0.099555
O O9 0.920020 0.713246 0.159259
O O10 0.015147 0.500000 0.714886
O O11 0.067169 0.286110 0.617005
O O12 0.982858 0.210445 0.711646
O O13 0.593579 0.500000 0.367260
O O14 0.612606 0.782844 0.438327
O O15 0.858192 0.500000 0.407933
#
# Coordination Sequence:
#
# PCOD8109096 Si02
#       6
#     8   8   8   8   8   8
#     4  11  24  40  56  81 118 155 191 232 282 338
#     4  11  22  38  62  88 113 146 189 236 285 335
#     4  10  21  39  62  87 114 148 190 234 283 336
#     4   9  20  38  60  85 113 147 187 233 284 338
#     4  11  24  38  56  84 117 153 191 234 283 334
#     4  10  21  39  62  86 114 149 189 234 283 337
#
# _framework density 19.874797000000001
#
# number of rings (size 3 to 8) (size 9 to 14) (size 15 to 20)
#    0.000    1.667    0.000    5.500    0.000   10.000 
#    0.000    3.333    0.000    0.000    0.000    0.000 
#    0.000    0.000    0.000    0.000    0.000    0.000 
#
# Total GULP energy -297761.647380 kJ/mol
# GULP energy per Si atom -12406.735308 kJ/mol
# Density = 1.982956 g / cm^3
# Si number density = 19.874797 Si / 1000 Ang^3
#
#
#
# Elastic Constant Matrix: (Units=GPa)
#
#
# Indices 1 2 3 4 5 6 
#
# 1 40.7916 23.3475 32.0544 0.0000 1.1128 0.0000
# 2 23.3475 49.0086 26.9980 0.0000 -2.8493 0.0000
# 3 32.0544 26.9980 48.9832 0.0000 9.4410 0.0000
# 4 0.0000 0.0000 0.0000 34.2361 0.0000 3.3073
# 5 1.1128 -2.8493 9.4410 0.0000 18.9564 0.0000
# 6 0.0000 0.0000 0.0000 3.3073 0.0000 32.7594
#
#
#
# Elastic Compliance Matrix: (Units=1/GPa)
#
#
# Indices 1 2 3 4 5 6 
#
# 1 0.055681 -0.006055 -0.035724 0.000000 0.013613 0.000000
# 2 -0.006055 0.033614 -0.017264 0.000000 0.014006 0.000000
# 3 -0.035724 -0.017264 0.059075 0.000000 -0.029919 0.000000
# 4 0.000000 0.000000 0.000000 0.029497 0.000000 -0.002978
# 5 0.013613 0.014006 -0.029919 0.000000 0.068960 0.000000
# 6 0.000000 0.000000 0.000000 -0.002978 0.000000 0.030826
#
#
# Mechanical properties :
#
#
# Convention : Reuss Voigt Hill
#
# Bulk Modulus (GPa) = 33.02095 33.73146 33.37621
# Shear Modulus (GPa) = 12.32030 20.94927 16.63479
#
# Velocity S-wave (km/s) = 2.49247 3.25015 2.89620
# Velocity P-wave (km/s) = 4.99337 5.57615 5.29279
#
# Compressibility (1/GPa) = 0.03028380
#
# Stress axis : x y z
#
# Youngs Moduli (GPa) = 17.95931 29.74945 16.92763
#
# Poissons Ratio (x) = 0.18014 0.60472
# Poissons Ratio (y) = 0.10875 0.29224
# Poissons Ratio (z) = 0.64158 0.51360
#
# Static dielectric constant tensor:
#      x y z
#    x 3.600480 0.000000 0.025410 
#    y 0.000000 3.600580 0.000000 
#    z 0.025410 0.000000 3.557040 
# 
# 
# High freq. dielectric constant tensor:
#      x y z
#    x 1.774670 0.000000 0.008250 
#    y 0.000000 1.783290 0.000000 
#    z 0.008250 0.000000 1.778820 
# 
# From -- ./inp_files/172407.got.cif
#   From: 2010.06.25/outbox.cif.g09.slc.cpg/sg12_87_cif.got.tgz:172407.got - 2010.06.28 00:19:55.
