data_PCOD8109281
_publ_section_title
;
Structure prediction by ZEFSAII (Michael W. Deem and Ramdas Pophale) SiO2 
 PCOD8109281
Probable space group: C 2/M
;
_chemical_formula_sum "Si O2"
_cell_formula_units_Z 48
_cell_length_a 17.868916
_cell_length_b 8.428779
_cell_length_c 30.844172
_cell_angle_alpha 90.000000
_cell_angle_beta 150.000504
_cell_angle_gamma 90.000000
_cell_volume 2322.733469
_symmetry_space_group_name_H-M "C 2/M"
_symmetry_group_IT_number 12
_symmetry_cell_setting 'monoclinic'
loop_
_space_group_symop_operation_xyz
x,y,z
-x,y,-z
-x,-y,-z
x,-y,z
1/2+x,1/2+y,z
1/2-x,1/2+y,-z
1/2-x,1/2-y,-z
1/2+x,1/2-y,z
loop_
_atom_site_type_symbol
_atom_site_label
_atom_site_fract_x
_atom_site_fract_y
_atom_site_fract_z
Si Si1 0.584447 0.815681 0.417343
Si Si2 0.906270 0.815735 0.911060
Si Si3 0.915687 0.314993 0.079175
Si Si4 0.413774 0.188570 0.414977
Si Si5 0.428023 0.686716 0.759560
Si Si6 0.581408 0.682708 0.746845
O O1 0.750000 0.750000 0.500000
O O2 0.490680 0.740687 0.410250
O O3 0.499452 0.785159 0.330117
O O4 0.597148 0.000000 0.431815
O O5 0.757717 0.711415 0.834919
O O6 0.003231 0.783830 0.917371
O O7 0.861705 0.000000 0.890733
O O8 0.000000 0.763667 0.000000
O O9 0.913756 0.500000 0.066156
O O10 0.000841 0.289071 0.166706
O O11 0.750000 0.250000 0.000000
O O12 0.500000 0.258139 0.500000
O O13 0.242385 0.243480 0.331023
O O14 0.421823 0.000000 0.419198
O O15 0.440732 0.500000 0.776553
O O16 0.515752 0.732465 0.760155
O O17 0.547385 0.500000 0.719844
#
# Coordination Sequence:
#
# PCOD8109281 Si02
#       6
#     8   8   8   8   8   8
#     4  11  22  37  60  87 119 159 203 254 310 366
#     4  11  24  42  64  90 122 160 202 248 300 360
#     4  12  25  41  63  90 122 158 200 250 303 360
#     4   9  18  35  59  85 113 151 197 242 293 353
#     4  10  21  39  63  89 120 158 201 248 301 362
#     4  11  23  39  62  91 122 158 201 250 305 364
#
# _framework density 20.665306000000001
#
# number of rings (size 3 to 8) (size 9 to 14) (size 15 to 20)
#    0.000    1.333    0.000    6.000    0.000    9.333 
#    0.000    0.833    0.000    3.500    0.000    0.000 
#    0.000    0.000    0.000    0.000    0.000    0.000 
#
# Total GULP energy -297748.883627 kJ/mol
# GULP energy per Si atom -12406.203484 kJ/mol
# Density = 2.061827 g / cm^3
# Si number density = 20.665306 Si / 1000 Ang^3
#
#
#
# Elastic Constant Matrix: (Units=GPa)
#
#
# Indices 1 2 3 4 5 6 
#
# 1 159.5479 10.0753 63.5398 0.0000 7.3881 0.0000
# 2 10.0753 39.0991 13.8402 0.0000 -2.9997 0.0002
# 3 63.5398 13.8402 155.0786 0.0001 4.5815 0.0000
# 4 0.0000 0.0000 0.0001 33.8916 0.0000 -2.7489
# 5 7.3881 -2.9997 4.5815 0.0000 45.1303 0.0000
# 6 0.0000 0.0002 0.0000 -2.7489 0.0000 26.3068
#
#
#
# Elastic Compliance Matrix: (Units=1/GPa)
#
#
# Indices 1 2 3 4 5 6 
#
# 1 0.007563 -0.000970 -0.002983 0.000000 -0.001000 0.000000
# 2 -0.000970 0.026716 -0.002050 0.000000 0.002143 0.000000
# 3 -0.002983 -0.002050 0.007867 0.000000 -0.000447 0.000000
# 4 0.000000 0.000000 0.000000 0.029758 0.000000 0.003110
# 5 -0.001000 0.002143 -0.000447 0.000000 0.022509 0.000000
# 6 0.000000 0.000000 0.000000 0.003110 0.000000 0.038338
#
#
# Mechanical properties :
#
#
# Convention : Reuss Voigt Hill
#
# Bulk Modulus (GPa) = 33.17822 58.73737 45.95780
# Shear Modulus (GPa) = 32.29901 38.81710 35.55805
#
# Velocity S-wave (km/s) = 3.95772 4.33872 4.15259
# Velocity P-wave (km/s) = 6.08067 7.32012 6.72900
#
# Compressibility (1/GPa) = 0.03014026
#
# Stress axis : x y z
#
# Youngs Moduli (GPa) = 132.22063 37.43060 127.11949
#
# Poissons Ratio (x) = 0.03630 0.37916
# Poissons Ratio (y) = 0.12823 0.26063
# Poissons Ratio (z) = 0.39438 0.07674
#
# Static dielectric constant tensor:
#      x y z
#    x 4.433400 0.000000 0.039750 
#    y 0.000000 3.546550 0.000000 
#    z 0.039750 0.000000 3.797970 
# 
# 
# High freq. dielectric constant tensor:
#      x y z
#    x 1.829620 0.000000 0.001380 
#    y 0.000000 1.793250 0.000000 
#    z 0.001380 0.000000 1.826130 
# 
# From -- ./inp_files/295369.got.cif
#   From: 2010.06.25/outbox.cif.g09.slc.cpg/sg12_148_cif.got.tgz:295369.got - 2010.06.28 00:19:55.
