data_PCOD8109710
_publ_section_title
;
Structure prediction by ZEFSAII (Michael W. Deem and Ramdas Pophale) SiO2 
 PCOD8109710
Probable space group: C 2/M
;
_chemical_formula_sum "Si O2"
_cell_formula_units_Z 56
_cell_length_a 28.793541
_cell_length_b 9.291778
_cell_length_c 20.744255
_cell_angle_alpha 90.000000
_cell_angle_beta 29.388129
_cell_angle_gamma 90.000000
_cell_volume 2723.506205
_symmetry_space_group_name_H-M "C 2/M"
_symmetry_group_IT_number 12
_symmetry_cell_setting 'monoclinic'
loop_
_space_group_symop_operation_xyz
x,y,z
-x,y,-z
-x,-y,-z
x,-y,z
1/2+x,1/2+y,z
1/2-x,1/2+y,-z
1/2-x,1/2-y,-z
1/2+x,1/2-y,z
loop_
_atom_site_type_symbol
_atom_site_label
_atom_site_fract_x
_atom_site_fract_y
_atom_site_fract_z
Si Si1 0.849612 0.332021 0.065281
Si Si2 0.299688 0.335645 0.241349
Si Si3 0.968223 0.157893 0.127082
Si Si4 0.108947 0.331891 0.539415
Si Si5 0.022816 0.167149 0.397691
Si Si6 0.772115 0.832815 0.907511
Si Si7 0.657591 0.339518 0.597033
O O1 0.846898 0.500000 0.080561
O O2 0.780792 0.260981 0.201465
O O3 0.812399 0.292883 0.039280
O O4 0.955301 0.276395 0.947798
O O5 0.292297 0.500000 0.228596
O O6 0.405150 0.299187 0.140846
O O7 0.219272 0.303383 0.390853
O O8 0.896890 0.144210 0.271389
O O9 0.015765 0.000000 0.058370
O O10 0.085888 0.500000 0.577388
O O11 0.090365 0.244348 0.627545
O O12 0.045128 0.270448 0.559967
O O13 0.129598 0.207964 0.246991
O O14 0.000000 0.199526 0.500000
O O15 0.002066 0.000000 0.407463
O O16 0.771751 0.000000 0.925607
O O17 0.750000 0.750000 0.000000
O O18 0.683175 0.500000 0.540163
O O19 0.750000 0.250000 0.500000
#
# Coordination Sequence:
#
# PCOD8109710 Si02
#       7
#     8   8   8   8   8   8   8
#     4  11  24  40  61  91 120 154 204 256 303 357
#     4  10  21  40  61  87 124 164 199 239 300 368
#     4  10  22  40  60  85 122 165 202 240 298 367
#     4  11  23  39  62  93 126 160 205 255 307 368
#     4  10  22  43  68  93 124 163 210 265 324 381
#     4  10  24  44  64  89 124 163 206 259 318 375
#     4  11  22  39  61  88 124 164 205 249 304 365
#
# _framework density 20.561731000000002
#
# number of rings (size 3 to 8) (size 9 to 14) (size 15 to 20)
#    0.000    1.571    1.429    2.571    2.000    7.714 
#    0.000    0.000    0.000    0.000    0.000    0.000 
#    0.000    0.000    0.000    0.000    0.000    0.000 
#
# Total GULP energy -347189.707676 kJ/mol
# GULP energy per Si atom -12399.632417 kJ/mol
# Density = 2.051493 g / cm^3
# Si number density = 20.561731 Si / 1000 Ang^3
#
#
#
# Elastic Constant Matrix: (Units=GPa)
#
#
# Indices 1 2 3 4 5 6 
#
# 1 126.6798 76.8050 24.8293 0.0103 6.5499 -0.0051
# 2 76.8050 119.1997 31.7827 0.0136 3.4160 -0.0095
# 3 24.8293 31.7827 74.2521 0.0279 4.2674 -0.0160
# 4 0.0103 0.0136 0.0279 31.0557 -0.0116 0.9626
# 5 6.5499 3.4160 4.2674 -0.0116 33.5239 0.0049
# 6 -0.0051 -0.0095 -0.0160 0.9626 0.0049 41.1703
#
#
#
# Elastic Compliance Matrix: (Units=1/GPa)
#
#
# Indices 1 2 3 4 5 6 
#
# 1 0.013090 -0.008179 -0.000783 -0.000001 -0.001625 0.000000
# 2 -0.008179 0.014588 -0.003541 0.000000 0.000562 0.000001
# 3 -0.000783 -0.003541 0.015328 -0.000013 -0.001437 0.000006
# 4 -0.000001 0.000000 -0.000013 0.032224 0.000013 -0.000753
# 5 -0.001625 0.000562 -0.001437 0.000013 0.030272 -0.000005
# 6 0.000000 0.000001 0.000006 -0.000753 -0.000005 0.024307
#
#
# Mechanical properties :
#
#
# Convention : Reuss Voigt Hill
#
# Bulk Modulus (GPa) = 55.55907 65.21837 60.38872
# Shear Modulus (GPa) = 31.09149 33.59764 32.34456
#
# Velocity S-wave (km/s) = 3.89280 4.04665 3.97047
# Velocity P-wave (km/s) = 6.87637 7.32264 7.10301
#
# Compressibility (1/GPa) = 0.01799886
#
# Stress axis : x y z
#
# Youngs Moduli (GPa) = 76.39149 68.55098 65.24078
#
# Poissons Ratio (x) = 0.56071 0.05108
# Poissons Ratio (y) = 0.62484 0.23104
# Poissons Ratio (z) = 0.05981 0.24276
#
# Static dielectric constant tensor:
#      x y z
#    x 3.855900 -0.000010 0.060740 
#    y -0.000010 4.174370 -0.000260 
#    z 0.060740 -0.000260 4.015600 
# 
# 
# High freq. dielectric constant tensor:
#      x y z
#    x 1.813450 0.000000 0.008570 
#    y 0.000000 1.805220 0.000000 
#    z 0.008570 0.000000 1.811450 
# 
# From -- ./inp_files/239017.got.cif
#   From: 2010.06.25/outbox.cif.g09.slc.cpg/sg12_120_cif.got.tgz:239017.got - 2010.06.28 00:19:55.
