data_PCOD8109165
_publ_section_title
;
Structure prediction by ZEFSAII (Michael W. Deem and Ramdas Pophale) SiO2 
 PCOD8109165
Probable space group: C 2/M
;
_chemical_formula_sum "Si O2"
_cell_formula_units_Z 40
_cell_length_a 22.987315
_cell_length_b 8.671397
_cell_length_c 10.071433
_cell_angle_alpha 90.000000
_cell_angle_beta 90.085989
_cell_angle_gamma 90.000000
_cell_volume 2007.557975
_symmetry_space_group_name_H-M "C 2/M"
_symmetry_group_IT_number 12
_symmetry_cell_setting 'monoclinic'
loop_
_space_group_symop_operation_xyz
x,y,z
-x,y,-z
-x,-y,-z
x,-y,z
1/2+x,1/2+y,z
1/2-x,1/2+y,-z
1/2-x,1/2-y,-z
1/2+x,1/2-y,z
loop_
_atom_site_type_symbol
_atom_site_label
_atom_site_fract_x
_atom_site_fract_y
_atom_site_fract_z
Si Si1 0.372868 0.178769 0.741080
Si Si2 0.753020 0.180128 0.352610
Si Si3 0.066967 0.819600 0.011026
Si Si4 0.133817 0.317459 0.768753
Si Si5 0.937100 0.681891 0.477347
O O1 0.304433 0.213829 0.735058
O O2 0.395515 0.226733 0.596982
O O3 0.385952 0.000000 0.773729
O O4 0.407155 0.284328 0.844681
O O5 0.750000 0.250000 0.500000
O O6 0.803194 0.248383 0.260486
O O7 0.762196 0.000000 0.373361
O O8 0.108928 0.731443 0.910006
O O9 0.069943 0.000000 0.981051
O O10 0.000000 0.761094 0.000000
O O11 0.139724 0.500000 0.762934
O O12 0.089851 0.251345 0.657712
O O13 0.943518 0.500000 0.462742
O O14 0.000000 0.758681 0.500000
#
# Coordination Sequence:
#
# PCOD8109165 Si02
#       5
#     8   8   8   8   8
#     4  10  21  39  62  89 120 162 209 250 301 364
#     4  11  22  39  63  92 128 162 203 257 308 363
#     4  11  25  43  61  89 128 164 202 253 312 369
#     4  11  22  39  64  91 121 163 208 253 308 364
#     4   9  17  32  57  88 117 149 200 255 298 352
#
# _framework density 19.924703999999998
#
# number of rings (size 3 to 8) (size 9 to 14) (size 15 to 20)
#    0.000    1.600    2.000    3.000    0.000    5.600 
#    0.000    0.000    0.000    4.200    0.000    0.000 
#    0.000    0.000    0.000    0.000    0.000    0.000 
#
# Total GULP energy -248024.859912 kJ/mol
# GULP energy per Si atom -12401.242996 kJ/mol
# Density = 1.987935 g / cm^3
# Si number density = 19.924704 Si / 1000 Ang^3
#
#
#
# Elastic Constant Matrix: (Units=GPa)
#
#
# Indices 1 2 3 4 5 6 
#
# 1 110.4859 38.8813 5.4473 0.0000 -2.2324 0.0000
# 2 38.8813 65.8510 11.9496 0.0000 5.7704 0.0000
# 3 5.4473 11.9496 43.7978 0.0000 12.6928 0.0000
# 4 0.0000 0.0000 0.0000 31.2710 0.0000 -0.0311
# 5 -2.2324 5.7704 12.6928 0.0000 35.5952 0.0000
# 6 0.0000 0.0000 0.0000 -0.0311 0.0000 28.7655
#
#
#
# Elastic Compliance Matrix: (Units=1/GPa)
#
#
# Indices 1 2 3 4 5 6 
#
# 1 0.011545 -0.006967 -0.000081 0.000000 0.001882 0.000000
# 2 -0.006967 0.020224 -0.003986 0.000000 -0.002294 0.000000
# 3 -0.000081 -0.003986 0.026481 0.000000 -0.008801 0.000000
# 4 0.000000 0.000000 0.000000 0.031978 0.000000 0.000035
# 5 0.001882 -0.002294 -0.008801 0.000000 0.031722 0.000000
# 6 0.000000 0.000000 0.000000 0.000035 0.000000 0.034764
#
#
# Mechanical properties :
#
#
# Convention : Reuss Voigt Hill
#
# Bulk Modulus (GPa) = 27.63854 36.96568 32.30211
# Shear Modulus (GPa) = 26.19977 30.05011 28.12494
#
# Velocity S-wave (km/s) = 3.63014 3.88775 3.76115
# Velocity P-wave (km/s) = 5.61001 6.22461 5.92528
#
# Compressibility (1/GPa) = 0.03618137
#
# Stress axis : x y z
#
# Youngs Moduli (GPa) = 86.62048 49.44697 37.76349
#
# Poissons Ratio (x) = 0.34449 0.00304
# Poissons Ratio (y) = 0.60346 0.15054
# Poissons Ratio (z) = 0.00698 0.19712
#
# Static dielectric constant tensor:
#      x y z
#    x 3.924030 0.000000 0.064330 
#    y 0.000000 3.433960 0.000000 
#    z 0.064330 0.000000 3.572350 
# 
# 
# High freq. dielectric constant tensor:
#      x y z
#    x 1.797280 0.000000 0.000650 
#    y 0.000000 1.760500 0.000000 
#    z 0.000650 0.000000 1.781040 
# 
# From -- ./inp_files/92754.got.cif
#   From: 2010.06.25/outbox.cif.g09.slc.cpg/sg12_47_cif.got.tgz:92754.got - 2010.06.28 00:19:55.
