data_PCOD8109560
_publ_section_title
;
Structure prediction by ZEFSAII (Michael W. Deem and Ramdas Pophale) SiO2 
 PCOD8109560
Probable space group: C 2/M
;
_chemical_formula_sum "Si O2"
_cell_formula_units_Z 56
_cell_length_a 21.133552
_cell_length_b 9.058661
_cell_length_c 17.261488
_cell_angle_alpha 90.000000
_cell_angle_beta 62.047476
_cell_angle_gamma 90.000000
_cell_volume 2919.045151
_symmetry_space_group_name_H-M "C 2/M"
_symmetry_group_IT_number 12
_symmetry_cell_setting 'monoclinic'
loop_
_space_group_symop_operation_xyz
x,y,z
-x,y,-z
-x,-y,-z
x,-y,z
1/2+x,1/2+y,z
1/2-x,1/2+y,-z
1/2-x,1/2-y,-z
1/2+x,1/2-y,z
loop_
_atom_site_type_symbol
_atom_site_label
_atom_site_fract_x
_atom_site_fract_y
_atom_site_fract_z
Si Si1 0.819081 0.170779 0.928829
Si Si2 0.826179 0.325258 0.472102
Si Si3 0.908190 0.173643 0.732911
Si Si4 0.080255 0.674040 0.433807
Si Si5 0.093496 0.662389 0.006421
Si Si6 0.431177 0.162505 0.146259
Si Si7 0.065159 0.172518 0.702648
O O1 0.846493 0.224821 0.828588
O O2 0.803289 0.000000 0.934320
O O3 0.750000 0.250000 0.000000
O O4 0.879824 0.204766 0.956083
O O5 0.816118 0.500000 0.472111
O O6 0.750000 0.250000 0.500000
O O7 0.861551 0.280811 0.534399
O O8 0.880442 0.270880 0.376387
O O9 0.893295 0.254335 0.660951
O O10 0.985166 0.218404 0.723913
O O11 0.905391 0.000000 0.719946
O O12 0.077396 0.500000 0.424085
O O13 0.000000 0.732823 0.500000
O O14 0.126424 0.500000 0.008635
O O15 0.114885 0.698587 0.904637
O O16 0.010242 0.655828 0.068511
O O17 0.420825 0.288916 0.215806
O O18 0.410171 0.000000 0.191958
O O19 0.080150 0.000000 0.680687
#
# Coordination Sequence:
#
# PCOD8109560 Si02
#       7
#     8   8   8   8   8   8   8
#     4  11  23  40  58  83 117 158 203 251 305 360
#     4  11  24  43  64  90 124 161 199 248 308 368
#     4  10  22  38  60  90 121 154 201 252 302 361
#     4  10  21  39  65  95 123 155 203 254 301 363
#     4   9  18  34  56  82 112 148 190 237 291 348
#     4   9  18  33  56  85 114 147 189 237 289 345
#     4  11  21  36  60  90 120 154 197 246 299 361
#
# _framework density 19.184355
#
# number of rings (size 3 to 8) (size 9 to 14) (size 15 to 20)
#    0.000    1.857    2.857    2.143    0.000    3.714 
#    2.571    1.429    0.000    0.000    0.000    0.000 
#    0.000    0.000    0.000    0.000    0.000    0.000 
#
# Total GULP energy -347050.795961 kJ/mol
# GULP energy per Si atom -12394.671284 kJ/mol
# Density = 1.914069 g / cm^3
# Si number density = 19.184355 Si / 1000 Ang^3
#
#
#
# Elastic Constant Matrix: (Units=GPa)
#
#
# Indices 1 2 3 4 5 6 
#
# 1 91.4108 46.9323 69.1552 0.0000 7.6682 0.0001
# 2 46.9323 57.9673 54.8081 0.0001 3.2288 0.0000
# 3 69.1552 54.8081 151.2799 0.0000 11.9674 0.0000
# 4 0.0000 0.0001 0.0000 34.9133 0.0000 2.0176
# 5 7.6682 3.2288 11.9674 0.0000 33.3742 0.0000
# 6 0.0001 0.0000 0.0000 2.0176 0.0000 30.8756
#
#
#
# Elastic Compliance Matrix: (Units=1/GPa)
#
#
# Indices 1 2 3 4 5 6 
#
# 1 0.021281 -0.012270 -0.005135 0.000000 -0.001861 0.000000
# 2 -0.012270 0.033341 -0.006626 0.000000 0.001970 0.000000
# 3 -0.005135 -0.006626 0.011542 0.000000 -0.002318 0.000000
# 4 0.000000 0.000000 0.000000 0.028751 0.000000 -0.001879
# 5 -0.001861 0.001970 -0.002318 0.000000 0.031031 0.000000
# 6 0.000000 0.000000 0.000000 -0.001879 0.000000 0.032511
#
#
# Mechanical properties :
#
#
# Convention : Reuss Voigt Hill
#
# Bulk Modulus (GPa) = 55.24913 71.38325 63.31619
# Shear Modulus (GPa) = 23.52358 28.48345 26.00352
#
# Velocity S-wave (km/s) = 3.50549 3.85739 3.68564
# Velocity P-wave (km/s) = 6.72653 7.55838 7.15456
#
# Compressibility (1/GPa) = 0.01809983
#
# Stress axis : x y z
#
# Youngs Moduli (GPa) = 46.99077 29.99343 86.64260
#
# Poissons Ratio (x) = 0.36803 0.44495
# Poissons Ratio (y) = 0.57660 0.57407
# Poissons Ratio (z) = 0.24132 0.19873
#
# Static dielectric constant tensor:
#      x y z
#    x 3.517360 0.000000 0.011750 
#    y 0.000000 3.066390 0.000000 
#    z 0.011750 0.000000 3.539360 
# 
# 
# High freq. dielectric constant tensor:
#      x y z
#    x 1.736720 0.000000 0.011720 
#    y 0.000000 1.743940 0.000000 
#    z 0.011720 0.000000 1.752890 
# 
# From -- ./inp_files/280941.got.cif
#   From: 2010.06.25/outbox.cif.g09.slc.cpg/sg12_141_cif.got.tgz:280941.got - 2010.06.28 00:19:55.
