data_PCOD8109764
_publ_section_title
;
Structure prediction by ZEFSAII (Michael W. Deem and Ramdas Pophale) SiO2 
 PCOD8109764
Probable space group: C 2/M
;
_chemical_formula_sum "Si O2"
_cell_formula_units_Z 64
_cell_length_a 13.697145
_cell_length_b 14.939355
_cell_length_c 17.640033
_cell_angle_alpha 90.000000
_cell_angle_beta 56.141321
_cell_angle_gamma 90.000000
_cell_volume 2997.478781
_symmetry_space_group_name_H-M "C 2/M"
_symmetry_group_IT_number 12
_symmetry_cell_setting 'monoclinic'
loop_
_space_group_symop_operation_xyz
x,y,z
-x,y,-z
-x,-y,-z
x,-y,z
1/2+x,1/2+y,z
1/2-x,1/2+y,-z
1/2-x,1/2-y,-z
1/2+x,1/2-y,z
loop_
_atom_site_type_symbol
_atom_site_label
_atom_site_fract_x
_atom_site_fract_y
_atom_site_fract_z
Si Si1 0.073393 0.223490 0.394693
Si Si2 0.478754 0.897068 0.671304
Si Si3 0.947327 0.157807 0.186823
Si Si4 0.234034 0.098308 0.845126
Si Si5 0.153482 0.672867 0.712930
Si Si6 0.583605 0.598141 0.259861
Si Si7 0.637139 0.743006 0.996771
Si Si8 0.152558 0.603963 0.877324
O O1 0.048284 0.328327 0.386076
O O2 0.206769 0.190333 0.352280
O O3 0.024555 0.166027 0.344977
O O4 0.000000 0.197843 0.500000
O O5 0.372193 0.882232 0.776738
O O6 0.602279 0.880871 0.662207
O O7 0.478048 0.000000 0.640935
O O8 0.833540 0.105254 0.205693
O O9 0.906321 0.231339 0.264660
O O10 0.018746 0.089118 0.207464
O O11 0.023045 0.207064 0.089164
O O12 0.169670 0.169510 0.922577
O O13 0.215585 0.000000 0.888418
O O14 0.110185 0.624448 0.809743
O O15 0.589487 0.500000 0.295339
O O16 0.711907 0.632272 0.182065
O O17 0.600963 0.835343 0.968742
O O18 0.750000 0.750000 0.000000
O O19 0.128457 0.500000 0.908006
#
# Coordination Sequence:
#
# PCOD8109764 Si02
#       8
#     8   8   8   8   8   8   8   8
#     4  11  24  44  73 101 134 167 211 271 337 405
#     4  11  23  44  70  99 136 179 220 269 331 397
#     4  12  21  38  66  88 128 175 219 268 328 381
#     4  11  24  41  62  92 129 174 224 274 323 382
#     4  11  22  42  70  94 127 177 218 265 328 398
#     4  10  21  40  66  94 127 167 214 269 332 394
#     4  12  23  37  59  90 131 170 222 277 321 378
#     4  10  21  40  62  89 127 172 218 269 322 380
#
# _framework density 21.351277
#
# number of rings (size 3 to 8) (size 9 to 14) (size 15 to 20)
#    0.000    1.000    5.000    2.625    0.000    3.500 
#    0.000    1.875    0.000    0.000    0.000    0.000 
#    0.000    0.000    0.000    0.000    0.000    0.000 
#
# Total GULP energy -396549.232746 kJ/mol
# GULP energy per Si atom -12392.163523 kJ/mol
# Density = 2.130268 g / cm^3
# Si number density = 21.351277 Si / 1000 Ang^3
#
#
#
# Elastic Constant Matrix: (Units=GPa)
#
#
# Indices 1 2 3 4 5 6 
#
# 1 124.3966 21.7276 24.1505 0.0000 -0.5766 0.0000
# 2 21.7276 109.7235 37.4129 0.0000 1.0243 0.0000
# 3 24.1505 37.4129 78.4652 0.0000 2.7431 0.0000
# 4 0.0000 0.0000 0.0000 -23.1703 0.0000 3.5998
# 5 -0.5766 1.0243 2.7431 0.0000 17.9657 0.0000
# 6 0.0000 0.0000 0.0000 3.5998 0.0000 25.4464
#
#
#
# Elastic Compliance Matrix: (Units=1/GPa)
#
#
# Indices 1 2 3 4 5 6 
#
# 1 0.008642 -0.000958 -0.002226 0.000000 0.000672 0.000000
# 2 -0.000958 0.010990 -0.004949 0.000000 0.000098 0.000000
# 3 -0.002226 -0.004949 0.015867 0.000000 -0.002212 0.000000
# 4 0.000000 0.000000 0.000000 -0.042231 0.000000 0.005974
# 5 0.000672 0.000098 -0.002212 0.000000 0.056015 0.000000
# 6 0.000000 0.000000 0.000000 0.005974 0.000000 0.038453
#
#
# Mechanical properties :
#
#
# Convention : Reuss Voigt Hill
#
# Bulk Modulus (GPa) = 51.99764 53.24079 52.61922
# Shear Modulus (GPa) = 45.28454 19.33466 32.30960
#
# Velocity S-wave (km/s) = 4.61035 3.01250 3.89426
# Velocity P-wave (km/s) = 7.26269 6.09016 6.70212
#
# Compressibility (1/GPa) = 0.01923164
#
# Stress axis : x y z
#
# Youngs Moduli (GPa) = 115.72030 90.99164 63.02555
#
# Poissons Ratio (x) = 0.08720 0.14031
# Poissons Ratio (y) = 0.11090 0.31189
# Poissons Ratio (z) = 0.25762 0.45028
#
# Static dielectric constant tensor:
#      x y z
#    x 3.659050 0.000000 -0.126670 
#    y 0.000000 3.748930 0.000000 
#    z -0.126670 0.000000 3.550600 
# 
# 
# High freq. dielectric constant tensor:
#      x y z
#    x 1.855640 0.000000 -0.003680 
#    y 0.000000 1.848500 0.000000 
#    z -0.003680 0.000000 1.800890 
# 
# From -- ./inp_files/270641.got.cif
#   From: 2010.06.25/outbox.cif.g09.slc.cpg/sg12_136_cif.got.tgz:270641.got - 2010.06.28 00:19:55.
