data_PCOD8109738
_publ_section_title
;
Structure prediction by ZEFSAII (Michael W. Deem and Ramdas Pophale) SiO2 
 PCOD8109738
Probable space group: C 2/M
;
_chemical_formula_sum "Si O2"
_cell_formula_units_Z 40
_cell_length_a 13.049985
_cell_length_b 14.814414
_cell_length_c 9.797879
_cell_angle_alpha 90.000000
_cell_angle_beta 98.499100
_cell_angle_gamma 90.000000
_cell_volume 1873.401391
_symmetry_space_group_name_H-M "C 2/M"
_symmetry_group_IT_number 12
_symmetry_cell_setting 'monoclinic'
loop_
_space_group_symop_operation_xyz
x,y,z
-x,y,-z
-x,-y,-z
x,-y,z
1/2+x,1/2+y,z
1/2-x,1/2+y,-z
1/2-x,1/2-y,-z
1/2+x,1/2-y,z
loop_
_atom_site_type_symbol
_atom_site_label
_atom_site_fract_x
_atom_site_fract_y
_atom_site_fract_z
Si Si1 0.885331 0.669671 0.532310
Si Si2 0.429368 0.500000 0.615861
Si Si3 0.229441 0.145694 0.031008
Si Si4 0.311628 0.331771 0.671248
Si Si5 0.379556 0.000000 0.990876
Si Si6 0.700622 0.000000 0.328637
Si Si7 0.623614 0.500000 0.821400
O O1 0.807768 0.691664 0.391068
O O2 0.886424 0.749662 0.643217
O O3 0.841256 0.584578 0.600355
O O4 0.000000 0.651746 0.500000
O O5 0.500000 0.500000 0.500000
O O6 0.351603 0.416421 0.594001
O O7 0.500723 0.500000 0.767597
O O8 0.338070 0.090177 0.059611
O O9 0.154324 0.091606 0.911023
O O10 0.250000 0.250000 0.000000
O O11 0.176240 0.146011 0.167755
O O12 0.339018 0.000000 0.831847
O O13 0.500000 0.000000 0.000000
O O14 0.824272 0.000000 0.321738
#
# Coordination Sequence:
#
# PCOD8109738 Si02
#       7
#     8   4   8   8   4   4   4
#     4  11  24  40  63  94 127 169 214 265 319 389
#     4  12  24  42  68  91 127 173 211 268 329 376
#     4  10  22  43  66  90 135 169 205 273 326 380
#     4  11  24  41  62  95 128 162 221 263 314 393
#     4  10  23  39  63  98 124 161 220 260 313 401
#     4  10  21  40  62  85 129 157 206 260 320 370
#     4  10  23  43  64 100 126 165 223 268 321 399
#
# _framework density 21.351535999999999
#
# number of rings (size 3 to 8) (size 9 to 14) (size 15 to 20)
#    0.000    1.600    0.000    6.300    2.800    6.400 
#    3.600    0.000    0.000    0.000    0.000    0.000 
#    0.000    0.000    0.000    0.000    0.000    0.000 
#
# Total GULP energy -247910.036908 kJ/mol
# GULP energy per Si atom -12395.501845 kJ/mol
# Density = 2.130294 g / cm^3
# Si number density = 21.351536 Si / 1000 Ang^3
#
#
#
# Elastic Constant Matrix: (Units=GPa)
#
#
# Indices 1 2 3 4 5 6 
#
# 1 118.0084 36.9097 35.5297 0.0000 -9.4819 0.0000
# 2 36.9097 170.5376 35.5752 0.0000 -10.3195 0.0000
# 3 35.5297 35.5752 93.1098 0.0000 -27.4806 0.0000
# 4 0.0000 0.0000 0.0000 45.6654 0.0000 -13.9244
# 5 -9.4819 -10.3195 -27.4806 0.0000 25.7598 0.0000
# 6 0.0000 0.0000 0.0000 -13.9244 0.0000 28.7727
#
#
#
# Elastic Compliance Matrix: (Units=1/GPa)
#
#
# Indices 1 2 3 4 5 6 
#
# 1 0.009908 -0.001473 -0.003380 0.000000 -0.000549 0.000000
# 2 -0.001473 0.006591 -0.001951 0.000000 0.000016 0.000000
# 3 -0.003380 -0.001951 0.017774 0.000000 0.016935 0.000000
# 4 0.000000 0.000000 0.000000 0.025689 0.000000 0.012432
# 5 -0.000549 0.000016 0.016935 0.000000 0.056691 0.000000
# 6 0.000000 0.000000 0.000000 0.012432 0.000000 0.040772
#
#
# Mechanical properties :
#
#
# Convention : Reuss Voigt Hill
#
# Bulk Modulus (GPa) = 48.39272 66.40944 57.40108
# Shear Modulus (GPa) = 28.10242 38.28233 33.19237
#
# Velocity S-wave (km/s) = 3.63185 4.23892 3.94708
# Velocity P-wave (km/s) = 6.34831 7.42485 6.90758
#
# Compressibility (1/GPa) = 0.02066426
#
# Stress axis : x y z
#
# Youngs Moduli (GPa) = 100.92709 151.73199 56.26296
#
# Poissons Ratio (x) = 0.22343 0.19018
# Poissons Ratio (y) = 0.14862 0.10979
# Poissons Ratio (z) = 0.34115 0.29608
#
# Static dielectric constant tensor:
#      x y z
#    x 3.623660 0.000000 0.020990 
#    y 0.000000 7.164420 0.000000 
#    z 0.020990 0.000000 3.927220 
# 
# 
# High freq. dielectric constant tensor:
#      x y z
#    x 1.836520 0.000000 -0.008750 
#    y 0.000000 1.850760 0.000000 
#    z -0.008750 0.000000 1.845920 
# 
# From -- ./inp_files/59171.got.cif
#   From: 2010.06.25/outbox.cif.g09.slc.cpg/sg12_30_cif.got.tgz:59171.got - 2010.06.28 00:19:55.
