data_PCOD8109233
_publ_section_title
;
Structure prediction by ZEFSAII (Michael W. Deem and Ramdas Pophale) SiO2 
 PCOD8109233
Probable space group: C 2/M
;
_chemical_formula_sum "Si O2"
_cell_formula_units_Z 64
_cell_length_a 22.967052
_cell_length_b 17.781471
_cell_length_c 14.996145
_cell_angle_alpha 90.000000
_cell_angle_beta 150.393071
_cell_angle_gamma 90.000000
_cell_volume 3025.665057
_symmetry_space_group_name_H-M "C 2/M"
_symmetry_group_IT_number 12
_symmetry_cell_setting 'monoclinic'
loop_
_space_group_symop_operation_xyz
x,y,z
-x,y,-z
-x,-y,-z
x,-y,z
1/2+x,1/2+y,z
1/2-x,1/2+y,-z
1/2-x,1/2-y,-z
1/2+x,1/2-y,z
loop_
_atom_site_type_symbol
_atom_site_label
_atom_site_fract_x
_atom_site_fract_y
_atom_site_fract_z
Si Si1 0.249633 0.585570 0.820123
Si Si2 0.385926 0.585986 0.170059
Si Si3 0.348608 0.588315 0.442699
Si Si4 0.737872 0.156387 0.121686
Si Si5 0.105570 0.710726 0.698304
Si Si6 0.269695 0.089478 0.407063
Si Si7 0.997612 0.692889 0.745205
Si Si8 0.164536 0.183613 0.410913
O O1 0.210548 0.500000 0.771595
O O2 0.134770 0.626491 0.706566
O O3 0.275342 0.608453 0.752275
O O4 0.364821 0.600071 0.035945
O O5 0.372981 0.500000 0.178012
O O6 0.514453 0.613040 0.372166
O O7 0.283188 0.626970 0.086933
O O8 0.332945 0.500000 0.443114
O O9 0.291748 0.606488 0.272323
O O10 0.287928 0.638972 0.438452
O O11 0.779048 0.242617 0.177400
O O12 0.595522 0.153829 0.939275
O O13 0.069010 0.715390 0.751919
O O14 0.000000 0.744726 0.500000
O O15 0.392488 0.133485 0.588971
O O16 0.166167 0.122123 0.333233
O O17 0.286729 0.000000 0.445719
O O18 0.958565 0.773038 0.735751
O O19 0.250000 0.250000 0.500000
#
# Coordination Sequence:
#
# PCOD8109233 Si02
#       8
#     8   8   8   8   8   8   8   8
#     4  10  22  38  61  94 129 163 210 265 329 392
#     4  10  21  39  62  94 133 170 210 261 319 392
#     4  11  24  43  66  91 128 178 226 270 317 380
#     4  12  24  37  62  94 136 174 214 259 322 393
#     4  12  22  37  62  94 135 172 208 261 331 396
#     4  10  22  43  68  93 124 167 217 272 327 384
#     4  11  23  39  62  98 132 171 213 265 330 391
#     4  10  23  44  66  90 124 166 222 273 324 381
#
# _framework density 21.152376
#
# number of rings (size 3 to 8) (size 9 to 14) (size 15 to 20)
#    0.000    1.250    2.500    3.750    3.500    2.750 
#    0.000    4.375    0.000    6.750    0.000    0.000 
#    0.000    0.000    0.000    0.000    0.000    0.000 
#
# Total GULP energy -396639.217133 kJ/mol
# GULP energy per Si atom -12394.975535 kJ/mol
# Density = 2.110423 g / cm^3
# Si number density = 21.152376 Si / 1000 Ang^3
#
#
#
# Elastic Constant Matrix: (Units=GPa)
#
#
# Indices 1 2 3 4 5 6 
#
# 1 117.2831 58.4811 46.4554 0.0000 -15.6135 0.0000
# 2 58.4811 108.3606 49.7877 0.0000 -3.6107 0.0000
# 3 46.4554 49.7877 132.5891 0.0000 -15.8303 0.0000
# 4 0.0000 0.0000 0.0000 25.1024 0.0000 0.3902
# 5 -15.6135 -3.6107 -15.8303 0.0000 21.3136 0.0000
# 6 0.0000 0.0000 0.0000 0.3902 0.0000 44.4492
#
#
#
# Elastic Compliance Matrix: (Units=1/GPa)
#
#
# Indices 1 2 3 4 5 6 
#
# 1 0.013189 -0.006234 -0.001375 0.000000 0.007585 0.000000
# 2 -0.006234 0.014134 -0.003712 0.000000 -0.004929 0.000000
# 3 -0.001375 -0.003712 0.010120 0.000000 0.005880 0.000000
# 4 0.000000 0.000000 0.000000 0.039842 0.000000 -0.000350
# 5 0.007585 -0.004929 0.005880 0.000000 0.056007 0.000000
# 6 0.000000 0.000000 0.000000 -0.000350 0.000000 0.022501
#
#
# Mechanical properties :
#
#
# Convention : Reuss Voigt Hill
#
# Bulk Modulus (GPa) = 67.55715 74.18680 70.87197
# Shear Modulus (GPa) = 27.26786 31.74028 29.50407
#
# Velocity S-wave (km/s) = 3.59432 3.87790 3.73880
# Velocity P-wave (km/s) = 7.01664 7.42964 7.22609
#
# Compressibility (1/GPa) = 0.01480228
#
# Stress axis : x y z
#
# Youngs Moduli (GPa) = 75.82166 70.75248 98.81815
#
# Poissons Ratio (x) = 0.44104 0.13585
# Poissons Ratio (y) = 0.47264 0.36679
# Poissons Ratio (z) = 0.10423 0.26261
#
# Static dielectric constant tensor:
#      x y z
#    x 4.057310 0.000000 -0.021110 
#    y 0.000000 4.118930 0.000000 
#    z -0.021110 0.000000 3.963900 
# 
# 
# High freq. dielectric constant tensor:
#      x y z
#    x 1.821660 0.000000 -0.011600 
#    y 0.000000 1.850110 0.000000 
#    z -0.011600 0.000000 1.820170 
# 
# From -- ./inp_files/241495.got.cif
#   From: 2010.06.25/outbox.cif.g09.slc.cpg/sg12_121_cif.got.tgz:241495.got - 2010.06.28 00:19:55.
