data_PCOD8109557
_publ_section_title
;
Structure prediction by ZEFSAII (Michael W. Deem and Ramdas Pophale) SiO2 
 PCOD8109557
Probable space group: C 2/M
;
_chemical_formula_sum "Si O2"
_cell_formula_units_Z 48
_cell_length_a 17.608683
_cell_length_b 17.567183
_cell_length_c 14.649965
_cell_angle_alpha 90.000000
_cell_angle_beta 152.168520
_cell_angle_gamma 90.000000
_cell_volume 2115.748104
_symmetry_space_group_name_H-M "C 2/M"
_symmetry_group_IT_number 12
_symmetry_cell_setting 'monoclinic'
loop_
_space_group_symop_operation_xyz
x,y,z
-x,y,-z
-x,-y,-z
x,-y,z
1/2+x,1/2+y,z
1/2-x,1/2+y,-z
1/2-x,1/2-y,-z
1/2+x,1/2-y,z
loop_
_atom_site_type_symbol
_atom_site_label
_atom_site_fract_x
_atom_site_fract_y
_atom_site_fract_z
Si Si1 0.724842 0.585621 0.903924
Si Si2 0.788489 0.832579 0.582156
Si Si3 0.106649 0.913779 0.968382
Si Si4 0.178912 0.346194 0.662957
Si Si5 0.654829 0.414341 0.532435
Si Si6 0.324568 0.812141 0.857515
O O1 0.778835 0.500000 0.933767
O O2 0.740065 0.597578 0.029299
O O3 0.536460 0.599386 0.679093
O O4 0.836429 0.647595 0.969706
O O5 0.750000 0.750000 0.500000
O O6 0.676163 0.845744 0.550397
O O7 0.753647 0.892036 0.464291
O O8 0.972155 0.846961 0.814398
O O9 0.031989 0.000000 0.880600
O O10 0.194612 0.907060 0.160003
O O11 0.228118 0.266384 0.761186
O O12 0.000000 0.370583 0.500000
O O13 0.700412 0.500000 0.603289
O O14 0.717451 0.366962 0.682854
O O15 0.500000 0.798141 0.000000
#
# Coordination Sequence:
#
# PCOD8109557 Si02
#       6
#     8   8   8   8   8   8
#     4   9  20  40  65  94 130 173 221 270 331 403
#     4  11  22  42  70 100 133 173 220 276 330 402
#     4  10  24  47  73 100 133 180 228 276 337 404
#     4  12  27  44  66  98 135 180 227 283 338 394
#     4  10  21  39  65  94 129 177 220 269 335 406
#     4  12  24  38  61  94 135 177 221 276 340 402
#
# _framework density 22.687010999999998
#
# number of rings (size 3 to 8) (size 9 to 14) (size 15 to 20)
#    0.000    1.333    1.667    5.000    2.333    7.000 
#    0.000    1.667    0.000    0.000    0.000    0.000 
#    0.000    0.000    0.000    0.000    0.000    0.000 
#
# Total GULP energy -297546.096126 kJ/mol
# GULP energy per Si atom -12397.754005 kJ/mol
# Density = 2.263537 g / cm^3
# Si number density = 22.687011 Si / 1000 Ang^3
#
#
#
# Elastic Constant Matrix: (Units=GPa)
#
#
# Indices 1 2 3 4 5 6 
#
# 1 114.3891 15.0661 10.8092 0.0000 -4.5625 0.0000
# 2 15.0661 77.9204 26.9881 0.0000 7.0227 0.0000
# 3 10.8092 26.9881 61.7002 0.0000 0.5930 0.0000
# 4 0.0000 0.0000 0.0000 25.8097 0.0000 -15.0271
# 5 -4.5625 7.0227 0.5930 0.0000 31.4198 0.0000
# 6 0.0000 0.0000 0.0000 -15.0271 0.0000 27.1524
#
#
#
# Elastic Compliance Matrix: (Units=1/GPa)
#
#
# Indices 1 2 3 4 5 6 
#
# 1 0.009106 -0.001597 -0.000913 0.000000 0.001697 0.000000
# 2 -0.001597 0.015746 -0.006573 0.000000 -0.003627 0.000000
# 3 -0.000913 -0.006573 0.019233 0.000000 0.000973 0.000000
# 4 0.000000 0.000000 0.000000 0.057165 0.000000 0.031637
# 5 0.001697 -0.003627 0.000973 0.000000 0.032866 0.000000
# 6 0.000000 0.000000 0.000000 0.031637 0.000000 0.054338
#
#
# Mechanical properties :
#
#
# Convention : Reuss Voigt Hill
#
# Bulk Modulus (GPa) = 38.58150 39.97073 39.27611
# Shear Modulus (GPa) = 23.22769 30.28614 26.75692
#
# Velocity S-wave (km/s) = 3.20321 3.65767 3.43796
# Velocity P-wave (km/s) = 5.54289 5.95774 5.75405
#
# Compressibility (1/GPa) = 0.02591916
#
# Stress axis : x y z
#
# Youngs Moduli (GPa) = 109.81256 63.50881 51.99431
#
# Poissons Ratio (x) = 0.10145 0.04747
# Poissons Ratio (y) = 0.17542 0.34174
# Poissons Ratio (z) = 0.10025 0.41742
#
# Static dielectric constant tensor:
#      x y z
#    x 4.391370 0.000000 -0.290880 
#    y 0.000000 4.233680 0.000000 
#    z -0.290880 0.000000 3.948250 
# 
# 
# High freq. dielectric constant tensor:
#      x y z
#    x 1.907060 0.000000 -0.019750 
#    y 0.000000 1.896100 0.000000 
#    z -0.019750 0.000000 1.875150 
# 
# From -- ./inp_files/226933.got.cif
#   From: 2010.06.25/outbox.cif.g09.slc.cpg/sg12_114_cif.got.tgz:226933.got - 2010.06.28 00:19:55.
