data_PCOD8109317
_publ_section_title
;
Structure prediction by ZEFSAII (Michael W. Deem and Ramdas Pophale) SiO2 
 PCOD8109317
Probable space group: C 2/M
;
_chemical_formula_sum "Si O2"
_cell_formula_units_Z 64
_cell_length_a 18.782256
_cell_length_b 13.400796
_cell_length_c 16.232672
_cell_angle_alpha 90.000000
_cell_angle_beta 130.337712
_cell_angle_gamma 90.000000
_cell_volume 3114.307527
_symmetry_space_group_name_H-M "C 2/M"
_symmetry_group_IT_number 12
_symmetry_cell_setting 'monoclinic'
loop_
_space_group_symop_operation_xyz
x,y,z
-x,y,-z
-x,-y,-z
x,-y,z
1/2+x,1/2+y,z
1/2-x,1/2+y,-z
1/2-x,1/2-y,-z
1/2+x,1/2-y,z
loop_
_atom_site_type_symbol
_atom_site_label
_atom_site_fract_x
_atom_site_fract_y
_atom_site_fract_z
Si Si1 0.884105 0.242993 0.237638
Si Si2 0.186914 0.799550 0.064783
Si Si3 0.976451 0.388275 0.577078
Si Si4 0.893816 0.610418 0.943343
Si Si5 0.040861 0.886981 0.845513
Si Si6 0.347757 0.616613 0.782136
Si Si7 0.281719 0.614305 0.296864
Si Si8 0.286650 0.227347 0.437653
O O1 0.795224 0.287514 0.121077
O O2 0.953376 0.184418 0.228829
O O3 0.849391 0.166815 0.281537
O O4 0.935968 0.338073 0.312873
O O5 0.136282 0.692585 0.012120
O O6 0.180088 0.825818 0.156294
O O7 0.135698 0.881039 0.970455
O O8 0.961486 0.500000 0.601855
O O9 0.887209 0.320575 0.524758
O O10 0.000000 0.395543 0.500000
O O11 0.883037 0.500000 0.974454
O O12 0.826350 0.619496 0.812924
O O13 0.000000 0.631539 0.000000
O O14 0.953660 0.855643 0.837004
O O15 0.029361 0.000000 0.805614
O O16 0.335775 0.500000 0.789383
O O17 0.279448 0.648478 0.657753
O O18 0.314308 0.500000 0.332095
O O19 0.292446 0.669061 0.392176
O O20 0.250000 0.250000 0.500000
#
# Coordination Sequence:
#
# PCOD8109317 Si02
#       8
#     8   8   8   8   8   8   8   8
#     4  11  22  43  62  91 128 168 209 262 310 374
#     4  11  21  38  64  91 128 165 209 255 315 378
#     4  11  23  43  69  93 122 164 216 263 318 377
#     4   9  17  32  57  87 120 162 206 247 301 368
#     4  11  24  39  62  94 129 166 208 257 310 377
#     4  11  22  40  63  92 125 162 206 259 320 377
#     4  10  21  39  63  90 125 168 209 255 315 381
#     4  12  24  42  64  92 127 161 208 270 321 380
#
# _framework density 20.550315000000001
#
# number of rings (size 3 to 8) (size 9 to 14) (size 15 to 20)
#    0.000    1.250    3.750    3.375    0.000    4.500 
#    0.000    2.500    0.000    0.000    0.000    0.000 
#    0.000    0.000    0.000    0.000    0.000    0.000 
#
# Total GULP energy -396873.458739 kJ/mol
# GULP energy per Si atom -12402.295586 kJ/mol
# Density = 2.050354 g / cm^3
# Si number density = 20.550315 Si / 1000 Ang^3
#
#
#
# Elastic Constant Matrix: (Units=GPa)
#
#
# Indices 1 2 3 4 5 6 
#
# 1 66.0468 32.7704 7.3397 0.0000 8.1256 0.0000
# 2 32.7704 110.5835 26.3162 0.0000 12.9962 0.0000
# 3 7.3397 26.3162 55.5567 0.0000 12.1506 0.0000
# 4 0.0000 0.0000 0.0000 98.8388 0.0000 -28.2889
# 5 8.1256 12.9962 12.1506 0.0000 39.7753 0.0000
# 6 0.0000 0.0000 0.0000 -28.2889 0.0000 42.5453
#
#
#
# Elastic Compliance Matrix: (Units=1/GPa)
#
#
# Indices 1 2 3 4 5 6 
#
# 1 0.017917 -0.005192 0.000559 0.000000 -0.002135 0.000000
# 2 -0.005192 0.011845 -0.004619 0.000000 -0.001399 0.000000
# 3 0.000559 -0.004619 0.021227 0.000000 -0.005089 0.000000
# 4 0.000000 0.000000 0.000000 0.012495 0.000000 0.008308
# 5 -0.002135 -0.001399 -0.005089 0.000000 0.027589 0.000000
# 6 0.000000 0.000000 0.000000 0.008308 0.000000 0.029029
#
#
# Mechanical properties :
#
#
# Convention : Reuss Voigt Hill
#
# Bulk Modulus (GPa) = 30.78284 40.55995 35.67139
# Shear Modulus (GPa) = 33.45949 47.28258 40.37104
#
# Velocity S-wave (km/s) = 4.03944 4.80189 4.43707
# Velocity P-wave (km/s) = 6.06365 7.10802 6.60651
#
# Compressibility (1/GPa) = 0.03248564
#
# Stress axis : x y z
#
# Youngs Moduli (GPa) = 55.81201 84.42340 47.11030
#
# Poissons Ratio (x) = 0.43831 -0.02634
# Poissons Ratio (y) = 0.28976 0.21760
# Poissons Ratio (z) = -0.03120 0.38995
#
# Static dielectric constant tensor:
#      x y z
#    x 3.683620 0.000000 0.182870 
#    y 0.000000 4.031770 0.000000 
#    z 0.182870 0.000000 3.635710 
# 
# 
# High freq. dielectric constant tensor:
#      x y z
#    x 1.801340 0.000000 0.013870 
#    y 0.000000 1.820400 0.000000 
#    z 0.013870 0.000000 1.795900 
# 
# From -- ./inp_files/225731.got.cif
#   From: 2010.06.25/outbox.cif.g09.slc.cpg/sg12_113_cif.got.tgz:225731.got - 2010.06.28 00:19:55.
