data_PCOD8109480
_publ_section_title
;
Structure prediction by ZEFSAII (Michael W. Deem and Ramdas Pophale) SiO2 
 PCOD8109480
Probable space group: C 2/M
;
_chemical_formula_sum "Si O2"
_cell_formula_units_Z 64
_cell_length_a 20.469530
_cell_length_b 24.332948
_cell_length_c 16.659372
_cell_angle_alpha 90.000000
_cell_angle_beta 159.057760
_cell_angle_gamma 90.000000
_cell_volume 2965.842765
_symmetry_space_group_name_H-M "C 2/M"
_symmetry_group_IT_number 12
_symmetry_cell_setting 'monoclinic'
loop_
_space_group_symop_operation_xyz
x,y,z
-x,y,-z
-x,-y,-z
x,-y,z
1/2+x,1/2+y,z
1/2-x,1/2+y,-z
1/2-x,1/2-y,-z
1/2+x,1/2-y,z
loop_
_atom_site_type_symbol
_atom_site_label
_atom_site_fract_x
_atom_site_fract_y
_atom_site_fract_z
Si Si1 0.686903 0.272567 0.668157
Si Si2 0.206961 0.138203 0.561877
Si Si3 0.701478 0.563899 0.702856
Si Si4 0.528519 0.631424 0.858726
Si Si5 0.320290 0.190687 0.103780
Si Si6 0.783108 0.663906 0.375112
Si Si7 0.892784 0.351965 0.020870
Si Si8 0.313178 0.560585 0.831718
O O1 0.500000 0.262226 0.500000
O O2 0.642096 0.307733 0.536170
O O3 0.778614 0.213603 0.753894
O O4 0.829309 0.305218 0.886160
O O5 0.242018 0.087831 0.661893
O O6 0.058486 0.117678 0.327290
O O7 0.389662 0.152616 0.722391
O O8 0.500000 0.580917 0.500000
O O9 0.734793 0.500000 0.737678
O O10 0.840357 0.588375 0.927157
O O11 0.375998 0.656512 0.742287
O O12 0.691866 0.673992 0.030317
O O13 0.629774 0.578429 0.012766
O O14 0.529758 0.185655 0.371517
O O15 0.250000 0.250000 0.000000
O O16 0.299931 0.153232 0.001177
O O17 0.809963 0.607153 0.354611
O O18 0.215420 0.500000 0.721545
O O19 0.500000 0.554500 0.000000
#
# Coordination Sequence:
#
# PCOD8109480 Si02
#       8
#     8   8   8   8   8   8   8   8
#     4  11  23  39  63  95 134 175 217 269 331 413
#     4  11  22  39  64  95 134 175 217 271 336 397
#     4  10  21  39  64  93 128 172 222 269 327 404
#     4  11  24  43  66  95 133 172 220 279 330 395
#     4  12  26  42  67  98 137 173 216 273 329 403
#     4  11  25  44  67  97 131 174 229 268 342 400
#     4  11  23  41  62  95 135 171 220 268 331 402
#     4   9  22  45  72  97 129 175 230 288 338 393
#
# _framework density 21.579025999999999
#
# number of rings (size 3 to 8) (size 9 to 14) (size 15 to 20)
#    0.000    1.250    1.250    6.000    5.250    4.500 
#    0.000    2.500    0.000    0.000    0.000    0.000 
#    0.000    0.000    0.000    0.000    0.000    0.000 
#
# Total GULP energy -396713.145493 kJ/mol
# GULP energy per Si atom -12397.285797 kJ/mol
# Density = 2.152991 g / cm^3
# Si number density = 21.579026 Si / 1000 Ang^3
#
#
#
# Elastic Constant Matrix: (Units=GPa)
#
#
# Indices 1 2 3 4 5 6 
#
# 1 116.0976 48.4168 37.6594 0.0000 1.1207 0.0001
# 2 48.4168 137.5520 36.5569 0.0000 -2.0331 0.0000
# 3 37.6594 36.5569 82.8739 -0.0003 5.4535 0.0003
# 4 0.0000 0.0000 -0.0003 27.0725 -0.0001 -0.3884
# 5 1.1207 -2.0331 5.4535 -0.0001 34.6243 0.0003
# 6 0.0001 0.0000 0.0003 -0.3884 0.0003 8.9577
#
#
#
# Elastic Compliance Matrix: (Units=1/GPa)
#
#
# Indices 1 2 3 4 5 6 
#
# 1 0.011031 -0.002887 -0.003743 0.000000 0.000063 0.000000
# 2 -0.002887 0.009030 -0.002741 0.000000 0.001055 0.000000
# 3 -0.003743 -0.002741 0.015136 0.000000 -0.002424 0.000000
# 4 0.000000 0.000000 0.000000 0.036961 0.000000 0.001603
# 5 0.000063 0.001055 -0.002424 0.000000 0.029323 -0.000001
# 6 0.000000 0.000000 0.000000 0.001603 -0.000001 0.111705
#
#
# Mechanical properties :
#
#
# Convention : Reuss Voigt Hill
#
# Bulk Modulus (GPa) = 60.77230 64.64329 62.70779
# Shear Modulus (GPa) = 21.06023 28.39026 24.72524
#
# Velocity S-wave (km/s) = 3.12742 3.63111 3.38864
# Velocity P-wave (km/s) = 6.42377 6.89939 6.66582
#
# Compressibility (1/GPa) = 0.01645487
#
# Stress axis : x y z
#
# Youngs Moduli (GPa) = 90.65290 110.73925 66.06707
#
# Poissons Ratio (x) = 0.31971 0.24731
# Poissons Ratio (y) = 0.26172 0.18108
# Poissons Ratio (z) = 0.33935 0.30352
#
# Static dielectric constant tensor:
#      x y z
#    x 5.092340 0.000000 -0.201360 
#    y 0.000000 4.224450 0.000000 
#    z -0.201360 0.000000 3.946640 
# 
# 
# High freq. dielectric constant tensor:
#      x y z
#    x 1.860930 0.000000 0.002550 
#    y 0.000000 1.836450 0.000000 
#    z 0.002550 0.000000 1.849510 
# 
# From -- ./inp_files/286439.got.cif
#   From: 2010.06.25/outbox.cif.g09.slc.cpg/sg12_144_cif.got.tgz:286439.got - 2010.06.28 00:19:55.
