data_PCOD8109434
_publ_section_title
;
Structure prediction by ZEFSAII (Michael W. Deem and Ramdas Pophale) SiO2 
 PCOD8109434
Probable space group: C 2/M
;
_chemical_formula_sum "Si O2"
_cell_formula_units_Z 32
_cell_length_a 14.321450
_cell_length_b 14.779500
_cell_length_c 19.569716
_cell_angle_alpha 90.000000
_cell_angle_beta 22.490280
_cell_angle_gamma 90.000000
_cell_volume 1584.502773
_symmetry_space_group_name_H-M "C 2/M"
_symmetry_group_IT_number 12
_symmetry_cell_setting 'monoclinic'
loop_
_space_group_symop_operation_xyz
x,y,z
-x,y,-z
-x,-y,-z
x,-y,z
1/2+x,1/2+y,z
1/2-x,1/2+y,-z
1/2-x,1/2-y,-z
1/2+x,1/2-y,z
loop_
_atom_site_type_symbol
_atom_site_label
_atom_site_fract_x
_atom_site_fract_y
_atom_site_fract_z
Si Si1 0.220397 0.903093 0.900905
Si Si2 0.762000 0.896453 0.956996
Si Si3 0.701045 0.604764 0.307553
Si Si4 0.525383 0.275964 0.302263
O O1 0.368883 0.823536 0.767714
O O2 0.367351 0.000000 0.804476
O O3 0.140751 0.879726 0.032207
O O4 0.000000 0.919223 0.000000
O O5 0.923945 0.829025 0.802108
O O6 0.805283 0.000000 0.903840
O O7 0.473148 0.872643 0.149854
O O8 0.500000 0.629758 0.500000
O O9 0.679473 0.500000 0.300941
O O10 0.648901 0.665076 0.277328
O O11 0.250000 0.250000 0.500000
#
# Coordination Sequence:
#
# PCOD8109434 Si02
#       4
#     8   8   8   8
#     4  10  22  40  60  82 114 157 199 240 289 348
#     4  10  21  40  64  87 115 153 198 249 299 346
#     4  10  21  39  64  92 119 149 194 251 303 348
#     4  12  24  36  58  89 122 157 194 240 294 353
#
# _framework density 20.195609999999999
#
# number of rings (size 3 to 8) (size 9 to 14) (size 15 to 20)
#    0.000    1.500    0.000    5.250    0.000    8.000 
#    0.000    0.000    0.000    5.250    0.000    0.000 
#    0.000    0.000    0.000    0.000    0.000    0.000 
#
# Total GULP energy -198317.539911 kJ/mol
# GULP energy per Si atom -12394.846244 kJ/mol
# Density = 2.014964 g / cm^3
# Si number density = 20.195610 Si / 1000 Ang^3
#
#
#
# Elastic Constant Matrix: (Units=GPa)
#
#
# Indices 1 2 3 4 5 6 
#
# 1 152.6135 59.2873 47.6366 -0.0079 7.0176 -0.0978
# 2 59.2873 134.3431 58.7375 -0.1143 13.1095 0.1066
# 3 47.6366 58.7375 117.4094 -0.2892 9.9567 1.1060
# 4 -0.0079 -0.1143 -0.2892 31.7432 0.1238 13.7394
# 5 7.0176 13.1095 9.9567 0.1238 23.3640 -0.2717
# 6 -0.0978 0.1066 1.1060 13.7394 -0.2717 51.6679
#
#
#
# Elastic Compliance Matrix: (Units=1/GPa)
#
#
# Indices 1 2 3 4 5 6 
#
# 1 0.008244 -0.002778 -0.001949 -0.000059 -0.000086 0.000078
# 2 -0.002778 0.010738 -0.003948 -0.000001 -0.003508 0.000039
# 3 -0.001949 -0.003948 0.011464 0.000234 -0.002090 -0.000314
# 4 -0.000059 -0.000001 0.000234 0.035608 -0.000380 -0.009476
# 5 -0.000086 -0.003508 -0.002090 -0.000380 0.045692 0.000393
# 6 0.000078 0.000039 -0.000314 -0.009476 0.000393 0.021883
#
#
# Mechanical properties :
#
#
# Convention : Reuss Voigt Hill
#
# Bulk Modulus (GPa) = 76.35515 81.74320 79.04917
# Shear Modulus (GPa) = 32.18694 37.26866 34.72780
#
# Velocity S-wave (km/s) = 3.99652 4.30045 4.15127
# Velocity P-wave (km/s) = 7.69325 8.07602 7.88696
#
# Compressibility (1/GPa) = 0.01309669
#
# Stress axis : x y z
#
# Youngs Moduli (GPa) = 121.30177 93.12861 87.23283
#
# Poissons Ratio (x) = 0.25870 0.16999
# Poissons Ratio (y) = 0.33696 0.34437
# Poissons Ratio (z) = 0.23638 0.36765
#
# Static dielectric constant tensor:
#      x y z
#    x 3.808230 0.000140 0.025770 
#    y 0.000140 3.843330 0.000240 
#    z 0.025770 0.000240 3.602290 
# 
# 
# High freq. dielectric constant tensor:
#      x y z
#    x 1.801380 0.000000 0.003220 
#    y 0.000000 1.816810 0.000030 
#    z 0.003220 0.000030 1.769360 
# 
# From -- ./inp_files/45219.got.cif
#   From: 2010.06.25/outbox.cif.g09.slc.cpg/sg12_23_cif.got.tgz:45219.got - 2010.06.28 00:19:55.
