data_PCOD8109742
_publ_section_title
;
Structure prediction by ZEFSAII (Michael W. Deem and Ramdas Pophale) SiO2 
 PCOD8109742
Probable space group: C 2/M
;
_chemical_formula_sum "Si O2"
_cell_formula_units_Z 40
_cell_length_a 17.937018
_cell_length_b 13.437166
_cell_length_c 9.020117
_cell_angle_alpha 90.000000
_cell_angle_beta 105.746490
_cell_angle_gamma 90.000000
_cell_volume 2092.464697
_symmetry_space_group_name_H-M "C 2/M"
_symmetry_group_IT_number 12
_symmetry_cell_setting 'monoclinic'
loop_
_space_group_symop_operation_xyz
x,y,z
-x,y,-z
-x,-y,-z
x,-y,z
1/2+x,1/2+y,z
1/2-x,1/2+y,-z
1/2-x,1/2-y,-z
1/2+x,1/2-y,z
loop_
_atom_site_type_symbol
_atom_site_label
_atom_site_fract_x
_atom_site_fract_y
_atom_site_fract_z
Si Si1 0.048923 0.728885 0.879553
Si Si2 0.349044 0.615484 0.199330
Si Si3 0.806642 0.726559 0.397532
Si Si4 0.445910 0.892038 0.606029
Si Si5 0.294970 0.884033 0.094107
O O1 0.076387 0.838349 0.843204
O O2 0.124879 0.658699 0.930204
O O3 0.987237 0.684435 0.734851
O O4 0.000000 0.740397 0.000000
O O5 0.364312 0.500000 0.235314
O O6 0.340319 0.669105 0.354049
O O7 0.272558 0.635713 0.060341
O O8 0.750000 0.750000 0.500000
O O9 0.868861 0.656114 0.504149
O O10 0.770856 0.668320 0.236199
O O11 0.500000 0.915518 0.500000
O O12 0.427738 0.000000 0.673045
O O13 0.307090 0.000000 0.131197
#
# Coordination Sequence:
#
# PCOD8109742 Si02
#       5
#     8   8   8   8   8
#     4  11  23  38  62  89 122 151 197 247 298 348
#     4  10  23  42  61  83 120 166 206 238 285 354
#     4  11  23  38  61  89 124 154 197 246 299 354
#     4  11  22  39  62  89 119 153 191 246 308 353
#     4  10  21  40  62  86 119 160 199 244 295 352
#
# _framework density 19.116213999999999
#
# number of rings (size 3 to 8) (size 9 to 14) (size 15 to 20)
#    0.000    1.400    4.000    3.600    5.600    3.600 
#    0.000    2.000    0.000    0.000    0.000    0.000 
#    0.000    0.000    0.000    0.000    0.000    0.000 
#
# Total GULP energy -247885.310826 kJ/mol
# GULP energy per Si atom -12394.265541 kJ/mol
# Density = 1.907270 g / cm^3
# Si number density = 19.116214 Si / 1000 Ang^3
#
#
#
# Elastic Constant Matrix: (Units=GPa)
#
#
# Indices 1 2 3 4 5 6 
#
# 1 79.0339 38.2939 45.7612 0.0000 -25.5394 0.0000
# 2 38.2939 130.3389 34.5938 0.0000 -10.9229 0.0000
# 3 45.7612 34.5938 72.4951 0.0000 -28.5845 0.0000
# 4 0.0000 0.0000 0.0000 19.6943 0.0000 15.4512
# 5 -25.5394 -10.9229 -28.5845 0.0000 45.2331 0.0000
# 6 0.0000 0.0000 0.0000 15.4512 0.0000 24.5784
#
#
#
# Elastic Compliance Matrix: (Units=1/GPa)
#
#
# Indices 1 2 3 4 5 6 
#
# 1 0.021771 -0.003268 -0.010185 0.000000 0.005067 0.000000
# 2 -0.003268 0.009292 -0.002949 0.000000 -0.001465 0.000000
# 3 -0.010185 -0.002949 0.025415 0.000000 0.009598 0.000000
# 4 0.000000 0.000000 0.000000 0.100192 0.000000 -0.062986
# 5 0.005067 -0.001465 0.009598 0.000000 0.030680 0.000000
# 6 0.000000 0.000000 0.000000 -0.062986 0.000000 0.080282
#
#
# Mechanical properties :
#
#
# Convention : Reuss Voigt Hill
#
# Bulk Modulus (GPa) = 42.24126 57.68508 49.96317
# Shear Modulus (GPa) = 16.21654 28.78242 22.49948
#
# Velocity S-wave (km/s) = 2.91574 3.88449 3.43444
# Velocity P-wave (km/s) = 5.78623 7.09651 6.47460
#
# Compressibility (1/GPa) = 0.02367354
#
# Stress axis : x y z
#
# Youngs Moduli (GPa) = 45.93280 107.61414 39.34749
#
# Poissons Ratio (x) = 0.35174 0.40076
# Poissons Ratio (y) = 0.15013 0.11602
# Poissons Ratio (z) = 0.46783 0.31732
#
# Static dielectric constant tensor:
#      x y z
#    x 3.402980 0.000000 0.175790 
#    y 0.000000 4.005000 0.000000 
#    z 0.175790 0.000000 3.420290 
# 
# 
# High freq. dielectric constant tensor:
#      x y z
#    x 1.737310 0.000000 0.005940 
#    y 0.000000 1.760750 0.000000 
#    z 0.005940 0.000000 1.743490 
# 
# From -- ./inp_files/72392.got.cif
#   From: 2010.06.25/outbox.cif.g09.slc.cpg/sg12_37_cif.got.tgz:72392.got - 2010.06.28 00:19:55.
