data_PCOD8109693
_publ_section_title
;
Structure prediction by ZEFSAII (Michael W. Deem and Ramdas Pophale) SiO2 
 PCOD8109693
Probable space group: C 2/M
;
_chemical_formula_sum "Si O2"
_cell_formula_units_Z 48
_cell_length_a 11.743573
_cell_length_b 24.542415
_cell_length_c 9.124814
_cell_angle_alpha 90.000000
_cell_angle_beta 115.861670
_cell_angle_gamma 90.000000
_cell_volume 2366.527678
_symmetry_space_group_name_H-M "C 2/M"
_symmetry_group_IT_number 12
_symmetry_cell_setting 'monoclinic'
loop_
_space_group_symop_operation_xyz
x,y,z
-x,y,-z
-x,-y,-z
x,-y,z
1/2+x,1/2+y,z
1/2-x,1/2+y,-z
1/2-x,1/2-y,-z
1/2+x,1/2-y,z
loop_
_atom_site_type_symbol
_atom_site_label
_atom_site_fract_x
_atom_site_fract_y
_atom_site_fract_z
Si Si1 0.637039 0.363959 0.862482
Si Si2 0.250145 0.936104 0.703649
Si Si3 0.140549 0.863722 0.409113
Si Si4 0.035899 0.647104 0.188373
Si Si5 0.763845 0.216618 0.314805
Si Si6 0.283208 0.839929 0.225514
O O1 0.701145 0.420142 0.839123
O O2 0.487712 0.365068 0.754673
O O3 0.700585 0.314642 0.812243
O O4 0.669536 0.353337 0.049695
O O5 0.146379 0.912316 0.530993
O O6 0.384650 0.908277 0.742844
O O7 0.264356 0.000000 0.695791
O O8 0.151181 0.805001 0.500118
O O9 0.254303 0.874217 0.356450
O O10 0.118994 0.700464 0.274259
O O11 0.916740 0.645051 0.229777
O O12 0.000000 0.651413 0.000000
O O13 0.779224 0.278990 0.285904
#
# Coordination Sequence:
#
# PCOD8109693 Si02
#       6
#     8   8   8   8   8   8
#     4  10  21  40  61  92 121 156 214 252 294 370
#     4  10  22  44  68  85 116 166 207 260 314 364
#     4  10  23  40  58  94 126 157 210 252 302 374
#     4  10  21  40  60  94 122 155 217 248 298 377
#     4  10  22  37  59  87 125 174 201 235 297 368
#     4  12  22  38  62  90 133 166 194 263 306 348
#
# _framework density 20.282881
#
# number of rings (size 3 to 8) (size 9 to 14) (size 15 to 20)
#    0.000    2.000    3.333    3.500    2.333    4.333 
#    6.000    2.500    0.000    2.000    0.000    0.000 
#    0.000    0.000    0.000    0.000    0.000    0.000 
#
# Total GULP energy -297421.889036 kJ/mol
# GULP energy per Si atom -12392.578710 kJ/mol
# Density = 2.023672 g / cm^3
# Si number density = 20.282881 Si / 1000 Ang^3
#
#
#
# Elastic Constant Matrix: (Units=GPa)
#
#
# Indices 1 2 3 4 5 6 
#
# 1 101.7593 45.3981 31.6002 0.0000 -0.7389 0.0000
# 2 45.3981 112.7993 54.9497 0.0000 5.0744 0.0000
# 3 31.6002 54.9497 60.2953 0.0000 -5.2635 0.0000
# 4 0.0000 0.0000 0.0000 4.4446 0.0000 5.3400
# 5 -0.7389 5.0744 -5.2635 0.0000 44.0557 0.0000
# 6 0.0000 0.0000 0.0000 5.3400 0.0000 9.3264
#
#
#
# Elastic Compliance Matrix: (Units=1/GPa)
#
#
# Indices 1 2 3 4 5 6 
#
# 1 0.012377 -0.003303 -0.003461 0.000000 0.000175 0.000000
# 2 -0.003303 0.017414 -0.014470 0.000000 -0.003790 0.000000
# 3 -0.003461 -0.014470 0.032061 0.000000 0.005439 0.000000
# 4 0.000000 0.000000 0.000000 0.720977 0.000000 -0.412813
# 5 0.000175 -0.003790 0.005439 0.000000 0.023788 0.000000
# 6 0.000000 0.000000 0.000000 -0.412813 0.000000 0.343588
#
#
# Mechanical properties :
#
#
# Convention : Reuss Voigt Hill
#
# Bulk Modulus (GPa) = 51.59019 59.86108 55.72564
# Shear Modulus (GPa) = 4.16967 21.09239 12.63103
#
# Velocity S-wave (km/s) = 1.43535 3.22826 2.49819
# Velocity P-wave (km/s) = 5.31390 6.59339 5.98792
#
# Compressibility (1/GPa) = 0.01938353
#
# Stress axis : x y z
#
# Youngs Moduli (GPa) = 80.79648 57.42445 31.19055
#
# Poissons Ratio (x) = 0.18967 0.10795
# Poissons Ratio (y) = 0.26687 0.45133
# Poissons Ratio (z) = 0.27965 0.83094
#
# Static dielectric constant tensor:
#      x y z
#    x 3.905620 0.000000 -0.022170 
#    y 0.000000 3.377150 0.000000 
#    z -0.022170 0.000000 3.911000 
# 
# 
# High freq. dielectric constant tensor:
#      x y z
#    x 1.803110 0.000000 -0.001930 
#    y 0.000000 1.750690 0.000000 
#    z -0.001930 0.000000 1.807520 
# 
# From -- ./inp_files/52782.got.cif
#   From: 2010.06.25/outbox.cif.g09.slc.cpg/sg12_27_cif.got.tgz:52782.got - 2010.06.28 00:19:55.
