data_PCOD8109355
_publ_section_title
;
Structure prediction by ZEFSAII (Michael W. Deem and Ramdas Pophale) SiO2 
 PCOD8109355
Probable space group: C 2/M
;
_chemical_formula_sum "Si O2"
_cell_formula_units_Z 56
_cell_length_a 9.206726
_cell_length_b 19.244085
_cell_length_c 16.166846
_cell_angle_alpha 90.000000
_cell_angle_beta 116.014312
_cell_angle_gamma 90.000000
_cell_volume 2574.157085
_symmetry_space_group_name_H-M "C 2/M"
_symmetry_group_IT_number 12
_symmetry_cell_setting 'monoclinic'
loop_
_space_group_symop_operation_xyz
x,y,z
-x,y,-z
-x,-y,-z
x,-y,z
1/2+x,1/2+y,z
1/2-x,1/2+y,-z
1/2-x,1/2-y,-z
1/2+x,1/2-y,z
loop_
_atom_site_type_symbol
_atom_site_label
_atom_site_fract_x
_atom_site_fract_y
_atom_site_fract_z
Si Si1 0.323741 0.579312 0.493376
Si Si2 0.379313 0.420290 0.698543
Si Si3 0.832300 0.078268 0.990585
Si Si4 0.609629 0.700892 0.738675
Si Si5 0.131232 0.577488 0.775907
Si Si6 0.363862 0.824200 0.668137
Si Si7 0.308326 0.196947 0.947116
O O1 0.500000 0.596459 0.500000
O O2 0.276505 0.500000 0.456483
O O3 0.315633 0.587323 0.589723
O O4 0.191973 0.635260 0.428618
O O5 0.427948 0.500000 0.730636
O O6 0.535627 0.372339 0.749441
O O7 0.244951 0.393669 0.730358
O O8 0.712105 0.079930 0.884537
O O9 0.861836 0.000000 0.030481
O O10 0.762633 0.121144 0.049926
O O11 0.000000 0.111157 0.000000
O O12 0.466718 0.754448 0.680414
O O13 0.702991 0.693261 0.676953
O O14 0.737523 0.723929 0.841556
O O15 0.078412 0.500000 0.738880
O O16 0.973250 0.623532 0.748000
O O17 0.500000 0.194009 0.000000
O O18 0.250000 0.250000 0.000000
#
# Coordination Sequence:
#
# PCOD8109355 Si02
#       7
#     8   8   8   8   8   8   8
#     4  10  21  43  71  98 128 165 206 253 315 380
#     4  10  22  42  68  98 128 165 212 258 313 383
#     4  10  21  39  63  92 128 166 208 262 322 376
#     4  12  25  41  65  93 126 169 213 264 320 373
#     4  10  21  39  64  94 127 166 211 262 315 373
#     4  12  25  43  63  93 130 166 214 263 314 376
#     4  12  25  42  64  90 125 170 217 266 316 376
#
# _framework density 21.754695999999999
#
# number of rings (size 3 to 8) (size 9 to 14) (size 15 to 20)
#    0.000    1.143    1.429    5.143    0.000    3.714 
#    0.000    2.143    0.000    0.000    0.000    0.000 
#    0.000    0.000    0.000    0.000    0.000    0.000 
#
# Total GULP energy -347221.481484 kJ/mol
# GULP energy per Si atom -12400.767196 kJ/mol
# Density = 2.170518 g / cm^3
# Si number density = 21.754696 Si / 1000 Ang^3
#
#
#
# Elastic Constant Matrix: (Units=GPa)
#
#
# Indices 1 2 3 4 5 6 
#
# 1 97.3344 46.7766 7.8626 0.0000 10.8787 0.0000
# 2 46.7766 94.2257 26.6320 0.0000 15.2898 0.0000
# 3 7.8626 26.6320 84.8844 0.0000 5.8107 0.0000
# 4 0.0000 0.0000 0.0000 36.4355 0.0000 6.4195
# 5 10.8787 15.2898 5.8107 0.0000 36.7474 0.0000
# 6 0.0000 0.0000 0.0000 6.4195 0.0000 36.2939
#
#
#
# Elastic Compliance Matrix: (Units=1/GPa)
#
#
# Indices 1 2 3 4 5 6 
#
# 1 0.013623 -0.006818 0.000970 0.000000 -0.001349 0.000000
# 2 -0.006818 0.015776 -0.004051 0.000000 -0.003905 0.000000
# 3 0.000970 -0.004051 0.013007 0.000000 -0.000658 0.000000
# 4 0.000000 0.000000 0.000000 0.028329 0.000000 -0.005011
# 5 -0.001349 -0.003905 -0.000658 0.000000 0.029341 0.000000
# 6 0.000000 0.000000 0.000000 -0.005011 0.000000 0.028439
#
#
# Mechanical properties :
#
#
# Convention : Reuss Voigt Hill
#
# Bulk Modulus (GPa) = 44.23283 48.77631 46.50457
# Shear Modulus (GPa) = 32.08238 34.90691 33.49464
#
# Velocity S-wave (km/s) = 3.84439 4.01005 3.92810
# Velocity P-wave (km/s) = 6.33107 6.62649 6.48047
#
# Compressibility (1/GPa) = 0.02260764
#
# Stress axis : x y z
#
# Youngs Moduli (GPa) = 73.40588 63.38731 76.88230
#
# Poissons Ratio (x) = 0.43217 -0.07455
# Poissons Ratio (y) = 0.50047 0.31143
# Poissons Ratio (z) = -0.07117 0.25677
#
# Static dielectric constant tensor:
#      x y z
#    x 3.909100 0.000000 -0.013380 
#    y 0.000000 4.270110 0.000000 
#    z -0.013380 0.000000 3.838730 
# 
# 
# High freq. dielectric constant tensor:
#      x y z
#    x 1.853800 0.000000 0.001900 
#    y 0.000000 1.865450 0.000000 
#    z 0.001900 0.000000 1.857080 
# 
# From -- ./inp_files/258233.got.cif
#   From: 2010.06.25/outbox.cif.g09.slc.cpg/sg12_130_cif.got.tgz:258233.got - 2010.06.28 00:19:55.
