data_PCOD8109050
_publ_section_title
;
Structure prediction by ZEFSAII (Michael W. Deem and Ramdas Pophale) SiO2 
 PCOD8109050
Probable space group: C 2/M
;
_chemical_formula_sum "Si O2"
_cell_formula_units_Z 56
_cell_length_a 25.053547
_cell_length_b 8.919476
_cell_length_c 13.794128
_cell_angle_alpha 90.000000
_cell_angle_beta 66.915290
_cell_angle_gamma 90.000000
_cell_volume 2835.670626
_symmetry_space_group_name_H-M "C 2/M"
_symmetry_group_IT_number 12
_symmetry_cell_setting 'monoclinic'
loop_
_space_group_symop_operation_xyz
x,y,z
-x,y,-z
-x,-y,-z
x,-y,z
1/2+x,1/2+y,z
1/2-x,1/2+y,-z
1/2-x,1/2-y,-z
1/2+x,1/2-y,z
loop_
_atom_site_type_symbol
_atom_site_label
_atom_site_fract_x
_atom_site_fract_y
_atom_site_fract_z
Si Si1 0.513843 0.326366 0.382659
Si Si2 0.081248 0.171914 0.706186
Si Si3 0.285396 0.324646 0.389961
Si Si4 0.244705 0.677499 0.211468
Si Si5 0.937138 0.330993 0.089005
Si Si6 0.375038 0.822335 0.790399
Si Si7 0.851284 0.824095 0.011251
O O1 0.500000 0.267407 0.500000
O O2 0.532028 0.500000 0.370580
O O3 0.455381 0.298468 0.364240
O O4 0.566859 0.235074 0.300489
O O5 0.147695 0.212999 0.638233
O O6 0.056176 0.281568 0.804988
O O7 0.075267 0.000000 0.745252
O O8 0.273009 0.500000 0.401422
O O9 0.250000 0.250000 0.500000
O O10 0.265334 0.256160 0.300339
O O11 0.247029 0.500000 0.216984
O O12 0.180272 0.735415 0.232139
O O13 0.287847 0.727725 0.094020
O O14 0.912105 0.500000 0.100147
O O15 0.895656 0.214015 0.065240
O O16 0.000000 0.322905 0.000000
O O17 0.376865 0.000000 0.792954
O O18 0.369577 0.764769 0.903277
O O19 0.854021 0.000000 0.987013
#
# Coordination Sequence:
#
# PCOD8109050 Si02
#       7
#     8   8   8   8   8   8   8
#     4  10  23  42  63  88 118 158 206 248 289 350
#     4  10  21  40  63  85 117 158 199 243 293 350
#     4  10  21  39  61  89 118 152 197 246 297 352
#     4   9  20  39  61  86 121 157 195 241 296 356
#     4  11  23  37  57  88 123 155 194 246 296 350
#     4  11  23  39  60  89 123 158 196 246 301 353
#     4  11  21  39  63  87 119 159 199 241 292 355
#
# _framework density 19.748415000000001
#
# number of rings (size 3 to 8) (size 9 to 14) (size 15 to 20)
#    0.000    1.714    1.429    2.571    2.000    4.857 
#    0.000    2.857    0.000    0.000    0.000    0.000 
#    0.000    0.000    0.000    0.000    0.000    0.000 
#
# Total GULP energy -347287.192062 kJ/mol
# GULP energy per Si atom -12403.114002 kJ/mol
# Density = 1.970347 g / cm^3
# Si number density = 19.748415 Si / 1000 Ang^3
#
#
#
# Elastic Constant Matrix: (Units=GPa)
#
#
# Indices 1 2 3 4 5 6 
#
# 1 126.8360 35.0459 58.7608 0.0000 4.4390 0.0000
# 2 35.0459 57.1364 47.7426 0.0000 -6.5202 0.0000
# 3 58.7608 47.7426 160.8366 0.0000 3.0191 0.0000
# 4 0.0000 0.0000 0.0000 29.5672 0.0000 -2.6663
# 5 4.4390 -6.5202 3.0191 0.0000 29.8188 0.0000
# 6 0.0000 0.0000 0.0000 -2.6663 0.0000 24.9882
#
#
#
# Elastic Compliance Matrix: (Units=1/GPa)
#
#
# Indices 1 2 3 4 5 6 
#
# 1 0.010338 -0.004635 -0.002358 0.000000 -0.002314 0.000000
# 2 -0.004635 0.026399 -0.006276 0.000000 0.007098 0.000000
# 3 -0.002358 -0.006276 0.008978 0.000000 -0.001930 0.000000
# 4 0.000000 0.000000 0.000000 0.034150 0.000000 0.003644
# 5 -0.002314 0.007098 -0.001930 0.000000 0.035628 0.000000
# 6 0.000000 0.000000 0.000000 0.003644 0.000000 0.040408
#
#
# Mechanical properties :
#
#
# Convention : Reuss Voigt Hill
#
# Bulk Modulus (GPa) = 52.14404 69.76750 60.95577
# Shear Modulus (GPa) = 26.47862 30.42548 28.45205
#
# Velocity S-wave (km/s) = 3.66566 3.92938 3.79981
# Velocity P-wave (km/s) = 6.66165 7.48275 7.08411
#
# Compressibility (1/GPa) = 0.01917765
#
# Stress axis : x y z
#
# Youngs Moduli (GPa) = 96.72891 37.87970 111.38204
#
# Poissons Ratio (x) = 0.17558 0.26260
# Poissons Ratio (y) = 0.44835 0.69905
# Poissons Ratio (z) = 0.22805 0.23774
#
# Static dielectric constant tensor:
#      x y z
#    x 3.879170 0.000000 0.079720 
#    y 0.000000 3.507820 0.000000 
#    z 0.079720 0.000000 3.694950 
# 
# 
# High freq. dielectric constant tensor:
#      x y z
#    x 1.783860 0.000000 0.000180 
#    y 0.000000 1.755820 0.000000 
#    z 0.000180 0.000000 1.779520 
# 
# From -- ./inp_files/180812.got.cif
#   From: 2010.06.25/outbox.cif.g09.slc.cpg/sg12_91_cif.got.tgz:180812.got - 2010.06.28 00:19:55.
