data_PCOD8109075
_publ_section_title
;
Structure prediction by ZEFSAII (Michael W. Deem and Ramdas Pophale) SiO2 
 PCOD8109075
Probable space group: C 2/M
;
_chemical_formula_sum "Si O2"
_cell_formula_units_Z 56
_cell_length_a 21.427195
_cell_length_b 14.343947
_cell_length_c 9.220974
_cell_angle_alpha 90.000000
_cell_angle_beta 86.163426
_cell_angle_gamma 90.000000
_cell_volume 2827.720158
_symmetry_space_group_name_H-M "C 2/M"
_symmetry_group_IT_number 12
_symmetry_cell_setting 'monoclinic'
loop_
_space_group_symop_operation_xyz
x,y,z
-x,y,-z
-x,-y,-z
x,-y,z
1/2+x,1/2+y,z
1/2-x,1/2+y,-z
1/2-x,1/2-y,-z
1/2+x,1/2-y,z
loop_
_atom_site_type_symbol
_atom_site_label
_atom_site_fract_x
_atom_site_fract_y
_atom_site_fract_z
Si Si1 0.001474 0.107136 0.167390
Si Si2 0.181419 0.747374 0.946660
Si Si3 0.693679 0.391652 0.424051
Si Si4 0.139375 0.893367 0.735716
Si Si5 0.927318 0.391838 0.535533
Si Si6 0.889736 0.766121 0.756672
Si Si7 0.669441 0.893653 0.691863
O O1 0.048002 0.171780 0.250093
O O2 0.934731 0.121919 0.252562
O O3 0.023708 0.000000 0.176251
O O4 0.000000 0.137665 0.000000
O O5 0.171815 0.844183 0.865534
O O6 0.170085 0.663049 0.839490
O O7 0.250000 0.750000 0.000000
O O8 0.130313 0.736472 0.079872
O O9 0.675518 0.500000 0.401731
O O10 0.666713 0.354210 0.580739
O O11 0.665169 0.328646 0.302196
O O12 0.768155 0.377150 0.412732
O O13 0.158070 0.000000 0.751372
O O14 0.914989 0.500000 0.577806
O O15 0.901867 0.329009 0.669434
O O16 0.890122 0.364382 0.395294
O O17 0.000000 0.371852 0.500000
O O18 0.664189 0.000000 0.741831
#
# Coordination Sequence:
#
# PCOD8109075 Si02
#       7
#     8   8   8   8   8   8   8
#     4  10  21  39  61  92 130 167 199 243 314 385
#     4  12  25  39  60  95 128 162 207 253 311 376
#     4  10  22  40  64  95 125 160 203 252 314 377
#     4  10  23  41  63  89 127 166 203 250 307 376
#     4  10  25  46  66  90 121 165 218 268 312 359
#     4  12  24  37  65  95 126 161 205 261 309 371
#     4  10  23  45  67  87 124 169 208 261 319 368
#
# _framework density 19.803940000000001
#
# number of rings (size 3 to 8) (size 9 to 14) (size 15 to 20)
#    0.000    1.429    2.857    1.286    6.000    2.857 
#    0.000    2.143    0.000    3.000    0.000    0.000 
#    0.000    0.000    0.000    0.000    0.000    0.000 
#
# Total GULP energy -347361.101127 kJ/mol
# GULP energy per Si atom -12405.753612 kJ/mol
# Density = 1.975887 g / cm^3
# Si number density = 19.803940 Si / 1000 Ang^3
#
#
#
# Elastic Constant Matrix: (Units=GPa)
#
#
# Indices 1 2 3 4 5 6 
#
# 1 121.6589 50.6629 62.0227 0.0000 11.0673 0.0000
# 2 50.6629 91.3250 63.7737 0.0000 5.4123 0.0000
# 3 62.0227 63.7737 144.1508 0.0000 -6.0661 0.0000
# 4 0.0000 0.0000 0.0000 35.7601 0.0000 7.8227
# 5 11.0673 5.4123 -6.0661 0.0000 36.3312 0.0000
# 6 0.0000 0.0000 0.0000 7.8227 0.0000 22.0296
#
#
#
# Elastic Compliance Matrix: (Units=1/GPa)
#
#
# Indices 1 2 3 4 5 6 
#
# 1 0.012025 -0.003954 -0.003579 0.000000 -0.003672 0.000000
# 2 -0.003954 0.017615 -0.006195 0.000000 -0.002454 0.000000
# 3 -0.003579 -0.006195 0.011383 0.000000 0.003914 0.000000
# 4 0.000000 0.000000 0.000000 0.030319 0.000000 -0.010766
# 5 -0.003672 -0.002454 0.003914 0.000000 0.029662 0.000000
# 6 0.000000 0.000000 0.000000 -0.010766 0.000000 0.049217
#
#
# Mechanical properties :
#
#
# Convention : Reuss Voigt Hill
#
# Bulk Modulus (GPa) = 73.71251 78.89482 76.30366
# Shear Modulus (GPa) = 27.44256 30.86920 29.15588
#
# Velocity S-wave (km/s) = 3.72655 3.95237 3.84112
# Velocity P-wave (km/s) = 7.47116 7.79440 7.63449
#
# Compressibility (1/GPa) = 0.01356622
#
# Stress axis : x y z
#
# Youngs Moduli (GPa) = 83.16055 56.77009 87.85338
#
# Poissons Ratio (x) = 0.22446 0.31444
# Poissons Ratio (y) = 0.32881 0.54426
# Poissons Ratio (z) = 0.29764 0.35169
#
# Static dielectric constant tensor:
#      x y z
#    x 3.713510 0.000000 -0.015110 
#    y 0.000000 3.695260 0.000000 
#    z -0.015110 0.000000 3.615460 
# 
# 
# High freq. dielectric constant tensor:
#      x y z
#    x 1.782060 0.000000 -0.001120 
#    y 0.000000 1.780590 0.000000 
#    z -0.001120 0.000000 1.772420 
# 
# From -- ./inp_files/86369.got.cif
#   From: 2010.06.25/outbox.cif.g09.slc.cpg/sg12_44_cif.got.tgz:86369.got - 2010.06.28 00:19:55.
