data_PCOD8109537
_publ_section_title
;
Structure prediction by ZEFSAII (Michael W. Deem and Ramdas Pophale) SiO2 
 PCOD8109537
Probable space group: C 2/M
;
_chemical_formula_sum "Si O2"
_cell_formula_units_Z 48
_cell_length_a 15.878362
_cell_length_b 15.510228
_cell_length_c 18.173385
_cell_angle_alpha 90.000000
_cell_angle_beta 29.848950
_cell_angle_gamma 90.000000
_cell_volume 2227.617209
_symmetry_space_group_name_H-M "C 2/M"
_symmetry_group_IT_number 12
_symmetry_cell_setting 'monoclinic'
loop_
_space_group_symop_operation_xyz
x,y,z
-x,y,-z
-x,-y,-z
x,-y,z
1/2+x,1/2+y,z
1/2-x,1/2+y,-z
1/2-x,1/2-y,-z
1/2+x,1/2-y,z
loop_
_atom_site_type_symbol
_atom_site_label
_atom_site_fract_x
_atom_site_fract_y
_atom_site_fract_z
Si Si1 0.680049 0.863987 0.667372
Si Si2 0.437597 0.715057 0.847029
Si Si3 0.414361 0.403478 0.993181
Si Si4 0.178180 0.594251 0.828375
Si Si5 0.522243 0.713323 0.353458
Si Si6 0.024628 0.405280 0.318427
O O1 0.570522 0.783268 0.774831
O O2 0.669798 0.923401 0.747050
O O3 0.602191 0.909321 0.654511
O O4 0.871911 0.836764 0.506386
O O5 0.475890 0.634086 0.869390
O O6 0.479311 0.692389 0.731640
O O7 0.250000 0.750000 0.000000
O O8 0.482508 0.500000 0.940593
O O9 0.500000 0.357654 0.000000
O O10 0.213330 0.395791 0.145745
O O11 0.235115 0.500000 0.818049
O O12 0.304215 0.673950 0.747342
O O13 0.000000 0.620436 0.000000
O O14 0.496932 0.817463 0.387390
O O15 0.005017 0.500000 0.374212
#
# Coordination Sequence:
#
# PCOD8109537 Si02
#       6
#     8   8   8   8   8   8
#     4  11  23  41  65  95 131 174 214 267 336 396
#     4  11  20  37  64  92 124 168 220 269 318 378
#     4  10  22  38  60  92 125 165 221 274 321 370
#     4  11  26  44  68  99 130 170 218 271 331 398
#     4  11  24  41  63 101 132 173 219 265 335 399
#     4  10  21  39  65  92 128 172 218 268 322 383
#
# _framework density 21.547685999999999
#
# number of rings (size 3 to 8) (size 9 to 14) (size 15 to 20)
#    0.000    1.333    3.333    4.000    2.333    2.667 
#    0.000    2.500    0.000    2.000    0.000    0.000 
#    0.000    0.000    0.000    0.000    0.000    0.000 
#
# Total GULP energy -297340.784789 kJ/mol
# GULP energy per Si atom -12389.199366 kJ/mol
# Density = 2.149864 g / cm^3
# Si number density = 21.547686 Si / 1000 Ang^3
#
#
#
# Elastic Constant Matrix: (Units=GPa)
#
#
# Indices 1 2 3 4 5 6 
#
# 1 72.6095 53.8428 27.4888 -0.0036 -3.4084 0.0014
# 2 53.8428 84.6227 48.5510 -0.0021 -12.8013 -0.0048
# 3 27.4888 48.5510 125.4589 -0.0127 -2.7786 -0.0029
# 4 -0.0036 -0.0021 -0.0127 40.4327 0.0083 4.3402
# 5 -3.4084 -12.8013 -2.7786 0.0083 35.0691 -0.0013
# 6 0.0014 -0.0048 -0.0029 4.3402 -0.0013 28.8928
#
#
#
# Elastic Compliance Matrix: (Units=1/GPa)
#
#
# Indices 1 2 3 4 5 6 
#
# 1 0.026664 -0.018205 0.001115 0.000003 -0.003966 -0.000005
# 2 -0.018205 0.028583 -0.006893 -0.000005 0.008118 0.000006
# 3 0.001115 -0.006893 0.010359 0.000003 -0.001587 -0.000001
# 4 0.000003 -0.000005 0.000003 0.025138 -0.000007 -0.003776
# 5 -0.003966 0.008118 -0.001587 -0.000007 0.030967 0.000004
# 6 -0.000005 0.000006 -0.000001 -0.003776 0.000004 0.035178
#
#
# Mechanical properties :
#
#
# Convention : Reuss Voigt Hill
#
# Bulk Modulus (GPa) = 56.68828 60.27292 58.48060
# Shear Modulus (GPa) = 23.72666 31.06616 27.39641
#
# Velocity S-wave (km/s) = 3.32192 3.80114 3.56958
# Velocity P-wave (km/s) = 6.40928 6.87732 6.64742
#
# Compressibility (1/GPa) = 0.01764033
#
# Stress axis : x y z
#
# Youngs Moduli (GPa) = 37.50427 34.98587 96.53781
#
# Poissons Ratio (x) = 0.63691 -0.10765
# Poissons Ratio (y) = 0.68276 0.66540
# Poissons Ratio (z) = -0.04182 0.24114
#
# Static dielectric constant tensor:
#      x y z
#    x 3.864280 -0.000020 -0.100620 
#    y -0.000020 4.249350 0.000010 
#    z -0.100620 0.000010 3.739400 
# 
# 
# High freq. dielectric constant tensor:
#      x y z
#    x 1.841340 0.000000 -0.011740 
#    y 0.000000 1.855590 0.000000 
#    z -0.011740 0.000000 1.838980 
# 
# From -- ./inp_files/271604.got.cif
#   From: 2010.06.25/outbox.cif.g09.slc.cpg/sg12_136_cif.got.tgz:271604.got - 2010.06.28 00:19:55.
