data_PCOD8109814
_publ_section_title
;
Structure prediction by ZEFSAII (Michael W. Deem and Ramdas Pophale) SiO2 
 PCOD8109814
Probable space group: C 2/M
;
_chemical_formula_sum "Si O2"
_cell_formula_units_Z 56
_cell_length_a 28.374238
_cell_length_b 8.452688
_cell_length_c 12.636759
_cell_angle_alpha 90.000000
_cell_angle_beta 123.398203
_cell_angle_gamma 90.000000
_cell_volume 2530.294492
_symmetry_space_group_name_H-M "C 2/M"
_symmetry_group_IT_number 12
_symmetry_cell_setting 'monoclinic'
loop_
_space_group_symop_operation_xyz
x,y,z
-x,y,-z
-x,-y,-z
x,-y,z
1/2+x,1/2+y,z
1/2-x,1/2+y,-z
1/2-x,1/2-y,-z
1/2+x,1/2-y,z
loop_
_atom_site_type_symbol
_atom_site_label
_atom_site_fract_x
_atom_site_fract_y
_atom_site_fract_z
Si Si1 0.992302 0.678292 0.304585
Si Si2 0.614957 0.186989 0.504239
Si Si3 0.686215 0.314607 0.152372
Si Si4 0.369400 0.811635 0.118837
Si Si5 0.303004 0.683783 0.223825
Si Si6 0.520999 0.674524 0.135691
Si Si7 0.148874 0.174473 0.329472
O O1 0.989987 0.500000 0.341562
O O2 0.929654 0.753380 0.242172
O O3 0.049460 0.754300 0.426792
O O4 0.002608 0.688944 0.192636
O O5 0.645273 0.279242 0.634841
O O6 0.647789 0.218504 0.433982
O O7 0.615686 0.000000 0.525860
O O8 0.673406 0.500000 0.137739
O O9 0.749166 0.283773 0.190921
O O10 0.682435 0.250452 0.269976
O O11 0.640767 0.234766 0.016497
O O12 0.319848 0.733296 0.126021
O O13 0.367822 0.000000 0.126704
O O14 0.287362 0.500000 0.207048
O O15 0.495092 0.500000 0.131866
O O16 0.587043 0.655417 0.208269
O O17 0.500000 0.740626 0.000000
O O18 0.173327 0.000000 0.389715
#
# Coordination Sequence:
#
# PCOD8109814 Si02
#       7
#     8   8   8   8   8   8   8
#     4   9  20  36  57  85 117 153 191 236 289 347
#     4  10  21  40  63  89 121 157 198 241 291 350
#     4  11  23  41  64  90 120 156 199 245 295 349
#     4  11  23  41  63  89 121 156 197 244 296 351
#     4  12  26  43  62  85 116 156 202 250 299 351
#     4   9  16  28  49  79 115 152 189 233 285 341
#     4   9  19  35  57  86 119 154 193 239 291 349
#
# _framework density 22.131812
#
# number of rings (size 3 to 8) (size 9 to 14) (size 15 to 20)
#    0.000    1.857    0.000    3.857    0.000    5.429 
#    0.000    5.714    0.000    0.000    0.000    0.000 
#    0.000    0.000    0.000    0.000    0.000    0.000 
#
# Total GULP energy -346896.159073 kJ/mol
# GULP energy per Si atom -12389.148538 kJ/mol
# Density = 2.208144 g / cm^3
# Si number density = 22.131812 Si / 1000 Ang^3
#
#
#
# Elastic Constant Matrix: (Units=GPa)
#
#
# Indices 1 2 3 4 5 6 
#
# 1 92.8044 7.9362 -0.5744 0.0000 0.1193 0.0000
# 2 7.9362 50.4452 8.9786 0.0000 -2.1204 0.0000
# 3 -0.5744 8.9786 55.9836 0.0000 9.9499 0.0000
# 4 0.0000 0.0000 0.0000 31.6708 0.0000 -1.6068
# 5 0.1193 -2.1204 9.9499 0.0000 29.2807 0.0000
# 6 0.0000 0.0000 0.0000 -1.6068 0.0000 24.7810
#
#
#
# Elastic Compliance Matrix: (Units=1/GPa)
#
#
# Indices 1 2 3 4 5 6 
#
# 1 0.010934 -0.001817 0.000463 0.000000 -0.000333 0.000000
# 2 -0.001817 0.020919 -0.003878 0.000000 0.002840 0.000000
# 3 0.000463 -0.003878 0.019731 0.000000 -0.006988 0.000000
# 4 0.000000 0.000000 0.000000 0.031679 0.000000 0.002054
# 5 -0.000333 0.002840 -0.006988 0.000000 0.036734 0.000000
# 6 0.000000 0.000000 0.000000 0.002054 0.000000 0.040487
#
#
# Mechanical properties :
#
#
# Convention : Reuss Voigt Hill
#
# Bulk Modulus (GPa) = 24.31927 25.76821 25.04374
# Shear Modulus (GPa) = 27.07763 29.33935 28.20849
#
# Velocity S-wave (km/s) = 3.50161 3.64492 3.57398
# Velocity P-wave (km/s) = 5.23074 5.42054 5.32648
#
# Compressibility (1/GPa) = 0.04111965
#
# Stress axis : x y z
#
# Youngs Moduli (GPa) = 91.45799 47.80355 50.68158
#
# Poissons Ratio (x) = 0.08684 -0.02345
# Poissons Ratio (y) = 0.16614 0.19656
# Poissons Ratio (z) = -0.04232 0.18540
#
# Static dielectric constant tensor:
#      x y z
#    x 4.079660 0.000000 0.072270 
#    y 0.000000 3.794550 0.000000 
#    z 0.072270 0.000000 4.043940 
# 
# 
# High freq. dielectric constant tensor:
#      x y z
#    x 1.875210 0.000000 0.003690 
#    y 0.000000 1.849780 0.000000 
#    z 0.003690 0.000000 1.875300 
# 
# From -- ./inp_files/181103.got.cif
#   From: 2010.06.25/outbox.cif.g09.slc.cpg/sg12_91_cif.got.tgz:181103.got - 2010.06.28 00:19:55.
