data_PCOD8109536
_publ_section_title
;
Structure prediction by ZEFSAII (Michael W. Deem and Ramdas Pophale) SiO2 
 PCOD8109536
Probable space group: C 2/M
;
_chemical_formula_sum "Si O2"
_cell_formula_units_Z 40
_cell_length_a 9.028733
_cell_length_b 10.149841
_cell_length_c 24.274446
_cell_angle_alpha 90.000000
_cell_angle_beta 122.550510
_cell_angle_gamma 90.000000
_cell_volume 1875.082681
_symmetry_space_group_name_H-M "C 2/M"
_symmetry_group_IT_number 12
_symmetry_cell_setting 'monoclinic'
loop_
_space_group_symop_operation_xyz
x,y,z
-x,y,-z
-x,-y,-z
x,-y,z
1/2+x,1/2+y,z
1/2-x,1/2+y,-z
1/2-x,1/2-y,-z
1/2+x,1/2-y,z
loop_
_atom_site_type_symbol
_atom_site_label
_atom_site_fract_x
_atom_site_fract_y
_atom_site_fract_z
Si Si1 0.225381 0.256813 0.266213
Si Si2 0.237457 0.500000 0.407734
Si Si3 0.155214 0.646060 0.821473
Si Si4 0.612294 0.290058 0.355866
Si Si5 0.205876 0.148302 0.038248
Si Si6 0.863196 0.000000 0.552591
O O1 0.231691 0.184802 0.209192
O O2 0.408261 0.334077 0.310477
O O3 0.204586 0.164885 0.316871
O O4 0.053199 0.348326 0.231644
O O5 0.135492 0.631708 0.367827
O O6 0.241769 0.500000 0.474759
O O7 0.432664 0.500000 0.422402
O O8 0.214050 0.500000 0.845276
O O9 0.215674 0.717005 0.889945
O O10 0.690866 0.370579 0.422910
O O11 0.283930 0.000000 0.042648
O O12 0.250000 0.250000 0.000000
O O13 0.000000 0.136209 0.000000
#
# Coordination Sequence:
#
# PCOD8109536 Si02
#       6
#     8   4   8   8   8   4
#     4  10  23  37  61  87 124 159 208 254 301 370
#     4  11  24  45  63  93 133 157 203 267 316 365
#     4  10  22  40  61  89 124 166 205 257 308 361
#     4  11  23  41  67  92 121 169 206 257 315 371
#     4  10  21  39  65  92 127 164 209 255 309 364
#     4  11  24  43  67  93 123 165 209 256 312 380
#
# _framework density 21.332391000000001
#
# number of rings (size 3 to 8) (size 9 to 14) (size 15 to 20)
#    0.000    1.600    2.000    1.800    8.400    0.400 
#    0.000    2.000    0.000    0.000    0.000    0.000 
#    0.000    0.000    0.000    0.000    0.000    0.000 
#
# Total GULP energy -247770.797462 kJ/mol
# GULP energy per Si atom -12388.539873 kJ/mol
# Density = 2.128384 g / cm^3
# Si number density = 21.332391 Si / 1000 Ang^3
#
#
#
# Elastic Constant Matrix: (Units=GPa)
#
#
# Indices 1 2 3 4 5 6 
#
# 1 106.2271 29.7505 50.7162 0.0000 -32.4268 0.0000
# 2 29.7505 102.6791 43.4255 0.0000 -23.7766 0.0000
# 3 50.7162 43.4255 158.0707 0.0000 -41.0020 0.0000
# 4 0.0000 0.0000 0.0000 24.6046 0.0000 -2.4347
# 5 -32.4268 -23.7766 -41.0020 0.0000 50.2819 0.0000
# 6 0.0000 0.0000 0.0000 -2.4347 0.0000 16.3697
#
#
#
# Elastic Compliance Matrix: (Units=1/GPa)
#
#
# Indices 1 2 3 4 5 6 
#
# 1 0.012579 -0.001411 -0.002178 0.000000 0.005669 0.000000
# 2 -0.001411 0.011679 -0.001978 0.000000 0.003000 0.000000
# 3 -0.002178 -0.001978 0.008829 0.000000 0.004860 0.000000
# 4 0.000000 0.000000 0.000000 0.041250 0.000000 0.006135
# 5 0.005669 0.003000 0.004860 0.000000 0.028926 0.000000
# 6 0.000000 0.000000 0.000000 0.006135 0.000000 0.062001
#
#
# Mechanical properties :
#
#
# Convention : Reuss Voigt Hill
#
# Bulk Modulus (GPa) = 45.54872 68.30681 56.92777
# Shear Modulus (GPa) = 27.21616 34.45689 30.83653
#
# Velocity S-wave (km/s) = 3.57573 4.02336 3.80613
# Velocity P-wave (km/s) = 6.20049 7.32619 6.78672
#
# Compressibility (1/GPa) = 0.02195451
#
# Stress axis : x y z
#
# Youngs Moduli (GPa) = 79.49557 85.62408 113.26411
#
# Poissons Ratio (x) = 0.12081 0.24667
# Poissons Ratio (y) = 0.11216 0.22399
# Poissons Ratio (z) = 0.17313 0.16933
#
# Static dielectric constant tensor:
#      x y z
#    x 3.910840 0.000000 -0.349000 
#    y 0.000000 -3.197310 0.000000 
#    z -0.349000 0.000000 4.210830 
# 
# 
# High freq. dielectric constant tensor:
#      x y z
#    x 1.839230 0.000000 -0.015580 
#    y 0.000000 1.806680 0.000000 
#    z -0.015580 0.000000 1.863940 
# 
# From -- ./inp_files/254705.got.cif
#   From: 2010.06.25/outbox.cif.g09.slc.cpg/sg12_128_cif.got.tgz:254705.got - 2010.06.28 00:19:55.
