data_PCOD8109933
_publ_section_title
;
Structure prediction by ZEFSAII (Michael W. Deem and Ramdas Pophale) SiO2 
 PCOD8109933
Probable space group: C 2/M
;
_chemical_formula_sum "Si O2"
_cell_formula_units_Z 32
_cell_length_a 14.194003
_cell_length_b 13.566275
_cell_length_c 20.150467
_cell_angle_alpha 90.000000
_cell_angle_beta 157.958515
_cell_angle_gamma 90.000000
_cell_volume 1456.141316
_symmetry_space_group_name_H-M "C 2/M"
_symmetry_group_IT_number 12
_symmetry_cell_setting 'monoclinic'
loop_
_space_group_symop_operation_xyz
x,y,z
-x,y,-z
-x,-y,-z
x,-y,z
1/2+x,1/2+y,z
1/2-x,1/2+y,-z
1/2-x,1/2-y,-z
1/2+x,1/2-y,z
loop_
_atom_site_type_symbol
_atom_site_label
_atom_site_fract_x
_atom_site_fract_y
_atom_site_fract_z
Si Si1 0.085433 0.000000 0.159339
Si Si2 0.014999 0.811136 0.818580
Si Si3 0.227082 0.885476 0.820703
Si Si4 0.222383 0.179350 0.542963
Si Si5 0.083522 0.500000 0.747897
O O1 0.335120 0.000000 0.276591
O O2 0.087955 0.101336 0.202663
O O3 0.833689 0.000000 0.953521
O O4 0.084519 0.859440 0.794348
O O5 0.787577 0.733876 0.655044
O O6 0.250000 0.750000 0.000000
O O7 0.067631 0.856951 0.650331
O O8 0.272341 0.000000 0.847020
O O9 0.500000 0.831754 0.000000
O O10 0.250000 0.250000 0.500000
O O11 0.421589 0.093534 0.661287
#
# Coordination Sequence:
#
# PCOD8109933 Si02
#       5
#     4   8   8   8   4
#     4  11  24  41  69 104 133 177 220 278 334 404
#     4  11  22  40  66  98 136 169 218 278 330 391
#     4  10  21  40  65  89 125 176 217 259 329 397
#     4  10  22  40  65  96 132 175 215 275 331 397
#     4  11  22  43  69  96 138 177 224 272 340 399
#
# _framework density 21.975888999999999
#
# number of rings (size 3 to 8) (size 9 to 14) (size 15 to 20)
#    0.000    1.500    5.000    0.000    0.000    4.000 
#    0.000   16.250    0.000    4.500    0.000    0.000 
#    0.000    0.000    0.000    0.000    0.000    0.000 
#
# Total GULP energy -198241.163209 kJ/mol
# GULP energy per Si atom -12390.072701 kJ/mol
# Density = 2.192587 g / cm^3
# Si number density = 21.975889 Si / 1000 Ang^3
#
#
#
# Elastic Constant Matrix: (Units=GPa)
#
#
# Indices 1 2 3 4 5 6 
#
# 1 76.5902 45.7481 45.5690 0.0252 -5.5971 0.0141
# 2 45.7481 140.2444 58.7840 0.0689 -10.5378 -0.0024
# 3 45.5690 58.7840 181.7670 0.0884 -7.7541 0.0153
# 4 0.0252 0.0689 0.0884 38.6917 0.0093 -16.8310
# 5 -5.5971 -10.5378 -7.7541 0.0093 31.2810 0.0155
# 6 0.0141 -0.0024 0.0153 -16.8310 0.0155 21.7035
#
#
#
# Elastic Compliance Matrix: (Units=1/GPa)
#
#
# Indices 1 2 3 4 5 6 
#
# 1 0.017498 -0.004415 -0.002920 -0.000002 0.000920 -0.000012
# 2 -0.004415 0.009507 -0.001885 -0.000013 0.001945 -0.000006
# 3 -0.002920 -0.001885 0.006866 -0.000018 0.000545 -0.000018
# 4 -0.000002 -0.000013 -0.000018 0.039003 -0.000036 0.030247
# 5 0.000920 0.001945 0.000545 -0.000036 0.032923 -0.000052
# 6 -0.000012 -0.000006 -0.000018 0.030247 -0.000052 0.069532
#
#
# Mechanical properties :
#
#
# Convention : Reuss Voigt Hill
#
# Bulk Modulus (GPa) = 64.79907 77.64487 71.22197
# Shear Modulus (GPa) = 25.13677 34.90192 30.01935
#
# Velocity S-wave (km/s) = 3.38573 3.98954 3.69997
# Velocity P-wave (km/s) = 6.69587 7.52532 7.12268
#
# Compressibility (1/GPa) = 0.01543232
#
# Stress axis : x y z
#
# Youngs Moduli (GPa) = 57.14952 105.18847 145.63943
#
# Poissons Ratio (x) = 0.46440 0.42522
# Poissons Ratio (y) = 0.25231 0.27448
# Poissons Ratio (z) = 0.16686 0.19825
#
# Static dielectric constant tensor:
#      x y z
#    x 3.700860 0.000040 -0.837040 
#    y 0.000040 3.940810 0.000980 
#    z -0.837040 0.000980 4.722180 
# 
# 
# High freq. dielectric constant tensor:
#      x y z
#    x 1.836660 0.000000 -0.011830 
#    y 0.000000 1.880650 -0.000020 
#    z -0.011830 -0.000020 1.891060 
# 
# From -- ./inp_files/58279.got.cif
#   From: 2010.06.25/outbox.cif.g09.slc.cpg/sg12_30_cif.got.tgz:58279.got - 2010.06.28 00:19:55.
