data_PCOD8109160
_publ_section_title
;
Structure prediction by ZEFSAII (Michael W. Deem and Ramdas Pophale) SiO2 
 PCOD8109160
Probable space group: C 2/M
;
_chemical_formula_sum "Si O2"
_cell_formula_units_Z 48
_cell_length_a 19.718852
_cell_length_b 8.822511
_cell_length_c 14.120146
_cell_angle_alpha 90.000000
_cell_angle_beta 100.239831
_cell_angle_gamma 90.000000
_cell_volume 2417.352670
_symmetry_space_group_name_H-M "C 2/M"
_symmetry_group_IT_number 12
_symmetry_cell_setting 'monoclinic'
loop_
_space_group_symop_operation_xyz
x,y,z
-x,y,-z
-x,-y,-z
x,-y,z
1/2+x,1/2+y,z
1/2-x,1/2+y,-z
1/2-x,1/2-y,-z
1/2+x,1/2-y,z
loop_
_atom_site_type_symbol
_atom_site_label
_atom_site_fract_x
_atom_site_fract_y
_atom_site_fract_z
Si Si1 0.440757 0.177726 0.419014
Si Si2 0.883577 0.821154 0.730998
Si Si3 0.323980 0.822256 0.529811
Si Si4 0.027629 0.679691 0.781184
Si Si5 0.217384 0.824376 0.126539
Si Si6 0.650972 0.675912 0.911675
O O1 0.500000 0.251591 0.500000
O O2 0.365857 0.213294 0.443987
O O3 0.446147 0.242730 0.314254
O O4 0.454295 0.000000 0.417065
O O5 0.865986 0.747684 0.626576
O O6 0.823605 0.778762 0.789691
O O7 0.954546 0.753678 0.787987
O O8 0.890715 0.000000 0.721006
O O9 0.250000 0.750000 0.500000
O O10 0.316396 0.000000 0.545294
O O11 0.019935 0.500000 0.781042
O O12 0.082022 0.731072 0.873329
O O13 0.287169 0.727361 0.141918
O O14 0.238774 0.000000 0.132172
O O15 0.169997 0.786866 0.024541
O O16 0.636492 0.500000 0.891372
#
# Coordination Sequence:
#
# PCOD8109160 Si02
#       6
#     8   8   8   8   8   8
#     4   9  18  37  60  80 111 155 192 227 282 345
#     4  11  23  40  60  86 118 155 196 242 292 345
#     4  11  23  40  60  86 118 155 195 240 292 346
#     4  11  22  38  61  87 117 156 196 237 291 351
#     4   9  21  41  62  83 117 158 191 234 299 356
#     4  10  21  39  62  89 116 148 195 245 290 348
#
# _framework density 19.856431000000001
#
# number of rings (size 3 to 8) (size 9 to 14) (size 15 to 20)
#    0.000    1.833    1.667    2.000    2.333    2.667 
#    0.000    6.667    0.000    0.000    0.000    0.000 
#    0.000    0.000    0.000    0.000    0.000    0.000 
#
# Total GULP energy -297688.775176 kJ/mol
# GULP energy per Si atom -12403.698966 kJ/mol
# Density = 1.981124 g / cm^3
# Si number density = 19.856431 Si / 1000 Ang^3
#
#
#
# Elastic Constant Matrix: (Units=GPa)
#
#
# Indices 1 2 3 4 5 6 
#
# 1 89.1107 40.5406 0.6380 0.0000 12.1989 0.0000
# 2 40.5406 76.0978 18.3866 0.0000 -4.4901 0.0000
# 3 0.6380 18.3866 36.6217 0.0000 -0.7104 0.0000
# 4 0.0000 0.0000 0.0000 29.4894 0.0000 3.9724
# 5 12.1989 -4.4901 -0.7104 0.0000 31.2373 0.0000
# 6 0.0000 0.0000 0.0000 3.9724 0.0000 39.8707
#
#
#
# Elastic Compliance Matrix: (Units=1/GPa)
#
#
# Indices 1 2 3 4 5 6 
#
# 1 0.017262 -0.010889 0.005008 0.000000 -0.008193 0.000000
# 2 -0.010889 0.021948 -0.010691 0.000000 0.007164 0.000000
# 3 0.005008 -0.010691 0.032533 0.000000 -0.002752 0.000000
# 4 0.000000 0.000000 0.000000 0.034372 0.000000 -0.003425
# 5 -0.008193 0.007164 -0.002752 0.000000 0.036180 0.000000
# 6 0.000000 0.000000 0.000000 -0.003425 0.000000 0.025422
#
#
# Mechanical properties :
#
#
# Convention : Reuss Voigt Hill
#
# Bulk Modulus (GPa) = 25.90825 35.66230 30.78528
# Shear Modulus (GPa) = 23.39425 29.60381 26.49903
#
# Velocity S-wave (km/s) = 3.43617 3.86540 3.65709
# Velocity P-wave (km/s) = 5.36835 6.15799 5.77667
#
# Compressibility (1/GPa) = 0.03859774
#
# Stress axis : x y z
#
# Youngs Moduli (GPa) = 57.93143 45.56210 30.73797
#
# Poissons Ratio (x) = 0.49615 -0.15392
# Poissons Ratio (y) = 0.63084 0.32861
# Poissons Ratio (z) = -0.29010 0.48709
#
# Static dielectric constant tensor:
#      x y z
#    x 3.659730 0.000000 -0.049320 
#    y 0.000000 3.518530 0.000000 
#    z -0.049320 0.000000 3.701000 
# 
# 
# High freq. dielectric constant tensor:
#      x y z
#    x 1.785610 0.000000 -0.000010 
#    y 0.000000 1.766050 0.000000 
#    z -0.000010 0.000000 1.775530 
# 
# From -- ./inp_files/221598.got.cif
#   From: 2010.06.25/outbox.cif.g09.slc.cpg/sg12_111_cif.got.tgz:221598.got - 2010.06.28 00:19:55.
