data_PCOD8109876
_publ_section_title
;
Structure prediction by ZEFSAII (Michael W. Deem and Ramdas Pophale) SiO2 
 PCOD8109876
Probable space group: C 2/M
;
_chemical_formula_sum "Si O2"
_cell_formula_units_Z 64
_cell_length_a 18.559149
_cell_length_b 8.655413
_cell_length_c 28.126797
_cell_angle_alpha 90.000000
_cell_angle_beta 43.058739
_cell_angle_gamma 90.000000
_cell_volume 3084.795847
_symmetry_space_group_name_H-M "C 2/M"
_symmetry_group_IT_number 12
_symmetry_cell_setting 'monoclinic'
loop_
_space_group_symop_operation_xyz
x,y,z
-x,y,-z
-x,-y,-z
x,-y,z
1/2+x,1/2+y,z
1/2-x,1/2+y,-z
1/2-x,1/2-y,-z
1/2+x,1/2-y,z
loop_
_atom_site_type_symbol
_atom_site_label
_atom_site_fract_x
_atom_site_fract_y
_atom_site_fract_z
Si Si1 0.356731 0.319146 0.817127
Si Si2 0.921726 0.318552 0.306470
Si Si3 0.215401 0.181686 0.967824
Si Si4 0.789173 0.323338 0.198542
Si Si5 0.517594 0.330080 0.936454
Si Si6 0.036235 0.176310 0.428769
Si Si7 0.240233 0.821524 0.688296
Si Si8 0.364339 0.317825 0.434903
O O1 0.376453 0.500000 0.814897
O O2 0.467419 0.231574 0.770205
O O3 0.273461 0.262636 0.896072
O O4 0.310756 0.283988 0.786741
O O5 0.920320 0.500000 0.315907
O O6 0.826708 0.277191 0.316909
O O7 0.908174 0.235101 0.363217
O O8 0.235593 0.000000 0.953292
O O9 0.250000 0.250000 0.000000
O O10 0.093097 0.224607 0.030580
O O11 0.783763 0.500000 0.218083
O O12 0.794505 0.213885 0.241419
O O13 0.895417 0.296928 0.117656
O O14 0.551249 0.500000 0.900591
O O15 0.500000 0.342989 0.000000
O O16 0.136826 0.284062 0.374625
O O17 0.000000 0.189891 0.500000
O O18 0.944364 0.236451 0.437853
O O19 0.066589 0.000000 0.401153
O O20 0.220467 0.000000 0.686424
O O21 0.353618 0.500000 0.440306
O O22 0.250000 0.250000 0.500000
#
# Coordination Sequence:
#
# PCOD8109876 Si02
#       8
#     8   8   8   8   8   8   8   8
#     4  11  24  43  65  92 126 165 212 265 320 384
#     4  12  26  44  66  92 128 171 216 265 321 381
#     4  11  24  41  63  90 125 166 209 264 322 381
#     4  11  24  41  65  93 126 166 210 259 317 382
#     4  10  21  40  64  90 122 162 210 261 314 375
#     4  10  22  42  68  98 134 172 211 258 312 370
#     4  12  26  43  66  95 129 167 213 266 317 377
#     4  11  23  41  68 101 137 175 215 261 312 372
#
# _framework density 20.746915999999999
#
# number of rings (size 3 to 8) (size 9 to 14) (size 15 to 20)
#    0.000    1.000    1.250    5.250    1.750    8.000 
#    0.000    0.000    0.000    0.000    0.000    0.000 
#    0.000    0.000    0.000    0.000    0.000    0.000 
#
# Total GULP energy -396904.831831 kJ/mol
# GULP energy per Si atom -12403.275995 kJ/mol
# Density = 2.069970 g / cm^3
# Si number density = 20.746916 Si / 1000 Ang^3
#
#
#
# Elastic Constant Matrix: (Units=GPa)
#
#
# Indices 1 2 3 4 5 6 
#
# 1 140.6061 42.4728 31.3813 0.0004 -10.1644 0.0022
# 2 42.4728 66.5254 34.2404 0.0016 -12.7393 0.0063
# 3 31.3813 34.2404 78.2802 0.0006 -3.7655 0.0032
# 4 0.0004 0.0016 0.0006 40.1991 -0.0001 -1.3170
# 5 -10.1644 -12.7393 -3.7655 -0.0001 32.5212 0.0007
# 6 0.0022 0.0063 0.0032 -1.3170 0.0007 36.2045
#
#
#
# Elastic Compliance Matrix: (Units=1/GPa)
#
#
# Indices 1 2 3 4 5 6 
#
# 1 0.008945 -0.004830 -0.001438 0.000000 0.000737 0.000000
# 2 -0.004830 0.023553 -0.008040 -0.000001 0.006786 -0.000003
# 3 -0.001438 -0.008040 0.016788 0.000000 -0.001655 0.000000
# 4 0.000000 -0.000001 0.000000 0.024906 0.000000 0.000906
# 5 0.000737 0.006786 -0.001655 0.000000 0.033446 -0.000002
# 6 0.000000 -0.000003 0.000000 0.000906 -0.000002 0.027654
#
#
# Mechanical properties :
#
#
# Convention : Reuss Voigt Hill
#
# Bulk Modulus (GPa) = 48.37583 55.73343 52.05463
# Shear Modulus (GPa) = 29.27452 33.60610 31.44031
#
# Velocity S-wave (km/s) = 3.76044 4.02905 3.89706
# Velocity P-wave (km/s) = 6.49787 6.96894 6.73752
#
# Compressibility (1/GPa) = 0.02067148
#
# Stress axis : x y z
#
# Youngs Moduli (GPa) = 111.79152 42.45786 59.56609
#
# Poissons Ratio (x) = 0.20506 0.08565
# Poissons Ratio (y) = 0.53992 0.47889
# Poissons Ratio (z) = 0.16075 0.34134
#
# Static dielectric constant tensor:
#      x y z
#    x 3.995710 0.000000 0.005090 
#    y 0.000000 3.793300 0.000000 
#    z 0.005090 0.000000 3.735630 
# 
# 
# High freq. dielectric constant tensor:
#      x y z
#    x 1.830620 0.000000 -0.002470 
#    y 0.000000 1.816970 0.000000 
#    z -0.002470 0.000000 1.822200 
# 
# From -- ./inp_files/378115.got.cif
#   From: 2010.06.25/outbox.cif.g09.slc.cpg/sg12_190_cif.got.tgz:378115.got - 2010.06.28 00:19:55.
