data_PCOD8109307
_publ_section_title
;
Structure prediction by ZEFSAII (Michael W. Deem and Ramdas Pophale) SiO2 
 PCOD8109307
Probable space group: C 2/M
;
_chemical_formula_sum "Si O2"
_cell_formula_units_Z 64
_cell_length_a 30.047689
_cell_length_b 9.037154
_cell_length_c 15.995956
_cell_angle_alpha 90.000000
_cell_angle_beta 46.623969
_cell_angle_gamma 90.000000
_cell_volume 3157.220757
_symmetry_space_group_name_H-M "C 2/M"
_symmetry_group_IT_number 12
_symmetry_cell_setting 'monoclinic'
loop_
_space_group_symop_operation_xyz
x,y,z
-x,y,-z
-x,-y,-z
x,-y,z
1/2+x,1/2+y,z
1/2-x,1/2+y,-z
1/2-x,1/2-y,-z
1/2+x,1/2-y,z
loop_
_atom_site_type_symbol
_atom_site_label
_atom_site_fract_x
_atom_site_fract_y
_atom_site_fract_z
Si Si1 0.225043 0.668584 0.452284
Si Si2 0.002819 0.171319 0.759854
Si Si3 0.611559 0.829943 0.168750
Si Si4 0.343669 0.326297 0.728557
Si Si5 0.450384 0.173826 0.134583
Si Si6 0.618471 0.668882 0.503865
Si Si7 0.796127 0.330448 0.091945
Si Si8 0.839660 0.829959 0.191746
O O1 0.215056 0.500000 0.490423
O O2 0.250000 0.750000 0.500000
O O3 0.160016 0.733137 0.510223
O O4 0.271769 0.686822 0.315740
O O5 0.030675 0.247513 0.805008
O O6 0.048583 0.189452 0.622339
O O7 0.939690 0.247809 0.818305
O O8 0.991050 0.000000 0.795502
O O9 0.618105 0.758544 0.250904
O O10 0.592337 0.000000 0.203884
O O11 0.675615 0.814337 0.036743
O O12 0.347969 0.500000 0.741695
O O13 0.374969 0.282108 0.600716
O O14 0.273373 0.272046 0.820349
O O15 0.385401 0.237386 0.190094
O O16 0.444118 0.000000 0.158882
O O17 0.500000 0.209811 0.000000
O O18 0.640532 0.500000 0.485528
O O19 0.798022 0.500000 0.120751
O O20 0.837627 0.234402 0.101014
O O21 0.861350 0.000000 0.161188
#
# Coordination Sequence:
#
# PCOD8109307 Si02
#       8
#     8   8   8   8   8   8   8   8
#     4  11  23  37  57  87 120 155 196 242 295 355
#     4  11  24  42  63  89 121 160 206 253 301 358
#     4  11  24  40  61  91 123 158 203 252 303 364
#     4  10  21  40  65  90 119 158 201 251 308 359
#     4  11  24  41  61  87 121 162 206 250 299 357
#     4  10  22  41  64  88 119 158 203 250 298 358
#     4  10  21  39  63  90 122 160 201 247 305 364
#     4  11  23  37  58  90 122 155 197 244 298 359
#
# _framework density 20.270994000000002
#
# number of rings (size 3 to 8) (size 9 to 14) (size 15 to 20)
#    0.000    1.375    1.250    3.750    0.000   12.000 
#    0.000    2.500    0.000    0.000    0.000    0.000 
#    0.000    0.000    0.000    0.000    0.000    0.000 
#
# Total GULP energy -397018.575231 kJ/mol
# GULP energy per Si atom -12406.830476 kJ/mol
# Density = 2.022486 g / cm^3
# Si number density = 20.270994 Si / 1000 Ang^3
#
#
#
# Elastic Constant Matrix: (Units=GPa)
#
#
# Indices 1 2 3 4 5 6 
#
# 1 91.5889 32.5795 15.4975 0.0001 13.8664 0.0001
# 2 32.5795 94.9785 28.8426 0.0002 8.8155 0.0001
# 3 15.4975 28.8426 80.5375 0.0003 9.5813 -0.0001
# 4 0.0001 0.0002 0.0003 31.9111 -0.0001 3.8397
# 5 13.8664 8.8155 9.5813 -0.0001 36.5592 0.0000
# 6 0.0001 0.0001 -0.0001 3.8397 0.0000 42.6413
#
#
#
# Elastic Compliance Matrix: (Units=1/GPa)
#
#
# Indices 1 2 3 4 5 6 
#
# 1 0.012996 -0.003907 -0.000647 0.000000 -0.003817 0.000000
# 2 -0.003907 0.013103 -0.003862 0.000000 -0.000666 0.000000
# 3 -0.000647 -0.003862 0.014228 0.000000 -0.002552 0.000000
# 4 0.000000 0.000000 0.000000 0.031680 0.000000 -0.002853
# 5 -0.003817 -0.000666 -0.002552 0.000000 0.029630 0.000000
# 6 0.000000 0.000000 0.000000 -0.002853 0.000000 0.023708
#
#
# Mechanical properties :
#
#
# Convention : Reuss Voigt Hill
#
# Bulk Modulus (GPa) = 42.56264 46.77157 44.66711
# Shear Modulus (GPa) = 33.33141 34.90134 34.11638
#
# Velocity S-wave (km/s) = 4.05938 4.15388 4.10691
# Velocity P-wave (km/s) = 6.55850 6.79188 6.67621
#
# Compressibility (1/GPa) = 0.02349478
#
# Stress axis : x y z
#
# Youngs Moduli (GPa) = 76.94943 76.31669 70.28534
#
# Poissons Ratio (x) = 0.29816 0.04550
# Poissons Ratio (y) = 0.30063 0.27142
# Poissons Ratio (z) = 0.04982 0.29471
#
# Static dielectric constant tensor:
#      x y z
#    x 3.578010 0.000000 -0.006950 
#    y 0.000000 3.946700 0.000000 
#    z -0.006950 0.000000 3.848840 
# 
# 
# High freq. dielectric constant tensor:
#      x y z
#    x 1.792790 0.000000 0.002370 
#    y 0.000000 1.798330 0.000000 
#    z 0.002370 0.000000 1.802800 
# 
# From -- ./inp_files/249830.got.cif
#   From: 2010.06.25/outbox.cif.g09.slc.cpg/sg12_125_cif.got.tgz:249830.got - 2010.06.28 00:19:55.
