data_PCOD8109845
_publ_section_title
;
Structure prediction by ZEFSAII (Michael W. Deem and Ramdas Pophale) SiO2 
 PCOD8109845
Probable space group: C 2/M
;
_chemical_formula_sum "Si O2"
_cell_formula_units_Z 56
_cell_length_a 17.750011
_cell_length_b 8.842016
_cell_length_c 18.469303
_cell_angle_alpha 90.000000
_cell_angle_beta 104.008496
_cell_angle_gamma 90.000000
_cell_volume 2812.473806
_symmetry_space_group_name_H-M "C 2/M"
_symmetry_group_IT_number 12
_symmetry_cell_setting 'monoclinic'
loop_
_space_group_symop_operation_xyz
x,y,z
-x,y,-z
-x,-y,-z
x,-y,z
1/2+x,1/2+y,z
1/2-x,1/2+y,-z
1/2-x,1/2-y,-z
1/2+x,1/2-y,z
loop_
_atom_site_type_symbol
_atom_site_label
_atom_site_fract_x
_atom_site_fract_y
_atom_site_fract_z
Si Si1 0.831544 0.176915 0.000932
Si Si2 0.253092 0.825112 0.714328
Si Si3 0.878806 0.326349 0.865407
Si Si4 0.093037 0.323756 0.708151
Si Si5 0.473388 0.323049 0.573863
Si Si6 0.810009 0.677176 0.568640
Si Si7 0.552759 0.174813 0.862473
O O1 0.895088 0.223826 0.074006
O O2 0.819928 0.000000 0.001942
O O3 0.750000 0.250000 0.000000
O O4 0.859486 0.220899 0.927978
O O5 0.320023 0.791912 0.787282
O O6 0.182242 0.716375 0.716246
O O7 0.285821 0.779804 0.643987
O O8 0.226424 0.000000 0.710212
O O9 0.873665 0.500000 0.889659
O O10 0.963696 0.286031 0.856429
O O11 0.078728 0.500000 0.688509
O O12 0.070931 0.282144 0.784576
O O13 0.041160 0.223005 0.643833
O O14 0.500000 0.277829 0.500000
O O15 0.456683 0.500000 0.576475
O O16 0.395934 0.234756 0.574764
O O17 0.808789 0.500000 0.555613
O O18 0.750000 0.750000 0.500000
O O19 0.571423 0.000000 0.882729
#
# Coordination Sequence:
#
# PCOD8109845 Si02
#       7
#     8   8   8   8   8   8   8
#     4  12  25  40  60  88 120 155 198 245 293 348
#     4  10  22  40  61  87 120 157 196 240 293 352
#     4  10  21  40  64  87 117 157 195 238 295 351
#     4  11  23  39  62  91 120 154 198 245 292 347
#     4  11  24  41  61  87 120 158 199 244 296 353
#     4  11  23  40  62  89 121 157 200 246 294 352
#     4  10  22  41  63  89 121 156 195 240 294 354
#
# _framework density 19.911296
#
# number of rings (size 3 to 8) (size 9 to 14) (size 15 to 20)
#    0.000    1.286    0.000    5.571    0.000   14.286 
#    0.000    1.429    0.000    0.000    0.000    0.000 
#    0.000    0.000    0.000    0.000    0.000    0.000 
#
# Total GULP energy -347397.624004 kJ/mol
# GULP energy per Si atom -12407.058000 kJ/mol
# Density = 1.986598 g / cm^3
# Si number density = 19.911296 Si / 1000 Ang^3
#
#
#
# Elastic Constant Matrix: (Units=GPa)
#
#
# Indices 1 2 3 4 5 6 
#
# 1 160.2511 61.5159 73.7546 0.0000 -4.8568 0.0000
# 2 61.5159 91.7283 65.6041 0.0000 -10.0951 0.0000
# 3 73.7546 65.6041 155.9470 0.0000 -7.8451 0.0000
# 4 0.0000 0.0000 0.0000 -41.2399 0.0000 23.9307
# 5 -4.8568 -10.0951 -7.8451 0.0000 42.9414 0.0000
# 6 0.0000 0.0000 0.0000 23.9307 0.0000 34.3671
#
#
#
# Elastic Compliance Matrix: (Units=1/GPa)
#
#
# Indices 1 2 3 4 5 6 
#
# 1 0.009028 -0.004340 -0.002467 0.000000 -0.000450 0.000000
# 2 -0.004340 0.017948 -0.005360 0.000000 0.002749 0.000000
# 3 -0.002467 -0.005360 0.009847 0.000000 0.000260 0.000000
# 4 0.000000 0.000000 0.000000 -0.017270 0.000000 0.012026
# 5 -0.000450 0.002749 0.000260 0.000000 0.023931 0.000000
# 6 0.000000 0.000000 0.000000 0.012026 0.000000 0.020724
#
#
# Mechanical properties :
#
#
# Convention : Reuss Voigt Hill
#
# Bulk Modulus (GPa) = 80.06038 89.96396 85.01217
# Shear Modulus (GPa) = 53.93634 21.01715 37.47674
#
# Velocity S-wave (km/s) = 5.21029 3.25243 4.34312
# Velocity P-wave (km/s) = 8.74597 7.70616 8.24248
#
# Compressibility (1/GPa) = 0.01249057
#
# Stress axis : x y z
#
# Youngs Moduli (GPa) = 110.77028 55.71703 101.55588
#
# Poissons Ratio (x) = 0.24179 0.25050
# Poissons Ratio (y) = 0.48070 0.54430
# Poissons Ratio (z) = 0.27323 0.29862
#
# Static dielectric constant tensor:
#      x y z
#    x 3.746850 0.000000 -0.115760 
#    y 0.000000 3.622800 0.000000 
#    z -0.115760 0.000000 3.802090 
# 
# 
# High freq. dielectric constant tensor:
#      x y z
#    x 1.797170 0.000000 -0.000100 
#    y 0.000000 1.779070 0.000000 
#    z -0.000100 0.000000 1.796790 
# 
# From -- ./inp_files/275608.got.cif
#   From: 2010.06.25/outbox.cif.g09.slc.cpg/sg12_138_cif.got.tgz:275608.got - 2010.06.28 00:19:55.
