data_PCOD8109053
_publ_section_title
;
Structure prediction by ZEFSAII (Michael W. Deem and Ramdas Pophale) SiO2 
 PCOD8109053
Probable space group: C 2/M
;
_chemical_formula_sum "Si O2"
_cell_formula_units_Z 48
_cell_length_a 15.829941
_cell_length_b 8.960737
_cell_length_c 16.633038
_cell_angle_alpha 90.000000
_cell_angle_beta 88.667690
_cell_angle_gamma 90.000000
_cell_volume 2358.724305
_symmetry_space_group_name_H-M "C 2/M"
_symmetry_group_IT_number 12
_symmetry_cell_setting 'monoclinic'
loop_
_space_group_symop_operation_xyz
x,y,z
-x,y,-z
-x,-y,-z
x,-y,z
1/2+x,1/2+y,z
1/2-x,1/2+y,-z
1/2-x,1/2-y,-z
1/2+x,1/2-y,z
loop_
_atom_site_type_symbol
_atom_site_label
_atom_site_fract_x
_atom_site_fract_y
_atom_site_fract_z
Si Si1 0.833786 0.671197 0.822496
Si Si2 0.582985 0.828934 0.344086
Si Si3 0.499841 0.177322 0.090803
Si Si4 0.838843 0.172525 0.506321
Si Si5 0.587319 0.673517 0.668620
Si Si6 0.834878 0.677017 0.190103
O O1 0.818211 0.500000 0.848306
O O2 0.846198 0.683182 0.726137
O O3 0.916020 0.736766 0.866419
O O4 0.752036 0.767850 0.849220
O O5 0.608889 0.739458 0.421969
O O6 0.498538 0.759265 0.308928
O O7 0.566715 0.000000 0.368343
O O8 0.414422 0.233951 0.135765
O O9 0.500491 0.000000 0.093065
O O10 0.500000 0.238700 0.000000
O O11 0.750000 0.250000 0.500000
O O12 0.891764 0.198351 0.424807
O O13 0.823196 0.000000 0.523990
O O14 0.578412 0.500000 0.689828
O O15 0.659686 0.746494 0.722286
O O16 0.833111 0.500000 0.199300
#
# Coordination Sequence:
#
# PCOD8109053 Si02
#       6
#     8   8   8   8   8   8
#     4  10  21  39  61  89 123 160 199 244 301 359
#     4  11  22  38  60  86 117 157 203 248 299 358
#     4   9  19  39  64  88 121 161 197 242 302 364
#     4  11  24  39  55  82 117 157 203 251 300 355
#     4  11  23  39  59  84 118 158 200 248 302 353
#     4  11  22  38  62  93 121 157 206 248 295 360
#
# _framework density 20.349983999999999
#
# number of rings (size 3 to 8) (size 9 to 14) (size 15 to 20)
#    0.000    1.500    1.667    3.500    0.000   10.667 
#    0.000    0.000    0.000    3.500    0.000    0.000 
#    0.000    0.000    0.000    0.000    0.000    0.000 
#
# Total GULP energy -297694.317790 kJ/mol
# GULP energy per Si atom -12403.929908 kJ/mol
# Density = 2.030367 g / cm^3
# Si number density = 20.349984 Si / 1000 Ang^3
#
#
#
# Elastic Constant Matrix: (Units=GPa)
#
#
# Indices 1 2 3 4 5 6 
#
# 1 152.2341 53.5078 45.4348 0.0000 6.6971 0.0000
# 2 53.5078 98.6895 45.9163 0.0000 -3.8378 0.0000
# 3 45.4348 45.9163 106.7785 0.0000 10.9584 0.0000
# 4 0.0000 0.0000 0.0000 16.7937 0.0000 2.9999
# 5 6.6971 -3.8378 10.9584 0.0000 21.2654 0.0000
# 6 0.0000 0.0000 0.0000 2.9999 0.0000 40.6188
#
#
#
# Elastic Compliance Matrix: (Units=1/GPa)
#
#
# Indices 1 2 3 4 5 6 
#
# 1 0.008577 -0.003967 -0.001682 0.000000 -0.002550 0.000000
# 2 -0.003967 0.015112 -0.005510 0.000000 0.006816 0.000000
# 3 -0.001682 -0.005510 0.013196 0.000000 -0.007265 0.000000
# 4 0.000000 0.000000 0.000000 0.060342 0.000000 -0.004457
# 5 -0.002550 0.006816 -0.007265 0.000000 0.052802 0.000000
# 6 0.000000 0.000000 0.000000 -0.004457 0.000000 0.024948
#
#
# Mechanical properties :
#
#
# Convention : Reuss Voigt Hill
#
# Bulk Modulus (GPa) = 68.64734 71.93555 70.29145
# Shear Modulus (GPa) = 24.73386 29.92514 27.32950
#
# Velocity S-wave (km/s) = 3.49008 3.83890 3.66864
# Velocity P-wave (km/s) = 7.07442 7.42129 7.24993
#
# Compressibility (1/GPa) = 0.01456721
#
# Stress axis : x y z
#
# Youngs Moduli (GPa) = 116.58505 66.17100 75.78130
#
# Poissons Ratio (x) = 0.26251 0.12747
# Poissons Ratio (y) = 0.46251 0.41756
# Poissons Ratio (z) = 0.19610 0.36460
#
# Static dielectric constant tensor:
#      x y z
#    x 3.849290 0.000000 -0.065430 
#    y 0.000000 3.548990 0.000000 
#    z -0.065430 0.000000 4.009230 
# 
# 
# High freq. dielectric constant tensor:
#      x y z
#    x 1.808380 0.000000 0.005100 
#    y 0.000000 1.784120 0.000000 
#    z 0.005100 0.000000 1.793520 
# 
# From -- ./inp_files/267698.got.cif
#   From: 2010.06.25/outbox.cif.g09.slc.cpg/sg12_134_cif.got.tgz:267698.got - 2010.06.28 00:19:55.
