data_PCOD8109469
_publ_section_title
;
Structure prediction by ZEFSAII (Michael W. Deem and Ramdas Pophale) SiO2 
 PCOD8109469
Probable space group: C 2/M
;
_chemical_formula_sum "Si O2"
_cell_formula_units_Z 56
_cell_length_a 17.155040
_cell_length_b 14.208255
_cell_length_c 13.894063
_cell_angle_alpha 90.000000
_cell_angle_beta 130.506643
_cell_angle_gamma 90.000000
_cell_volume 2574.923000
_symmetry_space_group_name_H-M "C 2/M"
_symmetry_group_IT_number 12
_symmetry_cell_setting 'monoclinic'
loop_
_space_group_symop_operation_xyz
x,y,z
-x,y,-z
-x,-y,-z
x,-y,z
1/2+x,1/2+y,z
1/2-x,1/2+y,-z
1/2-x,1/2-y,-z
1/2+x,1/2-y,z
loop_
_atom_site_type_symbol
_atom_site_label
_atom_site_fract_x
_atom_site_fract_y
_atom_site_fract_z
Si Si1 0.249238 0.211474 0.186604
Si Si2 0.654968 0.691343 0.460184
Si Si3 0.514353 0.106075 0.120654
Si Si4 0.854771 0.896335 0.742819
Si Si5 0.255637 0.894216 0.719183
Si Si6 0.052474 0.733139 0.760336
Si Si7 0.084666 0.109964 0.921968
O O1 0.228540 0.175677 0.279323
O O2 0.240810 0.325422 0.184710
O O3 0.362768 0.185319 0.240509
O O4 0.165181 0.160069 0.055730
O O5 0.750000 0.750000 0.500000
O O6 0.639629 0.610514 0.367906
O O7 0.670493 0.642457 0.575666
O O8 0.554082 0.758151 0.383274
O O9 0.634132 0.107075 0.244463
O O10 0.456124 0.171455 0.149489
O O11 0.469583 0.000000 0.091372
O O12 0.500000 0.144365 0.000000
O O13 0.970160 0.877235 0.874418
O O14 0.819040 0.000000 0.744638
O O15 0.228116 0.000000 0.731552
O O16 0.091068 0.836679 0.824403
O O17 0.111799 0.000000 0.930025
#
# Coordination Sequence:
#
# PCOD8109469 Si02
#       7
#     8   8   8   8   8   8   8
#     4  12  23  38  60  95 133 160 197 258 326 378
#     4  11  20  42  65  87 119 168 217 264 302 363
#     4  10  21  39  64  93 124 166 214 256 307 377
#     4  10  21  39  67  95 123 166 216 260 309 371
#     4  11  23  41  65  90 121 168 218 258 305 372
#     4  11  24  39  64  95 130 163 206 261 327 371
#     4  10  22  41  65  90 122 167 215 256 304 375
#
# _framework density 21.748222999999999
#
# number of rings (size 3 to 8) (size 9 to 14) (size 15 to 20)
#    0.000    1.286    2.857    3.429    0.000    4.000 
#    0.000    2.143    0.000    0.857    0.000    0.000 
#    0.000    0.000    0.000    0.000    0.000    0.000 
#
# Total GULP energy -347110.471948 kJ/mol
# GULP energy per Si atom -12396.802570 kJ/mol
# Density = 2.169872 g / cm^3
# Si number density = 21.748223 Si / 1000 Ang^3
#
#
#
# Elastic Constant Matrix: (Units=GPa)
#
#
# Indices 1 2 3 4 5 6 
#
# 1 112.6952 45.8821 30.8246 0.0000 19.6986 0.0000
# 2 45.8821 123.0887 47.2289 0.0000 13.0230 0.0000
# 3 30.8246 47.2289 100.8290 0.0000 14.5037 0.0000
# 4 0.0000 0.0000 0.0000 33.1507 0.0000 -0.5485
# 5 19.6986 13.0230 14.5037 0.0000 18.1234 0.0000
# 6 0.0000 0.0000 0.0000 -0.5485 0.0000 17.1197
#
#
#
# Elastic Compliance Matrix: (Units=1/GPa)
#
#
# Indices 1 2 3 4 5 6 
#
# 1 0.012175 -0.003152 -0.000755 0.000000 -0.010364 0.000000
# 2 -0.003152 0.010964 -0.003991 0.000000 -0.001258 0.000000
# 3 -0.000755 -0.003991 0.012982 0.000000 -0.006701 0.000000
# 4 0.000000 0.000000 0.000000 0.030181 0.000000 0.000967
# 5 -0.010364 -0.001258 -0.006701 0.000000 0.072709 0.000000
# 6 0.000000 0.000000 0.000000 0.000967 0.000000 0.058443
#
#
# Mechanical properties :
#
#
# Convention : Reuss Voigt Hill
#
# Bulk Modulus (GPa) = 49.20071 64.94269 57.07170
# Shear Modulus (GPa) = 22.72483 27.85725 25.29104
#
# Velocity S-wave (km/s) = 3.23601 3.58285 3.41383
# Velocity P-wave (km/s) = 6.05263 6.85869 6.46823
#
# Compressibility (1/GPa) = 0.02032491
#
# Stress axis : x y z
#
# Youngs Moduli (GPa) = 82.13656 91.21103 77.03155
#
# Poissons Ratio (x) = 0.28751 0.05814
# Poissons Ratio (y) = 0.25891 0.30741
# Poissons Ratio (z) = 0.06199 0.36400
#
# Static dielectric constant tensor:
#      x y z
#    x 3.720620 0.000000 0.043030 
#    y 0.000000 4.105680 0.000000 
#    z 0.043030 0.000000 4.113050 
# 
# 
# High freq. dielectric constant tensor:
#      x y z
#    x 1.830160 0.000000 0.006510 
#    y 0.000000 1.859750 0.000000 
#    z 0.006510 0.000000 1.854740 
# 
# From -- ./inp_files/225403.got.cif
#   From: 2010.06.25/outbox.cif.g09.slc.cpg/sg12_113_cif.got.tgz:225403.got - 2010.06.28 00:19:55.
