data_PCOD8109830
_publ_section_title
;
Structure prediction by ZEFSAII (Michael W. Deem and Ramdas Pophale) SiO2 
 PCOD8109830
Probable space group: C 2/M
;
_chemical_formula_sum "Si O2"
_cell_formula_units_Z 32
_cell_length_a 9.825650
_cell_length_b 26.849545
_cell_length_c 13.486730
_cell_angle_alpha 90.000000
_cell_angle_beta 151.700945
_cell_angle_gamma 90.000000
_cell_volume 1686.750061
_symmetry_space_group_name_H-M "C 2/M"
_symmetry_group_IT_number 12
_symmetry_cell_setting 'monoclinic'
loop_
_space_group_symop_operation_xyz
x,y,z
-x,y,-z
-x,-y,-z
x,-y,z
1/2+x,1/2+y,z
1/2-x,1/2+y,-z
1/2-x,1/2-y,-z
1/2+x,1/2-y,z
loop_
_atom_site_type_symbol
_atom_site_label
_atom_site_fract_x
_atom_site_fract_y
_atom_site_fract_z
Si Si1 0.724881 0.070583 0.382649
Si Si2 0.623082 0.000000 0.967750
Si Si3 0.694992 0.253015 0.850264
Si Si4 0.164022 0.814877 0.508764
Si Si5 0.263320 0.000000 0.432100
O O1 0.463861 0.050411 0.147594
O O2 0.740754 0.129358 0.406412
O O3 0.706647 0.048798 0.480979
O O4 0.000000 0.050260 0.500000
O O5 0.500000 0.000000 0.000000
O O6 0.962616 0.000000 0.184174
O O7 0.457891 0.212408 0.668057
O O8 0.566050 0.306500 0.729049
O O9 0.750000 0.250000 0.000000
O O10 0.000000 0.239957 0.000000
O O11 0.000000 0.792386 0.500000
O O12 0.500000 0.000000 0.500000
#
# Coordination Sequence:
#
# PCOD8109830 Si02
#       5
#     8   4   8   8   4
#     4  10  21  40  63  91 121 162 213 247 299 370
#     4  11  19  39  69  86 119 165 201 252 305 361
#     4  11  22  41  63  89 124 163 202 253 315 363
#     4  10  22  40  62  91 123 160 211 258 296 372
#     4  11  23  41  59  93 129 157 195 261 312 356
#
# _framework density 18.971394
#
# number of rings (size 3 to 8) (size 9 to 14) (size 15 to 20)
#    0.000    1.500    5.000    0.750    0.000    4.000 
#    9.000    0.000    0.000    0.000    0.000    0.000 
#    0.000    0.000    0.000    0.000    0.000    0.000 
#
# Total GULP energy -198264.230794 kJ/mol
# GULP energy per Si atom -12391.514425 kJ/mol
# Density = 1.892821 g / cm^3
# Si number density = 18.971394 Si / 1000 Ang^3
#
#
#
# Elastic Constant Matrix: (Units=GPa)
#
#
# Indices 1 2 3 4 5 6 
#
# 1 152.5908 43.1264 79.7885 0.0000 8.5501 0.0000
# 2 43.1264 101.3393 53.1372 0.0000 -2.5133 0.0000
# 3 79.7885 53.1372 166.7289 0.0002 -1.8108 0.0000
# 4 0.0000 0.0000 0.0002 10.0108 0.0000 -4.9209
# 5 8.5501 -2.5133 -1.8108 0.0000 45.7181 0.0000
# 6 0.0000 0.0000 0.0000 -4.9209 0.0000 24.6514
#
#
#
# Elastic Compliance Matrix: (Units=1/GPa)
#
#
# Indices 1 2 3 4 5 6 
#
# 1 0.009209 -0.001976 -0.003799 0.000000 -0.001981 0.000000
# 2 -0.001976 0.012283 -0.002959 0.000000 0.000928 0.000000
# 3 -0.003799 -0.002959 0.008768 0.000000 0.000895 0.000000
# 4 0.000000 0.000000 0.000000 0.110761 0.000000 0.022110
# 5 -0.001981 0.000928 0.000895 0.000000 0.022330 0.000000
# 6 0.000000 0.000000 0.000000 0.022110 0.000000 0.044979
#
#
# Mechanical properties :
#
#
# Convention : Reuss Voigt Hill
#
# Bulk Modulus (GPa) = 78.16756 85.86256 82.01506
# Shear Modulus (GPa) = 21.73306 32.38317 27.05812
#
# Velocity S-wave (km/s) = 3.38830 4.13600 3.78068
# Velocity P-wave (km/s) = 7.52328 8.25627 7.89828
#
# Compressibility (1/GPa) = 0.01279303
#
# Stress axis : x y z
#
# Youngs Moduli (GPa) = 108.58369 81.41048 114.04547
#
# Poissons Ratio (x) = 0.16090 0.43324
# Poissons Ratio (y) = 0.21461 0.33745
# Poissons Ratio (z) = 0.41249 0.24088
#
# Static dielectric constant tensor:
#      x y z
#    x 3.526440 0.000000 -0.099120 
#    y 0.000000 3.353760 0.000000 
#    z -0.099120 0.000000 3.704700 
# 
# 
# High freq. dielectric constant tensor:
#      x y z
#    x 1.742910 0.000000 -0.002660 
#    y 0.000000 1.721770 0.000000 
#    z -0.002660 0.000000 1.754070 
# 
# From -- ./inp_files/3843.got.cif
#   From: 2010.06.25/outbox.cif.g09.slc.cpg/sg12_2_cif.got.tgz:3843.got - 2010.06.28 00:19:55.
