data_PCOD8109447
_publ_section_title
;
Structure prediction by ZEFSAII (Michael W. Deem and Ramdas Pophale) SiO2 
 PCOD8109447
Probable space group: C 2/M
;
_chemical_formula_sum "Si O2"
_cell_formula_units_Z 56
_cell_length_a 9.126486
_cell_length_b 25.538997
_cell_length_c 15.001946
_cell_angle_alpha 90.000000
_cell_angle_beta 53.345287
_cell_angle_gamma 90.000000
_cell_volume 2805.198129
_symmetry_space_group_name_H-M "C 2/M"
_symmetry_group_IT_number 12
_symmetry_cell_setting 'monoclinic'
loop_
_space_group_symop_operation_xyz
x,y,z
-x,y,-z
-x,-y,-z
x,-y,z
1/2+x,1/2+y,z
1/2-x,1/2+y,-z
1/2-x,1/2-y,-z
1/2+x,1/2-y,z
loop_
_atom_site_type_symbol
_atom_site_label
_atom_site_fract_x
_atom_site_fract_y
_atom_site_fract_z
Si Si1 0.458328 0.261006 0.740667
Si Si2 0.019519 0.350955 0.636205
Si Si3 0.949129 0.712673 0.116557
Si Si4 0.607158 0.561169 0.227491
Si Si5 0.353024 0.439679 0.986266
Si Si6 0.973300 0.600766 0.176702
Si Si7 0.200290 0.859905 0.619689
O O1 0.505362 0.209773 0.666992
O O2 0.264243 0.283951 0.782716
O O3 0.446018 0.248908 0.850641
O O4 0.609631 0.303663 0.664877
O O5 0.046897 0.386791 0.712126
O O6 0.195948 0.359328 0.511500
O O7 0.837786 0.369785 0.651535
O O8 0.007611 0.652653 0.106024
O O9 0.000000 0.733262 0.000000
O O10 0.556323 0.500000 0.248258
O O11 0.796449 0.569105 0.210233
O O12 0.445926 0.593460 0.332664
O O13 0.629024 0.584294 0.119313
O O14 0.403628 0.500000 0.959136
O O15 0.149936 0.434827 0.097883
O O16 0.500000 0.412450 0.000000
#
# Coordination Sequence:
#
# PCOD8109447 Si02
#       7
#     8   8   8   8   8   8   8
#     4  11  21  40  60  89 123 160 206 249 300 371
#     4  10  24  41  62  89 118 164 211 253 308 366
#     4  11  22  37  57  91 128 161 196 246 307 367
#     4  11  23  40  64  93 124 161 204 255 311 364
#     4  10  21  39  64  92 124 163 205 249 302 369
#     4  11  22  39  60  92 126 160 206 251 310 363
#     4  11  22  43  63  86 123 161 211 258 305 367
#
# _framework density 19.96294
#
# number of rings (size 3 to 8) (size 9 to 14) (size 15 to 20)
#    0.000    1.286    2.857    3.429    0.000    1.714 
#    0.000    4.286    0.000    0.000    0.000    0.000 
#    0.000    0.000    0.000    0.000    0.000    0.000 
#
# Total GULP energy -347335.107933 kJ/mol
# GULP energy per Si atom -12404.825283 kJ/mol
# Density = 1.991750 g / cm^3
# Si number density = 19.962940 Si / 1000 Ang^3
#
#
#
# Elastic Constant Matrix: (Units=GPa)
#
#
# Indices 1 2 3 4 5 6 
#
# 1 109.9481 21.5529 51.7431 0.0000 -4.1632 0.0000
# 2 21.5529 45.2919 30.2801 0.0000 -5.7154 0.0000
# 3 51.7431 30.2801 122.0611 0.0000 1.5418 0.0000
# 4 0.0000 0.0000 0.0000 23.1472 0.0000 -7.7541
# 5 -4.1632 -5.7154 1.5418 0.0000 36.1128 0.0000
# 6 0.0000 0.0000 0.0000 -7.7541 0.0000 29.3988
#
#
#
# Elastic Compliance Matrix: (Units=1/GPa)
#
#
# Indices 1 2 3 4 5 6 
#
# 1 0.011673 -0.002510 -0.004340 0.000000 0.001134 0.000000
# 2 -0.002510 0.027751 -0.005875 0.000000 0.004353 0.000000
# 3 -0.004340 -0.005875 0.011514 0.000000 -0.001922 0.000000
# 4 0.000000 0.000000 0.000000 0.047389 0.000000 0.012499
# 5 0.001134 0.004353 -0.001922 0.000000 0.028593 0.000000
# 6 0.000000 0.000000 0.000000 0.012499 0.000000 0.037312
#
#
# Mechanical properties :
#
#
# Convention : Reuss Voigt Hill
#
# Bulk Modulus (GPa) = 39.23532 53.82814 46.53173
# Shear Modulus (GPa) = 25.23008 29.31344 27.27176
#
# Velocity S-wave (km/s) = 3.55892 3.83612 3.70011
# Velocity P-wave (km/s) = 6.04852 6.82962 6.45090
#
# Compressibility (1/GPa) = 0.02548724
#
# Stress axis : x y z
#
# Youngs Moduli (GPa) = 85.67119 36.03511 86.85069
#
# Poissons Ratio (x) = 0.09045 0.37691
# Poissons Ratio (y) = 0.21505 0.51026
# Poissons Ratio (z) = 0.37179 0.21171
#
# Static dielectric constant tensor:
#      x y z
#    x 3.874160 0.000000 0.158850 
#    y 0.000000 3.429660 0.000000 
#    z 0.158850 0.000000 3.563620 
# 
# 
# High freq. dielectric constant tensor:
#      x y z
#    x 1.798360 0.000000 0.002790 
#    y 0.000000 1.768920 0.000000 
#    z 0.002790 0.000000 1.780050 
# 
# From -- ./inp_files/198767.got.cif
#   From: 2010.06.25/outbox.cif.g09.slc.cpg/sg12_100_cif.got.tgz:198767.got - 2010.06.28 00:19:55.
