data_PCOD8109358
_publ_section_title
;
Structure prediction by ZEFSAII (Michael W. Deem and Ramdas Pophale) SiO2 
 PCOD8109358
Probable space group: C 2/M
;
_chemical_formula_sum "Si O2"
_cell_formula_units_Z 48
_cell_length_a 19.129414
_cell_length_b 8.687657
_cell_length_c 19.956060
_cell_angle_alpha 90.000000
_cell_angle_beta 135.983171
_cell_angle_gamma 90.000000
_cell_volume 2304.530507
_symmetry_space_group_name_H-M "C 2/M"
_symmetry_group_IT_number 12
_symmetry_cell_setting 'monoclinic'
loop_
_space_group_symop_operation_xyz
x,y,z
-x,y,-z
-x,-y,-z
x,-y,z
1/2+x,1/2+y,z
1/2-x,1/2+y,-z
1/2-x,1/2-y,-z
1/2+x,1/2-y,z
loop_
_atom_site_type_symbol
_atom_site_label
_atom_site_fract_x
_atom_site_fract_y
_atom_site_fract_z
Si Si1 0.517561 0.180013 0.218606
Si Si2 0.771004 0.676282 0.206920
Si Si3 0.359390 0.681392 0.584363
Si Si4 0.553648 0.323188 0.104960
Si Si5 0.484612 0.180958 0.413421
Si Si6 0.189307 0.820194 0.897602
O O1 0.606516 0.268197 0.317905
O O2 0.512113 0.221068 0.136712
O O3 0.415263 0.231943 0.183396
O O4 0.532719 0.000000 0.238968
O O5 0.778848 0.500000 0.187497
O O6 0.673877 0.697569 0.186739
O O7 0.870521 0.726155 0.315676
O O8 0.751772 0.787443 0.130439
O O9 0.352982 0.500000 0.576317
O O10 0.250000 0.750000 0.500000
O O11 0.436070 0.737665 0.580294
O O12 0.523211 0.500000 0.097192
O O13 0.500000 0.265500 0.000000
O O14 0.500000 0.238262 0.500000
O O15 0.503511 0.000000 0.420226
O O16 0.172265 0.000000 0.897627
O O17 0.250000 0.750000 0.000000
#
# Coordination Sequence:
#
# PCOD8109358 Si02
#       6
#     8   8   8   8   8   8
#     4  12  25  43  66  96 133 172 217 269 322 385
#     4  10  21  39  63  92 130 170 212 264 322 384
#     4  12  26  45  69  98 131 170 217 270 327 389
#     4  10  22  40  63  94 132 175 219 264 322 385
#     4  10  22  41  66  97 131 169 212 262 324 389
#     4  12  24  40  65  95 128 169 215 267 323 384
#
# _framework density 20.828537000000001
#
# number of rings (size 3 to 8) (size 9 to 14) (size 15 to 20)
#    0.000    1.000    1.667    5.500    2.333    2.667 
#    0.000    0.000    0.000    0.000    0.000    0.000 
#    0.000    0.000    0.000    0.000    0.000    0.000 
#
# Total GULP energy -297733.524071 kJ/mol
# GULP energy per Si atom -12405.563503 kJ/mol
# Density = 2.078113 g / cm^3
# Si number density = 20.828537 Si / 1000 Ang^3
#
#
#
# Elastic Constant Matrix: (Units=GPa)
#
#
# Indices 1 2 3 4 5 6 
#
# 1 75.5721 35.7572 22.5336 0.0000 -4.0290 0.0000
# 2 35.7572 100.2940 36.4151 0.0000 -2.2820 0.0000
# 3 22.5336 36.4151 118.7422 0.0000 -2.2315 0.0000
# 4 0.0000 0.0000 0.0000 31.7775 0.0000 -4.0815
# 5 -4.0290 -2.2820 -2.2315 0.0000 43.6561 0.0000
# 6 0.0000 0.0000 0.0000 -4.0815 0.0000 37.2662
#
#
#
# Elastic Compliance Matrix: (Units=1/GPa)
#
#
# Indices 1 2 3 4 5 6 
#
# 1 0.016197 -0.005222 -0.001451 0.000000 0.001148 0.000000
# 2 -0.005222 0.012911 -0.002968 0.000000 0.000041 0.000000
# 3 -0.001451 -0.002968 0.009611 0.000000 0.000202 0.000000
# 4 0.000000 0.000000 0.000000 0.031918 0.000000 0.003496
# 5 0.001148 0.000041 0.000202 0.000000 0.023025 0.000000
# 6 0.000000 0.000000 0.000000 0.003496 0.000000 0.027217
#
#
# Mechanical properties :
#
#
# Convention : Reuss Voigt Hill
#
# Bulk Modulus (GPa) = 51.44516 53.78001 52.61258
# Shear Modulus (GPa) = 34.09771 35.86680 34.98226
#
# Velocity S-wave (km/s) = 4.05046 4.15420 4.10266
# Velocity P-wave (km/s) = 6.82846 6.99187 6.91065
#
# Compressibility (1/GPa) = 0.01943818
#
# Stress axis : x y z
#
# Youngs Moduli (GPa) = 61.74055 77.45447 104.04929
#
# Poissons Ratio (x) = 0.40444 0.15095
# Poissons Ratio (y) = 0.32239 0.30879
# Poissons Ratio (z) = 0.08957 0.22986
#
# Static dielectric constant tensor:
#      x y z
#    x 3.854300 0.000000 0.116080 
#    y 0.000000 3.695430 0.000000 
#    z 0.116080 0.000000 4.019680 
# 
# 
# High freq. dielectric constant tensor:
#      x y z
#    x 1.821730 0.000000 0.001700 
#    y 0.000000 1.810590 0.000000 
#    z 0.001700 0.000000 1.831640 
# 
# From -- ./inp_files/320328.got.cif
#   From: 2010.06.25/outbox.cif.g09.slc.cpg/sg12_161_cif.got.tgz:320328.got - 2010.06.28 00:19:55.
