data_PCOD8109365
_publ_section_title
;
Structure prediction by ZEFSAII (Michael W. Deem and Ramdas Pophale) SiO2 
 PCOD8109365
Probable space group: C 2/M
;
_chemical_formula_sum "Si O2"
_cell_formula_units_Z 56
_cell_length_a 13.524920
_cell_length_b 15.048825
_cell_length_c 16.777359
_cell_angle_alpha 90.000000
_cell_angle_beta 51.088818
_cell_angle_gamma 90.000000
_cell_volume 2657.099365
_symmetry_space_group_name_H-M "C 2/M"
_symmetry_group_IT_number 12
_symmetry_cell_setting 'monoclinic'
loop_
_space_group_symop_operation_xyz
x,y,z
-x,y,-z
-x,-y,-z
x,-y,z
1/2+x,1/2+y,z
1/2-x,1/2+y,-z
1/2-x,1/2-y,-z
1/2+x,1/2-y,z
loop_
_atom_site_type_symbol
_atom_site_label
_atom_site_fract_x
_atom_site_fract_y
_atom_site_fract_z
Si Si1 0.874369 0.171250 0.260416
Si Si2 0.123761 0.901605 0.902156
Si Si3 0.683827 0.898625 0.910257
Si Si4 0.053099 0.102866 0.296570
Si Si5 0.092874 0.267936 0.380681
Si Si6 0.398303 0.101502 0.764032
Si Si7 0.500048 0.838683 0.869991
O O1 0.873613 0.093192 0.195297
O O2 0.735520 0.214971 0.339894
O O3 0.921723 0.131725 0.320393
O O4 0.975211 0.240167 0.173248
O O5 0.258567 0.858994 0.859945
O O6 0.118773 0.000000 0.941404
O O7 0.000000 0.848788 0.000000
O O8 0.834178 0.883645 0.825103
O O9 0.620270 0.874456 0.858079
O O10 0.651442 0.000000 0.948164
O O11 0.626481 0.839666 0.010827
O O12 0.077708 0.165757 0.360053
O O13 0.045970 0.000000 0.328628
O O14 0.049467 0.334721 0.331966
O O15 0.000000 0.287228 0.500000
O O16 0.485617 0.101840 0.797883
O O17 0.388066 0.000000 0.737281
#
# Coordination Sequence:
#
# PCOD8109365 Si02
#       7
#     8   8   8   8   8   8   8
#     4  11  23  39  63  92 126 165 213 272 322 379
#     4   9  20  35  54  84 124 166 204 249 309 382
#     4  10  22  37  59  94 135 177 213 259 315 385
#     4  11  24  44  67  96 133 175 217 265 326 392
#     4  11  25  47  70  92 125 164 221 282 341 385
#     4  10  21  39  63  93 126 164 212 265 326 391
#     4  11  20  35  62  92 131 172 212 257 310 382
#
# _framework density 21.075613000000001
#
# number of rings (size 3 to 8) (size 9 to 14) (size 15 to 20)
#    0.000    1.571    2.857    2.143    4.000    2.286 
#    0.000    0.000    0.000    0.000    0.000    0.000 
#    0.000    0.000    0.000    0.000    0.000    0.000 
#
# Total GULP energy -347082.172316 kJ/mol
# GULP energy per Si atom -12395.791868 kJ/mol
# Density = 2.102764 g / cm^3
# Si number density = 21.075613 Si / 1000 Ang^3
#
#
#
# Elastic Constant Matrix: (Units=GPa)
#
#
# Indices 1 2 3 4 5 6 
#
# 1 110.4208 37.5213 43.4252 0.0000 5.5647 0.0000
# 2 37.5213 99.1488 43.9906 0.0000 2.1621 0.0000
# 3 43.4252 43.9906 112.7940 0.0000 4.9593 0.0000
# 4 0.0000 0.0000 0.0000 18.6890 0.0000 2.1809
# 5 5.5647 2.1621 4.9593 0.0000 16.9959 0.0000
# 6 0.0000 0.0000 0.0000 2.1809 0.0000 28.5647
#
#
#
# Elastic Compliance Matrix: (Units=1/GPa)
#
#
# Indices 1 2 3 4 5 6 
#
# 1 0.011394 -0.002854 -0.003166 0.000000 -0.002444 0.000000
# 2 -0.002854 0.012912 -0.003957 0.000000 0.000446 0.000000
# 3 -0.003166 -0.003957 0.011710 0.000000 -0.001877 0.000000
# 4 0.000000 0.000000 0.000000 0.053989 0.000000 -0.004122
# 5 -0.002444 0.000446 -0.001877 0.000000 0.060129 0.000000
# 6 0.000000 0.000000 0.000000 -0.004122 0.000000 0.035323
#
#
# Mechanical properties :
#
#
# Convention : Reuss Voigt Hill
#
# Bulk Modulus (GPa) = 62.25537 63.58197 62.91867
# Shear Modulus (GPa) = 23.72320 26.01169 24.86744
#
# Velocity S-wave (km/s) = 3.35867 3.51694 3.43872
# Velocity P-wave (km/s) = 6.68162 6.83563 6.75906
#
# Compressibility (1/GPa) = 0.01606287
#
# Stress axis : x y z
#
# Youngs Moduli (GPa) = 87.76249 77.44994 85.39473
#
# Poissons Ratio (x) = 0.22103 0.27039
# Poissons Ratio (y) = 0.25047 0.33786
# Poissons Ratio (z) = 0.27788 0.30643
#
# Static dielectric constant tensor:
#      x y z
#    x 3.958460 0.000000 -0.070600 
#    y 0.000000 3.774060 0.000000 
#    z -0.070600 0.000000 3.527160 
# 
# 
# High freq. dielectric constant tensor:
#      x y z
#    x 1.831370 0.000000 -0.005610 
#    y 0.000000 1.828100 0.000000 
#    z -0.005610 0.000000 1.792810 
# 
# From -- ./inp_files/270202.got.cif
#   From: 2010.06.25/outbox.cif.g09.slc.cpg/sg12_136_cif.got.tgz:270202.got - 2010.06.28 00:19:55.
