data_PCOD8109578
_publ_section_title
;
Structure prediction by ZEFSAII (Michael W. Deem and Ramdas Pophale) SiO2 
 PCOD8109578
Probable space group: C 2/M
;
_chemical_formula_sum "Si O2"
_cell_formula_units_Z 64
_cell_length_a 18.843601
_cell_length_b 28.059236
_cell_length_c 8.755617
_cell_angle_alpha 90.000000
_cell_angle_beta 40.571135
_cell_angle_gamma 90.000000
_cell_volume 3010.935385
_symmetry_space_group_name_H-M "C 2/M"
_symmetry_group_IT_number 12
_symmetry_cell_setting 'monoclinic'
loop_
_space_group_symop_operation_xyz
x,y,z
-x,y,-z
-x,-y,-z
x,-y,z
1/2+x,1/2+y,z
1/2-x,1/2+y,-z
1/2-x,1/2-y,-z
1/2+x,1/2-y,z
loop_
_atom_site_type_symbol
_atom_site_label
_atom_site_fract_x
_atom_site_fract_y
_atom_site_fract_z
Si Si1 0.882029 0.617985 0.143289
Si Si2 0.102550 0.628099 0.236463
Si Si3 0.195009 0.052629 0.420673
Si Si4 0.090304 0.189550 0.983150
Si Si5 0.771587 0.052184 0.993119
Si Si6 0.519512 0.398947 0.291011
Si Si7 0.024909 0.729195 0.300474
Si Si8 0.192727 0.297335 0.529762
O O1 0.793032 0.579878 0.346356
O O2 0.847809 0.669997 0.262940
O O3 0.893357 0.614448 0.945116
O O4 0.000000 0.601231 0.000000
O O5 0.102259 0.685721 0.234701
O O6 0.000000 0.609147 0.500000
O O7 0.200679 0.598753 0.156355
O O8 0.216345 0.049511 0.207192
O O9 0.085628 0.082597 0.628089
O O10 0.184500 0.000000 0.509526
O O11 0.055556 0.149781 0.157207
O O12 0.093599 0.239296 0.070608
O O13 0.211164 0.177196 0.723540
O O14 0.000000 0.195024 0.000000
O O15 0.889516 0.060185 0.875998
O O16 0.726886 0.000000 0.122421
O O17 0.500000 0.387637 0.500000
O O18 0.000000 0.757542 0.500000
O O19 0.912404 0.711622 0.404534
O O20 0.250000 0.250000 0.500000
#
# Coordination Sequence:
#
# PCOD8109578 Si02
#       8
#     8   8   8   8   8   8   8   8
#     4  11  22  40  65  90 125 168 219 265 326 393
#     4  10  22  39  64  91 129 163 211 269 326 382
#     4   9  19  37  62  95 128 166 214 272 329 387
#     4  12  25  42  64  94 131 174 223 263 323 398
#     4   9  19  37  64  95 127 168 212 267 334 394
#     4  10  21  39  65  97 130 168 216 272 327 389
#     4  11  25  44  63  98 132 174 218 273 324 381
#     4  12  25  42  70  92 129 179 220 265 328 395
#
# _framework density 21.255852999999998
#
# number of rings (size 3 to 8) (size 9 to 14) (size 15 to 20)
#    0.000    1.500    2.500    2.250    3.500    2.500 
#    4.500    0.000    0.000    8.250    0.000    0.000 
#    0.000    0.000    0.000    0.000    0.000    0.000 
#
# Total GULP energy -396479.068279 kJ/mol
# GULP energy per Si atom -12389.970884 kJ/mol
# Density = 2.120747 g / cm^3
# Si number density = 21.255853 Si / 1000 Ang^3
#
#
#
# Elastic Constant Matrix: (Units=GPa)
#
#
# Indices 1 2 3 4 5 6 
#
# 1 79.1581 51.4376 40.5556 0.0000 -16.7590 0.0000
# 2 51.4376 134.8445 51.4641 0.0000 -18.6753 0.0000
# 3 40.5556 51.4641 108.5564 0.0000 -16.9883 0.0000
# 4 0.0000 0.0000 0.0000 -2.7052 0.0000 -46.6093
# 5 -16.7590 -18.6753 -16.9883 0.0000 35.0265 0.0000
# 6 0.0000 0.0000 0.0000 -46.6093 0.0000 -24.6927
#
#
#
# Elastic Compliance Matrix: (Units=1/GPa)
#
#
# Indices 1 2 3 4 5 6 
#
# 1 0.018901 -0.005088 -0.003959 0.000000 0.004411 0.000000
# 2 -0.005088 0.010719 -0.002886 0.000000 0.001881 0.000000
# 3 -0.003959 -0.002886 0.012468 0.000000 0.002614 0.000000
# 4 0.000000 0.000000 0.000000 0.011727 0.000000 -0.022136
# 5 0.004411 0.001881 0.002614 0.000000 0.032931 0.000000
# 6 0.000000 0.000000 0.000000 -0.022136 0.000000 0.001285
#
#
# Mechanical properties :
#
#
# Convention : Reuss Voigt Hill
#
# Bulk Modulus (GPa) = 54.88027 67.71930 61.29979
# Shear Modulus (GPa) = 42.38287 13.46585 27.92436
#
# Velocity S-wave (km/s) = 4.47020 2.51970 3.62847
# Velocity P-wave (km/s) = 7.24697 6.35559 6.81586
#
# Compressibility (1/GPa) = 0.01822149
#
# Stress axis : x y z
#
# Youngs Moduli (GPa) = 52.90593 93.29233 80.20368
#
# Poissons Ratio (x) = 0.47470 0.31752
# Poissons Ratio (y) = 0.26920 0.23150
# Poissons Ratio (z) = 0.20945 0.26928
#
# Static dielectric constant tensor:
#      x y z
#    x 5.389390 0.000000 -0.336780 
#    y 0.000000 4.013390 0.000000 
#    z -0.336780 0.000000 4.256760 
# 
# 
# High freq. dielectric constant tensor:
#      x y z
#    x 1.825780 0.000000 -0.007680 
#    y 0.000000 1.831750 0.000000 
#    z -0.007680 0.000000 1.836370 
# 
# From -- ./inp_files/80702.got.cif
#   From: 2010.06.25/outbox.cif.g09.slc.cpg/sg12_41_cif.got.tgz:80702.got - 2010.06.28 00:19:55.
