data_PCOD8109214
_publ_section_title
;
Structure prediction by ZEFSAII (Michael W. Deem and Ramdas Pophale) SiO2 
 PCOD8109214
Probable space group: C 2/M
;
_chemical_formula_sum "Si O2"
_cell_formula_units_Z 48
_cell_length_a 20.346390
_cell_length_b 8.952563
_cell_length_c 20.889379
_cell_angle_alpha 90.000000
_cell_angle_beta 138.551781
_cell_angle_gamma 90.000000
_cell_volume 2518.725359
_symmetry_space_group_name_H-M "C 2/M"
_symmetry_group_IT_number 12
_symmetry_cell_setting 'monoclinic'
loop_
_space_group_symop_operation_xyz
x,y,z
-x,y,-z
-x,-y,-z
x,-y,z
1/2+x,1/2+y,z
1/2-x,1/2+y,-z
1/2-x,1/2-y,-z
1/2+x,1/2-y,z
loop_
_atom_site_type_symbol
_atom_site_label
_atom_site_fract_x
_atom_site_fract_y
_atom_site_fract_z
Si Si1 0.899572 0.674657 0.463343
Si Si2 0.659507 0.674713 0.969418
Si Si3 0.052631 0.171045 0.238591
Si Si4 0.787531 0.327854 0.729814
Si Si5 0.353142 0.672539 0.559260
Si Si6 0.390250 0.827421 0.937386
O O1 0.886325 0.500000 0.466008
O O2 0.809053 0.730318 0.354047
O O3 0.903403 0.755573 0.534181
O O4 0.000000 0.713719 0.500000
O O5 0.678478 0.500000 0.984676
O O6 0.559990 0.716321 0.858267
O O7 0.750000 0.750000 0.000000
O O8 0.653806 0.731780 0.037498
O O9 0.123219 0.279541 0.250710
O O10 0.070246 0.193978 0.326746
O O11 0.074577 0.000000 0.234288
O O12 0.763788 0.500000 0.698110
O O13 0.817259 0.302901 0.824753
O O14 0.331062 0.500000 0.529367
O O15 0.250000 0.750000 0.500000
O O16 0.396023 0.000000 0.962499
O O17 0.500000 0.768400 0.000000
#
# Coordination Sequence:
#
# PCOD8109214 Si02
#       6
#     8   8   8   8   8   8
#     4  11  25  43  61  87 126 164 201 252 307 360
#     4  11  24  41  62  90 125 165 203 251 306 358
#     4  10  22  39  61  89 122 158 201 250 301 362
#     4  11  22  37  64  93 119 158 203 251 303 360
#     4  11  22  38  63  92 121 158 204 253 303 361
#     4  10  21  39  62  91 124 158 201 251 301 361
#
# _framework density 19.057258999999998
#
# number of rings (size 3 to 8) (size 9 to 14) (size 15 to 20)
#    0.000    1.333    3.333    2.000    0.000    5.667 
#    0.000    5.000    0.000    0.000    0.000    0.000 
#    0.000    0.000    0.000    0.000    0.000    0.000 
#
# Total GULP energy -297746.804898 kJ/mol
# GULP energy per Si atom -12406.116871 kJ/mol
# Density = 1.901388 g / cm^3
# Si number density = 19.057259 Si / 1000 Ang^3
#
#
#
# Elastic Constant Matrix: (Units=GPa)
#
#
# Indices 1 2 3 4 5 6 
#
# 1 158.0173 85.5643 73.4335 0.0000 2.8855 0.0000
# 2 85.5643 108.3424 56.8756 0.0000 -0.3508 0.0000
# 3 73.4335 56.8756 123.7093 0.0000 -3.0629 0.0000
# 4 0.0000 0.0000 0.0000 27.9240 0.0000 -0.5655
# 5 2.8855 -0.3508 -3.0629 0.0000 32.2089 0.0000
# 6 0.0000 0.0000 0.0000 -0.5655 0.0000 37.4434
#
#
#
# Elastic Compliance Matrix: (Units=1/GPa)
#
#
# Indices 1 2 3 4 5 6 
#
# 1 0.012305 -0.007735 -0.003786 0.000000 -0.001547 0.000000
# 2 -0.007735 0.017034 -0.003226 0.000000 0.000572 0.000000
# 3 -0.003786 -0.003226 0.011849 0.000000 0.001431 0.000000
# 4 0.000000 0.000000 0.000000 0.035822 0.000000 0.000541
# 5 -0.001547 0.000572 0.001431 0.000000 0.031328 0.000000
# 6 0.000000 0.000000 0.000000 0.000541 0.000000 0.026715
#
#
# Mechanical properties :
#
#
# Convention : Reuss Voigt Hill
#
# Bulk Modulus (GPa) = 85.51250 91.31287 88.41269
# Shear Modulus (GPa) = 29.68317 31.12830 30.40573
#
# Velocity S-wave (km/s) = 3.95090 4.04593 3.99870
# Velocity P-wave (km/s) = 8.11058 8.35734 8.23488
#
# Compressibility (1/GPa) = 0.01169420
#
# Stress axis : x y z
#
# Youngs Moduli (GPa) = 81.27063 58.70570 84.39311
#
# Poissons Ratio (x) = 0.45410 0.31951
# Poissons Ratio (y) = 0.62864 0.27223
# Poissons Ratio (z) = 0.30769 0.18937
#
# Static dielectric constant tensor:
#      x y z
#    x 2.730890 0.000000 -2.068660 
#    y 0.000000 3.661370 0.000000 
#    z -2.068660 0.000000 -2.958800 
# 
# 
# High freq. dielectric constant tensor:
#      x y z
#    x 1.739870 0.000000 -0.006040 
#    y 0.000000 1.752600 0.000000 
#    z -0.006040 0.000000 1.756150 
# 
# From -- ./inp_files/249374.got.cif
#   From: 2010.06.25/outbox.cif.g09.slc.cpg/sg12_125_cif.got.tgz:249374.got - 2010.06.28 00:19:55.
