data_PCOD8109762
_publ_section_title
;
Structure prediction by ZEFSAII (Michael W. Deem and Ramdas Pophale) SiO2 
 PCOD8109762
Probable space group: C 2/M
;
_chemical_formula_sum "Si O2"
_cell_formula_units_Z 64
_cell_length_a 26.825778
_cell_length_b 14.885887
_cell_length_c 18.540694
_cell_angle_alpha 90.000000
_cell_angle_beta 24.713839
_cell_angle_gamma 90.000000
_cell_volume 3095.417075
_symmetry_space_group_name_H-M "C 2/M"
_symmetry_group_IT_number 12
_symmetry_cell_setting 'monoclinic'
loop_
_space_group_symop_operation_xyz
x,y,z
-x,y,-z
-x,-y,-z
x,-y,z
1/2+x,1/2+y,z
1/2-x,1/2+y,-z
1/2-x,1/2-y,-z
1/2+x,1/2-y,z
loop_
_atom_site_type_symbol
_atom_site_label
_atom_site_fract_x
_atom_site_fract_y
_atom_site_fract_z
Si Si1 0.267495 0.895256 0.134146
Si Si2 0.851874 0.774944 0.421758
Si Si3 0.020259 0.349732 0.359581
Si Si4 0.585891 0.651916 0.250954
Si Si5 0.511434 0.097253 0.745672
Si Si6 0.327754 0.398053 0.589071
Si Si7 0.316939 0.103748 0.722226
Si Si8 0.424126 0.395526 0.893817
O O1 0.183215 0.848899 0.185856
O O2 0.241135 0.861354 0.249724
O O3 0.241606 0.000000 0.161370
O O4 0.404286 0.871288 0.938513
O O5 0.750000 0.750000 0.500000
O O6 0.891829 0.674783 0.389281
O O7 0.801594 0.830687 0.556644
O O8 0.959023 0.834376 0.246466
O O9 0.048122 0.253851 0.288466
O O10 0.112850 0.381245 0.296668
O O11 0.034616 0.419434 0.275224
O O12 0.884730 0.343524 0.569467
O O13 0.467214 0.596686 0.427254
O O14 0.631275 0.616251 0.113881
O O15 0.562101 0.000000 0.706309
O O16 0.286418 0.500000 0.623338
O O17 0.320715 0.000000 0.696269
O O18 0.179552 0.134891 0.913826
O O19 0.458699 0.500000 0.859918
#
# Coordination Sequence:
#
# PCOD8109762 Si02
#       8
#     8   8   8   8   8   8   8   8
#     4  10  22  36  57  90 127 164 198 239 296 367
#     4  11  24  43  64  88 113 149 204 258 318 364
#     4  11  21  33  54  88 127 169 202 238 290 359
#     4  11  20  31  55  91 126 166 199 234 292 359
#     4  11  23  40  60  85 119 157 201 252 307 366
#     4  10  21  40  62  89 124 159 199 245 298 363
#     4  10  22  36  55  84 123 170 208 239 287 356
#     4  10  21  40  63  88 121 161 205 252 299 360
#
# _framework density 20.675726999999998
#
# number of rings (size 3 to 8) (size 9 to 14) (size 15 to 20)
#    0.000    1.500    2.500    4.875    5.250    5.000 
#    0.000    0.625    0.000    2.250    0.000    2.625 
#    0.000    0.000    0.000    0.000    0.000    0.000 
#
# Total GULP energy -396555.431200 kJ/mol
# GULP energy per Si atom -12392.357225 kJ/mol
# Density = 2.062867 g / cm^3
# Si number density = 20.675727 Si / 1000 Ang^3
#
#
#
# Elastic Constant Matrix: (Units=GPa)
#
#
# Indices 1 2 3 4 5 6 
#
# 1 72.2586 41.9265 41.3994 0.0000 -5.5409 0.0000
# 2 41.9265 98.6187 38.2072 0.0000 -3.4095 0.0000
# 3 41.3994 38.2072 91.6899 0.0001 12.5456 0.0000
# 4 0.0000 0.0000 0.0001 -28.8565 0.0000 -18.3954
# 5 -5.5409 -3.4095 12.5456 0.0000 21.6800 0.0000
# 6 0.0000 0.0000 0.0000 -18.3954 0.0000 12.7109
#
#
#
# Elastic Compliance Matrix: (Units=1/GPa)
#
#
# Indices 1 2 3 4 5 6 
#
# 1 0.023642 -0.005937 -0.009665 0.000000 0.010702 0.000000
# 2 -0.005937 0.014155 -0.003600 0.000000 0.002792 0.000000
# 3 -0.009665 -0.003600 0.018664 0.000000 -0.013836 0.000000
# 4 0.000000 0.000000 0.000000 -0.018025 0.000000 -0.026086
# 5 0.010702 0.002792 -0.013836 0.000000 0.057306 0.000000
# 6 0.000000 0.000000 0.000000 -0.026086 0.000000 0.040921
#
#
# Mechanical properties :
#
#
# Convention : Reuss Voigt Hill
#
# Bulk Modulus (GPa) = 55.37980 56.18150 55.78065
# Shear Modulus (GPa) = 27.61130 10.50914 19.06022
#
# Velocity S-wave (km/s) = 3.65834 2.25696 3.03952
# Velocity P-wave (km/s) = 6.68488 5.83297 6.27340
#
# Compressibility (1/GPa) = 0.01805713
#
# Stress axis : x y z
#
# Youngs Moduli (GPa) = 42.29792 70.64546 53.58023
#
# Poissons Ratio (x) = 0.41939 0.51786
# Poissons Ratio (y) = 0.25110 0.19289
# Poissons Ratio (z) = 0.40882 0.25433
#
# Static dielectric constant tensor:
#      x y z
#    x 3.669410 0.000000 0.265010 
#    y 0.000000 3.912750 0.000000 
#    z 0.265010 0.000000 3.894720 
# 
# 
# High freq. dielectric constant tensor:
#      x y z
#    x 1.765110 0.000000 0.028140 
#    y 0.000000 1.829020 0.000000 
#    z 0.028140 0.000000 1.806830 
# 
# From -- ./inp_files/330352.got.cif
#   From: 2010.06.25/outbox.cif.g09.slc.cpg/sg12_166_cif.got.tgz:330352.got - 2010.06.28 00:19:55.
