data_PCOD8109894
_publ_section_title
;
Structure prediction by ZEFSAII (Michael W. Deem and Ramdas Pophale) SiO2 
 PCOD8109894
Probable space group: C 2/M
;
_chemical_formula_sum "Si O2"
_cell_formula_units_Z 64
_cell_length_a 8.874769
_cell_length_b 18.731975
_cell_length_c 29.177602
_cell_angle_alpha 90.000000
_cell_angle_beta 38.861459
_cell_angle_gamma 90.000000
_cell_volume 3043.420920
_symmetry_space_group_name_H-M "C 2/M"
_symmetry_group_IT_number 12
_symmetry_cell_setting 'monoclinic'
loop_
_space_group_symop_operation_xyz
x,y,z
-x,y,-z
-x,-y,-z
x,-y,z
1/2+x,1/2+y,z
1/2-x,1/2+y,-z
1/2-x,1/2-y,-z
1/2+x,1/2-y,z
loop_
_atom_site_type_symbol
_atom_site_label
_atom_site_fract_x
_atom_site_fract_y
_atom_site_fract_z
Si Si1 0.170574 0.918778 0.336842
Si Si2 0.384327 0.191468 0.644036
Si Si3 0.425404 0.835617 0.808600
Si Si4 0.569981 0.310403 0.809146
Si Si5 0.746942 0.580215 0.424314
Si Si6 0.762212 0.416352 0.930580
Si Si7 0.229755 0.182235 0.582446
Si Si8 0.627101 0.084131 0.921719
O O1 0.321251 0.861502 0.271865
O O2 0.271640 0.915416 0.364044
O O3 0.892999 0.893918 0.400362
O O4 0.191094 0.000000 0.313199
O O5 0.217756 0.185259 0.727422
O O6 0.532899 0.118975 0.604035
O O7 0.215174 0.197277 0.640062
O O8 0.570017 0.256474 0.597639
O O9 0.449738 0.767727 0.836640
O O10 0.241514 0.817508 0.811969
O O11 0.335157 0.900197 0.861304
O O12 0.374827 0.373058 0.858392
O O13 0.500000 0.616556 0.500000
O O14 0.755704 0.500000 0.440819
O O15 0.745234 0.500000 0.941653
O O16 0.951996 0.387475 0.922997
O O17 0.500000 0.381254 0.000000
O O18 0.500000 0.183012 0.500000
O O19 0.686907 0.000000 0.903055
O O20 0.500000 0.100906 0.000000
#
# Coordination Sequence:
#
# PCOD8109894 Si02
#       8
#     8   8   8   8   8   8   8   8
#     4  11  24  42  64  92 129 171 214 271 337 394
#     4  12  23  41  63  92 130 167 219 271 324 390
#     4  12  24  43  64  95 131 172 218 272 322 392
#     4  12  25  41  68  93 134 174 218 271 327 379
#     4  10  21  40  64  91 125 164 211 267 327 392
#     4  10  22  42  70 100 134 175 214 259 315 381
#     4  12  25  41  66  93 126 172 222 275 334 392
#     4  10  23  44  70 104 140 173 217 265 317 384
#
# _framework density 21.028967000000002
#
# number of rings (size 3 to 8) (size 9 to 14) (size 15 to 20)
#    0.000    0.875    2.500    4.875    1.750    3.750 
#    0.000    2.500    0.000    0.000    0.000    0.000 
#    0.000    0.000    0.000    0.000    0.000    0.000 
#
# Total GULP energy -396872.562766 kJ/mol
# GULP energy per Si atom -12402.267586 kJ/mol
# Density = 2.098110 g / cm^3
# Si number density = 21.028967 Si / 1000 Ang^3
#
#
#
# Elastic Constant Matrix: (Units=GPa)
#
#
# Indices 1 2 3 4 5 6 
#
# 1 112.8552 41.3917 20.0064 0.0096 -0.1281 -0.0281
# 2 41.3917 90.5164 27.4709 -0.0364 -14.5262 0.0104
# 3 20.0064 27.4709 99.4443 -0.0679 -9.0369 -0.0259
# 4 0.0096 -0.0364 -0.0679 33.3203 -0.0384 -0.3569
# 5 -0.1281 -14.5262 -9.0369 -0.0384 38.0485 0.0137
# 6 -0.0281 0.0104 -0.0259 -0.3569 0.0137 23.7452
#
#
#
# Elastic Compliance Matrix: (Units=1/GPa)
#
#
# Indices 1 2 3 4 5 6 
#
# 1 0.010872 -0.005008 -0.000996 -0.000013 -0.002112 0.000015
# 2 -0.005008 0.014959 -0.002665 0.000018 0.005061 -0.000018
# 3 -0.000996 -0.002665 0.011140 0.000022 0.001625 0.000012
# 4 -0.000013 0.000018 0.000022 0.030017 0.000042 0.000451
# 5 -0.002112 0.005061 0.001625 0.000042 0.028593 -0.000019
# 6 0.000015 -0.000018 0.000012 0.000451 -0.000019 0.042121
#
#
# Mechanical properties :
#
#
# Convention : Reuss Voigt Hill
#
# Bulk Modulus (GPa) = 50.93369 53.39488 52.16428
# Shear Modulus (GPa) = 30.94373 33.28593 32.11483
#
# Velocity S-wave (km/s) = 3.84015 3.98283 3.91214
# Velocity P-wave (km/s) = 6.62840 6.82619 6.72802
#
# Compressibility (1/GPa) = 0.01963337
#
# Stress axis : x y z
#
# Youngs Moduli (GPa) = 91.98010 66.84959 89.76648
#
# Poissons Ratio (x) = 0.33480 0.08938
# Poissons Ratio (y) = 0.46067 0.23921
# Poissons Ratio (z) = 0.09158 0.17814
#
# Static dielectric constant tensor:
#      x y z
#    x 4.018990 -0.000030 -0.119030 
#    y -0.000030 3.891190 0.000030 
#    z -0.119030 0.000030 3.825780 
# 
# 
# High freq. dielectric constant tensor:
#      x y z
#    x 1.833990 0.000000 -0.000520 
#    y 0.000000 1.826030 0.000000 
#    z -0.000520 0.000000 1.830550 
# 
# From -- ./inp_files/372927.got.cif
#   From: 2010.06.25/outbox.cif.g09.slc.cpg/sg12_187_cif.got.tgz:372927.got - 2010.06.28 00:19:55.
