data_PCOD8109849
_publ_section_title
;
Structure prediction by ZEFSAII (Michael W. Deem and Ramdas Pophale) SiO2 
 PCOD8109849
Probable space group: C 2/M
;
_chemical_formula_sum "Si O2"
_cell_formula_units_Z 56
_cell_length_a 19.003525
_cell_length_b 8.926414
_cell_length_c 21.651279
_cell_angle_alpha 90.000000
_cell_angle_beta 124.229137
_cell_angle_gamma 90.000000
_cell_volume 3036.633606
_symmetry_space_group_name_H-M "C 2/M"
_symmetry_group_IT_number 12
_symmetry_cell_setting 'monoclinic'
loop_
_space_group_symop_operation_xyz
x,y,z
-x,y,-z
-x,-y,-z
x,-y,z
1/2+x,1/2+y,z
1/2-x,1/2+y,-z
1/2-x,1/2-y,-z
1/2+x,1/2-y,z
loop_
_atom_site_type_symbol
_atom_site_label
_atom_site_fract_x
_atom_site_fract_y
_atom_site_fract_z
Si Si1 0.032719 0.173383 0.694721
Si Si2 0.988730 0.677543 0.187940
Si Si3 0.276714 0.670856 0.201500
Si Si4 0.686150 0.674828 0.921411
Si Si5 0.372799 0.673067 0.544227
Si Si6 0.253612 0.675551 0.597139
Si Si7 0.658712 0.676757 0.235453
O O1 0.002720 0.275067 0.736606
O O2 0.129863 0.206479 0.724138
O O3 0.972587 0.207413 0.605974
O O4 0.022403 0.000000 0.711047
O O5 0.984161 0.500000 0.180376
O O6 0.905127 0.747881 0.115775
O O7 0.069138 0.738455 0.189692
O O8 0.250800 0.500000 0.203170
O O9 0.277743 0.701451 0.129205
O O10 0.209040 0.782565 0.198096
O O11 0.676354 0.500000 0.931210
O O12 0.750000 0.750000 0.000000
O O13 0.356583 0.500000 0.523842
O O14 0.322138 0.727444 0.580040
O O15 0.338896 0.757947 0.466669
O O16 0.243551 0.500000 0.594682
O O17 0.285145 0.735164 0.678889
O O18 0.642315 0.500000 0.230823
#
# Coordination Sequence:
#
# PCOD8109849 Si02
#       7
#     8   8   8   8   8   8   8
#     4   9  17  34  54  75 106 142 182 230 277 321
#     4  11  21  33  56  85 110 141 184 223 263 319
#     4   9  20  36  56  81 110 142 176 219 268 320
#     4  10  21  40  64  88 116 143 174 216 262 314
#     4   9  16  29  49  72 100 136 181 228 276 323
#     4   9  18  30  46  71 103 138 179 227 276 319
#     4  11  21  36  54  76 111 148 182 225 274 322
#
# _framework density 18.441473999999999
#
# number of rings (size 3 to 8) (size 9 to 14) (size 15 to 20)
#    0.000    2.286    1.429    3.000    0.000    4.571 
#    0.000    1.429    0.000    8.571    0.000    0.000 
#    0.000    0.000    0.000    0.000    0.000    0.000 
#
# Total GULP energy -347210.914797 kJ/mol
# GULP energy per Si atom -12400.389814 kJ/mol
# Density = 1.839950 g / cm^3
# Si number density = 18.441474 Si / 1000 Ang^3
#
#
#
# Elastic Constant Matrix: (Units=GPa)
#
#
# Indices 1 2 3 4 5 6 
#
# 1 103.2939 54.2982 52.9449 0.0000 14.8566 0.0000
# 2 54.2982 97.6357 52.6458 0.0000 11.9825 0.0000
# 3 52.9449 52.6458 120.0957 0.0000 26.3106 0.0000
# 4 0.0000 0.0000 0.0000 32.9595 0.0000 2.9208
# 5 14.8566 11.9825 26.3106 0.0000 23.3958 0.0000
# 6 0.0000 0.0000 0.0000 2.9208 0.0000 29.2063
#
#
#
# Elastic Compliance Matrix: (Units=1/GPa)
#
#
# Indices 1 2 3 4 5 6 
#
# 1 0.015048 -0.006259 -0.003316 0.000000 -0.002621 0.000000
# 2 -0.006259 0.016018 -0.004426 0.000000 0.000749 0.000000
# 3 -0.003316 -0.004426 0.014292 0.000000 -0.011700 0.000000
# 4 0.000000 0.000000 0.000000 0.030612 0.000000 -0.003061
# 5 -0.002621 0.000749 -0.011700 0.000000 0.057181 0.000000
# 6 0.000000 0.000000 0.000000 -0.003061 0.000000 0.034545
#
#
# Mechanical properties :
#
#
# Convention : Reuss Voigt Hill
#
# Bulk Modulus (GPa) = 57.61974 71.20035 64.41005
# Shear Modulus (GPa) = 24.81587 27.85473 26.33530
#
# Velocity S-wave (km/s) = 3.67230 3.89065 3.78305
# Velocity P-wave (km/s) = 7.02093 7.67304 7.35422
#
# Compressibility (1/GPa) = 0.01735516
#
# Stress axis : x y z
#
# Youngs Moduli (GPa) = 66.45467 62.43065 69.96802
#
# Poissons Ratio (x) = 0.39075 0.23202
# Poissons Ratio (y) = 0.41593 0.30970
# Poissons Ratio (z) = 0.22037 0.27634
#
# Static dielectric constant tensor:
#      x y z
#    x 3.233190 0.000000 0.232200 
#    y 0.000000 3.332380 0.000000 
#    z 0.232200 0.000000 3.438320 
# 
# 
# High freq. dielectric constant tensor:
#      x y z
#    x 1.697030 0.000000 0.020020 
#    y 0.000000 1.715070 0.000000 
#    z 0.020020 0.000000 1.710230 
# 
# From -- ./inp_files/314355.got.cif
#   From: 2010.06.25/outbox.cif.g09.slc.cpg/sg12_158_cif.got.tgz:314355.got - 2010.06.28 00:19:55.
