data_PCOD8109110
_publ_section_title
;
Structure prediction by ZEFSAII (Michael W. Deem and Ramdas Pophale) SiO2 
 PCOD8109110
Probable space group: C 2/M
;
_chemical_formula_sum "Si O2"
_cell_formula_units_Z 32
_cell_length_a 20.491061
_cell_length_b 14.730803
_cell_length_c 15.807997
_cell_angle_alpha 90.000000
_cell_angle_beta 161.270469
_cell_angle_gamma 90.000000
_cell_volume 1532.179252
_symmetry_space_group_name_H-M "C 2/M"
_symmetry_group_IT_number 12
_symmetry_cell_setting 'monoclinic'
loop_
_space_group_symop_operation_xyz
x,y,z
-x,y,-z
-x,-y,-z
x,-y,z
1/2+x,1/2+y,z
1/2-x,1/2+y,-z
1/2-x,1/2-y,-z
1/2+x,1/2-y,z
loop_
_atom_site_type_symbol
_atom_site_label
_atom_site_fract_x
_atom_site_fract_y
_atom_site_fract_z
Si Si1 0.907153 0.601403 0.302266
Si Si2 0.323665 0.500000 0.422384
Si Si3 0.974854 0.152565 0.721386
Si Si4 0.924008 0.500000 0.039017
Si Si5 0.109390 0.361925 0.385442
O O1 0.833015 0.500000 0.232911
O O2 0.000000 0.647627 0.500000
O O3 0.080197 0.597433 0.442725
O O4 0.710572 0.657748 0.033900
O O5 0.446265 0.590172 0.602496
O O6 0.105768 0.500000 0.196808
O O7 0.286155 0.500000 0.273936
O O8 0.909999 0.254884 0.625470
O O9 0.833343 0.113580 0.623953
O O10 0.939652 0.408747 0.115935
#
# Coordination Sequence:
#
# PCOD8109110 Si02
#       5
#     8   4   8   4   8
#     4  11  23  38  58  85 120 160 200 242 292 356
#     4   9  18  35  59  86 115 149 194 246 298 354
#     4  10  21  39  62  86 118 158 198 247 303 356
#     4   9  18  35  59  86 115 149 194 246 298 354
#     4  10  21  39  62  86 118 158 198 247 303 356
#
# _framework density 20.885283999999999
#
# number of rings (size 3 to 8) (size 9 to 14) (size 15 to 20)
#    0.000    2.000    2.500    0.750    0.000    3.000 
#    0.000   10.000    0.000    0.000    0.000    0.000 
#    0.000    0.000    0.000    0.000    0.000    0.000 
#
# Total GULP energy -198297.881975 kJ/mol
# GULP energy per Si atom -12393.617623 kJ/mol
# Density = 2.083775 g / cm^3
# Si number density = 20.885284 Si / 1000 Ang^3
#
#
#
# Elastic Constant Matrix: (Units=GPa)
#
#
# Indices 1 2 3 4 5 6 
#
# 1 99.0983 5.5475 42.2246 -0.1162 -20.0130 -0.0578
# 2 5.5475 105.9317 15.9241 -0.0739 -16.5766 -0.0620
# 3 42.2246 15.9241 90.6256 -0.1166 -20.5646 -0.0981
# 4 -0.1162 -0.0739 -0.1166 0.1731 -0.0472 0.1695
# 5 -20.0130 -16.5766 -20.5646 -0.0472 39.1158 -0.0245
# 6 -0.0578 -0.0620 -0.0981 0.1695 -0.0245 11.2155
#
#
#
# Elastic Compliance Matrix: (Units=1/GPa)
#
#
# Indices 1 2 3 4 5 6 
#
# 1 0.013179 0.000783 -0.005294 0.006855 0.004300 -0.000068
# 2 0.000783 0.010228 -0.001226 0.005202 0.004097 -0.000020
# 3 -0.005294 -0.001226 0.014755 0.007101 0.004538 -0.000002
# 4 0.006855 0.005202 0.007101 5.881222 0.016484 -0.088741
# 5 0.004300 0.004097 0.004538 0.016484 0.031907 -0.000095
# 6 -0.000068 -0.000020 -0.000002 -0.088741 -0.000095 0.090503
#
#
# Mechanical properties :
#
#
# Convention : Reuss Voigt Hill
#
# Bulk Modulus (GPa) = 37.46733 47.00534 42.23634
# Shear Modulus (GPa) = 0.82479 25.56484 13.19482
#
# Velocity S-wave (km/s) = 0.62910 3.50245 2.51624
# Velocity P-wave (km/s) = 4.30189 6.23791 5.35807
#
# Compressibility (1/GPa) = 0.02668992
#
# Stress axis : x y z
#
# Youngs Moduli (GPa) = 75.87806 97.77059 67.77335
#
# Poissons Ratio (x) = -0.07657 0.35876
# Poissons Ratio (y) = -0.05943 0.08307
# Poissons Ratio (z) = 0.40166 0.11984
#
# Static dielectric constant tensor:
#      x y z
#    x 3.957480 0.000020 -0.093310 
#    y 0.000020 3.775760 -0.000030 
#    z -0.093310 -0.000030 3.765170 
# 
# 
# High freq. dielectric constant tensor:
#      x y z
#    x 1.818980 0.000000 0.003180 
#    y 0.000000 1.818880 0.000000 
#    z 0.003180 0.000000 1.796900 
# 
# From -- ./inp_files/44982.got.cif
#   From: 2010.06.25/outbox.cif.g09.slc.cpg/sg12_23_cif.got.tgz:44982.got - 2010.06.28 00:19:55.
