data_PCOD8109839
_publ_section_title
;
Structure prediction by ZEFSAII (Michael W. Deem and Ramdas Pophale) SiO2 
 PCOD8109839
Probable space group: C 2/M
;
_chemical_formula_sum "Si O2"
_cell_formula_units_Z 64
_cell_length_a 10.200347
_cell_length_b 14.763716
_cell_length_c 30.974930
_cell_angle_alpha 90.000000
_cell_angle_beta 44.243999
_cell_angle_gamma 90.000000
_cell_volume 3254.612522
_symmetry_space_group_name_H-M "C 2/M"
_symmetry_group_IT_number 12
_symmetry_cell_setting 'monoclinic'
loop_
_space_group_symop_operation_xyz
x,y,z
-x,y,-z
-x,-y,-z
x,-y,z
1/2+x,1/2+y,z
1/2-x,1/2+y,-z
1/2-x,1/2-y,-z
1/2+x,1/2-y,z
loop_
_atom_site_type_symbol
_atom_site_label
_atom_site_fract_x
_atom_site_fract_y
_atom_site_fract_z
Si Si1 0.045314 0.257237 0.261897
Si Si2 0.853122 0.105328 0.161940
Si Si3 0.416275 0.392289 0.975477
Si Si4 0.529335 0.896076 0.423235
Si Si5 0.513494 0.107610 0.044867
Si Si6 0.876123 0.762254 0.657368
Si Si7 0.871086 0.104924 0.823413
Si Si8 0.302926 0.604095 0.436135
O O1 0.165123 0.336642 0.211628
O O2 0.117899 0.238015 0.292634
O O3 0.060944 0.162457 0.233134
O O4 0.829602 0.288245 0.311326
O O5 0.956471 0.140244 0.094394
O O6 0.992063 0.121558 0.168838
O O7 0.796232 0.000000 0.171535
O O8 0.411106 0.500000 0.977334
O O9 0.500000 0.352622 0.000000
O O10 0.204191 0.354714 0.021266
O O11 0.558515 0.836636 0.373869
O O12 0.323976 0.878480 0.491743
O O13 0.686874 0.869176 0.420921
O O14 0.550942 0.000000 0.404055
O O15 0.336980 0.138990 0.114909
O O16 0.515257 0.000000 0.041339
O O17 0.500000 0.148465 0.000000
O O18 0.011430 0.836457 0.604288
O O19 0.871371 0.000000 0.809445
O O20 0.364323 0.500000 0.419382
#
# Coordination Sequence:
#
# PCOD8109839 Si02
#       8
#     8   8   8   8   8   8   8   8
#     4  12  26  40  59  89 123 161 211 248 282 354
#     4  10  21  41  63  83 119 162 196 247 309 358
#     4   9  17  31  56  88 116 144 187 247 313 367
#     4   9  19  38  66  95 123 158 200 242 296 361
#     4   9  15  29  58  87 106 142 198 246 298 364
#     4  12  23  40  61  89 126 163 199 247 296 344
#     4  10  21  40  64  85 115 159 204 250 298 358
#     4   9  19  38  65  96 124 155 199 249 296 347
#
# _framework density 19.664400000000001
#
# number of rings (size 3 to 8) (size 9 to 14) (size 15 to 20)
#    0.000    2.000    3.750    1.125    0.000    3.000 
#    0.000    2.500    0.000    1.500    0.000    0.000 
#    0.000    0.000    0.000    0.000    0.000    0.000 
#
# Total GULP energy -396876.895022 kJ/mol
# GULP energy per Si atom -12402.402969 kJ/mol
# Density = 1.961964 g / cm^3
# Si number density = 19.664400 Si / 1000 Ang^3
#
#
#
# Elastic Constant Matrix: (Units=GPa)
#
#
# Indices 1 2 3 4 5 6 
#
# 1 94.9748 33.3210 44.2288 -0.0001 -7.5287 0.0000
# 2 33.3210 79.1012 52.0326 0.0001 -7.6990 -0.0001
# 3 44.2288 52.0326 103.4639 -0.0002 -12.8931 -0.0006
# 4 -0.0001 0.0001 -0.0002 25.7575 0.0003 -3.0535
# 5 -7.5287 -7.6990 -12.8931 0.0003 45.5944 0.0000
# 6 0.0000 -0.0001 -0.0006 -3.0535 0.0000 15.9854
#
#
#
# Elastic Compliance Matrix: (Units=1/GPa)
#
#
# Indices 1 2 3 4 5 6 
#
# 1 0.013572 -0.002828 -0.004312 0.000000 0.000544 0.000000
# 2 -0.002828 0.019493 -0.008543 0.000000 0.000409 0.000000
# 3 -0.004312 -0.008543 0.016104 0.000000 0.002399 0.000001
# 4 0.000000 0.000000 0.000000 0.039723 0.000000 0.007588
# 5 0.000544 0.000409 0.002399 0.000000 0.022770 0.000000
# 6 0.000000 0.000000 0.000001 0.007588 0.000000 0.064006
#
#
# Mechanical properties :
#
#
# Convention : Reuss Voigt Hill
#
# Bulk Modulus (GPa) = 56.17060 59.63385 57.90223
# Shear Modulus (GPa) = 23.47759 27.33129 25.40444
#
# Velocity S-wave (km/s) = 3.45905 3.73216 3.59820
# Velocity P-wave (km/s) = 6.67683 6.99741 6.83900
#
# Compressibility (1/GPa) = 0.01780291
#
# Stress axis : x y z
#
# Youngs Moduli (GPa) = 73.67864 51.30102 62.09681
#
# Poissons Ratio (x) = 0.14508 0.26776
# Poissons Ratio (y) = 0.20836 0.53051
# Poissons Ratio (z) = 0.31770 0.43827
#
# Static dielectric constant tensor:
#      x y z
#    x 3.599780 0.000000 -0.099030 
#    y 0.000000 3.388100 0.000000 
#    z -0.099030 0.000000 3.672130 
# 
# 
# High freq. dielectric constant tensor:
#      x y z
#    x 1.760300 0.000000 -0.005760 
#    y 0.000000 1.758480 0.000000 
#    z -0.005760 0.000000 1.775680 
# 
# From -- ./inp_files/372544.got.cif
#   From: 2010.06.25/outbox.cif.g09.slc.cpg/sg12_187_cif.got.tgz:372544.got - 2010.06.28 00:19:55.
