data_PCOD8109954
_publ_section_title
;
Structure prediction by ZEFSAII (Michael W. Deem and Ramdas Pophale) SiO2 
 PCOD8109954
Probable space group: C 2/M
;
_chemical_formula_sum "Si O2"
_cell_formula_units_Z 56
_cell_length_a 12.557775
_cell_length_b 22.005156
_cell_length_c 11.857322
_cell_angle_alpha 90.000000
_cell_angle_beta 52.499777
_cell_angle_gamma 90.000000
_cell_volume 2599.495803
_symmetry_space_group_name_H-M "C 2/M"
_symmetry_group_IT_number 12
_symmetry_cell_setting 'monoclinic'
loop_
_space_group_symop_operation_xyz
x,y,z
-x,y,-z
-x,-y,-z
x,-y,z
1/2+x,1/2+y,z
1/2-x,1/2+y,-z
1/2-x,1/2-y,-z
1/2+x,1/2-y,z
loop_
_atom_site_type_symbol
_atom_site_label
_atom_site_fract_x
_atom_site_fract_y
_atom_site_fract_z
Si Si1 0.535932 0.852847 0.692010
Si Si2 0.789160 0.568629 0.819743
Si Si3 0.014580 0.100525 0.623673
Si Si4 0.358655 0.823890 0.139563
Si Si5 0.221861 0.569940 0.423422
Si Si6 0.234103 0.933768 0.091748
Si Si7 0.569244 0.269615 0.334963
O O1 0.415897 0.898058 0.791515
O O2 0.629712 0.849395 0.741134
O O3 0.613950 0.880712 0.534431
O O4 0.474020 0.786521 0.712828
O O5 0.832025 0.500000 0.771455
O O6 0.739619 0.592173 0.729047
O O7 0.686218 0.576564 0.990924
O O8 0.900154 0.059479 0.750395
O O9 0.995281 0.169942 0.677731
O O10 0.000000 0.097138 0.500000
O O11 0.153901 0.073534 0.573360
O O12 0.328495 0.880295 0.076815
O O13 0.233186 0.776315 0.226227
O O14 0.500000 0.795099 0.000000
O O15 0.168321 0.500000 0.461246
O O16 0.307681 0.000000 0.052530
O O17 0.500000 0.259134 0.500000
#
# Coordination Sequence:
#
# PCOD8109954 Si02
#       7
#     8   8   8   8   8   8   8
#     4  12  23  40  69  89 126 164 213 259 321 371
#     4  10  22  39  60  91 129 165 207 260 315 374
#     4  10  22  41  63  94 131 165 211 262 312 367
#     4  11  24  43  63  95 128 164 215 265 315 378
#     4  11  23  38  63  97 129 163 209 261 314 376
#     4  10  21  40  65  91 127 170 208 256 319 377
#     4  10  23  42  66  92 125 166 210 264 315 376
#
# _framework density 21.542639000000001
#
# number of rings (size 3 to 8) (size 9 to 14) (size 15 to 20)
#    0.000    1.429    1.429    4.714    0.000    9.429 
#    0.000    2.143    0.000    0.000    0.000    0.000 
#    0.000    0.000    0.000    0.000    0.000    0.000 
#
# Total GULP energy -346908.094639 kJ/mol
# GULP energy per Si atom -12389.574809 kJ/mol
# Density = 2.149361 g / cm^3
# Si number density = 21.542639 Si / 1000 Ang^3
#
#
#
# Elastic Constant Matrix: (Units=GPa)
#
#
# Indices 1 2 3 4 5 6 
#
# 1 94.3123 45.2765 49.7827 0.0000 13.4820 0.0000
# 2 45.2765 64.9175 47.8411 0.0000 12.1813 0.0000
# 3 49.7827 47.8411 138.4305 0.0000 7.5595 0.0000
# 4 0.0000 0.0000 0.0000 36.6240 0.0000 5.9848
# 5 13.4820 12.1813 7.5595 0.0000 42.0112 0.0000
# 6 0.0000 0.0000 0.0000 5.9848 0.0000 20.7471
#
#
#
# Elastic Compliance Matrix: (Units=1/GPa)
#
#
# Indices 1 2 3 4 5 6 
#
# 1 0.016824 -0.009324 -0.002707 0.000000 -0.002208 0.000000
# 2 -0.009324 0.026821 -0.005711 0.000000 -0.003757 0.000000
# 3 -0.002707 -0.005711 0.010133 0.000000 0.000701 0.000000
# 4 0.000000 0.000000 0.000000 0.028655 0.000000 -0.008266
# 5 -0.002208 -0.003757 0.000701 0.000000 0.025475 0.000000
# 6 0.000000 0.000000 0.000000 -0.008266 0.000000 0.050584
#
#
# Mechanical properties :
#
#
# Convention : Reuss Voigt Hill
#
# Bulk Modulus (GPa) = 54.66602 64.82898 59.74750
# Shear Modulus (GPa) = 24.99063 30.19378 27.59221
#
# Velocity S-wave (km/s) = 3.40965 3.74783 3.58273
# Velocity P-wave (km/s) = 6.39780 6.99192 6.70145
#
# Compressibility (1/GPa) = 0.01829290
#
# Stress axis : x y z
#
# Youngs Moduli (GPa) = 59.43822 37.28418 98.68981
#
# Poissons Ratio (x) = 0.34766 0.26718
# Poissons Ratio (y) = 0.55423 0.56360
# Poissons Ratio (z) = 0.16091 0.21292
#
# Static dielectric constant tensor:
#      x y z
#    x 3.803950 0.000000 -0.013950 
#    y 0.000000 4.074030 0.000000 
#    z -0.013950 0.000000 4.460330 
# 
# 
# High freq. dielectric constant tensor:
#      x y z
#    x 1.829260 0.000000 0.011200 
#    y 0.000000 1.844600 0.000000 
#    z 0.011200 0.000000 1.863650 
# 
# From -- ./inp_files/135280.got.cif
#   From: 2010.06.25/outbox.cif.g09.slc.cpg/sg12_68_cif.got.tgz:135280.got - 2010.06.28 00:19:55.
