data_PCOD8109987
_publ_section_title
;
Structure prediction by ZEFSAII (Michael W. Deem and Ramdas Pophale) SiO2 
 PCOD8109987
Probable space group: C 2/M
;
_chemical_formula_sum "Si O2"
_cell_formula_units_Z 64
_cell_length_a 25.083470
_cell_length_b 14.979185
_cell_length_c 12.183400
_cell_angle_alpha 90.000000
_cell_angle_beta 41.719036
_cell_angle_gamma 90.000000
_cell_volume 3046.339173
_symmetry_space_group_name_H-M "C 2/M"
_symmetry_group_IT_number 12
_symmetry_cell_setting 'monoclinic'
loop_
_space_group_symop_operation_xyz
x,y,z
-x,y,-z
-x,-y,-z
x,-y,z
1/2+x,1/2+y,z
1/2-x,1/2+y,-z
1/2-x,1/2-y,-z
1/2+x,1/2-y,z
loop_
_atom_site_type_symbol
_atom_site_label
_atom_site_fract_x
_atom_site_fract_y
_atom_site_fract_z
Si Si1 0.138651 0.148771 0.532030
Si Si2 0.085018 0.284557 0.038766
Si Si3 0.318789 0.099212 0.278997
Si Si4 0.584442 0.899858 0.419375
Si Si5 0.594372 0.598437 0.357060
Si Si6 0.983073 0.099165 0.899695
Si Si7 0.909791 0.343837 0.346151
Si Si8 0.157990 0.734561 0.152749
O O1 0.224142 0.112961 0.440392
O O2 0.129305 0.131038 0.418132
O O3 0.136688 0.253269 0.557398
O O4 0.066943 0.100505 0.706057
O O5 0.079112 0.176368 0.040982
O O6 0.121144 0.310852 0.101079
O O7 0.997221 0.326365 0.160242
O O8 0.143034 0.324657 0.856812
O O9 0.358696 0.101078 0.337407
O O10 0.333916 0.000000 0.206348
O O11 0.500000 0.867701 0.500000
O O12 0.582684 0.898915 0.553438
O O13 0.648042 0.830873 0.271960
O O14 0.604767 0.000000 0.349041
O O15 0.500000 0.593866 0.500000
O O16 0.629404 0.500000 0.275970
O O17 0.618071 0.668773 0.228208
O O18 0.945290 0.000000 0.938803
O O19 0.000000 0.116714 0.000000
O O20 0.250000 0.750000 0.000000
#
# Coordination Sequence:
#
# PCOD8109987 Si02
#       8
#     8   8   8   8   8   8   8   8
#     4  11  22  41  67  94 134 169 214 272 337 390
#     4  11  24  41  65  94 130 172 219 268 326 383
#     4  12  26  42  65 100 134 173 220 268 331 391
#     4  11  23  43  69  96 127 174 225 267 322 387
#     4  11  22  39  68  98 126 169 222 269 321 389
#     4  10  21  40  65  94 127 166 213 263 321 388
#     4  11  22  42  69  93 130 171 222 272 319 393
#     4  12  25  42  64  93 134 170 211 271 333 388
#
# _framework density 21.008823
#
# number of rings (size 3 to 8) (size 9 to 14) (size 15 to 20)
#    0.000    0.875    2.500    6.375    0.000    4.000 
#    0.000    0.000    0.000    0.000    0.000    0.000 
#    0.000    0.000    0.000    0.000    0.000    0.000 
#
# Total GULP energy -396889.161883 kJ/mol
# GULP energy per Si atom -12402.786309 kJ/mol
# Density = 2.096101 g / cm^3
# Si number density = 21.008823 Si / 1000 Ang^3
#
#
#
# Elastic Constant Matrix: (Units=GPa)
#
#
# Indices 1 2 3 4 5 6 
#
# 1 102.7487 11.8607 29.0697 0.0000 4.7781 0.0000
# 2 11.8607 127.9115 46.8184 0.0000 -9.6581 0.0000
# 3 29.0697 46.8184 86.0483 0.0000 0.8291 0.0000
# 4 0.0000 0.0000 0.0000 7.6400 0.0000 -2.1087
# 5 4.7781 -9.6581 0.8291 0.0000 35.3386 0.0000
# 6 0.0000 0.0000 0.0000 -2.1087 0.0000 14.8617
#
#
#
# Elastic Compliance Matrix: (Units=1/GPa)
#
#
# Indices 1 2 3 4 5 6 
#
# 1 0.010836 0.000291 -0.003806 0.000000 -0.001296 0.000000
# 2 0.000291 0.010053 -0.005596 0.000000 0.002840 0.000000
# 3 -0.003806 -0.005596 0.015965 0.000000 -0.001389 0.000000
# 4 0.000000 0.000000 0.000000 0.136225 0.000000 0.019329
# 5 -0.001296 0.002840 -0.001389 0.000000 0.029282 0.000000
# 6 0.000000 0.000000 0.000000 0.019329 0.000000 0.070030
#
#
# Mechanical properties :
#
#
# Convention : Reuss Voigt Hill
#
# Bulk Modulus (GPa) = 53.67103 54.68958 54.18031
# Shear Modulus (GPa) = 16.84495 26.83203 21.83849
#
# Velocity S-wave (km/s) = 2.83469 3.57764 3.22761
# Velocity P-wave (km/s) = 6.02630 6.56919 6.30359
#
# Compressibility (1/GPa) = 0.01863202
#
# Stress axis : x y z
#
# Youngs Moduli (GPa) = 92.28383 99.46811 62.63631
#
# Poissons Ratio (x) = -0.02890 0.23842
# Poissons Ratio (y) = -0.02681 0.35048
# Poissons Ratio (z) = 0.35127 0.55658
#
# Static dielectric constant tensor:
#      x y z
#    x 3.651380 0.000000 0.082480 
#    y 0.000000 4.025580 0.000000 
#    z 0.082480 0.000000 4.018760 
# 
# 
# High freq. dielectric constant tensor:
#      x y z
#    x 1.827690 0.000000 0.009910 
#    y 0.000000 1.837140 0.000000 
#    z 0.009910 0.000000 1.814550 
# 
# From -- ./inp_files/183771.got.cif
#   From: 2010.06.25/outbox.cif.g09.slc.cpg/sg12_92_cif.got.tgz:183771.got - 2010.06.28 00:19:55.
