data_PCOD8109853
_publ_section_title
;
Structure prediction by ZEFSAII (Michael W. Deem and Ramdas Pophale) SiO2 
 PCOD8109853
Probable space group: C 2/M
;
_chemical_formula_sum "Si O2"
_cell_formula_units_Z 48
_cell_length_a 16.593339
_cell_length_b 16.527816
_cell_length_c 9.037484
_cell_angle_alpha 90.000000
_cell_angle_beta 88.787672
_cell_angle_gamma 90.000000
_cell_volume 2477.990122
_symmetry_space_group_name_H-M "C 2/M"
_symmetry_group_IT_number 12
_symmetry_cell_setting 'monoclinic'
loop_
_space_group_symop_operation_xyz
x,y,z
-x,y,-z
-x,-y,-z
x,-y,z
1/2+x,1/2+y,z
1/2-x,1/2+y,-z
1/2-x,1/2-y,-z
1/2+x,1/2-y,z
loop_
_atom_site_type_symbol
_atom_site_label
_atom_site_fract_x
_atom_site_fract_y
_atom_site_fract_z
Si Si1 0.275139 0.588828 0.638643
Si Si2 0.409412 0.326730 0.475358
Si Si3 0.715946 0.870172 0.944021
Si Si4 0.579146 0.000000 0.395380
Si Si5 0.164202 0.668933 0.433601
Si Si6 0.910897 0.500000 0.944983
Si Si7 0.699139 0.299042 0.796868
O O1 0.252690 0.500000 0.574981
O O2 0.364728 0.609975 0.583421
O O3 0.264936 0.583675 0.814656
O O4 0.221113 0.662393 0.575991
O O5 0.500000 0.354350 0.500000
O O6 0.404065 0.234602 0.533208
O O7 0.374720 0.329063 0.306462
O O8 0.681306 0.786446 0.877248
O O9 0.782811 0.861456 0.070417
O O10 0.638975 0.920646 0.004607
O O11 0.500000 0.000000 0.500000
O O12 0.628988 0.919631 0.421969
O O13 0.562499 0.000000 0.224730
O O14 0.216350 0.700528 0.294411
O O15 0.000000 0.500000 0.000000
#
# Coordination Sequence:
#
# PCOD8109853 Si02
#       7
#     8   8   8   4   8   4   8
#     4  11  21  37  67  89 118 166 211 248 304 373
#     4  11  23  40  62  92 125 157 211 267 309 355
#     4  11  21  40  65  88 125 165 204 251 300 382
#     4  12  26  38  58  96 137 162 193 253 328 378
#     4  11  20  40  62  92 120 164 214 246 309 377
#     4  12  28  40  60 100 135 161 197 256 333 385
#     4  10  21  40  64  88 119 166 216 247 298 379
#
# _framework density 19.370536000000001
#
# number of rings (size 3 to 8) (size 9 to 14) (size 15 to 20)
#    0.000    1.000    6.667    1.500    2.333    1.667 
#    0.000    0.833    0.000    1.000    0.000    0.000 
#    0.000    0.000    0.000    0.000    0.000    0.000 
#
# Total GULP energy -297348.731676 kJ/mol
# GULP energy per Si atom -12389.530486 kJ/mol
# Density = 1.932645 g / cm^3
# Si number density = 19.370536 Si / 1000 Ang^3
#
#
#
# Elastic Constant Matrix: (Units=GPa)
#
#
# Indices 1 2 3 4 5 6 
#
# 1 109.8036 25.0564 54.3056 0.0000 -0.1831 0.0000
# 2 25.0564 88.6270 31.5190 0.0000 -10.5715 0.0000
# 3 54.3056 31.5190 133.5327 0.0000 -11.5475 0.0000
# 4 0.0000 0.0000 0.0000 37.6524 0.0000 -14.1215
# 5 -0.1831 -10.5715 -11.5475 0.0000 20.0285 0.0000
# 6 0.0000 0.0000 0.0000 -14.1215 0.0000 39.2233
#
#
#
# Elastic Compliance Matrix: (Units=1/GPa)
#
#
# Indices 1 2 3 4 5 6 
#
# 1 0.011891 -0.002151 -0.004649 0.000000 -0.003707 0.000000
# 2 -0.002151 0.013217 -0.001730 0.000000 0.005959 0.000000
# 3 -0.004649 -0.001730 0.010214 0.000000 0.004934 0.000000
# 4 0.000000 0.000000 0.000000 0.030705 0.000000 0.011055
# 5 -0.003707 0.005959 0.004934 0.000000 0.055885 0.000000
# 6 0.000000 0.000000 0.000000 0.011055 0.000000 0.029475
#
#
# Mechanical properties :
#
#
# Convention : Reuss Voigt Hill
#
# Bulk Modulus (GPa) = 54.75223 61.52502 58.13863
# Shear Modulus (GPa) = 28.64776 34.11965 31.38371
#
# Velocity S-wave (km/s) = 3.84986 4.20148 4.02951
# Velocity P-wave (km/s) = 6.93463 7.44095 7.19224
#
# Compressibility (1/GPa) = 0.01826410
#
# Stress axis : x y z
#
# Youngs Moduli (GPa) = 84.09809 75.65847 97.90184
#
# Poissons Ratio (x) = 0.16271 0.45512
# Poissons Ratio (y) = 0.18086 0.16935
# Poissons Ratio (z) = 0.39095 0.13088
#
# Static dielectric constant tensor:
#      x y z
#    x 3.355270 0.000000 -0.173740 
#    y 0.000000 3.604000 0.000000 
#    z -0.173740 0.000000 4.911910 
# 
# 
# High freq. dielectric constant tensor:
#      x y z
#    x 1.724970 0.000000 -0.000570 
#    y 0.000000 1.768050 0.000000 
#    z -0.000570 0.000000 1.768780 
# 
# From -- ./inp_files/61765.got.cif
#   From: 2010.06.25/outbox.cif.g09.slc.cpg/sg12_31_cif.got.tgz:61765.got - 2010.06.28 00:19:55.
