data_PCOD8109120
_publ_section_title
;
Structure prediction by ZEFSAII (Michael W. Deem and Ramdas Pophale) SiO2 
 PCOD8109120
Probable space group: C 2/M
;
_chemical_formula_sum "Si O2"
_cell_formula_units_Z 56
_cell_length_a 19.963499
_cell_length_b 8.821840
_cell_length_c 18.836640
_cell_angle_alpha 90.000000
_cell_angle_beta 120.132066
_cell_angle_gamma 90.000000
_cell_volume 2869.131256
_symmetry_space_group_name_H-M "C 2/M"
_symmetry_group_IT_number 12
_symmetry_cell_setting 'monoclinic'
loop_
_space_group_symop_operation_xyz
x,y,z
-x,y,-z
-x,-y,-z
x,-y,z
1/2+x,1/2+y,z
1/2-x,1/2+y,-z
1/2-x,1/2-y,-z
1/2+x,1/2-y,z
loop_
_atom_site_type_symbol
_atom_site_label
_atom_site_fract_x
_atom_site_fract_y
_atom_site_fract_z
Si Si1 0.912831 0.321756 0.934375
Si Si2 0.930814 0.178778 0.514139
Si Si3 0.701340 0.820609 0.640595
Si Si4 0.649440 0.821558 0.764165
Si Si5 0.863212 0.676345 0.750317
Si Si6 0.976317 0.676199 0.683385
Si Si7 0.274972 0.319976 0.939855
O O1 0.900396 0.500000 0.937467
O O2 0.891687 0.270104 0.843086
O O3 0.859789 0.234495 0.962442
O O4 0.000000 0.274745 0.000000
O O5 0.848306 0.249215 0.449105
O O6 0.944001 0.224898 0.602084
O O7 0.000000 0.240702 0.500000
O O8 0.924996 0.000000 0.504967
O O9 0.664118 0.756876 0.693473
O O10 0.790139 0.770505 0.684147
O O11 0.697006 0.000000 0.631831
O O12 0.564595 0.774704 0.745501
O O13 0.713664 0.753432 0.850568
O O14 0.660030 0.000000 0.767851
O O15 0.841285 0.500000 0.739321
O O16 0.931713 0.711525 0.731945
O O17 0.970820 0.500000 0.658716
O O18 0.273257 0.500000 0.944215
O O19 0.250000 0.250000 0.000000
#
# Coordination Sequence:
#
# PCOD8109120 Si02
#       7
#     8   8   8   8   8   8   8
#     4  10  22  40  63  89 122 163 202 246 303 363
#     4  11  23  38  58  89 123 152 191 250 304 348
#     4  11  21  38  64  87 115 159 200 242 293 355
#     4   9  19  36  61  87 115 153 201 245 288 348
#     4  10  22  39  61  89 121 156 198 246 296 352
#     4  10  21  39  62  87 116 157 202 243 290 354
#     4  11  23  40  62  92 125 159 202 252 300 356
#
# _framework density 19.518103
#
# number of rings (size 3 to 8) (size 9 to 14) (size 15 to 20)
#    0.000    1.714    2.857    1.286    2.000    2.000 
#    0.000    1.429    0.000    0.000    0.000    0.000 
#    0.000    0.000    0.000    0.000    0.000    0.000 
#
# Total GULP energy -347298.931568 kJ/mol
# GULP energy per Si atom -12403.533270 kJ/mol
# Density = 1.947368 g / cm^3
# Si number density = 19.518103 Si / 1000 Ang^3
#
#
#
# Elastic Constant Matrix: (Units=GPa)
#
#
# Indices 1 2 3 4 5 6 
#
# 1 142.3112 42.2240 53.3704 0.0000 5.7065 0.0000
# 2 42.2240 58.5727 34.5857 0.0000 4.1282 0.0000
# 3 53.3704 34.5857 109.6276 0.0000 12.3823 0.0000
# 4 0.0000 0.0000 0.0000 27.2509 0.0000 -1.0158
# 5 5.7065 4.1282 12.3823 0.0000 41.6736 0.0000
# 6 0.0000 0.0000 0.0000 -1.0158 0.0000 30.6393
#
#
#
# Elastic Compliance Matrix: (Units=1/GPa)
#
#
# Indices 1 2 3 4 5 6 
#
# 1 0.009727 -0.005182 -0.003113 0.000000 0.000106 0.000000
# 2 -0.005182 0.023742 -0.004948 0.000000 -0.000172 0.000000
# 3 -0.003113 -0.004948 0.012515 0.000000 -0.002802 0.000000
# 4 0.000000 0.000000 0.000000 0.036741 0.000000 0.001218
# 5 0.000106 -0.000172 -0.002802 0.000000 0.024831 0.000000
# 6 0.000000 0.000000 0.000000 0.001218 0.000000 0.032678
#
#
# Mechanical properties :
#
#
# Convention : Reuss Voigt Hill
#
# Bulk Modulus (GPa) = 51.28526 63.43018 57.35772
# Shear Modulus (GPa) = 28.86500 31.93487 30.39994
#
# Velocity S-wave (km/s) = 3.84980 4.04934 3.95083
# Velocity P-wave (km/s) = 6.78926 7.37778 7.08963
#
# Compressibility (1/GPa) = 0.01949878
#
# Stress axis : x y z
#
# Youngs Moduli (GPa) = 102.80203 42.11931 79.90545
#
# Poissons Ratio (x) = 0.21825 0.24874
# Poissons Ratio (y) = 0.53269 0.39538
# Poissons Ratio (z) = 0.32001 0.20841
#
# Static dielectric constant tensor:
#      x y z
#    x 3.726420 0.000000 0.169060 
#    y 0.000000 3.359410 0.000000 
#    z 0.169060 0.000000 3.821210 
# 
# 
# High freq. dielectric constant tensor:
#      x y z
#    x 1.769310 0.000000 0.005030 
#    y 0.000000 1.744800 0.000000 
#    z 0.005030 0.000000 1.769830 
# 
# From -- ./inp_files/281619.got.cif
#   From: 2010.06.25/outbox.cif.g09.slc.cpg/sg12_141_cif.got.tgz:281619.got - 2010.06.28 00:19:55.
