data_PCOD8109585
_publ_section_title
;
Structure prediction by ZEFSAII (Michael W. Deem and Ramdas Pophale) SiO2 
 PCOD8109585
Probable space group: C 2/M
;
_chemical_formula_sum "Si O2"
_cell_formula_units_Z 44
_cell_length_a 14.769193
_cell_length_b 10.150776
_cell_length_c 14.724459
_cell_angle_alpha 90.000000
_cell_angle_beta 105.986039
_cell_angle_gamma 90.000000
_cell_volume 2122.107226
_symmetry_space_group_name_H-M "C 2/M"
_symmetry_group_IT_number 12
_symmetry_cell_setting 'monoclinic'
loop_
_space_group_symop_operation_xyz
x,y,z
-x,y,-z
-x,-y,-z
x,-y,z
1/2+x,1/2+y,z
1/2-x,1/2+y,-z
1/2-x,1/2-y,-z
1/2+x,1/2-y,z
loop_
_atom_site_type_symbol
_atom_site_label
_atom_site_fract_x
_atom_site_fract_y
_atom_site_fract_z
Si Si1 0.403578 0.855479 0.427703
Si Si2 0.404396 0.500000 0.915856
Si Si3 0.387936 0.211418 0.227844
Si Si4 0.587416 0.753094 0.201252
Si Si5 0.902639 0.500000 0.924687
Si Si6 0.704895 0.000000 0.924941
Si Si7 0.732136 0.345924 0.668319
O O1 0.500000 0.807149 0.500000
O O2 0.417405 0.876119 0.323057
O O3 0.325934 0.740008 0.423081
O O4 0.373665 0.000000 0.459012
O O5 0.390168 0.623167 0.847356
O O6 0.317673 0.500000 0.961414
O O7 0.500000 0.500000 0.000000
O O8 0.483409 0.267420 0.211526
O O9 0.318950 0.327910 0.246560
O O10 0.334242 0.128836 0.136412
O O11 0.663880 0.780185 0.301699
O O12 0.601604 0.873840 0.138592
O O13 0.821278 0.500000 0.976846
O O14 0.000000 0.500000 0.000000
O O15 0.735165 0.500000 0.642774
#
# Coordination Sequence:
#
# PCOD8109585 Si02
#       7
#     8   4   8   8   4   4   8
#     4   9  19  38  66  95 124 163 206 245 302 376
#     4  12  28  42  58  91 125 163 204 272 305 362
#     4  10  21  39  66  88 121 165 200 252 306 372
#     4  12  24  41  63  90 124 160 212 252 314 361
#     4  12  24  38  64  90 115 160 215 260 288 374
#     4  12  22  44  67  83 125 167 210 248 315 364
#     4  10  22  39  63  92 123 161 199 257 308 365
#
# _framework density 20.734109
#
# number of rings (size 3 to 8) (size 9 to 14) (size 15 to 20)
#    1.091    0.182    5.455    0.545    2.545    2.545 
#    0.000    0.909    0.000    0.000    0.000    0.000 
#    0.000    0.000    0.000    0.000    0.000    0.000 
#
# Total GULP energy -272582.144113 kJ/mol
# GULP energy per Si atom -12390.097460 kJ/mol
# Density = 2.068692 g / cm^3
# Si number density = 20.734109 Si / 1000 Ang^3
#
#
#
# Elastic Constant Matrix: (Units=GPa)
#
#
# Indices 1 2 3 4 5 6 
#
# 1 116.3120 4.9449 -1.7394 0.0000 18.9004 0.0000
# 2 4.9449 118.6614 4.9133 0.0000 22.1033 0.0000
# 3 -1.7394 4.9133 48.5941 0.0000 30.4245 0.0000
# 4 0.0000 0.0000 0.0000 30.2350 0.0000 10.5910
# 5 18.9004 22.1033 30.4245 0.0000 45.4464 0.0000
# 6 0.0000 0.0000 0.0000 10.5910 0.0000 28.3856
#
#
#
# Elastic Compliance Matrix: (Units=1/GPa)
#
#
# Indices 1 2 3 4 5 6 
#
# 1 0.009971 0.000887 0.005395 0.000000 -0.008190 0.000000
# 2 0.000887 0.009653 0.003832 0.000000 -0.007629 0.000000
# 3 0.005395 0.003832 0.039521 0.000000 -0.030565 0.000000
# 4 0.000000 0.000000 0.000000 0.038047 0.000000 -0.014196
# 5 -0.008190 -0.007629 -0.030565 0.000000 0.049582 0.000000
# 6 0.000000 0.000000 0.000000 -0.014196 0.000000 0.040526
#
#
# Mechanical properties :
#
#
# Convention : Reuss Voigt Hill
#
# Bulk Modulus (GPa) = 12.59888 33.31166 22.95527
# Shear Modulus (GPa) = 25.83581 39.17667 32.50624
#
# Velocity S-wave (km/s) = 3.53378 4.35153 3.96380
# Velocity P-wave (km/s) = 4.76862 6.43030 5.66076
#
# Compressibility (1/GPa) = 0.07937216
#
# Stress axis : x y z
#
# Youngs Moduli (GPa) = 100.28720 103.59709 25.30315
#
# Poissons Ratio (x) = -0.09185 -0.13651
# Poissons Ratio (y) = -0.08892 -0.09697
# Poissons Ratio (z) = -0.54103 -0.39700
#
# Static dielectric constant tensor:
#      x y z
#    x 3.832470 0.000000 0.136600 
#    y 0.000000 3.613720 0.000000 
#    z 0.136600 0.000000 3.448510 
# 
# 
# High freq. dielectric constant tensor:
#      x y z
#    x 1.813580 0.000000 0.021160 
#    y 0.000000 1.811390 0.000000 
#    z 0.021160 0.000000 1.798480 
# 
# From -- ./inp_files/267346.got.cif
#   From: 2010.06.25/outbox.cif.g09.slc.cpg/sg12_134_cif.got.tgz:267346.got - 2010.06.28 00:19:55.
