data_PCOD8109516
_publ_section_title
;
Structure prediction by ZEFSAII (Michael W. Deem and Ramdas Pophale) SiO2 
 PCOD8109516
Probable space group: C 2/M
;
_chemical_formula_sum "Si O2"
_cell_formula_units_Z 28
_cell_length_a 23.473890
_cell_length_b 7.477248
_cell_length_c 17.604402
_cell_angle_alpha 90.000000
_cell_angle_beta 151.397163
_cell_angle_gamma 90.000000
_cell_volume 1479.256912
_symmetry_space_group_name_H-M "C 2/M"
_symmetry_group_IT_number 12
_symmetry_cell_setting 'monoclinic'
loop_
_space_group_symop_operation_xyz
x,y,z
-x,y,-z
-x,-y,-z
x,-y,z
1/2+x,1/2+y,z
1/2-x,1/2+y,-z
1/2-x,1/2-y,-z
1/2+x,1/2-y,z
loop_
_atom_site_type_symbol
_atom_site_label
_atom_site_fract_x
_atom_site_fract_y
_atom_site_fract_z
Si Si1 0.063740 0.802230 0.372578
Si Si2 0.091604 0.296369 0.670725
Si Si3 0.770963 0.500000 0.677787
Si Si4 0.221002 0.500000 0.136475
Si Si5 0.540394 0.000000 0.227842
O O1 0.080060 0.676708 0.319326
O O2 0.968457 0.714992 0.317392
O O3 0.019001 0.000000 0.294082
O O4 0.191635 0.823851 0.564747
O O5 0.128591 0.500000 0.696702
O O6 0.000000 0.223490 0.500000
O O7 0.208777 0.176961 0.805824
O O8 0.806581 0.500000 0.806896
O O9 0.893031 0.500000 0.774310
O O10 0.099910 0.500000 0.948158
#
# Coordination Sequence:
#
# PCOD8109516 Si02
#       5
#     8   8   4   4   4
#     4  10  21  39  65  85 120 157 209 241 293 356
#     4  11  20  38  66  91 117 157 207 244 296 364
#     4  10  22  44  64  81 123 168 207 233 284 374
#     4  12  23  40  63  91 127 152 197 256 304 345
#     4  12  25  39  59  95 125 158 194 252 306 343
#
# _framework density 18.928421
#
# number of rings (size 3 to 8) (size 9 to 14) (size 15 to 20)
#    0.857    0.286    5.714    1.714    0.000    2.286 
#    0.000    0.000    0.000    3.429    0.000    0.000 
#    0.000    0.000    0.000    0.000    0.000    0.000 
#
# Total GULP energy -173616.488300 kJ/mol
# GULP energy per Si atom -12401.177736 kJ/mol
# Density = 1.888534 g / cm^3
# Si number density = 18.928421 Si / 1000 Ang^3
#
#
#
# Elastic Constant Matrix: (Units=GPa)
#
#
# Indices 1 2 3 4 5 6 
#
# 1 96.5423 15.3611 -3.1384 0.0000 6.1583 0.0000
# 2 15.3611 103.1681 22.0326 0.0000 2.8028 0.0000
# 3 -3.1384 22.0326 62.1471 0.0000 8.7587 0.0000
# 4 0.0000 0.0000 0.0000 1.6439 0.0000 13.8142
# 5 6.1583 2.8028 8.7587 0.0000 28.1411 0.0000
# 6 0.0000 0.0000 0.0000 13.8142 0.0000 -16.7572
#
#
#
# Elastic Compliance Matrix: (Units=1/GPa)
#
#
# Indices 1 2 3 4 5 6 
#
# 1 0.010882 -0.001889 0.001598 0.000000 -0.002691 0.000000
# 2 -0.001889 0.010815 -0.004012 0.000000 0.000585 0.000000
# 3 0.001598 -0.004012 0.018394 0.000000 -0.005675 0.000000
# 4 0.000000 0.000000 0.000000 0.076735 0.000000 0.063258
# 5 -0.002691 0.000585 -0.005675 0.000000 0.037832 0.000000
# 6 0.000000 0.000000 0.000000 0.063258 0.000000 -0.007528
#
#
# Mechanical properties :
#
#
# Convention : Reuss Voigt Hill
#
# Bulk Modulus (GPa) = 31.75956 36.70756 34.23356
# Shear Modulus (GPa) = 30.07872 17.77902 23.92887
#
# Velocity S-wave (km/s) = 3.99065 3.06809 3.55938
# Velocity P-wave (km/s) = 6.16838 5.65560 5.91755
#
# Compressibility (1/GPa) = 0.03148659
#
# Stress axis : x y z
#
# Youngs Moduli (GPa) = 91.89280 92.46397 54.36638
#
# Poissons Ratio (x) = 0.17462 -0.08689
# Poissons Ratio (y) = 0.17354 0.21812
# Poissons Ratio (z) = -0.14687 0.37096
#
# Static dielectric constant tensor:
#      x y z
#    x 3.366030 0.000000 -0.012550 
#    y 0.000000 3.418890 0.000000 
#    z -0.012550 0.000000 3.182560 
# 
# 
# High freq. dielectric constant tensor:
#      x y z
#    x 1.743770 0.000000 -0.001320 
#    y 0.000000 1.737440 0.000000 
#    z -0.001320 0.000000 1.713430 
# 
# From -- ./inp_files/162206.got.cif
#   From: 2010.06.25/outbox.cif.g09.slc.cpg/sg12_82_cif.got.tgz:162206.got - 2010.06.28 00:19:55.
