data_PCOD8109734
_publ_section_title
;
Structure prediction by ZEFSAII (Michael W. Deem and Ramdas Pophale) SiO2 
 PCOD8109734
Probable space group: C 2/M
;
_chemical_formula_sum "Si O2"
_cell_formula_units_Z 56
_cell_length_a 18.685419
_cell_length_b 8.825930
_cell_length_c 17.873032
_cell_angle_alpha 90.000000
_cell_angle_beta 111.336048
_cell_angle_gamma 90.000000
_cell_volume 2745.534645
_symmetry_space_group_name_H-M "C 2/M"
_symmetry_group_IT_number 12
_symmetry_cell_setting 'monoclinic'
loop_
_space_group_symop_operation_xyz
x,y,z
-x,y,-z
-x,-y,-z
x,-y,z
1/2+x,1/2+y,z
1/2-x,1/2+y,-z
1/2-x,1/2-y,-z
1/2+x,1/2-y,z
loop_
_atom_site_type_symbol
_atom_site_label
_atom_site_fract_x
_atom_site_fract_y
_atom_site_fract_z
Si Si1 0.310023 0.677996 0.969029
Si Si2 0.573877 0.174027 0.230242
Si Si3 0.825292 0.678981 0.491111
Si Si4 0.035407 0.822404 0.368001
Si Si5 0.636006 0.323514 0.648555
Si Si6 0.025852 0.831659 0.925662
Si Si7 0.222168 0.326905 0.198831
O O1 0.303785 0.500000 0.967958
O O2 0.299761 0.724791 0.879395
O O3 0.250000 0.750000 0.000000
O O4 0.388465 0.732379 0.037205
O O5 0.546399 0.283100 0.285641
O O6 0.524190 0.211353 0.138358
O O7 0.663140 0.204238 0.244695
O O8 0.560746 0.000000 0.248655
O O9 0.817652 0.500000 0.495136
O O10 0.750000 0.750000 0.500000
O O11 0.902714 0.731339 0.560974
O O12 0.832116 0.725566 0.407606
O O13 0.950118 0.774333 0.361975
O O14 0.048478 0.000000 0.385413
O O15 0.638919 0.500000 0.627052
O O16 0.691823 0.290625 0.740096
O O17 0.021008 0.000000 0.886673
O O18 0.000000 0.844960 0.000000
O O19 0.215555 0.500000 0.169814
#
# Coordination Sequence:
#
# PCOD8109734 Si02
#       7
#     8   8   8   8   8   8   8
#     4  11  24  40  61  87 120 161 206 260 316 375
#     4  11  23  38  62  93 126 163 210 266 313 366
#     4  12  25  43  69  98 129 166 209 257 308 369
#     4  11  24  42  66  95 130 170 208 253 311 374
#     4  10  23  43  66  93 129 169 207 254 313 373
#     4  10  21  40  62  85 118 163 211 259 314 374
#     4  10  22  41  62  88 123 163 206 256 312 369
#
# _framework density 20.396756
#
# number of rings (size 3 to 8) (size 9 to 14) (size 15 to 20)
#    0.000    1.286    1.429    3.857    2.000    6.571 
#    0.000    0.000    0.000    0.000    0.000    0.000 
#    0.000    0.000    0.000    0.000    0.000    0.000 
#
# Total GULP energy -347264.283015 kJ/mol
# GULP energy per Si atom -12402.295822 kJ/mol
# Density = 2.035033 g / cm^3
# Si number density = 20.396756 Si / 1000 Ang^3
#
#
#
# Elastic Constant Matrix: (Units=GPa)
#
#
# Indices 1 2 3 4 5 6 
#
# 1 134.5909 50.0804 26.5572 0.0000 14.4336 0.0000
# 2 50.0804 81.9362 36.1689 0.0000 10.5292 0.0000
# 3 26.5572 36.1689 73.0687 0.0000 8.2536 0.0000
# 4 0.0000 0.0000 0.0000 40.9162 0.0000 -2.8385
# 5 14.4336 10.5292 8.2536 0.0000 37.2499 0.0000
# 6 0.0000 0.0000 0.0000 -2.8385 0.0000 37.0420
#
#
#
# Elastic Compliance Matrix: (Units=1/GPa)
#
#
# Indices 1 2 3 4 5 6 
#
# 1 0.009807 -0.005443 -0.000630 0.000000 -0.002122 0.000000
# 2 -0.005443 0.018922 -0.007202 0.000000 -0.001644 0.000000
# 3 -0.000630 -0.007202 0.017665 0.000000 -0.001634 0.000000
# 4 0.000000 0.000000 0.000000 0.024571 0.000000 0.001883
# 5 -0.002122 -0.001644 -0.001634 0.000000 0.028495 0.000000
# 6 0.000000 0.000000 0.000000 0.001883 0.000000 0.027141
#
#
# Mechanical properties :
#
#
# Convention : Reuss Voigt Hill
#
# Bulk Modulus (GPa) = 50.39864 57.24540 53.82202
# Shear Modulus (GPa) = 31.29569 34.82757 33.06163
#
# Velocity S-wave (km/s) = 3.92132 4.13668 4.03044
# Velocity P-wave (km/s) = 6.72794 7.13744 6.93571
#
# Compressibility (1/GPa) = 0.01984181
#
# Stress axis : x y z
#
# Youngs Moduli (GPa) = 101.96481 52.84784 56.61045
#
# Poissons Ratio (x) = 0.28767 0.03568
# Poissons Ratio (y) = 0.55504 0.40773
# Poissons Ratio (z) = 0.06427 0.38063
#
# Static dielectric constant tensor:
#      x y z
#    x 4.053380 0.000000 0.120970 
#    y 0.000000 3.694380 0.000000 
#    z 0.120970 0.000000 3.647080 
# 
# 
# High freq. dielectric constant tensor:
#      x y z
#    x 1.815340 0.000000 0.006050 
#    y 0.000000 1.797250 0.000000 
#    z 0.006050 0.000000 1.803690 
# 
# From -- ./inp_files/275543.got.cif
#   From: 2010.06.25/outbox.cif.g09.slc.cpg/sg12_138_cif.got.tgz:275543.got - 2010.06.28 00:19:55.
