data_PCOD8109580
_publ_section_title
;
Structure prediction by ZEFSAII (Michael W. Deem and Ramdas Pophale) SiO2 
 PCOD8109580
Probable space group: C 2/M
;
_chemical_formula_sum "Si O2"
_cell_formula_units_Z 64
_cell_length_a 21.144751
_cell_length_b 22.663173
_cell_length_c 18.401318
_cell_angle_alpha 90.000000
_cell_angle_beta 160.366341
_cell_angle_gamma 90.000000
_cell_volume 2962.906001
_symmetry_space_group_name_H-M "C 2/M"
_symmetry_group_IT_number 12
_symmetry_cell_setting 'monoclinic'
loop_
_space_group_symop_operation_xyz
x,y,z
-x,y,-z
-x,-y,-z
x,-y,z
1/2+x,1/2+y,z
1/2-x,1/2+y,-z
1/2-x,1/2-y,-z
1/2+x,1/2-y,z
loop_
_atom_site_type_symbol
_atom_site_label
_atom_site_fract_x
_atom_site_fract_y
_atom_site_fract_z
Si Si1 0.307855 0.168750 0.884365
Si Si2 0.231880 0.566775 0.054201
Si Si3 0.955071 0.621190 0.530485
Si Si4 0.979787 0.868971 0.715575
Si Si5 0.624155 0.298714 0.196832
Si Si6 0.766020 0.677412 0.675666
Si Si7 0.198441 0.797376 0.054979
Si Si8 0.345858 0.933562 0.557758
O O1 0.215945 0.113428 0.826435
O O2 0.205917 0.174288 0.695655
O O3 0.526231 0.152010 0.111651
O O4 0.279980 0.228216 0.903019
O O5 0.256128 0.500000 0.109167
O O6 0.375970 0.577070 0.142870
O O7 0.019051 0.578226 0.798486
O O8 0.000000 0.592425 0.500000
O O9 0.757161 0.653669 0.304375
O O10 0.922031 0.573565 0.557571
O O11 0.107730 0.669072 0.721145
O O12 0.882213 0.857016 0.533046
O O13 0.821236 0.887852 0.603493
O O14 0.110441 0.812168 0.879893
O O15 0.741021 0.245675 0.360231
O O16 0.469019 0.328505 0.080116
O O17 0.500000 0.265354 0.000000
O O18 0.270123 0.000000 0.484077
#
# Coordination Sequence:
#
# PCOD8109580 Si02
#       8
#     8   8   8   8   8   8   8   8
#     4  10  21  43  64  96 139 168 218 267 333 384
#     4  11  25  45  66  91 130 175 225 276 320 384
#     4  12  23  39  70  98 129 173 215 261 334 389
#     4  12  24  42  69  96 128 174 225 264 329 392
#     4  11  20  39  62  94 140 165 202 260 323 393
#     4  10  21  39  65  99 134 171 208 273 327 385
#     4  11  23  39  65 101 133 169 209 265 329 399
#     4  11  25  45  65  92 132 173 221 277 323 378
#
# _framework density 21.600415000000002
#
# number of rings (size 3 to 8) (size 9 to 14) (size 15 to 20)
#    0.000    1.000    7.500    0.375    1.750    4.250 
#    0.000    3.125    0.000    1.125    0.000    0.000 
#    0.000    0.000    0.000    0.000    0.000    0.000 
#
# Total GULP energy -396505.963090 kJ/mol
# GULP energy per Si atom -12390.811347 kJ/mol
# Density = 2.155125 g / cm^3
# Si number density = 21.600415 Si / 1000 Ang^3
#
#
#
# Elastic Constant Matrix: (Units=GPa)
#
#
# Indices 1 2 3 4 5 6 
#
# 1 91.3001 32.5518 23.4975 -0.0001 -7.0822 -0.0001
# 2 32.5518 87.8687 34.2091 -0.0004 -9.2573 -0.0004
# 3 23.4975 34.2091 72.0140 0.0010 -10.0046 -0.0003
# 4 -0.0001 -0.0004 0.0010 22.1535 0.0002 2.7781
# 5 -7.0822 -9.2573 -10.0046 0.0002 38.2661 -0.0001
# 6 -0.0001 -0.0004 -0.0003 2.7781 -0.0001 28.1811
#
#
#
# Elastic Compliance Matrix: (Units=1/GPa)
#
#
# Indices 1 2 3 4 5 6 
#
# 1 0.012974 -0.003820 -0.002297 0.000000 0.000877 0.000000
# 2 -0.003820 0.015196 -0.005769 0.000001 0.001461 0.000000
# 3 -0.002297 -0.005769 0.017769 -0.000001 0.002825 0.000000
# 4 0.000000 0.000001 -0.000001 0.045705 0.000000 -0.004506
# 5 0.000877 0.001461 0.002825 0.000000 0.027387 0.000000
# 6 0.000000 0.000000 0.000000 -0.004506 0.000000 0.035929
#
#
# Mechanical properties :
#
#
# Convention : Reuss Voigt Hill
#
# Bulk Modulus (GPa) = 45.11311 47.96660 46.53986
# Shear Modulus (GPa) = 26.86448 28.44842 27.65645
#
# Velocity S-wave (km/s) = 3.53044 3.63303 3.58210
# Velocity P-wave (km/s) = 6.12775 6.31293 6.22103
#
# Compressibility (1/GPa) = 0.02216650
#
# Stress axis : x y z
#
# Youngs Moduli (GPa) = 77.07775 65.80848 56.27894
#
# Poissons Ratio (x) = 0.25137 0.12927
# Poissons Ratio (y) = 0.29441 0.32468
# Poissons Ratio (z) = 0.17705 0.37966
#
# Static dielectric constant tensor:
#      x y z
#    x 4.108510 0.000000 0.010160 
#    y 0.000000 3.537190 0.000000 
#    z 0.010160 0.000000 3.966180 
# 
# 
# High freq. dielectric constant tensor:
#      x y z
#    x 1.856150 0.000000 0.010870 
#    y 0.000000 1.815650 0.000000 
#    z 0.010870 0.000000 1.857720 
# 
# From -- ./inp_files/286464.got.cif
#   From: 2010.06.25/outbox.cif.g09.slc.cpg/sg12_144_cif.got.tgz:286464.got - 2010.06.28 00:19:55.
