data_PCOD8109379
_publ_section_title
;
Structure prediction by ZEFSAII (Michael W. Deem and Ramdas Pophale) SiO2 
 PCOD8109379
Probable space group: C 2/M
;
_chemical_formula_sum "Si O2"
_cell_formula_units_Z 56
_cell_length_a 14.958666
_cell_length_b 8.439451
_cell_length_c 24.236337
_cell_angle_alpha 90.000000
_cell_angle_beta 62.960200
_cell_angle_gamma 90.000000
_cell_volume 2725.216959
_symmetry_space_group_name_H-M "C 2/M"
_symmetry_group_IT_number 12
_symmetry_cell_setting 'monoclinic'
loop_
_space_group_symop_operation_xyz
x,y,z
-x,y,-z
-x,-y,-z
x,-y,z
1/2+x,1/2+y,z
1/2-x,1/2+y,-z
1/2-x,1/2-y,-z
1/2+x,1/2-y,z
loop_
_atom_site_type_symbol
_atom_site_label
_atom_site_fract_x
_atom_site_fract_y
_atom_site_fract_z
Si Si1 0.827079 0.683527 0.228734
Si Si2 0.723204 0.182327 0.566768
Si Si3 0.064589 0.688965 0.909942
Si Si4 0.389832 0.318217 0.683761
Si Si5 0.919171 0.821712 0.307845
Si Si6 0.088590 0.682953 0.434718
Si Si7 0.148208 0.188069 0.998954
O O1 0.813496 0.500000 0.220700
O O2 0.882461 0.756632 0.160089
O O3 0.716657 0.757958 0.268560
O O4 0.891707 0.707286 0.265614
O O5 0.750000 0.250000 0.500000
O O6 0.631187 0.274630 0.619989
O O7 0.817358 0.204243 0.580411
O O8 0.693391 0.000000 0.569256
O O9 0.054424 0.500000 0.914257
O O10 0.134848 0.743393 0.940985
O O11 0.952453 0.761027 0.940331
O O12 0.378061 0.500000 0.667195
O O13 0.461749 0.308177 0.716592
O O14 0.439623 0.214732 0.620760
O O15 0.886809 0.000000 0.301399
O O16 0.116426 0.500000 0.437134
O O17 0.000000 0.735762 0.500000
O O18 0.154691 0.000000 0.994424
O O19 0.250000 0.250000 0.000000
#
# Coordination Sequence:
#
# PCOD8109379 Si02
#       7
#     8   8   8   8   8   8   8
#     4  10  22  41  63  89 125 167 206 253 309 367
#     4  12  24  39  59  83 115 152 196 251 311 372
#     4  10  21  39  63  94 131 170 212 260 312 371
#     4  10  22  40  60  85 118 157 198 246 305 367
#     4  11  23  39  61  89 120 158 204 251 305 367
#     4  11  23  38  58  86 115 147 194 250 308 372
#     4  11  22  39  64  95 131 170 215 263 312 367
#
# _framework density 20.548822999999999
#
# number of rings (size 3 to 8) (size 9 to 14) (size 15 to 20)
#    0.000    1.286    1.429    5.571    0.000    6.857 
#    0.000    1.429    0.000    0.000    0.000    0.000 
#    0.000    0.000    0.000    0.000    0.000    0.000 
#
# Total GULP energy -347215.290621 kJ/mol
# GULP energy per Si atom -12400.546094 kJ/mol
# Density = 2.050205 g / cm^3
# Si number density = 20.548823 Si / 1000 Ang^3
#
#
#
# Elastic Constant Matrix: (Units=GPa)
#
#
# Indices 1 2 3 4 5 6 
#
# 1 134.6547 19.2302 52.7189 0.0000 -4.7331 0.0000
# 2 19.2302 59.6478 13.5123 0.0000 -7.5283 0.0001
# 3 52.7189 13.5123 157.6978 0.0000 -5.0292 0.0000
# 4 0.0000 0.0000 0.0000 22.7336 0.0000 2.9609
# 5 -4.7331 -7.5283 -5.0292 0.0000 23.3834 0.0000
# 6 0.0000 0.0001 0.0000 2.9609 0.0000 34.6284
#
#
#
# Elastic Compliance Matrix: (Units=1/GPa)
#
#
# Indices 1 2 3 4 5 6 
#
# 1 0.008829 -0.002160 -0.002751 0.000000 0.000500 0.000000
# 2 -0.002160 0.018284 -0.000675 0.000000 0.005304 0.000000
# 3 -0.002751 -0.000675 0.007344 0.000000 0.000805 0.000000
# 4 0.000000 0.000000 0.000000 0.044483 0.000000 -0.003804
# 5 0.000500 0.005304 0.000805 0.000000 0.044747 0.000000
# 6 0.000000 0.000000 0.000000 -0.003804 0.000000 0.029203
#
#
# Mechanical properties :
#
#
# Convention : Reuss Voigt Hill
#
# Bulk Modulus (GPa) = 42.94581 58.10258 50.52419
# Shear Modulus (GPa) = 29.09923 33.91834 31.50878
#
# Velocity S-wave (km/s) = 3.76720 4.06719 3.92006
# Velocity P-wave (km/s) = 6.31404 7.09879 6.71788
#
# Compressibility (1/GPa) = 0.02328516
#
# Stress axis : x y z
#
# Youngs Moduli (GPa) = 113.25789 54.69272 136.15930
#
# Poissons Ratio (x) = 0.11815 0.37453
# Poissons Ratio (y) = 0.24468 0.09195
# Poissons Ratio (z) = 0.31153 0.03693
#
# Static dielectric constant tensor:
#      x y z
#    x 3.862780 0.000000 -0.026610 
#    y 0.000000 3.661870 0.000000 
#    z -0.026610 0.000000 4.331700 
# 
# 
# High freq. dielectric constant tensor:
#      x y z
#    x 1.811850 0.000000 -0.002740 
#    y 0.000000 1.803240 0.000000 
#    z -0.002740 0.000000 1.802240 
# 
# From -- ./inp_files/338436.got.cif
#   From: 2010.06.25/outbox.cif.g09.slc.cpg/sg12_170_cif.got.tgz:338436.got - 2010.06.28 00:19:55.
