data_PCOD8109076
_publ_section_title
;
Structure prediction by ZEFSAII (Michael W. Deem and Ramdas Pophale) SiO2 
 PCOD8109076
Probable space group: C 2/M
;
_chemical_formula_sum "Si O2"
_cell_formula_units_Z 40
_cell_length_a 9.869489
_cell_length_b 9.835064
_cell_length_c 21.636752
_cell_angle_alpha 90.000000
_cell_angle_beta 109.866483
_cell_angle_gamma 90.000000
_cell_volume 1975.225846
_symmetry_space_group_name_H-M "C 2/M"
_symmetry_group_IT_number 12
_symmetry_cell_setting 'monoclinic'
loop_
_space_group_symop_operation_xyz
x,y,z
-x,y,-z
-x,-y,-z
x,-y,z
1/2+x,1/2+y,z
1/2-x,1/2+y,-z
1/2-x,1/2-y,-z
1/2+x,1/2-y,z
loop_
_atom_site_type_symbol
_atom_site_label
_atom_site_fract_x
_atom_site_fract_y
_atom_site_fract_z
Si Si1 0.639461 0.657603 0.360170
Si Si2 0.236222 0.230100 0.131824
Si Si3 0.963373 0.845505 0.789636
Si Si4 0.169999 0.000000 0.028957
Si Si5 0.353404 0.000000 0.940006
Si Si6 0.593793 0.656201 0.574021
O O1 0.686365 0.500000 0.370752
O O2 0.604304 0.703994 0.285182
O O3 0.497867 0.684266 0.378757
O O4 0.768104 0.747999 0.406000
O O5 0.159718 0.160610 0.177902
O O6 0.403361 0.250107 0.172925
O O7 0.229282 0.134028 0.071168
O O8 0.153745 0.369435 0.104778
O O9 0.019773 0.000000 0.792573
O O10 0.000000 0.000000 0.000000
O O11 0.218774 0.000000 0.965629
O O12 0.500000 0.000000 0.000000
O O13 0.500000 0.693249 0.500000
O O14 0.645828 0.500000 0.579429
#
# Coordination Sequence:
#
# PCOD8109076 Si02
#       6
#     8   8   8   4   4   8
#     4  10  22  39  62  89 124 165 206 252 301 358
#     4  12  23  43  66  88 125 162 199 256 309 363
#     4  11  23  43  62  91 125 159 206 256 302 361
#     4  12  24  42  64  92 124 156 199 254 309 368
#     4  12  24  40  62  96 118 154 209 246 303 378
#     4  10  21  39  61  93 129 162 204 254 303 356
#
# _framework density 20.25085
#
# number of rings (size 3 to 8) (size 9 to 14) (size 15 to 20)
#    0.000    1.000    2.000    5.400    0.000    1.200 
#    3.600    0.000    0.000    0.000    0.000    0.000 
#    0.000    0.000    0.000    0.000    0.000    0.000 
#
# Total GULP energy -248171.394699 kJ/mol
# GULP energy per Si atom -12408.569735 kJ/mol
# Density = 2.020476 g / cm^3
# Si number density = 20.250850 Si / 1000 Ang^3
#
#
#
# Elastic Constant Matrix: (Units=GPa)
#
#
# Indices 1 2 3 4 5 6 
#
# 1 83.6691 16.8562 11.6832 0.0000 14.0012 0.0000
# 2 16.8562 96.0023 24.2061 0.0000 22.2224 0.0000
# 3 11.6832 24.2061 86.0254 0.0000 1.7220 0.0000
# 4 0.0000 0.0000 0.0000 34.1966 0.0000 8.7720
# 5 14.0012 22.2224 1.7220 0.0000 36.9528 0.0000
# 6 0.0000 0.0000 0.0000 8.7720 0.0000 29.8810
#
#
#
# Elastic Compliance Matrix: (Units=1/GPa)
#
#
# Indices 1 2 3 4 5 6 
#
# 1 0.013062 -0.000934 -0.001425 0.000000 -0.004321 0.000000
# 2 -0.000934 0.013157 -0.003427 0.000000 -0.007399 0.000000
# 3 -0.001425 -0.003427 0.012742 0.000000 0.002007 0.000000
# 4 0.000000 0.000000 0.000000 0.031624 0.000000 -0.009284
# 5 -0.004321 -0.007399 0.002007 0.000000 0.033055 0.000000
# 6 0.000000 0.000000 0.000000 -0.009284 0.000000 0.036191
#
#
# Mechanical properties :
#
#
# Convention : Reuss Voigt Hill
#
# Bulk Modulus (GPa) = 36.51030 41.24311 38.87671
# Shear Modulus (GPa) = 31.14619 34.40284 32.77452
#
# Velocity S-wave (km/s) = 3.92601 4.12616 4.02733
# Velocity P-wave (km/s) = 6.21447 6.56587 6.39258
#
# Compressibility (1/GPa) = 0.02738953
#
# Stress axis : x y z
#
# Youngs Moduli (GPa) = 76.55777 76.00397 78.47970
#
# Poissons Ratio (x) = 0.07099 0.11181
# Poissons Ratio (y) = 0.07151 0.26897
# Poissons Ratio (z) = 0.10907 0.26049
#
# Static dielectric constant tensor:
#      x y z
#    x 3.583280 0.000000 -0.170270 
#    y 0.000000 3.672430 0.000000 
#    z -0.170270 0.000000 4.038680 
# 
# 
# High freq. dielectric constant tensor:
#      x y z
#    x 1.794350 0.000000 -0.002840 
#    y 0.000000 1.794680 0.000000 
#    z -0.002840 0.000000 1.806940 
# 
# From -- ./inp_files/331798.got.cif
#   From: 2010.06.25/outbox.cif.g09.slc.cpg/sg12_166_cif.got.tgz:331798.got - 2010.06.28 00:19:55.
