data_PCOD8109219
_publ_section_title
;
Structure prediction by ZEFSAII (Michael W. Deem and Ramdas Pophale) SiO2 
 PCOD8109219
Probable space group: C 2/M
;
_chemical_formula_sum "Si O2"
_cell_formula_units_Z 64
_cell_length_a 23.985586
_cell_length_b 25.993797
_cell_length_c 9.070981
_cell_angle_alpha 90.000000
_cell_angle_beta 32.805609
_cell_angle_gamma 90.000000
_cell_volume 3064.119478
_symmetry_space_group_name_H-M "C 2/M"
_symmetry_group_IT_number 12
_symmetry_cell_setting 'monoclinic'
loop_
_space_group_symop_operation_xyz
x,y,z
-x,y,-z
-x,-y,-z
x,-y,z
1/2+x,1/2+y,z
1/2-x,1/2+y,-z
1/2-x,1/2-y,-z
1/2+x,1/2-y,z
loop_
_atom_site_type_symbol
_atom_site_label
_atom_site_fract_x
_atom_site_fract_y
_atom_site_fract_z
Si Si1 0.052010 0.771784 0.036294
Si Si2 0.353933 0.222071 0.584093
Si Si3 0.549627 0.558379 0.743062
Si Si4 0.215767 0.154410 0.702023
Si Si5 0.218222 0.302536 0.733309
Si Si6 0.648177 0.556602 0.995282
Si Si7 0.380937 0.148176 0.787103
Si Si8 0.277668 0.440059 0.852330
O O1 0.973342 0.739334 0.310533
O O2 0.104623 0.820953 0.002269
O O3 0.152969 0.737130 0.776588
O O4 0.000000 0.788833 0.000000
O O5 0.317570 0.180133 0.545284
O O6 0.289025 0.274059 0.698769
O O7 0.339789 0.194740 0.773790
O O8 0.574444 0.500000 0.734646
O O9 0.656492 0.580883 0.436512
O O10 0.500000 0.586337 0.000000
O O11 0.470183 0.561185 0.786137
O O12 0.217748 0.161059 0.519763
O O13 0.217934 0.095223 0.743801
O O14 0.136917 0.336076 0.004672
O O15 0.692043 0.500000 0.860157
O O16 0.651551 0.567164 0.161255
O O17 0.500000 0.136372 0.500000
O O18 0.322072 0.094420 0.895075
O O19 0.246179 0.500000 0.901288
#
# Coordination Sequence:
#
# PCOD8109219 Si02
#       8
#     8   8   8   8   8   8   8   8
#     4  11  19  37  63  89 121 160 200 255 310 375
#     4  11  21  42  59  86 125 158 204 256 309 381
#     4   9  19  36  61  92 124 157 201 258 312 362
#     4  11  22  36  64  94 119 165 216 245 316 381
#     4  11  23  37  61  91 122 162 204 257 316 372
#     4  10  21  39  62  91 131 170 206 252 309 383
#     4  12  25  40  62  90 122 164 210 259 317 364
#     4  10  22  42  64  87 124 172 212 256 314 375
#
# _framework density 20.886914000000001
#
# number of rings (size 3 to 8) (size 9 to 14) (size 15 to 20)
#    0.000    1.375    5.000    1.500    1.750    3.250 
#    0.000    0.000    0.000    0.000    0.000    2.625 
#    0.000    0.000    0.000    0.000    0.000    0.000 
#
# Total GULP energy -396490.047072 kJ/mol
# GULP energy per Si atom -12390.313971 kJ/mol
# Density = 2.083937 g / cm^3
# Si number density = 20.886914 Si / 1000 Ang^3
#
#
#
# Elastic Constant Matrix: (Units=GPa)
#
#
# Indices 1 2 3 4 5 6 
#
# 1 78.3185 27.4627 39.6003 0.0000 0.5229 0.0000
# 2 27.4627 93.7529 58.8368 0.0000 10.6407 0.0000
# 3 39.6003 58.8368 133.5064 0.0000 2.5629 0.0000
# 4 0.0000 0.0000 0.0000 19.5324 0.0000 -0.1605
# 5 0.5229 10.6407 2.5629 0.0000 32.7409 0.0000
# 6 0.0000 0.0000 0.0000 -0.1605 0.0000 26.0697
#
#
#
# Elastic Compliance Matrix: (Units=1/GPa)
#
#
# Indices 1 2 3 4 5 6 
#
# 1 0.015383 -0.002383 -0.003528 0.000000 0.000805 0.000000
# 2 -0.002383 0.015741 -0.006142 0.000000 -0.004597 0.000000
# 3 -0.003528 -0.006142 0.011221 0.000000 0.001174 0.000000
# 4 0.000000 0.000000 0.000000 0.051200 0.000000 0.000315
# 5 0.000805 -0.004597 0.001174 0.000000 0.031932 0.000000
# 6 0.000000 0.000000 0.000000 0.000315 0.000000 0.038361
#
#
# Mechanical properties :
#
#
# Convention : Reuss Voigt Hill
#
# Bulk Modulus (GPa) = 54.83024 61.93082 58.38053
# Shear Modulus (GPa) = 25.77032 27.64713 26.70873
#
# Velocity S-wave (km/s) = 3.51636 3.64216 3.57981
# Velocity P-wave (km/s) = 6.54174 6.88491 6.71552
#
# Compressibility (1/GPa) = 0.01823811
#
# Stress axis : x y z
#
# Youngs Moduli (GPa) = 65.00886 63.52981 89.11976
#
# Poissons Ratio (x) = 0.15141 0.31440
# Poissons Ratio (y) = 0.15494 0.54735
# Poissons Ratio (z) = 0.22934 0.39019
#
# Static dielectric constant tensor:
#      x y z
#    x 3.727440 0.000000 0.016100 
#    y 0.000000 3.777260 0.000000 
#    z 0.016100 0.000000 3.753000 
# 
# 
# High freq. dielectric constant tensor:
#      x y z
#    x 1.816450 0.000000 0.003500 
#    y 0.000000 1.807430 0.000000 
#    z 0.003500 0.000000 1.807030 
# 
# From -- ./inp_files/100222.got.cif
#   From: 2010.06.25/outbox.cif.g09.slc.cpg/sg12_51_cif.got.tgz:100222.got - 2010.06.28 00:19:55.
