data_PCOD8109797
_publ_section_title
;
Structure prediction by ZEFSAII (Michael W. Deem and Ramdas Pophale) SiO2 
 PCOD8109797
Probable space group: C 2/M
;
_chemical_formula_sum "Si O2"
_cell_formula_units_Z 56
_cell_length_a 20.245718
_cell_length_b 8.775758
_cell_length_c 15.977557
_cell_angle_alpha 90.000000
_cell_angle_beta 81.169606
_cell_angle_gamma 90.000000
_cell_volume 2805.109328
_symmetry_space_group_name_H-M "C 2/M"
_symmetry_group_IT_number 12
_symmetry_cell_setting 'monoclinic'
loop_
_space_group_symop_operation_xyz
x,y,z
-x,y,-z
-x,-y,-z
x,-y,z
1/2+x,1/2+y,z
1/2-x,1/2+y,-z
1/2-x,1/2-y,-z
1/2+x,1/2-y,z
loop_
_atom_site_type_symbol
_atom_site_label
_atom_site_fract_x
_atom_site_fract_y
_atom_site_fract_z
Si Si1 0.936162 0.324327 0.459844
Si Si2 0.087170 0.319899 0.192320
Si Si3 0.072405 0.319590 0.009655
Si Si4 0.706317 0.176879 0.436502
Si Si5 0.644818 0.823729 0.831483
Si Si6 0.451653 0.678507 0.282101
Si Si7 0.289558 0.323949 0.740177
O O1 0.944488 0.500000 0.431195
O O2 0.871908 0.300541 0.530502
O O3 0.927433 0.223939 0.379011
O O4 0.000000 0.267822 0.500000
O O5 0.082224 0.500000 0.193855
O O6 0.093553 0.255062 0.096327
O O7 0.151493 0.271873 0.231222
O O8 0.021339 0.258359 0.249180
O O9 0.068013 0.500000 0.015985
O O10 0.125255 0.268790 0.928727
O O11 0.000000 0.251742 0.000000
O O12 0.750000 0.250000 0.500000
O O13 0.725856 0.264839 0.349076
O O14 0.724823 0.000000 0.423643
O O15 0.605336 0.725428 0.771743
O O16 0.723613 0.798193 0.808292
O O17 0.624912 0.000000 0.821179
O O18 0.462560 0.500000 0.275146
O O19 0.310264 0.500000 0.732737
#
# Coordination Sequence:
#
# PCOD8109797 Si02
#       7
#     8   8   8   8   8   8   8
#     4  10  22  40  61  84 111 151 201 247 293 351
#     4  11  22  39  64  88 120 163 204 247 300 361
#     4   9  17  35  64  91 114 154 208 248 288 355
#     4  11  23  40  63  88 119 160 204 248 298 358
#     4  10  21  40  63  87 119 160 202 244 294 355
#     4  12  24  37  59  91 122 153 196 250 302 355
#     4  11  24  40  60  90 127 160 198 250 305 359
#
# _framework density 19.963571999999999
#
# number of rings (size 3 to 8) (size 9 to 14) (size 15 to 20)
#    0.000    1.429    1.429    4.286    0.000    7.714 
#    0.000    2.143    0.000    0.000    0.000    0.000 
#    0.000    0.000    0.000    0.000    0.000    0.000 
#
# Total GULP energy -347342.784054 kJ/mol
# GULP energy per Si atom -12405.099430 kJ/mol
# Density = 1.991813 g / cm^3
# Si number density = 19.963572 Si / 1000 Ang^3
#
#
#
# Elastic Constant Matrix: (Units=GPa)
#
#
# Indices 1 2 3 4 5 6 
#
# 1 68.3431 20.8036 4.0626 0.0000 -2.0805 0.0000
# 2 20.8036 76.4056 20.2475 0.0000 -7.9749 0.0000
# 3 4.0626 20.2475 95.5977 0.0000 -6.4069 0.0000
# 4 0.0000 0.0000 0.0000 16.8906 0.0000 1.2190
# 5 -2.0805 -7.9749 -6.4069 0.0000 34.6781 0.0000
# 6 0.0000 0.0000 0.0000 1.2190 0.0000 30.5081
#
#
#
# Elastic Compliance Matrix: (Units=1/GPa)
#
#
# Indices 1 2 3 4 5 6 
#
# 1 0.015960 -0.004415 0.000256 0.000000 -0.000010 0.000000
# 2 -0.004415 0.015338 -0.002878 0.000000 0.002731 0.000000
# 3 0.000256 -0.002878 0.011154 0.000000 0.001414 0.000000
# 4 0.000000 0.000000 0.000000 0.059376 0.000000 -0.002373
# 5 -0.000010 0.002731 0.001414 0.000000 0.029725 0.000000
# 6 0.000000 0.000000 0.000000 -0.002373 0.000000 0.032873
#
#
# Mechanical properties :
#
#
# Convention : Reuss Voigt Hill
#
# Bulk Modulus (GPa) = 35.23722 36.73042 35.98382
# Shear Modulus (GPa) = 26.60162 29.43089 28.01625
#
# Velocity S-wave (km/s) = 3.65431 3.84374 3.75022
# Velocity P-wave (km/s) = 5.95772 6.17558 6.06763
#
# Compressibility (1/GPa) = 0.02837908
#
# Stress axis : x y z
#
# Youngs Moduli (GPa) = 62.65543 65.19880 89.65445
#
# Poissons Ratio (x) = 0.28783 -0.02296
# Poissons Ratio (y) = 0.27660 0.25802
# Poissons Ratio (z) = -0.01604 0.18764
#
# Static dielectric constant tensor:
#      x y z
#    x 3.726980 0.000000 -0.128420 
#    y 0.000000 3.540900 0.000000 
#    z -0.128420 0.000000 3.944420 
# 
# 
# High freq. dielectric constant tensor:
#      x y z
#    x 1.787730 0.000000 -0.003770 
#    y 0.000000 1.766870 0.000000 
#    z -0.003770 0.000000 1.794270 
# 
# From -- ./inp_files/230998.got.cif
#   From: 2010.06.25/outbox.cif.g09.slc.cpg/sg12_116_cif.got.tgz:230998.got - 2010.06.28 00:19:55.
