data_PCOD8109623
_publ_section_title
;
Structure prediction by ZEFSAII (Michael W. Deem and Ramdas Pophale) SiO2 
 PCOD8109623
Probable space group: C 2/M
;
_chemical_formula_sum "Si O2"
_cell_formula_units_Z 36
_cell_length_a 16.289275
_cell_length_b 9.697775
_cell_length_c 10.721325
_cell_angle_alpha 90.000000
_cell_angle_beta 113.978615
_cell_angle_gamma 90.000000
_cell_volume 1547.478472
_symmetry_space_group_name_H-M "C 2/M"
_symmetry_group_IT_number 12
_symmetry_cell_setting 'monoclinic'
loop_
_space_group_symop_operation_xyz
x,y,z
-x,y,-z
-x,-y,-z
x,-y,z
1/2+x,1/2+y,z
1/2-x,1/2+y,-z
1/2-x,1/2-y,-z
1/2+x,1/2-y,z
loop_
_atom_site_type_symbol
_atom_site_label
_atom_site_fract_x
_atom_site_fract_y
_atom_site_fract_z
Si Si1 0.098899 0.000000 0.199878
Si Si2 0.855563 0.500000 0.719245
Si Si3 0.914625 0.738600 0.376921
Si Si4 0.292454 0.000000 0.221421
Si Si5 0.494521 0.769966 0.819637
Si Si6 0.381267 0.000000 0.012974
Si Si7 0.342572 0.500000 0.478474
O O1 0.185911 0.000000 0.166145
O O2 0.041850 0.135985 0.130493
O O3 0.124144 0.000000 0.360323
O O4 0.912034 0.363845 0.718514
O O5 0.765151 0.500000 0.583799
O O6 0.828476 0.500000 0.849935
O O7 0.833259 0.631878 0.316023
O O8 0.880391 0.868248 0.431976
O O9 0.000000 0.670741 0.500000
O O10 0.945999 0.783461 0.258859
O O11 0.313711 0.000000 0.087234
O O12 0.556171 0.863727 0.947928
#
# Coordination Sequence:
#
# PCOD8109623 Si02
#       7
#     4   4   8   4   8   4   4
#     4  12  23  39  59 106 131 149 205 261 329 356
#     4  11  24  44  66  89 122 172 211 254 306 372
#     4  11  21  39  58  91 128 168 201 238 315 379
#     4  10  24  37  64  92 124 162 210 267 300 362
#     4  10  21  39  67  89 122 163 210 256 297 371
#     4   9  22  49  65  85 118 172 224 244 305 372
#     4  12  25  38  61  94 141 165 185 258 326 378
#
# _framework density 23.263650999999999
#
# number of rings (size 3 to 8) (size 9 to 14) (size 15 to 20)
#    0.000    1.333    2.222    4.667    3.111    1.778 
#    0.000   14.444    0.000    0.000    0.000    0.000 
#    0.000    0.000    0.000    0.000    0.000    0.000 
#
# Total GULP energy -223271.886192 kJ/mol
# GULP energy per Si atom -12403.993677 kJ/mol
# Density = 2.321070 g / cm^3
# Si number density = 23.263651 Si / 1000 Ang^3
#
#
#
# Elastic Constant Matrix: (Units=GPa)
#
#
# Indices 1 2 3 4 5 6 
#
# 1 121.6843 57.3192 15.1899 0.0000 -13.0568 0.0000
# 2 57.3192 153.3331 14.2496 0.0000 -6.4694 0.0000
# 3 15.1899 14.2496 66.1460 0.0000 -5.8098 0.0000
# 4 0.0000 0.0000 0.0000 14.3830 0.0000 -5.8046
# 5 -13.0568 -6.4694 -5.8098 0.0000 32.9224 0.0000
# 6 0.0000 0.0000 0.0000 -5.8046 0.0000 -4.0724
#
#
#
# Elastic Compliance Matrix: (Units=1/GPa)
#
#
# Indices 1 2 3 4 5 6 
#
# 1 0.010444 -0.003646 -0.001333 0.000000 0.003190 0.000000
# 2 -0.003646 0.007965 -0.000882 0.000000 -0.000036 0.000000
# 3 -0.001333 -0.000882 0.015797 0.000000 0.002086 0.000000
# 4 0.000000 0.000000 0.000000 0.044138 0.000000 -0.062911
# 5 0.003190 -0.000036 0.002086 0.000000 0.032001 0.000000
# 6 0.000000 0.000000 0.000000 -0.062911 0.000000 -0.155886
#
#
# Mechanical properties :
#
#
# Convention : Reuss Voigt Hill
#
# Bulk Modulus (GPa) = 44.47285 57.18675 50.82980
# Shear Modulus (GPa) = -189.92919 25.60692 -82.16113
#
# Velocity S-wave (km/s) = -9.04540 3.32132 -5.94929
# Velocity P-wave (km/s) = 9.48335 6.27245 5.02943
#
# Compressibility (1/GPa) = 0.02248563
#
# Stress axis : x y z
#
# Youngs Moduli (GPa) = 95.74868 125.54897 63.30190
#
# Poissons Ratio (x) = 0.45772 0.08437
# Poissons Ratio (y) = 0.34907 0.05582
# Poissons Ratio (z) = 0.12761 0.11072
#
# Static dielectric constant tensor:
#      x y z
#    x 4.226050 0.000000 -0.095400 
#    y 0.000000 4.056410 0.000000 
#    z -0.095400 0.000000 4.036740 
# 
# 
# High freq. dielectric constant tensor:
#      x y z
#    x 1.926010 0.000000 -0.016840 
#    y 0.000000 1.923910 0.000000 
#    z -0.016840 0.000000 1.918160 
# 
# From -- ./inp_files/152118.got.cif
#   From: 2010.06.25/outbox.cif.g09.slc.cpg/sg12_77_cif.got.tgz:152118.got - 2010.06.28 00:19:55.
