data_PCOD8109099
_publ_section_title
;
Structure prediction by ZEFSAII (Michael W. Deem and Ramdas Pophale) SiO2 
 PCOD8109099
Probable space group: C 2/M
;
_chemical_formula_sum "Si O2"
_cell_formula_units_Z 48
_cell_length_a 15.114604
_cell_length_b 17.070009
_cell_length_c 16.679682
_cell_angle_alpha 90.000000
_cell_angle_beta 31.229932
_cell_angle_gamma 90.000000
_cell_volume 2231.233889
_symmetry_space_group_name_H-M "C 2/M"
_symmetry_group_IT_number 12
_symmetry_cell_setting 'monoclinic'
loop_
_space_group_symop_operation_xyz
x,y,z
-x,y,-z
-x,-y,-z
x,-y,z
1/2+x,1/2+y,z
1/2-x,1/2+y,-z
1/2-x,1/2-y,-z
1/2+x,1/2-y,z
loop_
_atom_site_type_symbol
_atom_site_label
_atom_site_fract_x
_atom_site_fract_y
_atom_site_fract_z
Si Si1 0.353571 0.651366 0.176933
Si Si2 0.806638 0.089645 0.382374
Si Si3 0.355223 0.831094 0.176023
Si Si4 0.452871 0.156284 0.698054
Si Si5 0.114249 0.835692 0.227359
Si Si6 0.591207 0.089285 0.100912
O O1 0.380015 0.599300 0.235591
O O2 0.363562 0.741273 0.196963
O O3 0.170642 0.634384 0.279457
O O4 0.500000 0.630004 0.000000
O O5 0.644539 0.145623 0.518454
O O6 0.948642 0.112847 0.337623
O O7 0.754792 0.000000 0.437296
O O8 0.175062 0.851969 0.272432
O O9 0.401461 0.884881 0.216698
O O10 0.500000 0.849873 0.000000
O O11 0.426793 0.244130 0.750163
O O12 0.409886 0.097055 0.802934
O O13 0.263516 0.855435 0.048921
O O14 0.628917 0.000000 0.047539
#
# Coordination Sequence:
#
# PCOD8109099 Si02
#       6
#     8   8   8   8   8   8
#     4  10  21  40  64  87 114 153 202 245 287 350
#     4  12  25  39  58  87 123 157 194 246 302 350
#     4   8  18  36  60  88 115 148 193 242 290 344
#     4  11  23  40  60  84 120 161 198 240 293 354
#     4  10  21  39  62  86 114 158 205 241 283 350
#     4  11  21  36  62  92 122 153 192 246 298 346
#
# _framework density 21.51276
#
# number of rings (size 3 to 8) (size 9 to 14) (size 15 to 20)
#    0.000    1.667    0.000    5.500    0.000    6.000 
#    0.000    2.500    0.000    2.000    0.000    0.000 
#    0.000    0.000    0.000    0.000    0.000    0.000 
#
# Total GULP energy -297647.021096 kJ/mol
# GULP energy per Si atom -12401.959212 kJ/mol
# Density = 2.146380 g / cm^3
# Si number density = 21.512760 Si / 1000 Ang^3
#
#
#
# Elastic Constant Matrix: (Units=GPa)
#
#
# Indices 1 2 3 4 5 6 
#
# 1 82.6776 50.0599 30.7579 -0.0014 -25.9861 -0.0016
# 2 50.0599 108.9450 35.8849 0.0006 -6.7357 -0.0036
# 3 30.7579 35.8849 92.9279 0.0119 -18.7560 -0.0126
# 4 -0.0014 0.0006 0.0119 27.8667 -0.0008 -1.3746
# 5 -25.9861 -6.7357 -18.7560 -0.0008 30.6907 -0.0020
# 6 -0.0016 -0.0036 -0.0126 -1.3746 -0.0020 14.3380
#
#
#
# Elastic Compliance Matrix: (Units=1/GPa)
#
#
# Indices 1 2 3 4 5 6 
#
# 1 0.023627 -0.009581 -0.000578 0.000002 0.017549 0.000002
# 2 -0.009581 0.014403 -0.003867 0.000001 -0.007315 -0.000002
# 3 -0.000578 -0.003867 0.013889 -0.000005 0.007149 0.000012
# 4 0.000002 0.000001 -0.000005 0.036056 0.000000 0.003457
# 5 0.017549 -0.007315 0.007149 0.000000 0.050206 0.000013
# 6 0.000002 -0.000002 0.000012 0.003457 0.000013 0.070076
#
#
# Mechanical properties :
#
#
# Convention : Reuss Voigt Hill
#
# Bulk Modulus (GPa) = 41.90070 57.55065 49.72568
# Shear Modulus (GPa) = 20.46953 25.76894 23.11923
#
# Velocity S-wave (km/s) = 3.08800 3.46474 3.28178
# Velocity P-wave (km/s) = 5.67747 6.54338 6.12575
#
# Compressibility (1/GPa) = 0.02386595
#
# Stress axis : x y z
#
# Youngs Moduli (GPa) = 42.32359 69.43025 72.00087
#
# Poissons Ratio (x) = 0.66523 0.04165
# Poissons Ratio (y) = 0.40551 0.27842
# Poissons Ratio (z) = 0.02448 0.26848
#
# Static dielectric constant tensor:
#      x y z
#    x 4.365110 -0.000020 -0.312210 
#    y -0.000020 3.708370 0.000040 
#    z -0.312210 0.000040 3.643450 
# 
# 
# High freq. dielectric constant tensor:
#      x y z
#    x 1.861520 0.000000 -0.014510 
#    y 0.000000 1.834730 0.000000 
#    z -0.014510 0.000000 1.825470 
# 
# From -- ./inp_files/271616.got.cif
#   From: 2010.06.25/outbox.cif.g09.slc.cpg/sg12_136_cif.got.tgz:271616.got - 2010.06.28 00:19:55.
