data_PCOD8109508
_publ_section_title
;
Structure prediction by ZEFSAII (Michael W. Deem and Ramdas Pophale) SiO2 
 PCOD8109508
Probable space group: C 2/M
;
_chemical_formula_sum "Si O2"
_cell_formula_units_Z 52
_cell_length_a 5.107990
_cell_length_b 29.516609
_cell_length_c 19.792836
_cell_angle_alpha 90.000000
_cell_angle_beta 120.620439
_cell_angle_gamma 90.000000
_cell_volume 2568.064195
_symmetry_space_group_name_H-M "C 2/M"
_symmetry_group_IT_number 12
_symmetry_cell_setting 'monoclinic'
loop_
_space_group_symop_operation_xyz
x,y,z
-x,y,-z
-x,-y,-z
x,-y,z
1/2+x,1/2+y,z
1/2-x,1/2+y,-z
1/2-x,1/2-y,-z
1/2+x,1/2-y,z
loop_
_atom_site_type_symbol
_atom_site_label
_atom_site_fract_x
_atom_site_fract_y
_atom_site_fract_z
Si Si1 0.555797 0.595166 0.243472
Si Si2 0.368968 0.849806 0.720054
Si Si3 0.188687 0.220925 0.591486
Si Si4 0.426144 0.220719 0.144633
Si Si5 0.500000 0.662898 0.000000
Si Si6 0.211272 0.000000 0.120498
Si Si7 0.173503 0.917994 0.933550
Si Si8 0.070624 0.000000 0.770687
O O1 0.418938 0.630604 0.277970
O O2 0.340315 0.589178 0.149318
O O3 0.556429 0.545861 0.281347
O O4 0.893436 0.610324 0.266399
O O5 0.251742 0.826616 0.636172
O O6 0.524997 0.812601 0.786806
O O7 0.505594 0.244999 0.615730
O O8 0.000000 0.208893 0.500000
O O9 0.736354 0.237876 0.151376
O O10 0.260323 0.195179 0.062337
O O11 0.370997 0.631823 0.042465
O O12 0.567983 0.000000 0.174542
O O13 0.083074 0.953090 0.071083
O O14 0.058569 0.000000 0.172294
O O15 0.500000 0.937554 0.000000
#
# Coordination Sequence:
#
# PCOD8109508 Si02
#       8
#     8   8   8   8   4   4   8   4
#     4  11  23  40  60  88 118 154 201 245 299 355
#     4  12  22  40  65  90 117 157 200 246 290 357
#     4  10  21  39  64  97 133 161 191 241 304 359
#     4  12  26  42  57  77 109 151 201 248 291 339
#     4  12  26  39  58  74 112 154 204 247 302 342
#     4  10  23  39  58  84 110 148 194 251 327 365
#     4  11  24  38  58  81 113 154 198 261 305 367
#     4  10  22  40  60  84 121 152 189 249 304 360
#
# _framework density 20.248716000000002
#
# number of rings (size 3 to 8) (size 9 to 14) (size 15 to 20)
#    0.000    0.923    1.538    6.231    6.462    0.308 
#    0.000    0.000    0.000    0.000    0.000    3.231 
#    0.000    0.000    0.000    0.000    0.000    0.000 
#
# Total GULP energy -322409.333376 kJ/mol
# GULP energy per Si atom -12400.358976 kJ/mol
# Density = 2.020263 g / cm^3
# Si number density = 20.248716 Si / 1000 Ang^3
#
#
#
# Elastic Constant Matrix: (Units=GPa)
#
#
# Indices 1 2 3 4 5 6 
#
# 1 93.7327 21.6291 11.0503 0.0000 -5.7058 0.0000
# 2 21.6291 110.6387 32.7222 0.0000 -5.7779 0.0000
# 3 11.0503 32.7222 59.8522 0.0000 -8.5996 0.0000
# 4 0.0000 0.0000 0.0000 -319.9363 0.0000 14.6977
# 5 -5.7058 -5.7779 -8.5996 0.0000 20.1439 0.0000
# 6 0.0000 0.0000 0.0000 14.6977 0.0000 44.3203
#
#
#
# Elastic Compliance Matrix: (Units=1/GPa)
#
#
# Indices 1 2 3 4 5 6 
#
# 1 0.011331 -0.001877 -0.000727 0.000000 0.002361 0.000000
# 2 -0.001877 0.011100 -0.005690 0.000000 0.000223 0.000000
# 3 -0.000727 -0.005690 0.020975 0.000000 0.007117 0.000000
# 4 0.000000 0.000000 0.000000 -0.003079 0.000000 0.001021
# 5 0.002361 0.000223 0.007117 0.000000 0.053414 0.000000
# 6 0.000000 0.000000 0.000000 0.001021 0.000000 0.022224
#
#
# Mechanical properties :
#
#
# Convention : Reuss Voigt Hill
#
# Bulk Modulus (GPa) = 37.28662 43.89187 40.58924
# Shear Modulus (GPa) = 35.33762 -37.83962 -1.25100
#
# Velocity S-wave (km/s) = 4.18207 -4.32758 -0.78686
# Velocity P-wave (km/s) = 6.46327 1.80200 4.38900
#
# Compressibility (1/GPa) = 0.02681927
#
# Stress axis : x y z
#
# Youngs Moduli (GPa) = 88.25239 90.09144 47.67528
#
# Poissons Ratio (x) = 0.16910 0.03464
# Poissons Ratio (y) = 0.16565 0.27127
# Poissons Ratio (z) = 0.06413 0.51261
#
# Static dielectric constant tensor:
#      x y z
#    x 3.674580 0.000000 0.008000 
#    y 0.000000 4.573630 0.000000 
#    z 0.008000 0.000000 3.484170 
# 
# 
# High freq. dielectric constant tensor:
#      x y z
#    x 1.807900 0.000000 -0.001740 
#    y 0.000000 1.807650 0.000000 
#    z -0.001740 0.000000 1.747380 
# 
# From -- ./inp_files/253497.got.cif
#   From: 2010.06.25/outbox.cif.g09.slc.cpg/sg12_127_cif.got.tgz:253497.got - 2010.06.28 00:19:55.
