data_PCOD8109024
_publ_section_title
;
Structure prediction by ZEFSAII (Michael W. Deem and Ramdas Pophale) SiO2 
 PCOD8109024
Probable space group: C 2/M
;
_chemical_formula_sum "Si O2"
_cell_formula_units_Z 56
_cell_length_a 21.207538
_cell_length_b 8.923921
_cell_length_c 32.714223
_cell_angle_alpha 90.000000
_cell_angle_beta 154.168751
_cell_angle_gamma 90.000000
_cell_volume 2697.690580
_symmetry_space_group_name_H-M "C 2/M"
_symmetry_group_IT_number 12
_symmetry_cell_setting 'monoclinic'
loop_
_space_group_symop_operation_xyz
x,y,z
-x,y,-z
-x,-y,-z
x,-y,z
1/2+x,1/2+y,z
1/2-x,1/2+y,-z
1/2-x,1/2-y,-z
1/2+x,1/2-y,z
loop_
_atom_site_type_symbol
_atom_site_label
_atom_site_fract_x
_atom_site_fract_y
_atom_site_fract_z
Si Si1 0.067009 0.173830 0.269288
Si Si2 0.146717 0.827225 0.060765
Si Si3 0.584969 0.325877 0.739629
Si Si4 0.122098 0.332759 0.903150
Si Si5 0.471272 0.169588 0.895388
Si Si6 0.143969 0.321568 0.605398
Si Si7 0.674775 0.822348 0.716174
O O1 0.218658 0.238603 0.340545
O O2 0.051631 0.199482 0.309280
O O3 0.929798 0.254073 0.168538
O O4 0.054831 0.000000 0.250823
O O5 0.272283 0.737593 0.156021
O O6 0.192129 0.000000 0.082096
O O7 0.000000 0.807802 0.000000
O O8 0.112821 0.752090 0.996941
O O9 0.607295 0.500000 0.743536
O O10 0.556701 0.242462 0.679617
O O11 0.172168 0.500000 0.921112
O O12 0.987458 0.333547 0.855940
O O13 0.250000 0.250000 0.000000
O O14 0.328269 0.263637 0.822267
O O15 0.458074 0.000000 0.904949
O O16 0.143627 0.500000 0.604643
O O17 0.145013 0.264043 0.652874
O O18 0.000000 0.257377 0.500000
O O19 0.673476 0.000000 0.717421
#
# Coordination Sequence:
#
# PCOD8109024 Si02
#       7
#     8   8   8   8   8   8   8
#     4  10  21  39  61  87 119 156 199 245 296 355
#     4  11  22  34  51  78 113 156 208 250 283 336
#     4  11  23  37  56  83 121 161 195 240 298 353
#     4  11  23  36  54  82 118 158 199 245 294 348
#     4  11  22  35  53  79 113 153 197 242 294 345
#     4   9  19  39  68  95 116 147 196 250 301 358
#     4  11  21  36  61  87 113 148 194 244 289 347
#
# _framework density 20.758496000000001
#
# number of rings (size 3 to 8) (size 9 to 14) (size 15 to 20)
#    0.000    1.429    2.857    3.000    0.000    6.857 
#    0.000    0.714    0.000    3.857    0.000    0.000 
#    0.000    0.000    0.000    0.000    0.000    0.000 
#
# Total GULP energy -347170.946154 kJ/mol
# GULP energy per Si atom -12398.962363 kJ/mol
# Density = 2.071125 g / cm^3
# Si number density = 20.758496 Si / 1000 Ang^3
#
#
#
# Elastic Constant Matrix: (Units=GPa)
#
#
# Indices 1 2 3 4 5 6 
#
# 1 145.6321 41.2062 46.7502 -0.0006 -15.1479 -0.0001
# 2 41.2062 98.5986 29.2682 -0.0011 -2.9086 -0.0002
# 3 46.7502 29.2682 95.7120 0.0013 -4.6791 0.0003
# 4 -0.0006 -0.0011 0.0013 15.0105 0.0009 -4.7641
# 5 -15.1479 -2.9086 -4.6791 0.0009 24.1460 -0.0001
# 6 -0.0001 -0.0002 0.0003 -4.7641 -0.0001 29.6643
#
#
#
# Elastic Compliance Matrix: (Units=1/GPa)
#
#
# Indices 1 2 3 4 5 6 
#
# 1 0.009237 -0.002693 -0.003453 0.000000 0.004801 0.000000
# 2 -0.002693 0.011951 -0.002374 0.000001 -0.000710 0.000000
# 3 -0.003453 -0.002374 0.012863 -0.000002 0.000040 0.000000
# 4 0.000000 0.000001 -0.000002 0.070198 -0.000003 0.011274
# 5 0.004801 -0.000710 0.000040 -0.000003 0.044349 0.000000
# 6 0.000000 0.000000 0.000000 0.011274 0.000000 0.035521
#
#
# Mechanical properties :
#
#
# Convention : Reuss Voigt Hill
#
# Bulk Modulus (GPa) = 58.79006 63.82134 61.30570
# Shear Modulus (GPa) = 24.17450 28.61205 26.39328
#
# Velocity S-wave (km/s) = 3.41627 3.71661 3.56960
# Velocity P-wave (km/s) = 6.62900 7.01634 6.82542
#
# Compressibility (1/GPa) = 0.01700968
#
# Stress axis : x y z
#
# Youngs Moduli (GPa) = 108.26447 83.67170 77.74473
#
# Poissons Ratio (x) = 0.22537 0.26847
# Poissons Ratio (y) = 0.29161 0.18455
# Poissons Ratio (z) = 0.37387 0.19862
#
# Static dielectric constant tensor:
#      x y z
#    x 4.347210 0.000000 -0.148520 
#    y 0.000000 3.670270 0.000000 
#    z -0.148520 0.000000 3.503990 
# 
# 
# High freq. dielectric constant tensor:
#      x y z
#    x 1.840620 0.000000 -0.009740 
#    y 0.000000 1.802700 0.000000 
#    z -0.009740 0.000000 1.770890 
# 
# From -- ./inp_files/380713.got.cif
#   From: 2010.06.25/outbox.cif.g09.slc.cpg/sg12_191_cif.got.tgz:380713.got - 2010.06.28 00:19:55.
