data_PCOD8109148
_publ_section_title
;
Structure prediction by ZEFSAII (Michael W. Deem and Ramdas Pophale) SiO2 
 PCOD8109148
Probable space group: C 2/M
;
_chemical_formula_sum "Si O2"
_cell_formula_units_Z 40
_cell_length_a 13.550318
_cell_length_b 26.657229
_cell_length_c 13.608899
_cell_angle_alpha 90.000000
_cell_angle_beta 159.467084
_cell_angle_gamma 90.000000
_cell_volume 1724.167712
_symmetry_space_group_name_H-M "C 2/M"
_symmetry_group_IT_number 12
_symmetry_cell_setting 'monoclinic'
loop_
_space_group_symop_operation_xyz
x,y,z
-x,y,-z
-x,-y,-z
x,-y,z
1/2+x,1/2+y,z
1/2-x,1/2+y,-z
1/2-x,1/2-y,-z
1/2+x,1/2-y,z
loop_
_atom_site_type_symbol
_atom_site_label
_atom_site_fract_x
_atom_site_fract_y
_atom_site_fract_z
Si Si1 0.829583 0.057836 0.432895
Si Si2 0.772252 0.302994 0.071530
Si Si3 0.404679 0.944989 0.522845
Si Si4 0.733464 0.908083 0.010420
Si Si5 0.268512 0.838578 0.368620
O O1 0.529357 0.084327 0.161402
O O2 0.000000 0.081684 0.500000
O O3 0.770546 0.000000 0.356675
O O4 0.995339 0.064440 0.690450
O O5 0.709890 0.348216 0.937836
O O6 0.083947 0.308962 0.404597
O O7 0.750000 0.250000 0.000000
O O8 0.526071 0.309918 0.926415
O O9 0.500000 0.949144 0.500000
O O10 0.664390 0.931709 0.838174
O O11 0.192191 0.896739 0.328438
O O12 0.278092 0.000000 0.434874
O O13 0.500000 0.838483 0.500000
#
# Coordination Sequence:
#
# PCOD8109148 Si02
#       5
#     8   8   8   8   8
#     4  11  23  40  62  89 123 162 204 251 305 363
#     4  11  23  41  61  85 117 155 200 252 305 351
#     4   9  18  34  59  92 126 158 193 237 294 365
#     4  11  22  39  62  88 122 162 204 252 304 361
#     4  10  21  39  62  88 120 156 196 240 294 363
#
# _framework density 23.1996
#
# number of rings (size 3 to 8) (size 9 to 14) (size 15 to 20)
#    0.000    1.600    0.000    6.000    0.000    1.600 
#    0.000   14.000    0.000   28.800    0.000    0.000 
#    0.000    0.000    0.000    0.000    0.000    0.000 
#
# Total GULP energy -247829.715192 kJ/mol
# GULP energy per Si atom -12391.485760 kJ/mol
# Density = 2.314680 g / cm^3
# Si number density = 23.199600 Si / 1000 Ang^3
#
#
#
# Elastic Constant Matrix: (Units=GPa)
#
#
# Indices 1 2 3 4 5 6 
#
# 1 72.8372 40.0958 -10.3285 -0.0011 4.7204 0.0045
# 2 40.0958 174.7673 25.0852 0.0049 9.2226 0.0032
# 3 -10.3285 25.0852 67.2869 -0.0189 13.2901 0.0148
# 4 -0.0011 0.0049 -0.0189 26.4299 0.0001 2.9314
# 5 4.7204 9.2226 13.2901 0.0001 37.6571 0.0056
# 6 0.0045 0.0032 0.0148 2.9314 0.0056 18.4601
#
#
#
# Elastic Compliance Matrix: (Units=1/GPa)
#
#
# Indices 1 2 3 4 5 6 
#
# 1 0.017045 -0.004457 0.004820 0.000006 -0.002746 -0.000007
# 2 -0.004457 0.007230 -0.003376 -0.000004 -0.000021 0.000003
# 3 0.004820 -0.003376 0.018076 0.000015 -0.006157 -0.000016
# 4 0.000006 -0.000004 0.000015 0.038514 -0.000004 -0.006116
# 5 -0.002746 -0.000021 -0.006157 -0.000004 0.029078 -0.000003
# 6 -0.000007 0.000003 -0.000016 -0.006116 -0.000003 0.055142
#
#
# Mechanical properties :
#
#
# Convention : Reuss Voigt Hill
#
# Bulk Modulus (GPa) = 27.52859 47.17739 37.35299
# Shear Modulus (GPa) = 27.28980 33.84535 30.56757
#
# Velocity S-wave (km/s) = 3.43345 3.82367 3.63380
# Velocity P-wave (km/s) = 5.25451 6.31455 5.80876
#
# Compressibility (1/GPa) = 0.03632587
#
# Stress axis : x y z
#
# Youngs Moduli (GPa) = 58.66993 138.30999 55.32120
#
# Poissons Ratio (x) = 0.61650 -0.26668
# Poissons Ratio (y) = 0.26152 0.18674
# Poissons Ratio (z) = -0.28282 0.46688
#
# Static dielectric constant tensor:
#      x y z
#    x 4.377760 -0.000010 0.036910 
#    y -0.000010 4.195370 -0.000030 
#    z 0.036910 -0.000030 4.221890 
# 
# 
# High freq. dielectric constant tensor:
#      x y z
#    x 1.922440 0.000000 0.012950 
#    y 0.000000 1.900900 0.000000 
#    z 0.012950 0.000000 1.922270 
# 
# From -- ./inp_files/12625.got.cif
#   From: 2010.06.25/outbox.cif.g09.slc.cpg/sg12_7_cif.got.tgz:12625.got - 2010.06.28 00:19:55.
