data_PCOD8109400
_publ_section_title
;
Structure prediction by ZEFSAII (Michael W. Deem and Ramdas Pophale) SiO2 
 PCOD8109400
Probable space group: C 2/M
;
_chemical_formula_sum "Si O2"
_cell_formula_units_Z 48
_cell_length_a 22.030005
_cell_length_b 8.938330
_cell_length_c 12.230630
_cell_angle_alpha 90.000000
_cell_angle_beta 109.343545
_cell_angle_gamma 90.000000
_cell_volume 2272.398486
_symmetry_space_group_name_H-M "C 2/M"
_symmetry_group_IT_number 12
_symmetry_cell_setting 'monoclinic'
loop_
_space_group_symop_operation_xyz
x,y,z
-x,y,-z
-x,-y,-z
x,-y,z
1/2+x,1/2+y,z
1/2-x,1/2+y,-z
1/2-x,1/2-y,-z
1/2+x,1/2-y,z
loop_
_atom_site_type_symbol
_atom_site_label
_atom_site_fract_x
_atom_site_fract_y
_atom_site_fract_z
Si Si1 0.729160 0.826378 0.376316
Si Si2 0.426763 0.836284 0.422675
Si Si3 0.244972 0.173345 0.166435
Si Si4 0.542601 0.324344 0.770594
Si Si5 0.849558 0.673284 0.045199
Si Si6 0.411067 0.827595 0.649293
O O1 0.750000 0.750000 0.500000
O O2 0.763071 0.745928 0.293901
O O3 0.652091 0.806408 0.315050
O O4 0.748732 0.000000 0.390507
O O5 0.500000 0.855305 0.500000
O O6 0.421469 0.719164 0.321113
O O7 0.391501 0.779761 0.512468
O O8 0.399605 0.000000 0.368259
O O9 0.305478 0.201365 0.124694
O O10 0.229415 0.000000 0.172670
O O11 0.181946 0.251784 0.079571
O O12 0.545246 0.500000 0.786716
O O13 0.581098 0.247933 0.892924
O O14 0.468717 0.271832 0.731193
O O15 0.859088 0.500000 0.024923
O O16 0.434468 0.000000 0.661369
#
# Coordination Sequence:
#
# PCOD8109400 Si02
#       6
#     8   8   8   8   8   8
#     4  11  24  41  62  88 120 160 201 240 290 352
#     4   8  15  30  50  73 107 150 190 230 280 339
#     4  10  22  41  63  89 119 153 197 247 295 345
#     4  11  21  32  54  88 119 148 191 246 297 344
#     4  10  21  39  64  88 117 156 196 241 296 355
#     4   9  20  38  56  78 114 158 198 236 287 351
#
# _framework density 21.123054
#
# number of rings (size 3 to 8) (size 9 to 14) (size 15 to 20)
#    0.000    2.167    0.000    4.000    2.333    6.333 
#    0.000    0.833    0.000    5.000    0.000    0.000 
#    0.000    0.000    0.000    0.000    0.000    0.000 
#
# Total GULP energy -297606.309260 kJ/mol
# GULP energy per Si atom -12400.262886 kJ/mol
# Density = 2.107498 g / cm^3
# Si number density = 21.123054 Si / 1000 Ang^3
#
#
#
# Elastic Constant Matrix: (Units=GPa)
#
#
# Indices 1 2 3 4 5 6 
#
# 1 30.4766 26.4204 11.5682 0.0000 2.8638 0.0000
# 2 26.4204 150.0662 57.8595 0.0000 10.0164 0.0000
# 3 11.5682 57.8595 105.0102 0.0000 8.9573 0.0000
# 4 0.0000 0.0000 0.0000 39.0962 0.0000 1.9229
# 5 2.8638 10.0164 8.9573 0.0000 34.2200 0.0000
# 6 0.0000 0.0000 0.0000 1.9229 0.0000 24.3010
#
#
#
# Elastic Compliance Matrix: (Units=1/GPa)
#
#
# Indices 1 2 3 4 5 6 
#
# 1 0.038803 -0.006531 -0.000575 0.000000 -0.001185 0.000000
# 2 -0.006531 0.009616 -0.004486 0.000000 -0.001094 0.000000
# 3 -0.000575 -0.004486 0.012214 0.000000 -0.001836 0.000000
# 4 0.000000 0.000000 0.000000 0.025678 0.000000 -0.002032
# 5 -0.001185 -0.001094 -0.001836 0.000000 0.030123 0.000000
# 6 0.000000 0.000000 0.000000 -0.002032 0.000000 0.041311
#
#
# Mechanical properties :
#
#
# Convention : Reuss Voigt Hill
#
# Bulk Modulus (GPa) = 26.70179 53.02769 39.86474
# Shear Modulus (GPa) = 25.85152 32.17042 29.01097
#
# Velocity S-wave (km/s) = 3.50216 3.90680 3.71000
# Velocity P-wave (km/s) = 5.38720 6.74607 6.10456
#
# Compressibility (1/GPa) = 0.03745067
#
# Stress axis : x y z
#
# Youngs Moduli (GPa) = 25.77095 103.99348 81.87083
#
# Poissons Ratio (x) = 0.67916 0.04709
# Poissons Ratio (y) = 0.16830 0.36724
# Poissons Ratio (z) = 0.01482 0.46647
#
# Static dielectric constant tensor:
#      x y z
#    x 3.884040 0.000000 -0.127110 
#    y 0.000000 3.735630 0.000000 
#    z -0.127110 0.000000 3.927470 
# 
# 
# High freq. dielectric constant tensor:
#      x y z
#    x 1.817670 0.000000 0.010830 
#    y 0.000000 1.826120 0.000000 
#    z 0.010830 0.000000 1.822280 
# 
# From -- ./inp_files/173051.got.cif
#   From: 2010.06.25/outbox.cif.g09.slc.cpg/sg12_87_cif.got.tgz:173051.got - 2010.06.28 00:19:55.
