data_PCOD8109264
_publ_section_title
;
Structure prediction by ZEFSAII (Michael W. Deem and Ramdas Pophale) SiO2 
 PCOD8109264
Probable space group: C 2/M
;
_chemical_formula_sum "Si O2"
_cell_formula_units_Z 56
_cell_length_a 17.100895
_cell_length_b 17.191020
_cell_length_c 9.807139
_cell_angle_alpha 90.000000
_cell_angle_beta 69.134292
_cell_angle_gamma 90.000000
_cell_volume 2694.039306
_symmetry_space_group_name_H-M "C 2/M"
_symmetry_group_IT_number 12
_symmetry_cell_setting 'monoclinic'
loop_
_space_group_symop_operation_xyz
x,y,z
-x,y,-z
-x,-y,-z
x,-y,z
1/2+x,1/2+y,z
1/2-x,1/2+y,-z
1/2-x,1/2-y,-z
1/2+x,1/2-y,z
loop_
_atom_site_type_symbol
_atom_site_label
_atom_site_fract_x
_atom_site_fract_y
_atom_site_fract_z
Si Si1 0.074354 0.658488 0.706392
Si Si2 0.087743 0.587447 0.128907
Si Si3 0.297800 0.823668 0.147591
Si Si4 0.647712 0.589146 0.124266
Si Si5 0.309212 0.355429 0.186240
Si Si6 0.143903 0.589166 0.398600
Si Si7 0.982954 0.817952 0.165237
O O1 0.162565 0.655828 0.730638
O O2 0.090796 0.637521 0.540104
O O3 0.029661 0.742611 0.733326
O O4 0.012037 0.599496 0.824483
O O5 0.112675 0.500000 0.069775
O O6 0.104324 0.603990 0.276726
O O7 0.140662 0.648650 0.010192
O O8 0.207314 0.864552 0.192624
O O9 0.290438 0.730925 0.140690
O O10 0.638845 0.500000 0.177792
O O11 0.556324 0.628658 0.179742
O O12 0.689484 0.589965 0.948288
O O13 0.239710 0.382877 0.335830
O O14 0.395903 0.365244 0.214682
O O15 0.139482 0.500000 0.446436
O O16 0.000000 0.789573 0.000000
#
# Coordination Sequence:
#
# PCOD8109264 Si02
#       7
#     8   8   8   8   8   8   8
#     4  11  23  40  60  88 124 163 201 245 301 363
#     4  11  22  38  59  89 123 155 199 252 301 353
#     4  11  23  38  63  92 123 157 204 250 301 364
#     4  11  21  36  61  95 125 155 200 256 311 355
#     4  10  21  39  63  88 122 159 206 248 299 354
#     4  11  24  39  61  91 122 159 201 246 300 362
#     4   9  21  38  61  91 118 155 210 254 294 354
#
# _framework density 20.786631
#
# number of rings (size 3 to 8) (size 9 to 14) (size 15 to 20)
#    0.000    1.429    1.429    5.143    2.000    9.429 
#    0.000    0.000    0.000    0.000    0.000    3.000 
#    0.000    0.000    0.000    0.000    0.000    0.000 
#
# Total GULP energy -347272.059230 kJ/mol
# GULP energy per Si atom -12402.573544 kJ/mol
# Density = 2.073932 g / cm^3
# Si number density = 20.786631 Si / 1000 Ang^3
#
#
#
# Elastic Constant Matrix: (Units=GPa)
#
#
# Indices 1 2 3 4 5 6 
#
# 1 118.9135 47.1364 1.5572 0.0000 -5.9183 0.0000
# 2 47.1364 94.9393 34.3813 0.0000 7.9611 0.0000
# 3 1.5572 34.3813 42.2036 0.0000 -7.7026 0.0000
# 4 0.0000 0.0000 0.0000 28.2386 0.0000 -1.7452
# 5 -5.9183 7.9611 -7.7026 0.0000 24.0417 0.0000
# 6 0.0000 0.0000 0.0000 -1.7452 0.0000 26.8147
#
#
#
# Elastic Compliance Matrix: (Units=1/GPa)
#
#
# Indices 1 2 3 4 5 6 
#
# 1 0.013273 -0.011312 0.010627 0.000000 0.010418 0.000000
# 2 -0.011312 0.026889 -0.025088 0.000000 -0.019726 0.000000
# 3 0.010627 -0.025088 0.048574 0.000000 0.026486 0.000000
# 4 0.000000 0.000000 0.000000 0.035556 0.000000 0.002314
# 5 0.010418 -0.019726 0.026486 0.000000 0.059176 0.000000
# 6 0.000000 0.000000 0.000000 0.002314 0.000000 0.037444
#
#
# Mechanical properties :
#
#
# Convention : Reuss Voigt Hill
#
# Bulk Modulus (GPa) = 26.88887 46.91180 36.90033
# Shear Modulus (GPa) = 17.55291 27.35111 22.45201
#
# Velocity S-wave (km/s) = 2.90907 3.63133 3.29008
# Velocity P-wave (km/s) = 4.92415 6.34030 5.67656
#
# Compressibility (1/GPa) = 0.03719011
#
# Stress axis : x y z
#
# Youngs Moduli (GPa) = 75.34301 37.19059 20.58704
#
# Poissons Ratio (x) = 0.42069 -0.21877
# Poissons Ratio (y) = 0.85225 0.51648
# Poissons Ratio (z) = -0.80064 0.93303
#
# Static dielectric constant tensor:
#      x y z
#    x 4.111330 0.000000 -0.075310 
#    y 0.000000 3.684150 0.000000 
#    z -0.075310 0.000000 3.401910 
# 
# 
# High freq. dielectric constant tensor:
#      x y z
#    x 1.833610 0.000000 -0.006000 
#    y 0.000000 1.813210 0.000000 
#    z -0.006000 0.000000 1.781030 
# 
# From -- ./inp_files/75860.got.cif
#   From: 2010.06.25/outbox.cif.g09.slc.cpg/sg12_38_cif.got.tgz:75860.got - 2010.06.28 00:19:55.
