data_PCOD8109419
_publ_section_title
;
Structure prediction by ZEFSAII (Michael W. Deem and Ramdas Pophale) SiO2 
 PCOD8109419
Probable space group: C 2/M
;
_chemical_formula_sum "Si O2"
_cell_formula_units_Z 32
_cell_length_a 17.853730
_cell_length_b 20.458841
_cell_length_c 9.935291
_cell_angle_alpha 90.000000
_cell_angle_beta 152.572802
_cell_angle_gamma 90.000000
_cell_volume 1671.608150
_symmetry_space_group_name_H-M "C 2/M"
_symmetry_group_IT_number 12
_symmetry_cell_setting 'monoclinic'
loop_
_space_group_symop_operation_xyz
x,y,z
-x,y,-z
-x,-y,-z
x,-y,z
1/2+x,1/2+y,z
1/2-x,1/2+y,-z
1/2-x,1/2-y,-z
1/2+x,1/2-y,z
loop_
_atom_site_type_symbol
_atom_site_label
_atom_site_fract_x
_atom_site_fract_y
_atom_site_fract_z
Si Si1 0.860517 0.569784 0.170413
Si Si2 0.578816 0.924607 0.268902
Si Si3 0.192200 0.806604 0.307384
Si Si4 0.692837 0.802657 0.804955
O O1 0.766595 0.500000 0.002411
O O2 0.740914 0.626621 0.035430
O O3 0.000000 0.557719 0.500000
O O4 0.940702 0.591999 0.157666
O O5 0.731260 0.876438 0.531292
O O6 0.638268 0.000000 0.377551
O O7 0.500000 0.910614 0.000000
O O8 0.250000 0.750000 0.500000
O O9 0.243881 0.784945 0.240786
O O10 0.000000 0.814514 0.000000
O O11 0.500000 0.806571 0.500000
O O12 0.750000 0.750000 0.000000
#
# Coordination Sequence:
#
# PCOD8109419 Si02
#       4
#     8   8   8   8
#     4   9  17  35  63  86 109 150 205 244 286 355
#     4  10  21  39  64  91 120 159 204 249 302 364
#     4  12  25  39  59  89 126 162 197 250 303 359
#     4  11  22  39  60  87 115 157 200 244 294 355
#
# _framework density 19.143242999999998
#
# number of rings (size 3 to 8) (size 9 to 14) (size 15 to 20)
#    0.000    1.500    5.000    2.250    3.500    0.500 
#    0.000    0.000    0.000    0.750    0.000    0.000 
#    0.000    0.000    0.000    0.000    0.000    0.000 
#
# Total GULP energy -198305.162207 kJ/mol
# GULP energy per Si atom -12394.072638 kJ/mol
# Density = 1.909967 g / cm^3
# Si number density = 19.143243 Si / 1000 Ang^3
#
#
#
# Elastic Constant Matrix: (Units=GPa)
#
#
# Indices 1 2 3 4 5 6 
#
# 1 167.6792 56.9624 44.1398 0.0000 -23.0981 0.0000
# 2 56.9624 168.6200 52.1743 0.0000 -11.0125 0.0000
# 3 44.1398 52.1743 71.1885 0.0000 -8.2004 0.0000
# 4 0.0000 0.0000 0.0000 65.6889 0.0000 8.5052
# 5 -23.0981 -11.0125 -8.2004 0.0000 28.9741 0.0000
# 6 0.0000 0.0000 0.0000 8.5052 0.0000 39.0600
#
#
#
# Elastic Compliance Matrix: (Units=1/GPa)
#
#
# Indices 1 2 3 4 5 6 
#
# 1 0.007987 -0.001320 -0.003421 0.000000 0.004898 0.000000
# 2 -0.001320 0.007941 -0.004936 0.000000 0.000569 0.000000
# 3 -0.003421 -0.004936 0.019905 0.000000 0.001030 0.000000
# 4 0.000000 0.000000 0.000000 0.015665 0.000000 -0.003411
# 5 0.004898 0.000569 0.001030 0.000000 0.038926 0.000000
# 6 0.000000 0.000000 0.000000 -0.003411 0.000000 0.026344
#
#
# Mechanical properties :
#
#
# Convention : Reuss Voigt Hill
#
# Bulk Modulus (GPa) = 60.68261 79.33786 70.01024
# Shear Modulus (GPa) = 35.30716 43.69202 39.49959
#
# Velocity S-wave (km/s) = 4.29927 4.78260 4.54736
# Velocity P-wave (km/s) = 7.51086 8.48717 8.01389
#
# Compressibility (1/GPa) = 0.01647918
#
# Stress axis : x y z
#
# Youngs Moduli (GPa) = 125.19828 125.93198 50.23970
#
# Poissons Ratio (x) = 0.16621 0.17187
# Poissons Ratio (y) = 0.16525 0.24798
# Poissons Ratio (z) = 0.42830 0.62159
#
# Static dielectric constant tensor:
#      x y z
#    x 3.630710 0.000000 -0.253410 
#    y 0.000000 5.725910 0.000000 
#    z -0.253410 0.000000 2.857730 
# 
# 
# High freq. dielectric constant tensor:
#      x y z
#    x 1.761770 0.000000 -0.027690 
#    y 0.000000 1.772950 0.000000 
#    z -0.027690 0.000000 1.701370 
# 
# From -- ./inp_files/38343.got.cif
#   From: 2010.06.25/outbox.cif.g09.slc.cpg/sg12_20_cif.got.tgz:38343.got - 2010.06.28 00:19:55.
