data_PCOD8109958
_publ_section_title
;
Structure prediction by ZEFSAII (Michael W. Deem and Ramdas Pophale) SiO2 
 PCOD8109958
Probable space group: C 2/M
;
_chemical_formula_sum "Si O2"
_cell_formula_units_Z 64
_cell_length_a 30.243877
_cell_length_b 8.766611
_cell_length_c 18.755673
_cell_angle_alpha 90.000000
_cell_angle_beta 140.771929
_cell_angle_gamma 90.000000
_cell_volume 3144.849179
_symmetry_space_group_name_H-M "C 2/M"
_symmetry_group_IT_number 12
_symmetry_cell_setting 'monoclinic'
loop_
_space_group_symop_operation_xyz
x,y,z
-x,y,-z
-x,-y,-z
x,-y,z
1/2+x,1/2+y,z
1/2-x,1/2+y,-z
1/2-x,1/2-y,-z
1/2+x,1/2-y,z
loop_
_atom_site_type_symbol
_atom_site_label
_atom_site_fract_x
_atom_site_fract_y
_atom_site_fract_z
Si Si1 0.605774 0.823199 0.678049
Si Si2 0.227431 0.823082 0.309886
Si Si3 0.359692 0.322493 0.536238
Si Si4 0.742304 0.678834 0.913160
Si Si5 0.841332 0.823350 0.925946
Si Si6 0.543295 0.823190 0.448999
Si Si7 0.370030 0.825898 0.699089
Si Si8 0.519282 0.174279 0.945487
O O1 0.670192 0.725088 0.785488
O O2 0.585680 0.775106 0.572744
O O3 0.539021 0.792540 0.644929
O O4 0.627414 0.000000 0.707346
O O5 0.295389 0.719644 0.405045
O O6 0.201524 0.786895 0.198624
O O7 0.166771 0.779623 0.288908
O O8 0.246788 0.000000 0.343805
O O9 0.360924 0.500000 0.555894
O O10 0.431126 0.276791 0.585615
O O11 0.348822 0.228893 0.594705
O O12 0.743821 0.500000 0.924017
O O13 0.808487 0.728896 0.949244
O O14 0.750000 0.750000 0.000000
O O15 0.838061 0.000000 0.941884
O O16 0.921506 0.776876 0.015766
O O17 0.557339 0.000000 0.450056
O O18 0.452998 0.811982 0.811163
O O19 0.344743 0.000000 0.677800
O O20 0.545880 0.000000 0.985138
O O21 0.500000 0.236351 0.000000
#
# Coordination Sequence:
#
# PCOD8109958 Si02
#       8
#     8   8   8   8   8   8   8   8
#     4   9  19  39  66  92 121 156 198 247 302 365
#     4  11  23  40  62  88 121 159 201 248 301 362
#     4  12  25  38  56  86 124 161 202 250 300 358
#     4  12  26  43  64  90 125 164 206 256 309 365
#     4  11  24  41  66  95 124 161 205 253 307 367
#     4   9  19  38  64  91 120 158 198 242 301 366
#     4  11  23  40  62  86 119 160 200 249 304 361
#     4  10  21  40  65  92 122 158 204 254 304 362
#
# _framework density 20.350736000000001
#
# number of rings (size 3 to 8) (size 9 to 14) (size 15 to 20)
#    0.000    1.375    1.250    5.250    0.000    7.750 
#    0.000    2.500    0.000    0.000    0.000    0.000 
#    0.000    0.000    0.000    0.000    0.000    0.000 
#
# Total GULP energy -397002.117554 kJ/mol
# GULP energy per Si atom -12406.316174 kJ/mol
# Density = 2.030442 g / cm^3
# Si number density = 20.350736 Si / 1000 Ang^3
#
#
#
# Elastic Constant Matrix: (Units=GPa)
#
#
# Indices 1 2 3 4 5 6 
#
# 1 122.0319 47.7603 31.2813 0.0000 -2.9546 0.0000
# 2 47.7603 33.6860 8.5757 0.0000 0.5707 0.0000
# 3 31.2813 8.5757 40.9076 0.0000 6.6942 0.0000
# 4 0.0000 0.0000 0.0000 29.2352 0.0000 -0.4955
# 5 -2.9546 0.5707 6.6942 0.0000 30.6418 0.0000
# 6 0.0000 0.0000 0.0000 -0.4955 0.0000 34.7696
#
#
#
# Elastic Compliance Matrix: (Units=1/GPa)
#
#
# Indices 1 2 3 4 5 6 
#
# 1 0.023140 -0.029756 -0.012354 0.000000 0.005484 0.000000
# 2 -0.029756 0.069646 0.009163 0.000000 -0.006168 0.000000
# 3 -0.012354 0.009163 0.033388 0.000000 -0.008656 0.000000
# 4 0.000000 0.000000 0.000000 0.034214 0.000000 0.000488
# 5 0.005484 -0.006168 -0.008656 0.000000 0.035170 0.000000
# 6 0.000000 0.000000 0.000000 0.000488 0.000000 0.028768
#
#
# Mechanical properties :
#
#
# Convention : Reuss Voigt Hill
#
# Bulk Modulus (GPa) = 16.58950 41.31779 28.95365
# Shear Modulus (GPa) = 16.11281 26.19653 21.15467
#
# Velocity S-wave (km/s) = 2.81687 3.59172 3.22763
# Velocity P-wave (km/s) = 4.33003 6.12761 5.30550
#
# Compressibility (1/GPa) = 0.06027908
#
# Stress axis : x y z
#
# Youngs Moduli (GPa) = 43.21551 14.35840 29.95087
#
# Poissons Ratio (x) = 0.42724 0.37002
# Poissons Ratio (y) = 1.28591 -0.27443
# Poissons Ratio (z) = 0.53389 -0.13156
#
# Static dielectric constant tensor:
#      x y z
#    x 3.855090 0.000000 -0.008890 
#    y 0.000000 3.677760 0.000000 
#    z -0.008890 0.000000 3.666690 
# 
# 
# High freq. dielectric constant tensor:
#      x y z
#    x 1.806910 0.000000 0.003810 
#    y 0.000000 1.794490 0.000000 
#    z 0.003810 0.000000 1.796670 
# 
# From -- ./inp_files/295787.got.cif
#   From: 2010.06.25/outbox.cif.g09.slc.cpg/sg12_148_cif.got.tgz:295787.got - 2010.06.28 00:19:55.
