data_PCOD8109952
_publ_section_title
;
Structure prediction by ZEFSAII (Michael W. Deem and Ramdas Pophale) SiO2 
 PCOD8109952
Probable space group: C 2/M
;
_chemical_formula_sum "Si O2"
_cell_formula_units_Z 48
_cell_length_a 24.873154
_cell_length_b 22.818340
_cell_length_c 11.106240
_cell_angle_alpha 90.000000
_cell_angle_beta 23.006539
_cell_angle_gamma 90.000000
_cell_volume 2463.637013
_symmetry_space_group_name_H-M "C 2/M"
_symmetry_group_IT_number 12
_symmetry_cell_setting 'monoclinic'
loop_
_space_group_symop_operation_xyz
x,y,z
-x,y,-z
-x,-y,-z
x,-y,z
1/2+x,1/2+y,z
1/2-x,1/2+y,-z
1/2-x,1/2-y,-z
1/2+x,1/2-y,z
loop_
_atom_site_type_symbol
_atom_site_label
_atom_site_fract_x
_atom_site_fract_y
_atom_site_fract_z
Si Si1 0.336805 0.568519 0.844279
Si Si2 0.729186 0.068653 0.805861
Si Si3 0.455306 0.644174 0.226898
Si Si4 0.631011 0.767844 0.652297
Si Si5 0.523300 0.066945 0.822427
Si Si6 0.763162 0.871822 0.231312
O O1 0.500000 0.579606 0.500000
O O2 0.309479 0.500000 0.934438
O O3 0.260048 0.585968 0.879374
O O4 0.266199 0.614175 0.082726
O O5 0.832295 0.100436 0.503829
O O6 0.751777 0.000000 0.742332
O O7 0.577971 0.090717 0.074894
O O8 0.411152 0.711298 0.338705
O O9 0.500000 0.633871 0.000000
O O10 0.579207 0.628267 0.058357
O O11 0.750000 0.750000 0.500000
O O12 0.682084 0.814019 0.445877
O O13 0.500000 0.791015 0.000000
O O14 0.681611 0.074378 0.459259
O O15 0.485376 0.000000 0.916625
O O16 0.500000 0.098538 0.000000
#
# Coordination Sequence:
#
# PCOD8109952 Si02
#       6
#     8   8   8   8   8   8
#     4  10  21  40  65  91 124 170 216 257 305 370
#     4  10  22  40  62  90 131 168 204 258 312 377
#     4  11  22  37  61  92 121 160 210 253 317 382
#     4  11  23  41  62  91 125 163 207 261 320 382
#     4  10  22  37  58  93 130 159 198 259 324 378
#     4  12  22  37  64  89 120 165 212 258 306 374
#
# _framework density 19.483388999999999
#
# number of rings (size 3 to 8) (size 9 to 14) (size 15 to 20)
#    0.000    1.333    5.000    2.000    2.333    1.667 
#    0.000    3.333    0.000    0.000    0.000    0.000 
#    0.000    0.000    0.000    0.000    0.000    0.000 
#
# Total GULP energy -297422.468827 kJ/mol
# GULP energy per Si atom -12392.602868 kJ/mol
# Density = 1.943904 g / cm^3
# Si number density = 19.483389 Si / 1000 Ang^3
#
#
#
# Elastic Constant Matrix: (Units=GPa)
#
#
# Indices 1 2 3 4 5 6 
#
# 1 131.1724 49.7506 38.9758 -0.0009 -1.6314 -0.0002
# 2 49.7506 60.3299 40.9789 0.0001 11.6990 -0.0010
# 3 38.9758 40.9789 93.1555 -0.0038 0.3532 -0.0031
# 4 -0.0009 0.0001 -0.0038 35.0371 -0.0006 11.4214
# 5 -1.6314 11.6990 0.3532 -0.0006 41.9084 -0.0001
# 6 -0.0002 -0.0010 -0.0031 11.4214 -0.0001 27.9619
#
#
#
# Elastic Compliance Matrix: (Units=1/GPa)
#
#
# Indices 1 2 3 4 5 6 
#
# 1 0.011522 -0.009746 -0.000545 0.000000 0.003174 -0.000001
# 2 -0.009746 0.033805 -0.010756 -0.000002 -0.009725 0.000001
# 3 -0.000545 -0.010756 0.015684 0.000002 0.002849 0.000001
# 4 0.000000 -0.000002 0.000002 0.032925 0.000001 -0.013449
# 5 0.003174 -0.009725 0.002849 0.000001 0.026676 0.000000
# 6 -0.000001 0.000001 0.000001 -0.013449 0.000000 0.041256
#
#
# Mechanical properties :
#
#
# Convention : Reuss Voigt Hill
#
# Bulk Modulus (GPa) = 52.86843 60.45205 56.66024
# Shear Modulus (GPa) = 23.77926 31.31162 27.54544
#
# Velocity S-wave (km/s) = 3.49734 4.01321 3.76412
# Velocity P-wave (km/s) = 6.59565 7.25047 6.93079
#
# Compressibility (1/GPa) = 0.01891488
#
# Stress axis : x y z
#
# Youngs Moduli (GPa) = 86.79369 29.58179 63.76104
#
# Poissons Ratio (x) = 0.28831 0.03476
# Poissons Ratio (y) = 0.84592 0.68581
# Poissons Ratio (z) = 0.04732 0.31818
#
# Static dielectric constant tensor:
#      x y z
#    x 3.927260 0.000000 -0.195710 
#    y 0.000000 3.599040 0.000000 
#    z -0.195710 0.000000 3.643100 
# 
# 
# High freq. dielectric constant tensor:
#      x y z
#    x 1.759990 0.000000 -0.010700 
#    y 0.000000 1.749680 0.000000 
#    z -0.010700 0.000000 1.766850 
# 
# From -- ./inp_files/185014.got.cif
#   From: 2010.06.25/outbox.cif.g09.slc.cpg/sg12_93_cif.got.tgz:185014.got - 2010.06.28 00:19:55.
