data_PCOD8109897
_publ_section_title
;
Structure prediction by ZEFSAII (Michael W. Deem and Ramdas Pophale) SiO2 
 PCOD8109897
Probable space group: C 2/M
;
_chemical_formula_sum "Si O2"
_cell_formula_units_Z 48
_cell_length_a 29.719677
_cell_length_b 8.513792
_cell_length_c 14.938956
_cell_angle_alpha 90.000000
_cell_angle_beta 39.093251
_cell_angle_gamma 90.000000
_cell_volume 2383.584679
_symmetry_space_group_name_H-M "C 2/M"
_symmetry_group_IT_number 12
_symmetry_cell_setting 'monoclinic'
loop_
_space_group_symop_operation_xyz
x,y,z
-x,y,-z
-x,-y,-z
x,-y,z
1/2+x,1/2+y,z
1/2-x,1/2+y,-z
1/2-x,1/2-y,-z
1/2+x,1/2-y,z
loop_
_atom_site_type_symbol
_atom_site_label
_atom_site_fract_x
_atom_site_fract_y
_atom_site_fract_z
Si Si1 0.082443 0.316575 0.120002
Si Si2 0.524757 0.814817 0.558391
Si Si3 0.071332 0.183528 0.945794
Si Si4 0.818444 0.687548 0.637444
Si Si5 0.780606 0.314906 0.360597
Si Si6 0.270330 0.319796 0.061626
O O1 0.101384 0.500000 0.098103
O O2 0.026577 0.265584 0.281773
O O3 0.056701 0.277566 0.059982
O O4 0.149138 0.209241 0.037263
O O5 0.500000 0.742947 0.500000
O O6 0.601211 0.752254 0.472664
O O7 0.528869 0.000000 0.540259
O O8 0.142935 0.239927 0.784239
O O9 0.080848 0.000000 0.951906
O O10 0.000000 0.217021 0.000000
O O11 0.812694 0.500000 0.632195
O O12 0.781767 0.774786 0.612127
O O13 0.778720 0.752366 0.786027
O O14 0.792427 0.500000 0.348846
O O15 0.750000 0.250000 0.500000
O O16 0.252815 0.500000 0.082456
O O17 0.250000 0.250000 0.000000
#
# Coordination Sequence:
#
# PCOD8109897 Si02
#       6
#     8   8   8   8   8   8
#     4  11  22  38  63  94 126 163 211 262 318 382
#     4   9  19  37  61  91 126 167 212 255 306 372
#     4  11  25  45  67  94 129 167 210 264 325 384
#     4  10  21  40  64  91 126 168 211 260 314 373
#     4  12  26  44  68  96 128 166 213 263 320 388
#     4  11  22  37  62  90 124 165 210 262 319 379
#
# _framework density 20.137737000000001
#
# number of rings (size 3 to 8) (size 9 to 14) (size 15 to 20)
#    0.000    1.333    1.667    4.000    2.333    4.667 
#    0.000    0.833    0.000    3.500    0.000    0.000 
#    0.000    0.000    0.000    0.000    0.000    0.000 
#
# Total GULP energy -297560.636881 kJ/mol
# GULP energy per Si atom -12398.359870 kJ/mol
# Density = 2.009190 g / cm^3
# Si number density = 20.137737 Si / 1000 Ang^3
#
#
#
# Elastic Constant Matrix: (Units=GPa)
#
#
# Indices 1 2 3 4 5 6 
#
# 1 171.4549 19.1039 90.4271 -0.0002 3.6999 0.0000
# 2 19.1039 43.8666 22.6996 -0.0004 7.6096 0.0001
# 3 90.4271 22.6996 177.9319 -0.0003 7.5283 0.0000
# 4 -0.0002 -0.0004 -0.0003 25.5831 0.0000 4.4958
# 5 3.6999 7.6096 7.5283 0.0000 49.0499 0.0000
# 6 0.0000 0.0001 0.0000 4.4958 0.0000 34.7263
#
#
#
# Elastic Compliance Matrix: (Units=1/GPa)
#
#
# Indices 1 2 3 4 5 6 
#
# 1 0.008060 -0.001526 -0.003911 0.000000 0.000229 0.000000
# 2 -0.001526 0.025249 -0.002300 0.000000 -0.003449 0.000000
# 3 -0.003911 -0.002300 0.007925 0.000000 -0.000565 0.000000
# 4 0.000000 0.000000 0.000000 0.039998 0.000000 -0.005178
# 5 0.000229 -0.003449 -0.000565 0.000000 0.020992 0.000000
# 6 0.000000 0.000000 0.000000 -0.005178 0.000000 0.029467
#
#
# Mechanical properties :
#
#
# Convention : Reuss Voigt Hill
#
# Bulk Modulus (GPa) = 38.81882 73.07938 55.94910
# Shear Modulus (GPa) = 32.10203 39.27338 35.68770
#
# Velocity S-wave (km/s) = 3.99698 4.42094 4.21429
# Velocity P-wave (km/s) = 6.37335 7.90115 7.17801
#
# Compressibility (1/GPa) = 0.02576070
#
# Stress axis : x y z
#
# Youngs Moduli (GPa) = 124.06243 39.60506 126.17924
#
# Poissons Ratio (x) = 0.06044 0.49354
# Poissons Ratio (y) = 0.18932 0.29017
# Poissons Ratio (z) = 0.48526 0.09108
#
# Static dielectric constant tensor:
#      x y z
#    x 3.053480 0.000000 -0.152310 
#    y 0.000000 3.544960 0.000000 
#    z -0.152310 0.000000 3.854050 
# 
# 
# High freq. dielectric constant tensor:
#      x y z
#    x 1.804910 0.000000 0.003100 
#    y 0.000000 1.773910 0.000000 
#    z 0.003100 0.000000 1.804250 
# 
# From -- ./inp_files/244677.got.cif
#   From: 2010.06.25/outbox.cif.g09.slc.cpg/sg12_123_cif.got.tgz:244677.got - 2010.06.28 00:19:55.
