data_PCOD8109842
_publ_section_title
;
Structure prediction by ZEFSAII (Michael W. Deem and Ramdas Pophale) SiO2 
 PCOD8109842
Probable space group: C 2/M
;
_chemical_formula_sum "Si O2"
_cell_formula_units_Z 48
_cell_length_a 18.501483
_cell_length_b 8.790234
_cell_length_c 15.056503
_cell_angle_alpha 90.000000
_cell_angle_beta 87.617557
_cell_angle_gamma 90.000000
_cell_volume 2446.558093
_symmetry_space_group_name_H-M "C 2/M"
_symmetry_group_IT_number 12
_symmetry_cell_setting 'monoclinic'
loop_
_space_group_symop_operation_xyz
x,y,z
-x,y,-z
-x,-y,-z
x,-y,z
1/2+x,1/2+y,z
1/2-x,1/2+y,-z
1/2-x,1/2-y,-z
1/2+x,1/2-y,z
loop_
_atom_site_type_symbol
_atom_site_label
_atom_site_fract_x
_atom_site_fract_y
_atom_site_fract_z
Si Si1 0.172233 0.176510 0.495840
Si Si2 0.589547 0.676991 0.831675
Si Si3 0.422124 0.673655 0.665078
Si Si4 0.826838 0.321864 0.014891
Si Si5 0.422985 0.673853 0.865120
Si Si6 0.071411 0.678823 0.646231
O O1 0.250000 0.250000 0.500000
O O2 0.145690 0.198339 0.395931
O O3 0.116813 0.262463 0.561384
O O4 0.175740 0.000000 0.521994
O O5 0.608121 0.500000 0.829161
O O6 0.644569 0.760086 0.893508
O O7 0.508149 0.706273 0.869161
O O8 0.601195 0.742539 0.733214
O O9 0.451383 0.500000 0.659687
O O10 0.396316 0.709872 0.766469
O O11 0.487681 0.781994 0.632865
O O12 0.817387 0.500000 0.023305
O O13 0.750000 0.250000 0.000000
O O14 0.882087 0.285212 0.933104
O O15 0.405514 0.500000 0.892649
O O16 0.080905 0.500000 0.655264
#
# Coordination Sequence:
#
# PCOD8109842 Si02
#       6
#     8   8   8   8   8   8
#     4  11  23  39  58  83 118 157 197 240 290 344
#     4  10  21  40  64  87 114 150 191 237 288 341
#     4   9  20  39  62  85 113 152 193 237 287 338
#     4  12  25  39  57  84 119 156 194 236 286 344
#     4   9  19  38  62  86 113 147 190 239 290 341
#     4  11  22  37  60  89 118 149 190 239 288 343
#
# _framework density 19.619399000000001
#
# number of rings (size 3 to 8) (size 9 to 14) (size 15 to 20)
#    0.000    1.667    0.000    6.000    0.000   10.000 
#    0.000    5.000    0.000    0.000    0.000    0.000 
#    0.000    0.000    0.000    0.000    0.000    0.000 
#
# Total GULP energy -297723.399658 kJ/mol
# GULP energy per Si atom -12405.141652 kJ/mol
# Density = 1.957474 g / cm^3
# Si number density = 19.619399 Si / 1000 Ang^3
#
#
#
# Elastic Constant Matrix: (Units=GPa)
#
#
# Indices 1 2 3 4 5 6 
#
# 1 61.2278 33.9590 30.2415 0.0000 30.5259 0.0000
# 2 33.9590 130.5282 35.7276 0.0000 14.3339 0.0000
# 3 30.2415 35.7276 82.5168 0.0000 24.3168 0.0000
# 4 0.0000 0.0000 0.0000 34.5279 0.0000 -0.9726
# 5 30.5259 14.3339 24.3168 0.0000 27.1463 0.0000
# 6 0.0000 0.0000 0.0000 -0.9726 0.0000 36.7966
#
#
#
# Elastic Compliance Matrix: (Units=1/GPa)
#
#
# Indices 1 2 3 4 5 6 
#
# 1 0.041136 -0.006026 0.000309 0.000000 -0.043351 0.000000
# 2 -0.006026 0.009629 -0.003341 0.000000 0.004685 0.000000
# 3 0.000309 -0.003341 0.017710 0.000000 -0.014446 0.000000
# 4 0.000000 0.000000 0.000000 0.028984 0.000000 0.000766
# 5 -0.043351 0.004685 -0.014446 0.000000 0.096053 0.000000
# 6 0.000000 0.000000 0.000000 0.000766 0.000000 0.027197
#
#
# Mechanical properties :
#
#
# Convention : Reuss Voigt Hill
#
# Bulk Modulus (GPa) = 19.85823 52.68099 36.26961
# Shear Modulus (GPa) = 19.56102 31.31714 25.43908
#
# Velocity S-wave (km/s) = 3.16100 3.99962 3.60478
# Velocity P-wave (km/s) = 4.84420 6.94544 5.98771
#
# Compressibility (1/GPa) = 0.05035696
#
# Stress axis : x y z
#
# Youngs Moduli (GPa) = 24.30981 103.85280 56.46682
#
# Poissons Ratio (x) = 0.62581 -0.01742
# Poissons Ratio (y) = 0.14649 0.18867
# Poissons Ratio (z) = -0.00750 0.34700
#
# Static dielectric constant tensor:
#      x y z
#    x 3.272400 0.000000 0.266030 
#    y 0.000000 3.658510 0.000000 
#    z 0.266030 0.000000 3.708810 
# 
# 
# High freq. dielectric constant tensor:
#      x y z
#    x 1.757080 0.000000 0.008660 
#    y 0.000000 1.771940 0.000000 
#    z 0.008660 0.000000 1.779800 
# 
# From -- ./inp_files/221562.got.cif
#   From: 2010.06.25/outbox.cif.g09.slc.cpg/sg12_111_cif.got.tgz:221562.got - 2010.06.28 00:19:55.
