data_PCOD8109895
_publ_section_title
;
Structure prediction by ZEFSAII (Michael W. Deem and Ramdas Pophale) SiO2 
 PCOD8109895
Probable space group: C 2/M
;
_chemical_formula_sum "Si O2"
_cell_formula_units_Z 48
_cell_length_a 29.167959
_cell_length_b 8.658910
_cell_length_c 15.996840
_cell_angle_alpha 90.000000
_cell_angle_beta 144.577883
_cell_angle_gamma 90.000000
_cell_volume 2341.686124
_symmetry_space_group_name_H-M "C 2/M"
_symmetry_group_IT_number 12
_symmetry_cell_setting 'monoclinic'
loop_
_space_group_symop_operation_xyz
x,y,z
-x,y,-z
-x,-y,-z
x,-y,z
1/2+x,1/2+y,z
1/2-x,1/2+y,-z
1/2-x,1/2-y,-z
1/2+x,1/2-y,z
loop_
_atom_site_type_symbol
_atom_site_label
_atom_site_fract_x
_atom_site_fract_y
_atom_site_fract_z
Si Si1 0.081767 0.826717 0.586679
Si Si2 0.618804 0.178320 0.474964
Si Si3 0.232378 0.319463 0.384309
Si Si4 0.421679 0.317236 0.931920
Si Si5 0.448702 0.818385 0.152754
Si Si6 0.166369 0.173095 0.883400
O O1 0.109116 0.704594 0.558774
O O2 0.141944 0.829709 0.751353
O O3 0.000000 0.762763 0.500000
O O4 0.071631 0.000000 0.533161
O O5 0.690685 0.287492 0.556364
O O6 0.539256 0.227423 0.307649
O O7 0.639676 0.000000 0.488667
O O8 0.217140 0.500000 0.369498
O O9 0.250000 0.250000 0.500000
O O10 0.154885 0.245738 0.228855
O O11 0.417544 0.500000 0.925028
O O12 0.500000 0.257758 0.000000
O O13 0.422157 0.261247 0.027893
O O14 0.393172 0.766943 0.146342
O O15 0.439580 0.000000 0.128128
O O16 0.172156 0.000000 0.928399
O O17 0.250000 0.250000 0.000000
#
# Coordination Sequence:
#
# PCOD8109895 Si02
#       6
#     8   8   8   8   8   8
#     4  10  21  40  64  91 125 170 219 264 318 376
#     4  11  24  41  66  97 131 170 216 266 319 380
#     4  12  26  45  70  98 132 168 211 263 317 380
#     4  11  25  45  70  98 129 168 212 261 321 384
#     4  11  24  42  65  95 130 170 215 265 323 382
#     4  11  24  41  63  90 128 172 217 270 322 381
#
# _framework density 20.498049999999999
#
# number of rings (size 3 to 8) (size 9 to 14) (size 15 to 20)
#    0.000    1.000    1.667    4.500    2.333    7.667 
#    0.000    0.000    0.000    0.000    0.000    0.000 
#    0.000    0.000    0.000    0.000    0.000    0.000 
#
# Total GULP energy -297670.459742 kJ/mol
# GULP energy per Si atom -12402.935823 kJ/mol
# Density = 2.045140 g / cm^3
# Si number density = 20.498050 Si / 1000 Ang^3
#
#
#
# Elastic Constant Matrix: (Units=GPa)
#
#
# Indices 1 2 3 4 5 6 
#
# 1 101.6400 37.2826 62.2498 0.0000 3.4725 0.0000
# 2 37.2826 91.9476 51.7036 0.0000 4.9437 0.0000
# 3 62.2498 51.7036 145.1269 0.0000 8.1386 0.0000
# 4 0.0000 0.0000 0.0000 31.8068 0.0000 -3.0925
# 5 3.4725 4.9437 8.1386 0.0000 43.7832 0.0000
# 6 0.0000 0.0000 0.0000 -3.0925 0.0000 38.5702
#
#
#
# Elastic Compliance Matrix: (Units=1/GPa)
#
#
# Indices 1 2 3 4 5 6 
#
# 1 0.013921 -0.002864 -0.004959 0.000000 0.000141 0.000000
# 2 -0.002864 0.014207 -0.003796 0.000000 -0.000672 0.000000
# 3 -0.004959 -0.003796 0.010432 0.000000 -0.001117 0.000000
# 4 0.000000 0.000000 0.000000 0.031687 0.000000 0.002541
# 5 0.000141 -0.000672 -0.001117 0.000000 0.023112 0.000000
# 6 0.000000 0.000000 0.000000 0.002541 0.000000 0.026130
#
#
# Mechanical properties :
#
#
# Convention : Reuss Voigt Hill
#
# Bulk Modulus (GPa) = 65.25484 71.24294 68.24889
# Shear Modulus (GPa) = 33.82132 35.33062 34.57597
#
# Velocity S-wave (km/s) = 4.06640 4.15614 4.11151
# Velocity P-wave (km/s) = 7.34515 7.60676 7.47710
#
# Compressibility (1/GPa) = 0.01532453
#
# Stress axis : x y z
#
# Youngs Moduli (GPa) = 71.83141 70.38599 95.85462
#
# Poissons Ratio (x) = 0.20158 0.47534
# Poissons Ratio (y) = 0.20572 0.36382
# Poissons Ratio (z) = 0.35621 0.26715
#
# Static dielectric constant tensor:
#      x y z
#    x 3.721390 0.000000 0.090800 
#    y 0.000000 4.158250 0.000000 
#    z 0.090800 0.000000 3.802050 
# 
# 
# High freq. dielectric constant tensor:
#      x y z
#    x 1.813950 0.000000 0.002110 
#    y 0.000000 1.811490 0.000000 
#    z 0.002110 0.000000 1.816750 
# 
# From -- ./inp_files/244903.got.cif
#   From: 2010.06.25/outbox.cif.g09.slc.cpg/sg12_123_cif.got.tgz:244903.got - 2010.06.28 00:19:55.
