data_PCOD8109920
_publ_section_title
;
Structure prediction by ZEFSAII (Michael W. Deem and Ramdas Pophale) SiO2 
 PCOD8109920
Probable space group: C 2/M
;
_chemical_formula_sum "Si O2"
_cell_formula_units_Z 56
_cell_length_a 12.369006
_cell_length_b 20.211511
_cell_length_c 11.393758
_cell_angle_alpha 90.000000
_cell_angle_beta 106.326165
_cell_angle_gamma 90.000000
_cell_volume 2733.541486
_symmetry_space_group_name_H-M "C 2/M"
_symmetry_group_IT_number 12
_symmetry_cell_setting 'monoclinic'
loop_
_space_group_symop_operation_xyz
x,y,z
-x,y,-z
-x,-y,-z
x,-y,z
1/2+x,1/2+y,z
1/2-x,1/2+y,-z
1/2-x,1/2-y,-z
1/2+x,1/2-y,z
loop_
_atom_site_type_symbol
_atom_site_label
_atom_site_fract_x
_atom_site_fract_y
_atom_site_fract_z
Si Si1 0.015982 0.360782 0.638471
Si Si2 0.981690 0.881220 0.860117
Si Si3 0.695021 0.424597 0.812889
Si Si4 0.985126 0.270297 0.829732
Si Si5 0.285394 0.923439 0.594806
Si Si6 0.179796 0.307236 0.040449
Si Si7 0.748395 0.421048 0.324061
O O1 0.136664 0.394199 0.699352
O O2 0.000000 0.341737 0.500000
O O3 0.997130 0.291182 0.698672
O O4 0.918598 0.410932 0.651123
O O5 0.061710 0.924259 0.799472
O O6 0.019785 0.805529 0.856359
O O7 0.853339 0.891820 0.782776
O O8 0.000000 0.903662 0.000000
O O9 0.740604 0.500000 0.840103
O O10 0.717395 0.396857 0.687765
O O11 0.754614 0.376652 0.926402
O O12 0.859432 0.282083 0.842160
O O13 0.070018 0.318161 0.926987
O O14 0.239990 0.894251 0.456535
O O15 0.263383 0.000000 0.580195
O O16 0.250000 0.250000 0.000000
O O17 0.749222 0.500000 0.318178
#
# Coordination Sequence:
#
# PCOD8109920 Si02
#       7
#     8   8   8   8   8   8   8
#     4  10  21  40  64  96 126 159 208 265 314 371
#     4  12  25  43  60  88 128 171 213 256 311 380
#     4  11  23  40  66  94 126 161 207 270 316 368
#     4  11  23  39  63  90 121 167 215 255 314 378
#     4   9  19  41  66  92 125 161 205 259 322 376
#     4  11  21  42  65  87 123 172 212 253 314 383
#     4  10  23  41  65  92 124 168 208 253 317 382
#
# _framework density 20.486243999999999
#
# number of rings (size 3 to 8) (size 9 to 14) (size 15 to 20)
#    0.000    1.429    4.286    0.857    4.000    3.429 
#    2.571    5.714    0.000    0.000    0.000    0.000 
#    0.000    0.000    0.000    0.000    0.000    0.000 
#
# Total GULP energy -347101.862756 kJ/mol
# GULP energy per Si atom -12396.495098 kJ/mol
# Density = 2.043962 g / cm^3
# Si number density = 20.486244 Si / 1000 Ang^3
#
#
#
# Elastic Constant Matrix: (Units=GPa)
#
#
# Indices 1 2 3 4 5 6 
#
# 1 136.2344 27.1590 77.6683 0.0000 -6.8773 0.0000
# 2 27.1590 76.2252 38.5431 0.0000 -4.1129 0.0000
# 3 77.6683 38.5431 114.9344 0.0000 -3.0257 0.0000
# 4 0.0000 0.0000 0.0000 29.0578 0.0000 -3.4221
# 5 -6.8773 -4.1129 -3.0257 0.0000 40.3329 0.0000
# 6 0.0000 0.0000 0.0000 -3.4221 0.0000 31.1048
#
#
#
# Elastic Compliance Matrix: (Units=1/GPa)
#
#
# Indices 1 2 3 4 5 6 
#
# 1 0.012025 -0.000141 -0.008041 0.000000 0.001433 0.000000
# 2 -0.000141 0.015859 -0.005191 0.000000 0.001204 0.000000
# 3 -0.008041 -0.005191 0.015857 0.000000 -0.000711 0.000000
# 4 0.000000 0.000000 0.000000 0.034866 0.000000 0.003836
# 5 0.001433 0.001204 -0.000711 0.000000 0.025107 0.000000
# 6 0.000000 0.000000 0.000000 0.003836 0.000000 0.032571
#
#
# Mechanical properties :
#
#
# Convention : Reuss Voigt Hill
#
# Bulk Modulus (GPa) = 58.84474 68.23722 63.54098
# Shear Modulus (GPa) = 29.63896 32.36734 31.00315
#
# Velocity S-wave (km/s) = 3.80777 3.97918 3.89442
# Velocity P-wave (km/s) = 6.93676 7.38193 7.16280
#
# Compressibility (1/GPa) = 0.01699387
#
# Stress axis : x y z
#
# Youngs Moduli (GPa) = 83.16023 63.05475 63.06558
#
# Poissons Ratio (x) = 0.00891 0.50711
# Poissons Ratio (y) = 0.01175 0.32739
# Poissons Ratio (z) = 0.66868 0.32733
#
# Static dielectric constant tensor:
#      x y z
#    x 4.028360 0.000000 -0.203580 
#    y 0.000000 3.480210 0.000000 
#    z -0.203580 0.000000 3.899310 
# 
# 
# High freq. dielectric constant tensor:
#      x y z
#    x 1.816260 0.000000 -0.013670 
#    y 0.000000 1.784420 0.000000 
#    z -0.013670 0.000000 1.796310 
# 
# From -- ./inp_files/133959.got.cif
#   From: 2010.06.25/outbox.cif.g09.slc.cpg/sg12_67_cif.got.tgz:133959.got - 2010.06.28 00:19:55.
