data_PCOD8109432
_publ_section_title
;
Structure prediction by ZEFSAII (Michael W. Deem and Ramdas Pophale) SiO2 
 PCOD8109432
Probable space group: C 2/M
;
_chemical_formula_sum "Si O2"
_cell_formula_units_Z 44
_cell_length_a 24.994658
_cell_length_b 15.632245
_cell_length_c 5.497303
_cell_angle_alpha 90.000000
_cell_angle_beta 94.348474
_cell_angle_gamma 90.000000
_cell_volume 2141.737489
_symmetry_space_group_name_H-M "C 2/M"
_symmetry_group_IT_number 12
_symmetry_cell_setting 'monoclinic'
loop_
_space_group_symop_operation_xyz
x,y,z
-x,y,-z
-x,-y,-z
x,-y,z
1/2+x,1/2+y,z
1/2-x,1/2+y,-z
1/2-x,1/2-y,-z
1/2+x,1/2-y,z
loop_
_atom_site_type_symbol
_atom_site_label
_atom_site_fract_x
_atom_site_fract_y
_atom_site_fract_z
Si Si1 0.647257 0.594992 0.863693
Si Si2 0.297195 0.356006 0.627648
Si Si3 0.916323 0.594270 0.806573
Si Si4 0.321361 0.172564 0.500754
Si Si5 0.593548 0.236809 0.812100
Si Si6 0.500000 0.162944 0.500000
O O1 0.622224 0.500000 0.847866
O O2 0.676340 0.609393 0.612968
O O3 0.599283 0.663552 0.887506
O O4 0.685241 0.598826 0.115721
O O5 0.309741 0.254962 0.667973
O O6 0.233819 0.374249 0.583833
O O7 0.913835 0.500000 0.930928
O O8 0.861391 0.604742 0.636657
O O9 0.971098 0.597438 0.672219
O O10 0.923256 0.674800 0.980140
O O11 0.348597 0.206450 0.263769
O O12 0.545773 0.228470 0.603939
#
# Coordination Sequence:
#
# PCOD8109432 Si02
#       6
#     8   8   8   8   8   4
#     4  11  23  40  64  94 128 168 211 255 306 365
#     4  10  21  39  64  91 129 172 209 251 301 364
#     4  11  22  38  61  90 121 157 202 256 315 379
#     4   9  21  37  60  88 127 164 209 249 306 358
#     4  10  22  40  62  88 120 162 206 260 310 374
#     4  10  23  42  61  84 118 158 201 260 325 376
#
# _framework density 20.544067999999999
#
# number of rings (size 3 to 8) (size 9 to 14) (size 15 to 20)
#    0.000    1.818    1.818    1.364    2.545    8.000 
#    0.000    0.455    0.000    2.182    0.000    0.000 
#    0.000    0.000    0.000    0.000    0.000    0.000 
#
# Total GULP energy -272610.542887 kJ/mol
# GULP energy per Si atom -12391.388313 kJ/mol
# Density = 2.049731 g / cm^3
# Si number density = 20.544068 Si / 1000 Ang^3
#
#
#
# Elastic Constant Matrix: (Units=GPa)
#
#
# Indices 1 2 3 4 5 6 
#
# 1 92.1328 44.6390 20.8884 0.0000 -10.8873 0.0000
# 2 44.6390 158.4181 38.6113 0.0000 2.8394 0.0000
# 3 20.8884 38.6113 100.8266 0.0000 -3.0850 0.0000
# 4 0.0000 0.0000 0.0000 15.8367 0.0000 -4.4462
# 5 -10.8873 2.8394 -3.0850 0.0000 16.8270 0.0000
# 6 0.0000 0.0000 0.0000 -4.4462 0.0000 11.8135
#
#
#
# Elastic Compliance Matrix: (Units=1/GPa)
#
#
# Indices 1 2 3 4 5 6 
#
# 1 0.014122 -0.003871 -0.001150 0.000000 0.009579 0.000000
# 2 -0.003871 0.008070 -0.002420 0.000000 -0.004310 0.000000
# 3 -0.001150 -0.002420 0.011135 0.000000 0.001706 0.000000
# 4 0.000000 0.000000 0.000000 0.070605 0.000000 0.026573
# 5 0.009579 -0.004310 0.001706 0.000000 0.066666 0.000000
# 6 0.000000 0.000000 0.000000 0.026573 0.000000 0.094650
#
#
# Mechanical properties :
#
#
# Convention : Reuss Voigt Hill
#
# Bulk Modulus (GPa) = 54.21565 62.18388 58.19977
# Shear Modulus (GPa) = 17.46539 25.37803 21.42171
#
# Velocity S-wave (km/s) = 2.91888 3.51849 3.23262
# Velocity P-wave (km/s) = 6.14875 6.84402 6.50568
#
# Compressibility (1/GPa) = 0.01844486
#
# Stress axis : x y z
#
# Youngs Moduli (GPa) = 70.81136 123.91170 89.80344
#
# Poissons Ratio (x) = 0.47962 0.10330
# Poissons Ratio (y) = 0.27408 0.21737
# Poissons Ratio (z) = 0.08146 0.29992
#
# Static dielectric constant tensor:
#      x y z
#    x 3.780760 0.000000 0.045090 
#    y 0.000000 3.764090 0.000000 
#    z 0.045090 0.000000 3.760080 
# 
# 
# High freq. dielectric constant tensor:
#      x y z
#    x 1.796810 0.000000 0.001940 
#    y 0.000000 1.798320 0.000000 
#    z 0.001940 0.000000 1.802140 
# 
# From -- ./inp_files/24270.got.cif
#   From: 2010.06.25/outbox.cif.g09.slc.cpg/sg12_13_cif.got.tgz:24270.got - 2010.06.28 00:19:55.
