data_PCOD8109595
_publ_section_title
;
Structure prediction by ZEFSAII (Michael W. Deem and Ramdas Pophale) SiO2 
 PCOD8109595
Probable space group: C 2/M
;
_chemical_formula_sum "Si O2"
_cell_formula_units_Z 48
_cell_length_a 10.436452
_cell_length_b 17.807332
_cell_length_c 19.053156
_cell_angle_alpha 90.000000
_cell_angle_beta 147.783265
_cell_angle_gamma 90.000000
_cell_volume 1887.758405
_symmetry_space_group_name_H-M "C 2/M"
_symmetry_group_IT_number 12
_symmetry_cell_setting 'monoclinic'
loop_
_space_group_symop_operation_xyz
x,y,z
-x,y,-z
-x,-y,-z
x,-y,z
1/2+x,1/2+y,z
1/2-x,1/2+y,-z
1/2-x,1/2-y,-z
1/2+x,1/2-y,z
loop_
_atom_site_type_symbol
_atom_site_label
_atom_site_fract_x
_atom_site_fract_y
_atom_site_fract_z
Si Si1 0.743116 0.584365 0.581490
Si Si2 0.008190 0.632583 0.836906
Si Si3 0.748616 0.414045 0.846196
Si Si4 0.483939 0.416326 0.910022
Si Si5 0.572416 0.718431 0.271093
Si Si6 0.061810 0.686884 0.661291
O O1 0.500000 0.621265 0.500000
O O2 0.691700 0.500000 0.534390
O O3 0.954278 0.590492 0.737780
O O4 0.840221 0.627561 0.557037
O O5 0.043568 0.721004 0.836606
O O6 0.779520 0.616020 0.780831
O O7 0.240847 0.600673 0.985637
O O8 0.657914 0.500000 0.804680
O O9 0.550398 0.363274 0.794253
O O10 0.000000 0.403650 0.000000
O O11 0.410359 0.500000 0.848432
O O12 0.304741 0.351419 0.803141
O O13 0.500000 0.413940 0.000000
O O14 0.856309 0.713426 0.378662
O O15 0.538452 0.746112 0.335407
#
# Coordination Sequence:
#
# PCOD8109595 Si02
#       6
#     8   8   8   8   8   8
#     4  10  21  39  66  94 121 158 208 263 317 374
#     4  11  22  39  61  89 128 167 208 256 315 382
#     4  11  24  38  58  89 129 171 210 255 316 381
#     4  11  20  32  56  88 120 158 198 255 314 369
#     4  11  23  38  60  86 125 163 212 252 311 370
#     4  11  23  39  59  90 122 162 207 258 308 383
#
# _framework density 25.426983
#
# number of rings (size 3 to 8) (size 9 to 14) (size 15 to 20)
#    0.000    1.167    5.000    3.000    2.333    4.000 
#    0.000    3.333    0.000    0.000    0.000    3.500 
#    0.000    0.000    0.000    0.000    0.000    0.000 
#
# Total GULP energy -297432.541617 kJ/mol
# GULP energy per Si atom -12393.022567 kJ/mol
# Density = 2.536911 g / cm^3
# Si number density = 25.426983 Si / 1000 Ang^3
#
#
#
# Elastic Constant Matrix: (Units=GPa)
#
#
# Indices 1 2 3 4 5 6 
#
# 1 167.6683 61.2808 19.3498 -0.0005 48.9046 0.0005
# 2 61.2808 159.8735 7.9122 0.0005 18.6820 -0.0003
# 3 19.3498 7.9122 34.6037 -0.0086 20.4396 -0.0012
# 4 -0.0005 0.0005 -0.0086 23.8545 -0.0003 20.1340
# 5 48.9046 18.6820 20.4396 -0.0003 43.3141 0.0006
# 6 0.0005 -0.0003 -0.0012 20.1340 0.0006 37.1093
#
#
#
# Elastic Compliance Matrix: (Units=1/GPa)
#
#
# Indices 1 2 3 4 5 6 
#
# 1 0.009869 -0.002604 0.001380 0.000001 -0.010671 -0.000001
# 2 -0.002604 0.007276 -0.000126 -0.000001 -0.000138 0.000000
# 3 0.001380 -0.000126 0.040268 0.000024 -0.020506 -0.000011
# 4 0.000001 -0.000001 0.000024 0.077336 -0.000011 -0.041959
# 5 -0.010671 -0.000138 -0.020506 -0.000011 0.044872 0.000005
# 6 -0.000001 0.000000 -0.000011 -0.041959 0.000005 0.049713
#
#
# Mechanical properties :
#
#
# Convention : Reuss Voigt Hill
#
# Bulk Modulus (GPa) = 18.27722 59.91456 39.09589
# Shear Modulus (GPa) = 19.97834 39.09575 29.53705
#
# Velocity S-wave (km/s) = 2.80610 3.92544 3.41198
# Velocity P-wave (km/s) = 4.20745 6.64530 5.56159
#
# Compressibility (1/GPa) = 0.05471292
#
# Stress axis : x y z
#
# Youngs Moduli (GPa) = 101.32579 137.44622 24.83349
#
# Poissons Ratio (x) = 0.35795 -0.03427
# Poissons Ratio (y) = 0.26388 0.00312
# Poissons Ratio (z) = -0.13981 0.01726
#
# Static dielectric constant tensor:
#      x y z
#    x 5.244530 0.000000 0.508510 
#    y 0.000000 4.764350 0.000000 
#    z 0.508510 0.000000 4.200850 
# 
# 
# High freq. dielectric constant tensor:
#      x y z
#    x 2.038870 0.000000 0.026620 
#    y 0.000000 2.016410 0.000000 
#    z 0.026620 0.000000 1.974710 
# 
# From -- ./inp_files/336481.got.cif
#   From: 2010.06.25/outbox.cif.g09.slc.cpg/sg12_169_cif.got.tgz:336481.got - 2010.06.28 00:19:55.
