data_PCOD8109728
_publ_section_title
;
Structure prediction by ZEFSAII (Michael W. Deem and Ramdas Pophale) SiO2 
 PCOD8109728
Probable space group: C 2/M
;
_chemical_formula_sum "Si O2"
_cell_formula_units_Z 40
_cell_length_a 18.573657
_cell_length_b 9.497847
_cell_length_c 10.397264
_cell_angle_alpha 90.000000
_cell_angle_beta 73.380633
_cell_angle_gamma 90.000000
_cell_volume 1757.557696
_symmetry_space_group_name_H-M "C 2/M"
_symmetry_group_IT_number 12
_symmetry_cell_setting 'monoclinic'
loop_
_space_group_symop_operation_xyz
x,y,z
-x,y,-z
-x,-y,-z
x,-y,z
1/2+x,1/2+y,z
1/2-x,1/2+y,-z
1/2-x,1/2-y,-z
1/2+x,1/2-y,z
loop_
_atom_site_type_symbol
_atom_site_label
_atom_site_fract_x
_atom_site_fract_y
_atom_site_fract_z
Si Si1 0.529751 0.662328 0.214849
Si Si2 0.245246 0.287126 0.784863
Si Si3 0.387237 0.170296 0.324843
Si Si4 0.658175 0.853115 0.073542
Si Si5 0.109025 0.151392 0.431681
O O1 0.517522 0.500000 0.179596
O O2 0.458743 0.760352 0.216792
O O3 0.601301 0.721762 0.100025
O O4 0.542471 0.677712 0.362214
O O5 0.185397 0.257389 0.702864
O O6 0.281625 0.153590 0.839635
O O7 0.313844 0.371054 0.686180
O O8 0.202066 0.372576 0.917562
O O9 0.386190 0.217748 0.474156
O O10 0.387117 0.000000 0.315063
O O11 0.613417 0.000000 0.117812
O O12 0.094437 0.000000 0.510105
#
# Coordination Sequence:
#
# PCOD8109728 Si02
#       5
#     8   8   8   8   8
#     4  10  23  42  62  87 122 160 197 245 302 352
#     4  10  23  39  61  91 123 154 193 247 303 350
#     4  12  24  38  60  90 123 158 200 247 293 350
#     4  10  21  41  67  89 115 157 204 245 292 357
#     4  10  21  40  62  84 118 160 198 242 299 355
#
# _framework density 22.758852999999998
#
# number of rings (size 3 to 8) (size 9 to 14) (size 15 to 20)
#    0.000    1.600    0.000    4.200    0.000   14.400 
#    0.000    3.000    0.000    0.000    0.000    0.000 
#    0.000    0.000    0.000    0.000    0.000    0.000 
#
# Total GULP energy -247772.497388 kJ/mol
# GULP energy per Si atom -12388.624869 kJ/mol
# Density = 2.270705 g / cm^3
# Si number density = 22.758853 Si / 1000 Ang^3
#
#
#
# Elastic Constant Matrix: (Units=GPa)
#
#
# Indices 1 2 3 4 5 6 
#
# 1 68.9659 24.4507 -2.2138 0.0000 8.9498 0.0000
# 2 24.4507 123.8203 28.0539 0.0000 -10.7547 0.0000
# 3 -2.2138 28.0539 50.1892 0.0000 -2.1038 0.0000
# 4 0.0000 0.0000 0.0000 -28.7658 0.0000 -16.3306
# 5 8.9498 -10.7547 -2.1038 0.0000 32.2310 0.0000
# 6 0.0000 0.0000 0.0000 -16.3306 0.0000 19.1460
#
#
#
# Elastic Compliance Matrix: (Units=1/GPa)
#
#
# Indices 1 2 3 4 5 6 
#
# 1 0.017005 -0.004575 0.003054 0.000000 -0.006049 0.000000
# 2 -0.004575 0.010729 -0.006012 0.000000 0.004458 0.000000
# 3 0.003054 -0.006012 0.023364 0.000000 -0.001329 0.000000
# 4 0.000000 0.000000 0.000000 -0.023422 0.000000 -0.019978
# 5 -0.006049 0.004458 -0.001329 0.000000 0.034107 0.000000
# 6 0.000000 0.000000 0.000000 -0.019978 0.000000 0.035190
#
#
# Mechanical properties :
#
#
# Convention : Reuss Voigt Hill
#
# Bulk Modulus (GPa) = 27.75360 38.17298 32.96329
# Shear Modulus (GPa) = 40.30615 17.36787 28.83701
#
# Velocity S-wave (km/s) = 4.21290 2.76547 3.56345
# Velocity P-wave (km/s) = 5.99048 5.19676 5.60768
#
# Compressibility (1/GPa) = 0.03603136
#
# Stress axis : x y z
#
# Youngs Moduli (GPa) = 58.80591 93.20467 42.80063
#
# Poissons Ratio (x) = 0.42644 -0.13071
# Poissons Ratio (y) = 0.26906 0.25732
# Poissons Ratio (z) = -0.17959 0.56035
#
# Static dielectric constant tensor:
#      x y z
#    x 4.246120 0.000000 -0.006210 
#    y 0.000000 3.817180 0.000000 
#    z -0.006210 0.000000 3.946110 
# 
# 
# High freq. dielectric constant tensor:
#      x y z
#    x 1.910010 0.000000 -0.010670 
#    y 0.000000 1.890500 0.000000 
#    z -0.010670 0.000000 1.888910 
# 
# From -- ./inp_files/151838.got.cif
#   From: 2010.06.25/outbox.cif.g09.slc.cpg/sg12_76_cif.got.tgz:151838.got - 2010.06.28 00:19:55.
