data_PCOD8109473
_publ_section_title
;
Structure prediction by ZEFSAII (Michael W. Deem and Ramdas Pophale) SiO2 
 PCOD8109473
Probable space group: C 2/M
;
_chemical_formula_sum "Si O2"
_cell_formula_units_Z 64
_cell_length_a 28.971447
_cell_length_b 8.986502
_cell_length_c 18.725519
_cell_angle_alpha 90.000000
_cell_angle_beta 40.742973
_cell_angle_gamma 90.000000
_cell_volume 3181.898131
_symmetry_space_group_name_H-M "C 2/M"
_symmetry_group_IT_number 12
_symmetry_cell_setting 'monoclinic'
loop_
_space_group_symop_operation_xyz
x,y,z
-x,y,-z
-x,-y,-z
x,-y,z
1/2+x,1/2+y,z
1/2-x,1/2+y,-z
1/2-x,1/2-y,-z
1/2+x,1/2-y,z
loop_
_atom_site_type_symbol
_atom_site_label
_atom_site_fract_x
_atom_site_fract_y
_atom_site_fract_z
Si Si1 0.422686 0.668685 0.666610
Si Si2 0.647109 0.829703 0.379152
Si Si3 0.889032 0.671320 0.953520
Si Si4 0.203598 0.328127 0.807185
Si Si5 0.575779 0.669812 0.881386
Si Si6 0.822744 0.168035 0.907380
Si Si7 0.974771 0.169470 0.210537
Si Si8 0.039701 0.329060 0.624460
O O1 0.447016 0.500000 0.622392
O O2 0.408567 0.750646 0.608665
O O3 0.348223 0.668905 0.795968
O O4 0.481559 0.747301 0.644991
O O5 0.724214 0.758096 0.290552
O O6 0.614975 0.817089 0.496142
O O7 0.654589 0.000000 0.345716
O O8 0.909272 0.500000 0.921595
O O9 0.879469 0.741460 0.886781
O O10 0.955281 0.759756 0.907903
O O11 0.819465 0.692937 0.083283
O O12 0.216738 0.500000 0.773615
O O13 0.139897 0.270559 0.833105
O O14 0.586979 0.500000 0.894322
O O15 0.581124 0.678297 0.788606
O O16 0.500000 0.727678 0.000000
O O17 0.815270 0.000000 0.945034
O O18 0.750000 0.250000 0.000000
O O19 0.949757 0.258107 0.309810
O O20 0.989461 0.000000 0.216566
O O21 0.016430 0.500000 0.660833
#
# Coordination Sequence:
#
# PCOD8109473 Si02
#       8
#     8   8   8   8   8   8   8   8
#     4  11  23  39  61  90 122 159 208 257 302 359
#     4  11  25  43  63  88 121 164 210 255 307 363
#     4  11  22  36  57  86 122 159 196 244 301 360
#     4  11  24  40  62  93 126 161 204 253 307 364
#     4  10  21  39  64  93 126 161 199 246 303 368
#     4  11  23  36  53  82 120 161 203 245 300 361
#     4  11  22  38  63  93 121 156 200 245 301 362
#     4  11  24  42  64  90 122 162 209 257 305 359
#
# _framework density 20.113780999999999
#
# number of rings (size 3 to 8) (size 9 to 14) (size 15 to 20)
#    0.000    1.125    2.500    3.750    0.000   10.750 
#    0.000    0.625    0.000    0.000    0.000    0.000 
#    0.000    0.000    0.000    0.000    0.000    0.000 
#
# Total GULP energy -396838.109629 kJ/mol
# GULP energy per Si atom -12401.190926 kJ/mol
# Density = 2.006800 g / cm^3
# Si number density = 20.113781 Si / 1000 Ang^3
#
#
#
# Elastic Constant Matrix: (Units=GPa)
#
#
# Indices 1 2 3 4 5 6 
#
# 1 76.2449 44.4776 27.6767 0.0094 11.1652 -0.0091
# 2 44.4776 156.2358 49.2815 0.0066 6.5511 -0.0047
# 3 27.6767 49.2815 97.2784 -0.0070 5.7281 -0.0022
# 4 0.0094 0.0066 -0.0070 31.0494 0.0046 -0.5776
# 5 11.1652 6.5511 5.7281 0.0046 24.1509 0.0027
# 6 -0.0091 -0.0047 -0.0022 -0.5776 0.0027 36.6484
#
#
#
# Elastic Compliance Matrix: (Units=1/GPa)
#
#
# Indices 1 2 3 4 5 6 
#
# 1 0.017206 -0.003817 -0.002590 -0.000004 -0.006305 0.000004
# 2 -0.003817 0.008497 -0.003232 -0.000001 0.000226 0.000000
# 3 -0.002590 -0.003232 0.012710 0.000004 -0.000940 0.000000
# 4 -0.000004 -0.000001 0.000004 0.032216 -0.000005 0.000508
# 5 -0.006305 0.000226 -0.000940 -0.000005 0.044483 -0.000005
# 6 0.000004 0.000000 0.000000 0.000508 -0.000005 0.027294
#
#
# Mechanical properties :
#
#
# Convention : Reuss Voigt Hill
#
# Bulk Modulus (GPa) = 52.26320 63.62564 57.94442
# Shear Modulus (GPa) = 29.75096 32.25798 31.00447
#
# Velocity S-wave (km/s) = 3.85012 4.00906 3.93039
# Velocity P-wave (km/s) = 6.76792 7.28914 7.03336
#
# Compressibility (1/GPa) = 0.01913392
#
# Stress axis : x y z
#
# Youngs Moduli (GPa) = 58.12041 117.68652 78.68115
#
# Poissons Ratio (x) = 0.44917 0.20382
# Poissons Ratio (y) = 0.22183 0.25431
# Poissons Ratio (z) = 0.15055 0.38038
#
# Static dielectric constant tensor:
#      x y z
#    x 3.639650 -0.000030 0.149360 
#    y -0.000030 3.820720 0.000040 
#    z 0.149360 0.000040 3.714730 
# 
# 
# High freq. dielectric constant tensor:
#      x y z
#    x 1.777040 0.000000 0.007610 
#    y 0.000000 1.801660 0.000000 
#    z 0.007610 0.000000 1.787000 
# 
# From -- ./inp_files/295645.got.cif
#   From: 2010.06.25/outbox.cif.g09.slc.cpg/sg12_148_cif.got.tgz:295645.got - 2010.06.28 00:19:55.
