data_PCOD8109274
_publ_section_title
;
Structure prediction by ZEFSAII (Michael W. Deem and Ramdas Pophale) SiO2 
 PCOD8109274
Probable space group: C 2/M
;
_chemical_formula_sum "Si O2"
_cell_formula_units_Z 64
_cell_length_a 24.865054
_cell_length_b 21.126663
_cell_length_c 18.014418
_cell_angle_alpha 90.000000
_cell_angle_beta 19.420598
_cell_angle_gamma 90.000000
_cell_volume 3146.534228
_symmetry_space_group_name_H-M "C 2/M"
_symmetry_group_IT_number 12
_symmetry_cell_setting 'monoclinic'
loop_
_space_group_symop_operation_xyz
x,y,z
-x,y,-z
-x,-y,-z
x,-y,z
1/2+x,1/2+y,z
1/2-x,1/2+y,-z
1/2-x,1/2-y,-z
1/2+x,1/2-y,z
loop_
_atom_site_type_symbol
_atom_site_label
_atom_site_fract_x
_atom_site_fract_y
_atom_site_fract_z
Si Si1 0.006793 0.928948 0.833889
Si Si2 0.244878 0.328601 0.158220
Si Si3 0.808651 0.874774 0.534601
Si Si4 0.689443 0.071103 0.469552
Si Si5 0.162700 0.075854 0.337213
Si Si6 0.447334 0.828615 0.456309
Si Si7 0.495073 0.125304 0.161857
Si Si8 0.508562 0.250052 0.741334
O O1 0.084309 0.924376 0.651063
O O2 0.138189 0.906791 0.723061
O O3 0.950128 0.000000 0.921723
O O4 0.853559 0.885501 0.044947
O O5 0.167227 0.295499 0.332466
O O6 0.105208 0.358418 0.289034
O O7 0.337611 0.277560 0.988734
O O8 0.851253 0.889856 0.564573
O O9 0.616757 0.883488 0.766360
O O10 0.856434 0.804704 0.442088
O O11 0.652623 0.114588 0.448222
O O12 0.555782 0.075851 0.708422
O O13 0.695056 0.000000 0.432918
O O14 0.000000 0.088720 0.500000
O O15 0.190761 0.000000 0.309242
O O16 0.317174 0.109996 0.098248
O O17 0.507771 0.777464 0.319322
O O18 0.454017 0.195509 0.247206
#
# Coordination Sequence:
#
# PCOD8109274 Si02
#       8
#     8   8   8   8   8   8   8   8
#     4   9  19  37  60  85 115 152 195 245 299 353
#     4  10  22  38  57  84 117 156 197 241 295 359
#     4  10  21  39  63  89 118 157 204 255 307 364
#     4   9  19  37  60  85 115 152 195 245 299 353
#     4  11  25  41  59  91 131 167 208 257 314 377
#     4  10  22  38  57  84 117 156 197 241 295 359
#     4  10  21  39  63  89 118 157 204 255 307 364
#     4  10  22  40  62  88 120 158 200 256 308 364
#
# _framework density 20.339839999999999
#
# number of rings (size 3 to 8) (size 9 to 14) (size 15 to 20)
#    0.000    2.125    0.000    1.875    1.750    9.500 
#    0.000    2.500    0.000    0.000    0.000    0.000 
#    0.000    0.000    0.000    0.000    0.000    0.000 
#
# Total GULP energy -396565.350419 kJ/mol
# GULP energy per Si atom -12392.667201 kJ/mol
# Density = 2.029355 g / cm^3
# Si number density = 20.339840 Si / 1000 Ang^3
#
#
#
# Elastic Constant Matrix: (Units=GPa)
#
#
# Indices 1 2 3 4 5 6 
#
# 1 125.8091 45.0382 72.5522 -0.0324 -3.5265 -0.0246
# 2 45.0382 88.7216 45.5561 0.0690 -1.1770 -0.0741
# 3 72.5522 45.5561 127.3969 -0.0349 -2.4366 -0.0211
# 4 -0.0324 0.0690 -0.0349 20.6731 0.0018 -5.4723
# 5 -3.5265 -1.1770 -2.4366 0.0018 28.9077 0.0150
# 6 -0.0246 -0.0741 -0.0211 -5.4723 0.0150 23.3418
#
#
#
# Elastic Compliance Matrix: (Units=1/GPa)
#
#
# Indices 1 2 3 4 5 6 
#
# 1 0.012609 -0.003320 -0.005976 0.000021 0.000899 0.000002
# 2 -0.003320 0.014681 -0.003361 -0.000052 -0.000091 0.000028
# 3 -0.005976 -0.003361 0.012458 0.000023 0.000184 0.000000
# 4 0.000021 -0.000052 0.000023 0.051573 -0.000007 0.012091
# 5 0.000899 -0.000091 0.000184 -0.000007 0.034714 -0.000023
# 6 0.000002 0.000028 0.000000 0.012091 -0.000023 0.045676
#
#
# Mechanical properties :
#
#
# Convention : Reuss Voigt Hill
#
# Bulk Modulus (GPa) = 69.28132 74.24671 71.76402
# Shear Modulus (GPa) = 24.77246 26.50327 25.63787
#
# Velocity S-wave (km/s) = 3.49367 3.61366 3.55417
# Velocity P-wave (km/s) = 7.10001 7.34804 7.22509
#
# Compressibility (1/GPa) = 0.01443390
#
# Stress axis : x y z
#
# Youngs Moduli (GPa) = 79.31042 68.11456 80.26823
#
# Poissons Ratio (x) = 0.22615 0.47970
# Poissons Ratio (y) = 0.26332 0.26977
# Poissons Ratio (z) = 0.47397 0.22892
#
# Static dielectric constant tensor:
#      x y z
#    x 3.738340 -0.000080 0.024930 
#    y -0.000080 3.681860 0.000140 
#    z 0.024930 0.000140 3.747310 
# 
# 
# High freq. dielectric constant tensor:
#      x y z
#    x 1.800150 -0.000010 0.001820 
#    y -0.000010 1.787610 0.000010 
#    z 0.001820 0.000010 1.800880 
# 
# From -- ./inp_files/290920.got.cif
#   From: 2010.06.25/outbox.cif.g09.slc.cpg/sg12_146_cif.got.tgz:290920.got - 2010.06.28 00:19:55.
