data_PCOD8109888
_publ_section_title
;
Structure prediction by ZEFSAII (Michael W. Deem and Ramdas Pophale) SiO2 
 PCOD8109888
Probable space group: C 2/M
;
_chemical_formula_sum "Si O2"
_cell_formula_units_Z 40
_cell_length_a 10.734589
_cell_length_b 18.040894
_cell_length_c 13.593912
_cell_angle_alpha 90.000000
_cell_angle_beta 47.406622
_cell_angle_gamma 90.000000
_cell_volume 1938.068753
_symmetry_space_group_name_H-M "C 2/M"
_symmetry_group_IT_number 12
_symmetry_cell_setting 'monoclinic'
loop_
_space_group_symop_operation_xyz
x,y,z
-x,y,-z
-x,-y,-z
x,-y,z
1/2+x,1/2+y,z
1/2-x,1/2+y,-z
1/2-x,1/2-y,-z
1/2+x,1/2-y,z
loop_
_atom_site_type_symbol
_atom_site_label
_atom_site_fract_x
_atom_site_fract_y
_atom_site_fract_z
Si Si1 0.313599 0.192964 0.332203
Si Si2 0.495271 0.416776 0.195059
Si Si3 0.065062 0.227334 0.069888
Si Si4 0.671804 0.083463 0.851911
Si Si5 0.167765 0.343270 0.459754
O O1 0.475822 0.238078 0.211704
O O2 0.272567 0.133347 0.270221
O O3 0.171874 0.256466 0.424333
O O4 0.351668 0.150081 0.412559
O O5 0.465015 0.500000 0.171622
O O6 0.528258 0.360921 0.086799
O O7 0.666592 0.413298 0.165436
O O8 0.331281 0.391293 0.343787
O O9 0.250000 0.250000 0.000000
O O10 0.000000 0.259594 0.000000
O O11 0.638681 0.000000 0.831691
O O12 0.500000 0.111068 0.000000
O O13 0.000000 0.378282 0.500000
#
# Coordination Sequence:
#
# PCOD8109888 Si02
#       5
#     8   8   8   8   8
#     4  10  22  37  62  89 121 156 207 255 306 363
#     4  10  23  41  62  90 126 164 205 253 307 375
#     4  11  23  38  65  95 123 162 207 256 315 372
#     4  10  21  40  64  91 122 155 200 257 314 369
#     4  10  24  39  60  88 123 165 206 253 303 358
#
# _framework density 20.639102000000001
#
# number of rings (size 3 to 8) (size 9 to 14) (size 15 to 20)
#    0.000    1.800    0.000    3.000   14.000    1.600 
#    0.000    2.000    0.000    0.000    0.000    0.000 
#    0.000    0.000    0.000    0.000    0.000    0.000 
#
# Total GULP energy -247802.417451 kJ/mol
# GULP energy per Si atom -12390.120873 kJ/mol
# Density = 2.059213 g / cm^3
# Si number density = 20.639102 Si / 1000 Ang^3
#
#
#
# Elastic Constant Matrix: (Units=GPa)
#
#
# Indices 1 2 3 4 5 6 
#
# 1 96.8998 14.3978 50.6036 0.0001 -21.1653 0.0000
# 2 14.3978 107.2166 30.9414 0.0001 2.6852 0.0000
# 3 50.6036 30.9414 103.1495 0.0003 -5.6851 0.0001
# 4 0.0001 0.0001 0.0003 20.8875 -0.0001 -0.2333
# 5 -21.1653 2.6852 -5.6851 -0.0001 35.3388 0.0000
# 6 0.0000 0.0000 0.0001 -0.2333 0.0000 26.3777
#
#
#
# Elastic Compliance Matrix: (Units=1/GPa)
#
#
# Indices 1 2 3 4 5 6 
#
# 1 0.016023 -0.000250 -0.007321 0.000000 0.008438 0.000000
# 2 -0.000250 0.010272 -0.003037 0.000000 -0.001419 0.000000
# 3 -0.007321 -0.003037 0.014093 0.000000 -0.001887 0.000000
# 4 0.000000 0.000000 0.000000 0.047880 0.000000 0.000424
# 5 0.008438 -0.001419 -0.001887 0.000000 0.033156 0.000000
# 6 0.000000 0.000000 0.000000 0.000424 0.000000 0.037914
#
#
# Mechanical properties :
#
#
# Convention : Reuss Voigt Hill
#
# Bulk Modulus (GPa) = 52.15624 55.46129 53.80877
# Shear Modulus (GPa) = 26.74576 30.60902 28.67739
#
# Velocity S-wave (km/s) = 3.60374 3.85523 3.73160
# Velocity P-wave (km/s) = 6.53003 6.83720 6.68538
#
# Compressibility (1/GPa) = 0.01917316
#
# Stress axis : x y z
#
# Youngs Moduli (GPa) = 62.40944 97.34774 70.95732
#
# Poissons Ratio (x) = 0.02438 0.51945
# Poissons Ratio (y) = 0.01563 0.21548
# Poissons Ratio (z) = 0.45687 0.29562
#
# Static dielectric constant tensor:
#      x y z
#    x 3.405920 0.000000 -0.242420 
#    y 0.000000 3.947190 0.000000 
#    z -0.242420 0.000000 3.374410 
# 
# 
# High freq. dielectric constant tensor:
#      x y z
#    x 1.797020 0.000000 -0.009790 
#    y 0.000000 1.815370 0.000000 
#    z -0.009790 0.000000 1.813530 
# 
# From -- ./inp_files/46954.got.cif
#   From: 2010.06.25/outbox.cif.g09.slc.cpg/sg12_24_cif.got.tgz:46954.got - 2010.06.28 00:19:55.
