data_PCOD8109352
_publ_section_title
;
Structure prediction by ZEFSAII (Michael W. Deem and Ramdas Pophale) SiO2 
 PCOD8109352
Probable space group: C 2/M
;
_chemical_formula_sum "Si O2"
_cell_formula_units_Z 64
_cell_length_a 18.442150
_cell_length_b 13.999344
_cell_length_c 17.478403
_cell_angle_alpha 90.000000
_cell_angle_beta 137.010784
_cell_angle_gamma 90.000000
_cell_volume 3076.923092
_symmetry_space_group_name_H-M "C 2/M"
_symmetry_group_IT_number 12
_symmetry_cell_setting 'monoclinic'
loop_
_space_group_symop_operation_xyz
x,y,z
-x,y,-z
-x,-y,-z
x,-y,z
1/2+x,1/2+y,z
1/2-x,1/2+y,-z
1/2-x,1/2-y,-z
1/2+x,1/2-y,z
loop_
_atom_site_type_symbol
_atom_site_label
_atom_site_fract_x
_atom_site_fract_y
_atom_site_fract_z
Si Si1 0.958738 0.107250 0.671999
Si Si2 0.565744 0.889071 0.208075
Si Si3 0.773319 0.112394 0.638271
Si Si4 0.860574 0.718266 0.992162
Si Si5 0.218841 0.727305 0.233377
Si Si6 0.176555 0.108845 0.929568
Si Si7 0.440253 0.892236 0.618106
Si Si8 0.455736 0.735091 0.383389
O O1 0.869718 0.150585 0.659587
O O2 0.072539 0.116549 0.798319
O O3 0.964474 0.160012 0.595089
O O4 0.925158 0.000000 0.627120
O O5 0.676733 0.856705 0.255928
O O6 0.578365 0.871722 0.307604
O O7 0.542920 0.000000 0.171248
O O8 0.475106 0.820668 0.104692
O O9 0.776801 0.170716 0.720121
O O10 0.665170 0.134784 0.510088
O O11 0.785889 0.000000 0.667154
O O12 0.858001 0.732832 0.899198
O O13 0.775712 0.640301 0.954692
O O14 0.836028 0.822449 0.007603
O O15 0.335801 0.697510 0.294773
O O16 0.194570 0.000000 0.971964
O O17 0.539688 0.830727 0.664680
O O18 0.474223 0.000000 0.629650
O O19 0.500000 0.759730 0.500000
#
# Coordination Sequence:
#
# PCOD8109352 Si02
#       8
#     8   8   8   8   8   8   8   8
#     4  10  22  41  63  87 123 167 211 259 316 381
#     4  11  26  45  68  94 126 172 220 266 316 380
#     4  10  22  42  67  95 128 170 214 262 319 382
#     4  11  23  41  64  93 128 168 218 264 318 380
#     4  12  25  40  63  98 131 164 207 266 326 380
#     4  10  21  39  63  92 126 166 212 263 318 378
#     4  10  23  43  67  93 126 170 219 260 311 384
#     4  12  24  39  62  93 130 166 203 261 323 377
#
# _framework density 20.800000000000001
#
# number of rings (size 3 to 8) (size 9 to 14) (size 15 to 20)
#    0.000    1.250    2.500    3.000    3.500    4.500 
#    0.000    0.000    0.000    3.750    0.000    0.000 
#    0.000    0.000    0.000    0.000    0.000    0.000 
#
# Total GULP energy -396908.228238 kJ/mol
# GULP energy per Si atom -12403.382132 kJ/mol
# Density = 2.075266 g / cm^3
# Si number density = 20.800000 Si / 1000 Ang^3
#
#
#
# Elastic Constant Matrix: (Units=GPa)
#
#
# Indices 1 2 3 4 5 6 
#
# 1 106.2120 42.2660 31.1813 0.0000 -8.2212 0.0000
# 2 42.2660 104.2355 40.8331 0.0000 -14.2806 0.0000
# 3 31.1813 40.8331 73.9789 0.0000 -9.8175 0.0000
# 4 0.0000 0.0000 0.0000 30.7119 0.0000 2.6840
# 5 -8.2212 -14.2806 -9.8175 0.0000 41.4058 0.0000
# 6 0.0000 0.0000 0.0000 2.6840 0.0000 22.4474
#
#
#
# Elastic Compliance Matrix: (Units=1/GPa)
#
#
# Indices 1 2 3 4 5 6 
#
# 1 0.011718 -0.003549 -0.002926 0.000000 0.000409 0.000000
# 2 -0.003549 0.013616 -0.005668 0.000000 0.002647 0.000000
# 3 -0.002926 -0.005668 0.018112 0.000000 0.001759 0.000000
# 4 0.000000 0.000000 0.000000 0.032905 0.000000 -0.003934
# 5 0.000409 0.002647 0.001759 0.000000 0.025562 0.000000
# 6 0.000000 0.000000 0.000000 -0.003934 0.000000 0.045019
#
#
# Mechanical properties :
#
#
# Convention : Reuss Voigt Hill
#
# Bulk Modulus (GPa) = 52.19148 56.99859 54.59503
# Shear Modulus (GPa) = 28.15224 30.25607 29.20416
#
# Velocity S-wave (km/s) = 3.68295 3.81808 3.75113
# Velocity P-wave (km/s) = 6.57511 6.84833 6.71311
#
# Compressibility (1/GPa) = 0.01916022
#
# Stress axis : x y z
#
# Youngs Moduli (GPa) = 85.33774 73.44305 55.21068
#
# Poissons Ratio (x) = 0.26068 0.16153
# Poissons Ratio (y) = 0.30290 0.31294
# Poissons Ratio (z) = 0.24967 0.41628
#
# Static dielectric constant tensor:
#      x y z
#    x 3.925690 0.000000 0.066260 
#    y 0.000000 3.879730 0.000000 
#    z 0.066260 0.000000 3.732570 
# 
# 
# High freq. dielectric constant tensor:
#      x y z
#    x 1.826610 0.000000 0.002410 
#    y 0.000000 1.819070 0.000000 
#    z 0.002410 0.000000 1.812150 
# 
# From -- ./inp_files/278215.got.cif
#   From: 2010.06.25/outbox.cif.g09.slc.cpg/sg12_140_cif.got.tgz:278215.got - 2010.06.28 00:19:55.
