data_PCOD8109200
_publ_section_title
;
Structure prediction by ZEFSAII (Michael W. Deem and Ramdas Pophale) SiO2 
 PCOD8109200
Probable space group: C 2/M
;
_chemical_formula_sum "Si O2"
_cell_formula_units_Z 56
_cell_length_a 19.082898
_cell_length_b 9.047174
_cell_length_c 16.869352
_cell_angle_alpha 90.000000
_cell_angle_beta 73.679774
_cell_angle_gamma 90.000000
_cell_volume 2795.078129
_symmetry_space_group_name_H-M "C 2/M"
_symmetry_group_IT_number 12
_symmetry_cell_setting 'monoclinic'
loop_
_space_group_symop_operation_xyz
x,y,z
-x,y,-z
-x,-y,-z
x,-y,z
1/2+x,1/2+y,z
1/2-x,1/2+y,-z
1/2-x,1/2-y,-z
1/2+x,1/2-y,z
loop_
_atom_site_type_symbol
_atom_site_label
_atom_site_fract_x
_atom_site_fract_y
_atom_site_fract_z
Si Si1 0.919121 0.325830 0.504515
Si Si2 0.204473 0.171866 0.357103
Si Si3 0.660517 0.832150 0.920311
Si Si4 0.069686 0.825388 0.822208
Si Si5 0.633548 0.825913 0.652232
Si Si6 0.317568 0.667028 0.817201
Si Si7 0.078864 0.672124 0.106453
O O1 0.915670 0.500000 0.515946
O O2 0.861441 0.258841 0.583072
O O3 0.898037 0.278461 0.422519
O O4 0.000000 0.266251 0.500000
O O5 0.281831 0.223434 0.369182
O O6 0.205682 0.209884 0.263982
O O7 0.191979 0.000000 0.377322
O O8 0.632925 0.720078 0.862525
O O9 0.747671 0.816978 0.896457
O O10 0.638146 0.000000 0.903801
O O11 0.629056 0.789342 0.015533
O O12 0.084616 0.759318 0.731109
O O13 0.995064 0.761852 0.881181
O O14 0.065099 0.000000 0.817066
O O15 0.626140 0.000000 0.670873
O O16 0.348281 0.500000 0.810541
O O17 0.380291 0.776994 0.826801
O O18 0.060662 0.500000 0.118934
#
# Coordination Sequence:
#
# PCOD8109200 Si02
#       7
#     8   8   8   8   8   8   8
#     4  10  23  40  62  94 125 155 198 251 299 356
#     4  10  21  39  64  89 120 163 201 244 302 361
#     4  10  21  42  65  87 121 164 206 250 307 370
#     4  12  25  39  61  92 124 160 207 259 304 357
#     4  10  21  42  65  86 122 166 203 245 304 364
#     4  10  21  39  62  90 125 160 203 254 304 360
#     4  11  24  39  61  89 122 166 208 251 308 366
#
# _framework density 20.035219000000001
#
# number of rings (size 3 to 8) (size 9 to 14) (size 15 to 20)
#    0.000    1.571    1.429    3.000    2.000    5.429 
#    0.000    0.000    0.000    0.000    0.000    0.000 
#    0.000    0.000    0.000    0.000    0.000    0.000 
#
# Total GULP energy -347353.574140 kJ/mol
# GULP energy per Si atom -12405.484791 kJ/mol
# Density = 1.998962 g / cm^3
# Si number density = 20.035219 Si / 1000 Ang^3
#
#
#
# Elastic Constant Matrix: (Units=GPa)
#
#
# Indices 1 2 3 4 5 6 
#
# 1 80.3034 25.5572 31.6648 0.0000 6.0889 0.0000
# 2 25.5572 64.6297 37.2622 0.0000 -4.7939 0.0000
# 3 31.6648 37.2622 92.9596 0.0000 -3.3715 0.0000
# 4 0.0000 0.0000 0.0000 30.5322 0.0000 -1.3755
# 5 6.0889 -4.7939 -3.3715 0.0000 30.1790 0.0000
# 6 0.0000 0.0000 0.0000 -1.3755 0.0000 30.5562
#
#
#
# Elastic Compliance Matrix: (Units=1/GPa)
#
#
# Indices 1 2 3 4 5 6 
#
# 1 0.015632 -0.004342 -0.003739 0.000000 -0.004261 0.000000
# 2 -0.004342 0.021490 -0.007008 0.000000 0.003507 0.000000
# 3 -0.003739 -0.007008 0.014887 0.000000 0.001304 0.000000
# 4 0.000000 0.000000 0.000000 0.032819 0.000000 0.001477
# 5 -0.004261 0.003507 0.001304 0.000000 0.034698 0.000000
# 6 0.000000 0.000000 0.000000 0.001477 0.000000 0.032793
#
#
# Mechanical properties :
#
#
# Convention : Reuss Voigt Hill
#
# Bulk Modulus (GPa) = 45.80435 47.42899 46.61667
# Shear Modulus (GPa) = 26.34699 27.81404 27.08052
#
# Velocity S-wave (km/s) = 3.63027 3.72997 3.68046
# Velocity P-wave (km/s) = 6.36266 6.50188 6.43265
#
# Compressibility (1/GPa) = 0.02183199
#
# Stress axis : x y z
#
# Youngs Moduli (GPa) = 63.97120 46.53245 67.17112
#
# Poissons Ratio (x) = 0.20204 0.25114
# Poissons Ratio (y) = 0.27776 0.47074
# Poissons Ratio (z) = 0.23918 0.32610
#
# Static dielectric constant tensor:
#      x y z
#    x 3.722750 0.000000 0.002740 
#    y 0.000000 3.540020 0.000000 
#    z 0.002740 0.000000 3.667570 
# 
# 
# High freq. dielectric constant tensor:
#      x y z
#    x 1.791640 0.000000 -0.001560 
#    y 0.000000 1.772250 0.000000 
#    z -0.001560 0.000000 1.790320 
# 
# From -- ./inp_files/275097.got.cif
#   From: 2010.06.25/outbox.cif.g09.slc.cpg/sg12_138_cif.got.tgz:275097.got - 2010.06.28 00:19:55.
