data_PCOD8109991
_publ_section_title
;
Structure prediction by ZEFSAII (Michael W. Deem and Ramdas Pophale) SiO2 
 PCOD8109991
Probable space group: C 2/M
;
_chemical_formula_sum "Si O2"
_cell_formula_units_Z 56
_cell_length_a 13.969031
_cell_length_b 15.165785
_cell_length_c 22.273633
_cell_angle_alpha 90.000000
_cell_angle_beta 33.251450
_cell_angle_gamma 90.000000
_cell_volume 2587.330344
_symmetry_space_group_name_H-M "C 2/M"
_symmetry_group_IT_number 12
_symmetry_cell_setting 'monoclinic'
loop_
_space_group_symop_operation_xyz
x,y,z
-x,y,-z
-x,-y,-z
x,-y,z
1/2+x,1/2+y,z
1/2-x,1/2+y,-z
1/2-x,1/2-y,-z
1/2+x,1/2-y,z
loop_
_atom_site_type_symbol
_atom_site_label
_atom_site_fract_x
_atom_site_fract_y
_atom_site_fract_z
Si Si1 0.297199 0.398755 0.110481
Si Si2 0.225275 0.839196 0.544780
Si Si3 0.198978 0.600923 0.882392
Si Si4 0.372370 0.600525 0.669391
Si Si5 0.743005 0.738270 0.668261
Si Si6 0.406187 0.096314 0.660615
Si Si7 0.854306 0.752334 0.884786
O O1 0.280205 0.500000 0.099039
O O2 0.210930 0.382697 0.220161
O O3 0.181361 0.340829 0.127483
O O4 0.500000 0.368866 0.000000
O O5 0.250000 0.750000 0.500000
O O6 0.216179 0.803755 0.617363
O O7 0.384420 0.903026 0.441619
O O8 0.052090 0.886309 0.611675
O O9 0.248155 0.500000 0.873403
O O10 0.226560 0.617939 0.797001
O O11 0.313415 0.665277 0.863364
O O12 0.000000 0.622698 0.000000
O O13 0.363818 0.500000 0.649338
O O14 0.338291 0.666078 0.630026
O O15 0.871929 0.670097 0.630600
O O16 0.555756 0.743189 0.797704
O O17 0.351810 0.000000 0.665087
O O18 0.750000 0.750000 0.000000
#
# Coordination Sequence:
#
# PCOD8109991 Si02
#       7
#     8   8   8   8   8   8   8
#     4  10  22  43  67  94 131 170 214 275 331 393
#     4  12  24  45  69  93 139 176 223 280 334 395
#     4  10  21  40  65  94 132 176 225 277 330 397
#     4  11  24  45  71  98 135 184 228 276 341 405
#     4  12  25  42  67 101 136 174 224 286 329 396
#     4  11  24  42  69  98 127 173 225 272 336 400
#     4  12  23  37  63  98 135 176 218 270 337 401
#
# _framework density 21.643930999999998
#
# number of rings (size 3 to 8) (size 9 to 14) (size 15 to 20)
#    0.000    0.857    2.857    4.714    0.000    3.429 
#    0.000    2.143    0.000    0.000    0.000    0.000 
#    0.000    0.000    0.000    0.000    0.000    0.000 
#
# Total GULP energy -346978.208509 kJ/mol
# GULP energy per Si atom -12392.078875 kJ/mol
# Density = 2.159467 g / cm^3
# Si number density = 21.643931 Si / 1000 Ang^3
#
#
#
# Elastic Constant Matrix: (Units=GPa)
#
#
# Indices 1 2 3 4 5 6 
#
# 1 37.0994 26.9785 6.7898 0.0011 -20.4259 -0.0007
# 2 26.9785 113.8129 7.2171 0.0012 -1.5848 0.0000
# 3 6.7898 7.2171 117.2114 0.0102 -18.9581 0.0005
# 4 0.0011 0.0012 0.0102 26.4916 -0.0011 -1.3717
# 5 -20.4259 -1.5848 -18.9581 -0.0011 31.7260 0.0004
# 6 -0.0007 0.0000 0.0005 -1.3717 0.0004 -3.0343
#
#
#
# Elastic Compliance Matrix: (Units=1/GPa)
#
#
# Indices 1 2 3 4 5 6 
#
# 1 0.056883 -0.013186 0.003690 -0.000002 0.038169 -0.000006
# 2 -0.013186 0.011878 -0.001378 0.000000 -0.008720 0.000001
# 3 0.003690 -0.001378 0.009715 -0.000003 0.008112 0.000003
# 4 -0.000002 0.000000 -0.000003 0.036884 -0.000002 -0.016674
# 5 0.038169 -0.008720 0.008112 -0.000002 0.060506 0.000002
# 6 -0.000006 0.000001 0.000003 -0.016674 0.000002 -0.322032
#
#
# Mechanical properties :
#
#
# Convention : Reuss Voigt Hill
#
# Bulk Modulus (GPa) = 17.62786 38.89938 28.26362
# Shear Modulus (GPa) = -47.38918 26.17923 -10.60498
#
# Velocity S-wave (km/s) = -4.68428 3.48162 -2.21594
# Velocity P-wave (km/s) = 4.59287 5.84582 2.55727
#
# Compressibility (1/GPa) = 0.05672838
#
# Stress axis : x y z
#
# Youngs Moduli (GPa) = 17.57992 84.18921 102.93632
#
# Poissons Ratio (x) = 1.11014 -0.37987
# Poissons Ratio (y) = 0.23181 0.14183
# Poissons Ratio (z) = -0.06488 0.11600
#
# Static dielectric constant tensor:
#      x y z
#    x 3.755720 0.000000 -0.116970 
#    y 0.000000 4.053740 0.000000 
#    z -0.116970 0.000000 4.153650 
# 
# 
# High freq. dielectric constant tensor:
#      x y z
#    x 1.834820 0.000000 -0.005370 
#    y 0.000000 1.866480 0.000000 
#    z -0.005370 0.000000 1.874950 
# 
# From -- ./inp_files/340308.got.cif
#   From: 2010.06.25/outbox.cif.g09.slc.cpg/sg12_171_cif.got.tgz:340308.got - 2010.06.28 00:19:55.
