data_PCOD8109687
_publ_section_title
;
Structure prediction by ZEFSAII (Michael W. Deem and Ramdas Pophale) SiO2 
 PCOD8109687
Probable space group: C 2/M
;
_chemical_formula_sum "Si O2"
_cell_formula_units_Z 28
_cell_length_a 8.810104
_cell_length_b 5.250161
_cell_length_c 28.667986
_cell_angle_alpha 90.000000
_cell_angle_beta 118.028134
_cell_angle_gamma 90.000000
_cell_volume 1170.502409
_symmetry_space_group_name_H-M "C 2/M"
_symmetry_group_IT_number 12
_symmetry_cell_setting 'monoclinic'
loop_
_space_group_symop_operation_xyz
x,y,z
-x,y,-z
-x,-y,-z
x,-y,z
1/2+x,1/2+y,z
1/2-x,1/2+y,-z
1/2-x,1/2-y,-z
1/2+x,1/2-y,z
loop_
_atom_site_type_symbol
_atom_site_label
_atom_site_fract_x
_atom_site_fract_y
_atom_site_fract_z
Si Si1 0.179475 0.000000 0.157213
Si Si2 0.845548 0.000000 0.643718
Si Si3 0.170147 0.000000 0.938210
Si Si4 0.193284 0.000000 0.043454
Si Si5 0.428242 0.000000 0.804007
Si Si6 0.799223 0.500000 0.479164
Si Si7 0.761843 0.000000 0.317822
O O1 0.042691 0.000000 0.092861
O O2 0.149411 0.751202 0.183738
O O3 0.366991 0.000000 0.162600
O O4 0.805631 0.000000 0.583594
O O5 0.761614 0.750879 0.654457
O O6 0.051180 0.000000 0.679352
O O7 0.234469 0.750473 0.919378
O O8 0.275038 0.000000 0.002447
O O9 0.000000 0.000000 0.000000
O O10 0.380474 0.000000 0.742904
O O11 0.750000 0.750000 0.500000
O O12 0.000000 0.500000 0.500000
#
# Coordination Sequence:
#
# PCOD8109687 Si02
#       7
#     4   4   4   4   4   4   4
#     4  12  26  44  69  98 132 172 215 266 338 397
#     4  12  24  42  69 100 130 182 225 274 332 391
#     4  10  23  37  60  89 118 161 206 254 310 387
#     4  10  21  40  60  87 119 158 205 255 308 369
#     4  12  26  47  68 100 132 173 216 280 334 389
#     4  12  24  42  64  97 141 179 223 276 330 393
#     4  12  24  44  69  96 132 170 229 278 328 395
#
# _framework density 23.921348999999999
#
# number of rings (size 3 to 8) (size 9 to 14) (size 15 to 20)
#    0.000    0.571    0.000    8.571    4.000    0.000 
#    0.000    0.000    0.000    0.000    0.000    0.000 
#    0.000    0.000    0.000    0.000    0.000    0.000 
#
# Total GULP energy -173606.791142 kJ/mol
# GULP energy per Si atom -12400.485082 kJ/mol
# Density = 2.386690 g / cm^3
# Si number density = 23.921349 Si / 1000 Ang^3
#
#
#
# Elastic Constant Matrix: (Units=GPa)
#
#
# Indices 1 2 3 4 5 6 
#
# 1 126.4790 59.5578 -7.4140 0.0000 17.6292 0.0000
# 2 59.5578 249.4233 28.2110 0.0000 -10.1089 0.0000
# 3 -7.4140 28.2110 127.1391 0.0000 -13.3320 0.0000
# 4 0.0000 0.0000 0.0000 34.1124 0.0000 -0.7151
# 5 17.6292 -10.1089 -13.3320 0.0000 45.4658 0.0000
# 6 0.0000 0.0000 0.0000 -0.7151 0.0000 30.7783
#
#
#
# Elastic Compliance Matrix: (Units=1/GPa)
#
#
# Indices 1 2 3 4 5 6 
#
# 1 0.009736 -0.002572 0.000704 0.000000 -0.004141 0.000000
# 2 -0.002572 0.004812 -0.001033 0.000000 0.001764 0.000000
# 3 0.000704 -0.001033 0.008339 0.000000 0.001943 0.000000
# 4 0.000000 0.000000 0.000000 0.029329 0.000000 0.000681
# 5 -0.004141 0.001764 0.001943 0.000000 0.024562 0.000000
# 6 0.000000 0.000000 0.000000 0.000681 0.000000 0.032506
#
#
# Mechanical properties :
#
#
# Convention : Reuss Voigt Hill
#
# Bulk Modulus (GPa) = 58.52748 73.75011 66.13880
# Shear Modulus (GPa) = 41.39715 50.25038 45.82376
#
# Velocity S-wave (km/s) = 4.16450 4.58826 4.38151
# Velocity P-wave (km/s) = 6.90245 7.67897 7.30105
#
# Compressibility (1/GPa) = 0.01708599
#
# Stress axis : x y z
#
# Youngs Moduli (GPa) = 102.71016 207.82339 119.91378
#
# Poissons Ratio (x) = 0.53458 -0.08446
# Poissons Ratio (y) = 0.26420 0.12383
# Poissons Ratio (z) = -0.07234 0.21461
#
# Static dielectric constant tensor:
#      x y z
#    x 4.830530 0.000000 -1.207640 
#    y 0.000000 5.295100 0.000000 
#    z -1.207640 0.000000 7.299180 
# 
# 
# High freq. dielectric constant tensor:
#      x y z
#    x 1.965010 0.000000 -0.001370 
#    y 0.000000 1.981760 0.000000 
#    z -0.001370 0.000000 1.958480 
# 
# From -- ./inp_files/371767.got.cif
#   From: 2010.06.25/outbox.cif.g09.slc.cpg/sg12_186_cif.got.tgz:371767.got - 2010.06.28 00:19:55.
