data_PCOD8109994
_publ_section_title
;
Structure prediction by ZEFSAII (Michael W. Deem and Ramdas Pophale) SiO2 
 PCOD8109994
Probable space group: C 2/M
;
_chemical_formula_sum "Si O2"
_cell_formula_units_Z 56
_cell_length_a 32.414140
_cell_length_b 19.191277
_cell_length_c 10.212008
_cell_angle_alpha 90.000000
_cell_angle_beta 153.535708
_cell_angle_gamma 90.000000
_cell_volume 2830.959611
_symmetry_space_group_name_H-M "C 2/M"
_symmetry_group_IT_number 12
_symmetry_cell_setting 'monoclinic'
loop_
_space_group_symop_operation_xyz
x,y,z
-x,y,-z
-x,-y,-z
x,-y,z
1/2+x,1/2+y,z
1/2-x,1/2+y,-z
1/2-x,1/2-y,-z
1/2+x,1/2-y,z
loop_
_atom_site_type_symbol
_atom_site_label
_atom_site_fract_x
_atom_site_fract_y
_atom_site_fract_z
Si Si1 0.521613 0.000000 0.342295
Si Si2 0.925684 0.289931 0.173361
Si Si3 0.853637 0.500000 0.049825
Si Si4 0.070763 0.919295 0.091077
Si Si5 0.001969 0.851305 0.646736
Si Si6 0.344232 0.270797 0.332201
Si Si7 0.760226 0.863545 0.303937
Si Si8 0.528870 0.146126 0.233000
O O1 0.549999 0.933275 0.335457
O O2 0.413162 0.000000 0.082365
O O3 0.579098 0.000000 0.637186
O O4 0.000000 0.311896 0.500000
O O5 0.918375 0.207216 0.133076
O O6 0.948724 0.327825 0.102490
O O7 0.820097 0.308542 0.900926
O O8 0.787499 0.434253 0.876927
O O9 0.169641 0.879477 0.376421
O O10 0.090429 0.000000 0.169931
O O11 0.000000 0.890749 0.000000
O O12 0.023348 0.908446 0.816001
O O13 0.910451 0.804559 0.411019
O O14 0.000000 0.889844 0.500000
O O15 0.329078 0.332016 0.392390
O O16 0.385503 0.199452 0.509787
O O17 0.250000 0.250000 0.000000
O O18 0.500000 0.147102 0.000000
#
# Coordination Sequence:
#
# PCOD8109994 Si02
#       8
#     4   8   4   8   8   8   8   8
#     4  11  21  42  66  90 140 164 212 265 329 403
#     4  10  21  40  65  96 126 162 212 264 316 390
#     4  11  22  38  69 102 116 174 221 269 320 379
#     4  11  24  43  63  91 124 166 220 267 306 372
#     4  10  22  41  63  91 129 163 205 263 328 383
#     4  11  23  40  65  95 129 168 217 266 315 386
#     4  12  22  39  68  96 124 167 222 270 310 374
#     4  11  24  40  63  96 135 169 206 261 335 386
#
# _framework density 19.781278
#
# number of rings (size 3 to 8) (size 9 to 14) (size 15 to 20)
#    0.000    1.143    3.571    4.500    4.000    0.857 
#    2.571    0.000    0.000    0.000    0.000    0.000 
#    0.000    0.000    0.000    0.000    0.000    0.000 
#
# Total GULP energy -347009.473332 kJ/mol
# GULP energy per Si atom -12393.195476 kJ/mol
# Density = 1.973626 g / cm^3
# Si number density = 19.781278 Si / 1000 Ang^3
#
#
#
# Elastic Constant Matrix: (Units=GPa)
#
#
# Indices 1 2 3 4 5 6 
#
# 1 108.9894 36.7682 50.6234 0.0000 -15.6808 0.0000
# 2 36.7682 75.9629 29.0712 0.0000 10.0323 0.0000
# 3 50.6234 29.0712 117.6562 0.0000 -0.5770 0.0000
# 4 0.0000 0.0000 0.0000 27.9615 0.0000 24.2839
# 5 -15.6808 10.0323 -0.5770 0.0000 36.7324 0.0000
# 6 0.0000 0.0000 0.0000 24.2839 0.0000 79.2378
#
#
#
# Elastic Compliance Matrix: (Units=1/GPa)
#
#
# Indices 1 2 3 4 5 6 
#
# 1 0.014624 -0.006327 -0.004690 0.000000 0.007897 0.000000
# 2 -0.006327 0.017897 -0.001737 0.000000 -0.007616 0.000000
# 3 -0.004690 -0.001737 0.010940 0.000000 -0.001356 0.000000
# 4 0.000000 0.000000 0.000000 0.048735 0.000000 -0.014936
# 5 0.007897 -0.007616 -0.001356 0.000000 0.032654 0.000000
# 6 0.000000 0.000000 0.000000 -0.014936 0.000000 0.017198
#
#
# Mechanical properties :
#
#
# Convention : Reuss Voigt Hill
#
# Bulk Modulus (GPa) = 55.70105 59.50378 57.60241
# Shear Modulus (GPa) = 28.81163 41.19606 35.00384
#
# Velocity S-wave (km/s) = 3.82057 4.56848 4.21116
# Velocity P-wave (km/s) = 6.90521 7.61408 7.26829
#
# Compressibility (1/GPa) = 0.01795298
#
# Stress axis : x y z
#
# Youngs Moduli (GPa) = 68.37939 55.87428 91.40676
#
# Poissons Ratio (x) = 0.35349 0.42873
# Poissons Ratio (y) = 0.43260 0.15882
# Poissons Ratio (z) = 0.32073 0.09708
#
# Static dielectric constant tensor:
#      x y z
#    x 3.750740 0.000000 0.028550 
#    y 0.000000 4.095530 0.000000 
#    z 0.028550 0.000000 3.592920 
# 
# 
# High freq. dielectric constant tensor:
#      x y z
#    x 1.770860 0.000000 0.002740 
#    y 0.000000 1.776030 0.000000 
#    z 0.002740 0.000000 1.767800 
# 
# From -- ./inp_files/113433.got.cif
#   From: 2010.06.25/outbox.cif.g09.slc.cpg/sg12_57_cif.got.tgz:113433.got - 2010.06.28 00:19:55.
