data_PCOD8109260
_publ_section_title
;
Structure prediction by ZEFSAII (Michael W. Deem and Ramdas Pophale) SiO2 
 PCOD8109260
Probable space group: C 2/M
;
_chemical_formula_sum "Si O2"
_cell_formula_units_Z 64
_cell_length_a 19.488402
_cell_length_b 8.846783
_cell_length_c 30.181686
_cell_angle_alpha 90.000000
_cell_angle_beta 38.548958
_cell_angle_gamma 90.000000
_cell_volume 3242.804669
_symmetry_space_group_name_H-M "C 2/M"
_symmetry_group_IT_number 12
_symmetry_cell_setting 'monoclinic'
loop_
_space_group_symop_operation_xyz
x,y,z
-x,y,-z
-x,-y,-z
x,-y,z
1/2+x,1/2+y,z
1/2-x,1/2+y,-z
1/2-x,1/2-y,-z
1/2+x,1/2-y,z
loop_
_atom_site_type_symbol
_atom_site_label
_atom_site_fract_x
_atom_site_fract_y
_atom_site_fract_z
Si Si1 0.060004 0.173168 0.263375
Si Si2 0.339906 0.173405 0.344023
Si Si3 0.033992 0.827830 0.380198
Si Si4 0.774500 0.328652 0.277442
Si Si5 0.810984 0.321805 0.510959
Si Si6 0.418845 0.321559 0.130983
Si Si7 0.666862 0.679716 0.006494
Si Si8 0.220278 0.820914 0.880773
O O1 0.055654 0.192165 0.317729
O O2 0.160837 0.264706 0.193111
O O3 0.950131 0.240430 0.299225
O O4 0.071131 0.000000 0.243192
O O5 0.329171 0.186246 0.297191
O O6 0.237669 0.253781 0.419460
O O7 0.345901 0.000000 0.356939
O O8 0.147098 0.779944 0.346985
O O9 0.940042 0.715344 0.444488
O O10 0.999441 0.000000 0.409055
O O11 0.779673 0.500000 0.256584
O O12 0.838685 0.224064 0.211003
O O13 0.791832 0.500000 0.519712
O O14 0.750000 0.250000 0.500000
O O15 0.422870 0.500000 0.126393
O O16 0.371502 0.259875 0.107825
O O17 0.542265 0.261553 0.078281
O O18 0.675792 0.500000 0.005647
O O19 0.695791 0.737611 0.942564
O O20 0.750000 0.750000 0.000000
O O21 0.220817 0.000000 0.879794
#
# Coordination Sequence:
#
# PCOD8109260 Si02
#       8
#     8   8   8   8   8   8   8   8
#     4  11  22  37  62  91 122 156 201 254 300 354
#     4  11  24  41  62  88 122 162 202 245 303 363
#     4  10  21  40  63  88 121 158 199 248 301 357
#     4  10  23  42  63  89 122 160 199 246 302 360
#     4  12  24  39  62  90 121 158 203 252 301 358
#     4  10  21  39  64  89 118 159 204 250 297 353
#     4  10  23  41  60  89 124 161 201 247 302 359
#     4  10  21  39  63  88 120 161 205 248 298 359
#
# _framework density 19.736003
#
# number of rings (size 3 to 8) (size 9 to 14) (size 15 to 20)
#    0.000    1.500    2.500    2.250    1.750    5.000 
#    0.000    2.500    0.000    2.250    0.000    0.000 
#    0.000    0.000    0.000    0.000    0.000    0.000 
#
# Total GULP energy -396872.902707 kJ/mol
# GULP energy per Si atom -12402.278210 kJ/mol
# Density = 1.969108 g / cm^3
# Si number density = 19.736003 Si / 1000 Ang^3
#
#
#
# Elastic Constant Matrix: (Units=GPa)
#
#
# Indices 1 2 3 4 5 6 
#
# 1 215.8998 164.8403 119.3716 -0.0028 -59.4543 -0.0135
# 2 164.8403 290.7640 136.6431 -0.0022 -61.1007 -0.0112
# 3 119.3716 136.6431 164.0840 0.0024 -45.2259 -0.0074
# 4 -0.0028 -0.0022 0.0024 37.2899 0.0001 -0.6643
# 5 -59.4543 -61.1007 -45.2259 0.0001 56.2667 0.0022
# 6 -0.0135 -0.0112 -0.0074 -0.6643 0.0022 29.2271
#
#
#
# Elastic Compliance Matrix: (Units=1/GPa)
#
#
# Indices 1 2 3 4 5 6 
#
# 1 0.010309 -0.003211 -0.003577 0.000001 0.004531 0.000002
# 2 -0.003211 0.007082 -0.003053 0.000000 0.001843 0.000000
# 3 -0.003577 -0.003053 0.011926 -0.000001 0.002491 0.000000
# 4 0.000001 0.000000 -0.000001 0.026828 0.000000 0.000610
# 5 0.004531 0.001843 0.002491 0.000000 0.026563 0.000001
# 6 0.000002 0.000000 0.000000 0.000610 0.000001 0.034229
#
#
# Mechanical properties :
#
#
# Convention : Reuss Voigt Hill
#
# Bulk Modulus (GPa) = 103.80145 168.05086 135.92615
# Shear Modulus (GPa) = 35.75763 41.21625 38.48694
#
# Velocity S-wave (km/s) = 4.26114 4.57484 4.42077
# Velocity P-wave (km/s) = 8.77034 10.64142 9.75086
#
# Compressibility (1/GPa) = 0.00963378
#
# Stress axis : x y z
#
# Youngs Moduli (GPa) = 97.00328 141.20242 83.85292
#
# Poissons Ratio (x) = 0.45347 0.29991
# Poissons Ratio (y) = 0.31152 0.25603
# Poissons Ratio (z) = 0.34694 0.43114
#
# Static dielectric constant tensor:
#      x y z
#    x 3.703110 0.000000 -0.056390 
#    y 0.000000 3.495350 0.000050 
#    z -0.056390 0.000050 3.688130 
# 
# 
# High freq. dielectric constant tensor:
#      x y z
#    x 1.780760 0.000000 -0.007140 
#    y 0.000000 1.762450 0.000000 
#    z -0.007140 0.000000 1.779960 
# 
# From -- ./inp_files/378050.got.cif
#   From: 2010.06.25/outbox.cif.g09.slc.cpg/sg12_190_cif.got.tgz:378050.got - 2010.06.28 00:19:55.
