data_PCOD8109475
_publ_section_title
;
Structure prediction by ZEFSAII (Michael W. Deem and Ramdas Pophale) SiO2 
 PCOD8109475
Probable space group: C 2/M
;
_chemical_formula_sum "Si O2"
_cell_formula_units_Z 48
_cell_length_a 20.155915
_cell_length_b 8.473217
_cell_length_c 26.326493
_cell_angle_alpha 90.000000
_cell_angle_beta 150.218750
_cell_angle_gamma 90.000000
_cell_volume 2233.208320
_symmetry_space_group_name_H-M "C 2/M"
_symmetry_group_IT_number 12
_symmetry_cell_setting 'monoclinic'
loop_
_space_group_symop_operation_xyz
x,y,z
-x,y,-z
-x,-y,-z
x,-y,z
1/2+x,1/2+y,z
1/2-x,1/2+y,-z
1/2-x,1/2-y,-z
1/2+x,1/2-y,z
loop_
_atom_site_type_symbol
_atom_site_label
_atom_site_fract_x
_atom_site_fract_y
_atom_site_fract_z
Si Si1 0.478115 0.318875 0.100697
Si Si2 0.984063 0.183506 0.431138
Si Si3 0.287074 0.183372 0.803506
Si Si4 0.767066 0.683700 0.455503
Si Si5 0.233143 0.817089 0.882467
Si Si6 0.979311 0.318027 0.763138
O O1 0.487092 0.500000 0.123554
O O2 0.584162 0.282974 0.126986
O O3 0.507877 0.209683 0.168501
O O4 0.330262 0.285667 0.981982
O O5 0.082061 0.287689 0.462172
O O6 0.000000 0.232951 0.500000
O O7 0.833715 0.222796 0.314657
O O8 0.017838 0.000000 0.444766
O O9 0.246654 0.235182 0.833145
O O10 0.325491 0.000000 0.827003
O O11 0.733207 0.500000 0.432643
O O12 0.750000 0.750000 0.500000
O O13 0.669800 0.773645 0.352273
O O14 0.082111 0.787230 0.799434
O O15 0.268937 0.000000 0.913251
O O16 0.007066 0.500000 0.769654
#
# Coordination Sequence:
#
# PCOD8109475 Si02
#       6
#     8   8   8   8   8   8
#     4  12  25  41  63  92 126 163 208 258 309 369
#     4  10  21  39  64  93 126 164 207 257 313 368
#     4  10  22  40  63  91 125 165 207 255 311 369
#     4  12  25  42  65  94 128 165 208 255 307 366
#     4  11  23  41  64  91 126 165 208 257 313 373
#     4  12  25  43  66  92 125 163 207 257 312 370
#
# _framework density 21.493741
#
# number of rings (size 3 to 8) (size 9 to 14) (size 15 to 20)
#    0.000    0.833    0.000    8.000    0.000    7.000 
#    0.000    0.000    0.000    0.000    0.000    0.000 
#    0.000    0.000    0.000    0.000    0.000    0.000 
#
# Total GULP energy -297854.565123 kJ/mol
# GULP energy per Si atom -12410.606880 kJ/mol
# Density = 2.144482 g / cm^3
# Si number density = 21.493741 Si / 1000 Ang^3
#
#
#
# Elastic Constant Matrix: (Units=GPa)
#
#
# Indices 1 2 3 4 5 6 
#
# 1 95.0230 25.4620 -0.9246 0.0001 -0.9531 -0.0001
# 2 25.4620 82.8586 24.7456 0.0000 -3.5124 -0.0011
# 3 -0.9246 24.7456 76.5170 -0.0001 -6.9342 0.0000
# 4 0.0001 0.0000 -0.0001 34.7998 0.0000 5.1755
# 5 -0.9531 -3.5124 -6.9342 0.0000 42.7960 0.0000
# 6 -0.0001 -0.0011 0.0000 5.1755 0.0000 35.6713
#
#
#
# Elastic Compliance Matrix: (Units=1/GPa)
#
#
# Indices 1 2 3 4 5 6 
#
# 1 0.011609 -0.003992 0.001446 0.000000 0.000165 0.000000
# 2 -0.003992 0.014739 -0.004783 0.000000 0.000346 0.000000
# 3 0.001446 -0.004783 0.014818 0.000000 0.002041 0.000000
# 4 0.000000 0.000000 0.000000 0.029370 0.000000 -0.004261
# 5 0.000165 0.000346 0.002041 0.000000 0.023729 0.000000
# 6 0.000000 0.000000 0.000000 -0.004261 0.000000 0.028652
#
#
# Mechanical properties :
#
#
# Convention : Reuss Voigt Hill
#
# Bulk Modulus (GPa) = 37.72512 39.21828 38.47170
# Shear Modulus (GPa) = 34.15016 36.32780 35.23898
#
# Velocity S-wave (km/s) = 3.99035 4.11561 4.05347
# Velocity P-wave (km/s) = 6.23060 6.39299 6.31232
#
# Compressibility (1/GPa) = 0.02650754
#
# Stress axis : x y z
#
# Youngs Moduli (GPa) = 86.13779 67.84800 67.48386
#
# Poissons Ratio (x) = 0.27088 -0.09761
# Poissons Ratio (y) = 0.34390 0.32281
# Poissons Ratio (z) = -0.12459 0.32455
#
# Static dielectric constant tensor:
#      x y z
#    x 4.005880 0.000000 0.058130 
#    y 0.000000 3.759560 0.000000 
#    z 0.058130 0.000000 4.019220 
# 
# 
# High freq. dielectric constant tensor:
#      x y z
#    x 1.856410 0.000000 -0.001460 
#    y 0.000000 1.841510 0.000000 
#    z -0.001460 0.000000 1.857170 
# 
# From -- ./inp_files/365540.got.cif
#   From: 2010.06.25/outbox.cif.g09.slc.cpg/sg12_183_cif.got.tgz:365540.got - 2010.06.28 00:19:55.
