data_PCOD8109020
_publ_section_title
;
Structure prediction by ZEFSAII (Michael W. Deem and Ramdas Pophale) SiO2 
 PCOD8109020
Probable space group: C 2/M
;
_chemical_formula_sum "Si O2"
_cell_formula_units_Z 64
_cell_length_a 15.252620
_cell_length_b 8.858793
_cell_length_c 28.128757
_cell_angle_alpha 90.000000
_cell_angle_beta 122.929003
_cell_angle_gamma 90.000000
_cell_volume 3190.141534
_symmetry_space_group_name_H-M "C 2/M"
_symmetry_group_IT_number 12
_symmetry_cell_setting 'monoclinic'
loop_
_space_group_symop_operation_xyz
x,y,z
-x,y,-z
-x,-y,-z
x,-y,z
1/2+x,1/2+y,z
1/2-x,1/2+y,-z
1/2-x,1/2-y,-z
1/2+x,1/2-y,z
loop_
_atom_site_type_symbol
_atom_site_label
_atom_site_fract_x
_atom_site_fract_y
_atom_site_fract_z
Si Si1 0.745277 0.673312 0.639171
Si Si2 0.545780 0.680240 0.874939
Si Si3 0.777747 0.322024 0.135431
Si Si4 0.820810 0.321635 0.560897
Si Si5 0.538649 0.673980 0.626353
Si Si6 0.445337 0.173298 0.933517
Si Si7 0.105392 0.171064 0.748690
Si Si8 0.098104 0.830287 0.251428
O O1 0.775661 0.500000 0.647109
O O2 0.783457 0.746113 0.600800
O O3 0.620876 0.697638 0.607772
O O4 0.802127 0.737216 0.702568
O O5 0.553139 0.500000 0.881776
O O6 0.654312 0.738181 0.884752
O O7 0.526782 0.757403 0.919820
O O8 0.449601 0.729083 0.812358
O O9 0.786264 0.500000 0.130182
O O10 0.658892 0.271495 0.095729
O O11 0.817237 0.280908 0.200004
O O12 0.806879 0.500000 0.554815
O O13 0.750000 0.250000 0.500000
O O14 0.940640 0.279341 0.586983
O O15 0.501657 0.500000 0.619031
O O16 0.598981 0.721934 0.692200
O O17 0.419789 0.000000 0.912919
O O18 0.500000 0.185414 0.000000
O O19 0.988740 0.183740 0.733759
O O20 0.147427 0.000000 0.766683
O O21 0.136584 0.000000 0.256096
#
# Coordination Sequence:
#
# PCOD8109020 Si02
#       8
#     8   8   8   8   8   8   8   8
#     4  10  22  37  58  89 119 153 197 245 298 356
#     4  10  22  41  63  92 126 163 207 256 311 370
#     4  11  23  39  62  92 126 166 207 254 310 369
#     4  11  24  42  62  86 118 158 203 251 299 357
#     4  10  21  39  61  87 118 157 197 243 302 356
#     4  11  25  44  65  90 122 164 213 261 312 372
#     4   9  18  35  59  87 122 160 197 244 304 366
#     4   9  18  34  58  88 121 155 193 241 298 357
#
# _framework density 20.061805
#
# number of rings (size 3 to 8) (size 9 to 14) (size 15 to 20)
#    0.000    1.875    1.250    3.000    1.750    6.000 
#    0.000    2.500    0.000    0.000    0.000    0.000 
#    0.000    0.000    0.000    0.000    0.000    0.000 
#
# Total GULP energy -396857.020703 kJ/mol
# GULP energy per Si atom -12401.781897 kJ/mol
# Density = 2.001614 g / cm^3
# Si number density = 20.061805 Si / 1000 Ang^3
#
#
#
# Elastic Constant Matrix: (Units=GPa)
#
#
# Indices 1 2 3 4 5 6 
#
# 1 65.1897 21.1522 29.4966 0.0000 7.5069 0.0000
# 2 21.1522 78.5836 33.9234 0.0000 3.5440 0.0000
# 3 29.4966 33.9234 77.5768 0.0000 4.8933 0.0000
# 4 0.0000 0.0000 0.0000 31.0145 0.0000 5.7152
# 5 7.5069 3.5440 4.8933 0.0000 24.1457 0.0000
# 6 0.0000 0.0000 0.0000 5.7152 0.0000 29.8398
#
#
#
# Elastic Compliance Matrix: (Units=1/GPa)
#
#
# Indices 1 2 3 4 5 6 
#
# 1 0.019361 -0.002409 -0.006028 0.000000 -0.004444 0.000000
# 2 -0.002409 0.016007 -0.006060 0.000000 -0.000372 0.000000
# 3 -0.006028 -0.006060 0.017887 0.000000 -0.000861 0.000000
# 4 0.000000 0.000000 0.000000 0.033423 0.000000 -0.006401
# 5 -0.004444 -0.000372 -0.000861 0.000000 0.043026 0.000000
# 6 0.000000 0.000000 0.000000 -0.006401 0.000000 0.034738
#
#
# Mechanical properties :
#
#
# Convention : Reuss Voigt Hill
#
# Bulk Modulus (GPa) = 41.21909 43.38829 42.30369
# Shear Modulus (GPa) = 24.81132 26.11853 25.46492
#
# Velocity S-wave (km/s) = 3.52055 3.61210 3.56662
# Velocity P-wave (km/s) = 6.09232 6.25065 6.17199
#
# Compressibility (1/GPa) = 0.02426060
#
# Stress axis : x y z
#
# Youngs Moduli (GPa) = 51.65143 62.47456 55.90745
#
# Poissons Ratio (x) = 0.15048 0.33700
# Poissons Ratio (y) = 0.12441 0.33881
# Poissons Ratio (z) = 0.31134 0.37860
#
# Static dielectric constant tensor:
#      x y z
#    x 3.929760 0.000000 -0.024330 
#    y 0.000000 3.606850 0.000000 
#    z -0.024330 0.000000 3.645820 
# 
# 
# High freq. dielectric constant tensor:
#      x y z
#    x 1.789770 0.000000 -0.003000 
#    y 0.000000 1.779810 0.000000 
#    z -0.003000 0.000000 1.778080 
# 
# From -- ./inp_files/338917.got.cif
#   From: 2010.06.25/outbox.cif.g09.slc.cpg/sg12_170_cif.got.tgz:338917.got - 2010.06.28 00:19:55.
