data_PCOD8109438
_publ_section_title
;
Structure prediction by ZEFSAII (Michael W. Deem and Ramdas Pophale) SiO2 
 PCOD8109438
Probable space group: C 2/M
;
_chemical_formula_sum "Si O2"
_cell_formula_units_Z 56
_cell_length_a 23.249062
_cell_length_b 24.664572
_cell_length_c 14.915578
_cell_angle_alpha 90.000000
_cell_angle_beta 161.311408
_cell_angle_gamma 90.000000
_cell_volume 2740.593796
_symmetry_space_group_name_H-M "C 2/M"
_symmetry_group_IT_number 12
_symmetry_cell_setting 'monoclinic'
loop_
_space_group_symop_operation_xyz
x,y,z
-x,y,-z
-x,-y,-z
x,-y,z
1/2+x,1/2+y,z
1/2-x,1/2+y,-z
1/2-x,1/2-y,-z
1/2+x,1/2-y,z
loop_
_atom_site_type_symbol
_atom_site_label
_atom_site_fract_x
_atom_site_fract_y
_atom_site_fract_z
Si Si1 0.847121 0.404633 0.347121
Si Si2 0.282765 0.355631 0.422934
Si Si3 0.615064 0.061199 0.880889
Si Si4 0.083413 0.938801 0.817589
Si Si5 0.982628 0.750000 0.732628
Si Si6 0.650277 0.214737 0.650278
Si Si7 0.502428 0.855631 0.862259
O O1 0.782351 0.344742 0.282352
O O2 0.000000 0.399557 0.500000
O O3 0.926786 0.436956 0.549255
O O4 0.681848 0.436956 0.059379
O O5 0.414743 0.399057 0.572455
O O6 0.383751 0.304736 0.618101
O O7 0.161433 0.382516 0.322867
O O8 0.153716 0.333637 0.153716
O O9 0.599321 0.100943 0.941609
O O10 0.646296 0.000000 0.961247
O O11 0.781936 0.079602 0.063871
O O12 0.016396 0.000000 0.701446
O O13 0.915053 0.695264 0.680703
O O14 0.941858 0.746978 0.566881
O O15 0.191812 0.753023 0.066787
O O16 0.500000 0.204949 0.500000
#
# Coordination Sequence:
#
# PCOD8109438 Si02
#       7
#     8   8   8   8   8   8   8
#     4   9  17  34  59  90 124 157 195 245 308 369
#     4  11  25  43  62  88 122 165 210 254 309 371
#     4  10  21  39  64  92 121 157 203 256 312 369
#     4  10  21  39  64  92 121 157 203 256 312 369
#     4  12  22  42  62  92 127 170 211 252 307 372
#     4  11  22  35  62  98 132 164 205 257 312 368
#     4  11  25  43  62  88 122 165 210 254 309 371
#
# _framework density 20.433527999999999
#
# number of rings (size 3 to 8) (size 9 to 14) (size 15 to 20)
#    0.000    1.429    4.286    1.286    0.000    4.571 
#    0.000    5.000    0.000    1.714    0.000    0.000 
#    0.000    0.000    0.000    0.000    0.000    0.000 
#
# Total GULP energy -347041.116333 kJ/mol
# GULP energy per Si atom -12394.325583 kJ/mol
# Density = 2.038702 g / cm^3
# Si number density = 20.433528 Si / 1000 Ang^3
#
#
#
# Elastic Constant Matrix: (Units=GPa)
#
#
# Indices 1 2 3 4 5 6 
#
# 1 96.5308 48.7277 47.8721 0.0000 6.3092 0.0000
# 2 48.7277 108.0037 31.8075 0.0000 9.9891 0.0000
# 3 47.8721 31.8075 100.0193 0.0000 -8.3688 0.0000
# 4 0.0000 0.0000 0.0000 30.9231 0.0000 -3.8130
# 5 6.3092 9.9891 -8.3688 0.0000 27.6509 0.0000
# 6 0.0000 0.0000 0.0000 -3.8130 0.0000 24.4642
#
#
#
# Elastic Compliance Matrix: (Units=1/GPa)
#
#
# Indices 1 2 3 4 5 6 
#
# 1 0.016465 -0.005132 -0.006574 0.000000 -0.003892 0.000000
# 2 -0.005132 0.012475 -0.001836 0.000000 -0.003892 0.000000
# 3 -0.006574 -0.001836 0.014271 0.000000 0.006483 0.000000
# 4 0.000000 0.000000 0.000000 0.032972 0.000000 0.005139
# 5 -0.003892 -0.003892 0.006483 0.000000 0.040421 0.000000
# 6 0.000000 0.000000 0.000000 0.005139 0.000000 0.041677
#
#
# Mechanical properties :
#
#
# Convention : Reuss Voigt Hill
#
# Bulk Modulus (GPa) = 62.01372 62.37425 62.19399
# Shear Modulus (GPa) = 26.21343 28.35074 27.28208
#
# Velocity S-wave (km/s) = 3.58559 3.72891 3.65795
# Velocity P-wave (km/s) = 6.89615 7.00938 6.95299
#
# Compressibility (1/GPa) = 0.01612546
#
# Stress axis : x y z
#
# Youngs Moduli (GPa) = 60.73583 80.15890 70.07197
#
# Poissons Ratio (x) = 0.41140 0.46066
# Poissons Ratio (y) = 0.31171 0.12868
# Poissons Ratio (z) = 0.39928 0.14721
#
# Static dielectric constant tensor:
#      x y z
#    x 3.573240 0.000000 -0.141900 
#    y 0.000000 3.686660 0.000000 
#    z -0.141900 0.000000 3.813600 
# 
# 
# High freq. dielectric constant tensor:
#      x y z
#    x 1.779280 0.000000 -0.011950 
#    y 0.000000 1.795600 0.000000 
#    z -0.011950 0.000000 1.799530 
# 
# From -- ./inp_files/242173.got.cif
#   From: 2010.06.25/outbox.cif.g09.slc.cpg/sg12_122_cif.got.tgz:242173.got - 2010.06.28 00:19:55.
