data_PCOD8109714
_publ_section_title
;
Structure prediction by ZEFSAII (Michael W. Deem and Ramdas Pophale) SiO2 
 PCOD8109714
Probable space group: C 2/M
;
_chemical_formula_sum "Si O2"
_cell_formula_units_Z 64
_cell_length_a 30.825900
_cell_length_b 17.039704
_cell_length_c 9.423953
_cell_angle_alpha 90.000000
_cell_angle_beta 139.533986
_cell_angle_gamma 90.000000
_cell_volume 3212.576927
_symmetry_space_group_name_H-M "C 2/M"
_symmetry_group_IT_number 12
_symmetry_cell_setting 'monoclinic'
loop_
_space_group_symop_operation_xyz
x,y,z
-x,y,-z
-x,-y,-z
x,-y,z
1/2+x,1/2+y,z
1/2-x,1/2+y,-z
1/2-x,1/2-y,-z
1/2+x,1/2-y,z
loop_
_atom_site_type_symbol
_atom_site_label
_atom_site_fract_x
_atom_site_fract_y
_atom_site_fract_z
Si Si1 0.174824 0.655756 0.802767
Si Si2 0.828705 0.091929 0.471992
Si Si3 0.067740 0.590623 0.331620
Si Si4 0.670990 0.663811 0.826971
Si Si5 0.175472 0.589166 0.100439
Si Si6 0.069688 0.342885 0.035987
Si Si7 0.937491 0.091861 0.245850
Si Si8 0.937486 0.161714 0.937251
O O1 0.131065 0.630648 0.561271
O O2 0.157598 0.744041 0.805131
O O3 0.251753 0.645120 0.949935
O O4 0.157473 0.599590 0.890931
O O5 0.851446 0.134715 0.384407
O O6 0.752244 0.112486 0.318146
O O7 0.871212 0.121792 0.710374
O O8 0.839034 0.000000 0.473768
O O9 0.062805 0.500000 0.361951
O O10 0.000254 0.635075 0.214727
O O11 0.078283 0.598636 0.189661
O O12 0.629937 0.619492 0.845790
O O13 0.160701 0.500000 0.108300
O O14 0.130814 0.647456 0.081335
O O15 0.068986 0.254823 0.091287
O O16 0.000000 0.113163 0.500000
O O17 0.932895 0.000000 0.202366
O O18 0.947513 0.137195 0.124150
O O19 0.000000 0.131983 0.000000
#
# Coordination Sequence:
#
# PCOD8109714 Si02
#       8
#     8   8   8   8   8   8   8   8
#     4  10  22  38  63  94 120 163 206 247 303 362
#     4  10  22  39  64  90 121 162 200 247 304 361
#     4  11  22  38  60  89 122 161 206 251 302 364
#     4  10  21  41  63  89 128 161 200 253 304 360
#     4  10  21  40  61  89 125 159 200 249 302 359
#     4  11  23  40  60  87 120 164 200 251 309 357
#     4  11  25  40  61  91 123 162 204 252 306 359
#     4  12  24  41  63  90 120 160 206 254 301 366
#
# _framework density 19.921703000000001
#
# number of rings (size 3 to 8) (size 9 to 14) (size 15 to 20)
#    0.000    1.375    1.250    4.875    1.750    5.500 
#    0.000    1.250    0.000    0.000    0.000    0.000 
#    0.000    0.000    0.000    0.000    0.000    0.000 
#
# Total GULP energy -397017.000746 kJ/mol
# GULP energy per Si atom -12406.781273 kJ/mol
# Density = 1.987636 g / cm^3
# Si number density = 19.921703 Si / 1000 Ang^3
#
#
#
# Elastic Constant Matrix: (Units=GPa)
#
#
# Indices 1 2 3 4 5 6 
#
# 1 120.0940 32.9704 42.6346 0.0000 4.2866 0.0000
# 2 32.9704 57.6896 28.8259 0.0000 9.0101 0.0000
# 3 42.6346 28.8259 121.1524 0.0000 0.9147 0.0000
# 4 0.0000 0.0000 0.0000 28.6916 0.0000 -0.0347
# 5 4.2866 9.0101 0.9147 0.0000 20.6347 0.0000
# 6 0.0000 0.0000 0.0000 -0.0347 0.0000 28.9535
#
#
#
# Elastic Compliance Matrix: (Units=1/GPa)
#
#
# Indices 1 2 3 4 5 6 
#
# 1 0.010544 -0.004733 -0.002584 0.000000 -0.000009 0.000000
# 2 -0.004733 0.023364 -0.003825 0.000000 -0.009049 0.000000
# 3 -0.002584 -0.003825 0.010060 0.000000 0.001761 0.000000
# 4 0.000000 0.000000 0.000000 0.034853 0.000000 0.000042
# 5 -0.000009 -0.009049 0.001761 0.000000 0.052337 0.000000
# 6 0.000000 0.000000 0.000000 0.000042 0.000000 0.034538
#
#
# Mechanical properties :
#
#
# Convention : Reuss Voigt Hill
#
# Bulk Modulus (GPa) = 46.11904 56.42197 51.27051
# Shear Modulus (GPa) = 25.61346 28.62297 27.11822
#
# Velocity S-wave (km/s) = 3.58956 3.79459 3.69350
# Velocity P-wave (km/s) = 6.35456 6.89796 6.63183
#
# Compressibility (1/GPa) = 0.02168302
#
# Stress axis : x y z
#
# Youngs Moduli (GPa) = 94.84000 42.80109 99.40099
#
# Poissons Ratio (x) = 0.20260 0.25688
# Poissons Ratio (y) = 0.44892 0.38020
# Poissons Ratio (z) = 0.24509 0.16371
#
# Static dielectric constant tensor:
#      x y z
#    x 3.552940 0.000000 0.138850 
#    y 0.000000 3.666590 0.000000 
#    z 0.138850 0.000000 3.675700 
# 
# 
# High freq. dielectric constant tensor:
#      x y z
#    x 1.777380 0.000000 0.006170 
#    y 0.000000 1.789380 0.000000 
#    z 0.006170 0.000000 1.782130 
# 
# From -- ./inp_files/112908.got.cif
#   From: 2010.06.25/outbox.cif.g09.slc.cpg/sg12_57_cif.got.tgz:112908.got - 2010.06.28 00:19:55.
