data_PCOD8109824
_publ_section_title
;
Structure prediction by ZEFSAII (Michael W. Deem and Ramdas Pophale) SiO2 
 PCOD8109824
Probable space group: C 2/M
;
_chemical_formula_sum "Si O2"
_cell_formula_units_Z 64
_cell_length_a 30.581506
_cell_length_b 8.801081
_cell_length_c 19.322313
_cell_angle_alpha 90.000000
_cell_angle_beta 38.424158
_cell_angle_gamma 90.000000
_cell_volume 3232.063391
_symmetry_space_group_name_H-M "C 2/M"
_symmetry_group_IT_number 12
_symmetry_cell_setting 'monoclinic'
loop_
_space_group_symop_operation_xyz
x,y,z
-x,y,-z
-x,-y,-z
x,-y,z
1/2+x,1/2+y,z
1/2-x,1/2+y,-z
1/2-x,1/2-y,-z
1/2+x,1/2-y,z
loop_
_atom_site_type_symbol
_atom_site_label
_atom_site_fract_x
_atom_site_fract_y
_atom_site_fract_z
Si Si1 0.198952 0.320462 0.356348
Si Si2 0.954847 0.176876 0.252269
Si Si3 0.300304 0.678719 0.494583
Si Si4 0.524813 0.172244 0.046843
Si Si5 0.044856 0.320015 0.508376
Si Si6 0.170564 0.179250 0.902065
Si Si7 0.046220 0.322181 0.249927
Si Si8 0.685447 0.678488 0.041593
O O1 0.195095 0.500000 0.373299
O O2 0.213820 0.245129 0.412055
O O3 0.125532 0.260874 0.413245
O O4 0.261263 0.274392 0.227273
O O5 0.878321 0.221361 0.373609
O O6 0.967045 0.224072 0.157920
O O7 0.012436 0.278353 0.219237
O O8 0.971011 0.000000 0.243519
O O9 0.287584 0.500000 0.512552
O O10 0.250000 0.750000 0.500000
O O11 0.524014 0.000000 0.076153
O O12 0.500000 0.178356 0.000000
O O13 0.603323 0.237153 0.954507
O O14 0.046018 0.500000 0.499774
O O15 0.000000 0.250324 0.500000
O O16 0.006095 0.266036 0.625576
O O17 0.156892 0.000000 0.915948
O O18 0.182856 0.234455 0.965371
O O19 0.061502 0.500000 0.235534
O O20 0.118516 0.232906 0.168169
O O21 0.691916 0.500000 0.036671
O O22 0.750000 0.750000 0.000000
#
# Coordination Sequence:
#
# PCOD8109824 Si02
#       8
#     8   8   8   8   8   8   8   8
#     4  10  21  40  63  90 123 162 206 249 299 362
#     4  11  23  41  64  89 121 161 205 253 308 370
#     4  11  25  42  63  91 124 161 204 254 307 366
#     4  11  25  42  63  92 123 158 204 256 308 364
#     4   9  19  35  61  92 121 157 201 247 297 358
#     4  10  23  41  63  89 124 165 205 251 304 368
#     4  11  21  37  65  93 120 157 204 259 309 361
#     4  11  24  41  62  91 124 164 208 254 307 365
#
# _framework density 19.801591999999999
#
# number of rings (size 3 to 8) (size 9 to 14) (size 15 to 20)
#    0.000    1.500    2.500    1.875    3.500    3.500 
#    0.000    0.000    0.000    1.875    0.000    0.000 
#    0.000    0.000    0.000    0.000    0.000    0.000 
#
# Total GULP energy -396866.469823 kJ/mol
# GULP energy per Si atom -12402.077182 kJ/mol
# Density = 1.975652 g / cm^3
# Si number density = 19.801592 Si / 1000 Ang^3
#
#
#
# Elastic Constant Matrix: (Units=GPa)
#
#
# Indices 1 2 3 4 5 6 
#
# 1 120.9657 45.8496 40.8120 0.0105 -13.4350 -0.0038
# 2 45.8496 53.5346 44.8260 0.0266 -6.2112 -0.0124
# 3 40.8120 44.8260 129.3301 0.0286 -10.4622 -0.0100
# 4 0.0105 0.0266 0.0286 31.4117 -0.0115 -1.2271
# 5 -13.4350 -6.2112 -10.4622 -0.0115 30.1455 0.0001
# 6 -0.0038 -0.0124 -0.0100 -1.2271 0.0001 30.2128
#
#
#
# Elastic Compliance Matrix: (Units=1/GPa)
#
#
# Indices 1 2 3 4 5 6 
#
# 1 0.012587 -0.010267 -0.000134 0.000006 0.003447 -0.000002
# 2 -0.010267 0.034852 -0.008878 -0.000018 -0.000476 0.000009
# 3 -0.000134 -0.008878 0.011008 -0.000002 0.001931 0.000000
# 4 0.000006 -0.000018 -0.000002 0.031886 0.000010 0.001295
# 5 0.003447 -0.000476 0.001931 0.000010 0.035281 0.000001
# 6 -0.000002 0.000009 0.000000 0.001295 0.000001 0.033151
#
#
# Mechanical properties :
#
#
# Convention : Reuss Voigt Hill
#
# Bulk Modulus (GPa) = 50.28516 62.97841 56.63178
# Shear Modulus (GPa) = 24.51548 29.84351 27.17949
#
# Velocity S-wave (km/s) = 3.52242 3.88638 3.70887
# Velocity P-wave (km/s) = 6.48019 7.21196 6.85585
#
# Compressibility (1/GPa) = 0.01988658
#
# Stress axis : x y z
#
# Youngs Moduli (GPa) = 79.44929 28.69304 90.84345
#
# Poissons Ratio (x) = 0.29460 0.01220
# Poissons Ratio (y) = 0.81573 0.80652
# Poissons Ratio (z) = 0.01067 0.25474
#
# Static dielectric constant tensor:
#      x y z
#    x 3.721370 0.000180 -0.062450 
#    y 0.000180 3.507660 0.000110 
#    z -0.062450 0.000110 3.862040 
# 
# 
# High freq. dielectric constant tensor:
#      x y z
#    x 1.781610 0.000000 -0.001900 
#    y 0.000000 1.762360 0.000000 
#    z -0.001900 0.000000 1.788000 
# 
# From -- ./inp_files/295538.got.cif
#   From: 2010.06.25/outbox.cif.g09.slc.cpg/sg12_148_cif.got.tgz:295538.got - 2010.06.28 00:19:55.
