data_PCOD8109916
_publ_section_title
;
Structure prediction by ZEFSAII (Michael W. Deem and Ramdas Pophale) SiO2 
 PCOD8109916
Probable space group: C 2/M
;
_chemical_formula_sum "Si O2"
_cell_formula_units_Z 40
_cell_length_a 17.919068
_cell_length_b 24.350826
_cell_length_c 9.336054
_cell_angle_alpha 90.000000
_cell_angle_beta 29.259461
_cell_angle_gamma 90.000000
_cell_volume 1991.098940
_symmetry_space_group_name_H-M "C 2/M"
_symmetry_group_IT_number 12
_symmetry_cell_setting 'monoclinic'
loop_
_space_group_symop_operation_xyz
x,y,z
-x,y,-z
-x,-y,-z
x,-y,z
1/2+x,1/2+y,z
1/2-x,1/2+y,-z
1/2-x,1/2-y,-z
1/2+x,1/2-y,z
loop_
_atom_site_type_symbol
_atom_site_label
_atom_site_fract_x
_atom_site_fract_y
_atom_site_fract_z
Si Si1 0.062502 0.937587 0.542987
Si Si2 0.839672 0.254732 0.704482
Si Si3 0.210532 0.654579 0.766221
Si Si4 0.641134 0.562127 0.854977
Si Si5 0.133001 0.344513 0.573960
O O1 0.206278 0.904207 0.365068
O O2 0.000000 0.912324 0.500000
O O3 0.121307 0.000000 0.425764
O O4 0.912566 0.935647 0.892093
O O5 0.826051 0.198088 0.641673
O O6 0.798548 0.303072 0.660144
O O7 0.000000 0.267963 0.500000
O O8 0.750000 0.250000 0.000000
O O9 0.184399 0.673342 0.646676
O O10 0.051218 0.652361 0.120780
O O11 0.675922 0.500000 0.744964
O O12 0.796595 0.595912 0.576626
O O13 0.500000 0.587040 0.000000
#
# Coordination Sequence:
#
# PCOD8109916 Si02
#       5
#     8   8   8   8   8
#     4  10  22  40  65  95 127 167 212 256 310 377
#     4  12  26  45  65  91 127 168 212 266 317 378
#     4  11  24  43  63  92 131 166 212 258 316 377
#     4  10  21  40  64  94 128 164 206 252 312 379
#     4  11  25  41  64  96 126 165 211 262 315 377
#
# _framework density 20.089410000000001
#
# number of rings (size 3 to 8) (size 9 to 14) (size 15 to 20)
#    0.000    1.200    4.000    1.200    5.600    0.800 
#    3.600    2.000    0.000    4.200    0.000    0.000 
#    0.000    0.000    0.000    0.000    0.000    0.000 
#
# Total GULP energy -247913.296679 kJ/mol
# GULP energy per Si atom -12395.664834 kJ/mol
# Density = 2.004369 g / cm^3
# Si number density = 20.089410 Si / 1000 Ang^3
#
#
#
# Elastic Constant Matrix: (Units=GPa)
#
#
# Indices 1 2 3 4 5 6 
#
# 1 107.8514 37.5674 32.7322 -0.0011 13.5968 -0.0007
# 2 37.5674 102.7377 36.2178 0.0020 -0.1222 -0.0009
# 3 32.7322 36.2178 89.7492 -0.0178 21.1183 0.0035
# 4 -0.0011 0.0020 -0.0178 31.1170 0.0059 1.1607
# 5 13.5968 -0.1222 21.1183 0.0059 28.2576 0.0002
# 6 -0.0007 -0.0009 0.0035 1.1607 0.0002 35.2579
#
#
#
# Elastic Compliance Matrix: (Units=1/GPa)
#
#
# Indices 1 2 3 4 5 6 
#
# 1 0.011611 -0.003630 -0.001761 0.000000 -0.004287 0.000000
# 2 -0.003630 0.012912 -0.005230 -0.000005 0.005711 0.000001
# 3 -0.001761 -0.005230 0.016625 0.000012 -0.011600 -0.000002
# 4 0.000000 -0.000005 0.000012 0.032176 -0.000016 -0.001059
# 5 -0.004287 0.005711 -0.011600 -0.000016 0.046145 0.000001
# 6 0.000000 0.000001 -0.000002 -0.001059 0.000001 0.028397
#
#
# Mechanical properties :
#
#
# Convention : Reuss Voigt Hill
#
# Bulk Modulus (GPa) = 50.24080 57.04146 53.64113
# Shear Modulus (GPa) = 28.45044 31.84789 30.14916
#
# Velocity S-wave (km/s) = 3.76731 3.98591 3.87815
# Velocity P-wave (km/s) = 6.63223 7.04548 6.84197
#
# Compressibility (1/GPa) = 0.01990414
#
# Stress axis : x y z
#
# Youngs Moduli (GPa) = 86.12233 77.44990 60.15177
#
# Poissons Ratio (x) = 0.28115 0.10594
# Poissons Ratio (y) = 0.31263 0.31462
# Poissons Ratio (z) = 0.15168 0.40509
#
# Static dielectric constant tensor:
#      x y z
#    x 3.847640 0.000000 0.236140 
#    y 0.000000 3.619360 0.000000 
#    z 0.236140 0.000000 3.580180 
# 
# 
# High freq. dielectric constant tensor:
#      x y z
#    x 1.797550 0.000000 0.017210 
#    y 0.000000 1.780150 0.000000 
#    z 0.017210 0.000000 1.783850 
# 
# From -- ./inp_files/39193.got.cif
#   From: 2010.06.25/outbox.cif.g09.slc.cpg/sg12_20_cif.got.tgz:39193.got - 2010.06.28 00:19:55.
