data_PCOD8109227
_publ_section_title
;
Structure prediction by ZEFSAII (Michael W. Deem and Ramdas Pophale) SiO2 
 PCOD8109227
Probable space group: C 2/M
;
_chemical_formula_sum "Si O2"
_cell_formula_units_Z 56
_cell_length_a 15.875906
_cell_length_b 8.841096
_cell_length_c 19.773951
_cell_angle_alpha 90.000000
_cell_angle_beta 77.981610
_cell_angle_gamma 90.000000
_cell_volume 2714.643602
_symmetry_space_group_name_H-M "C 2/M"
_symmetry_group_IT_number 12
_symmetry_cell_setting 'monoclinic'
loop_
_space_group_symop_operation_xyz
x,y,z
-x,y,-z
-x,-y,-z
x,-y,z
1/2+x,1/2+y,z
1/2-x,1/2+y,-z
1/2-x,1/2-y,-z
1/2+x,1/2-y,z
loop_
_atom_site_type_symbol
_atom_site_label
_atom_site_fract_x
_atom_site_fract_y
_atom_site_fract_z
Si Si1 0.338353 0.322251 0.791972
Si Si2 0.370087 0.174283 0.346064
Si Si3 0.201443 0.679007 0.336808
Si Si4 0.491423 0.173428 0.206597
Si Si5 0.952191 0.827995 0.075223
Si Si6 0.755669 0.827269 0.070927
Si Si7 0.981955 0.679935 0.578169
O O1 0.325461 0.500000 0.790132
O O2 0.285123 0.246686 0.740180
O O3 0.438012 0.277074 0.768422
O O4 0.306904 0.262317 0.869206
O O5 0.281301 0.266324 0.369614
O O6 0.403850 0.194084 0.263598
O O7 0.441945 0.239410 0.385708
O O8 0.350693 0.000000 0.366029
O O9 0.202439 0.500000 0.332140
O O10 0.111602 0.740484 0.382770
O O11 0.478571 0.219770 0.131533
O O12 0.522832 0.000000 0.204373
O O13 0.851126 0.817228 0.083162
O O14 0.981275 0.000000 0.086642
O O15 0.000000 0.769621 0.000000
O O16 0.724542 0.000000 0.070320
O O17 0.750000 0.750000 0.000000
O O18 0.980388 0.500000 0.580700
O O19 0.000000 0.741216 0.500000
#
# Coordination Sequence:
#
# PCOD8109227 Si02
#       7
#     8   8   8   8   8   8   8
#     4  12  24  39  61  87 120 162 207 258 315 370
#     4  10  21  39  62  92 127 164 208 257 315 380
#     4  11  22  39  63  94 126 163 213 261 312 376
#     4  11  22  38  61  88 118 156 203 257 313 373
#     4  10  22  39  57  82 116 154 197 248 306 369
#     4  11  23  39  60  87 121 159 203 255 311 372
#     4   9  19  39  65  91 127 171 209 254 316 382
#
# _framework density 20.628858999999999
#
# number of rings (size 3 to 8) (size 9 to 14) (size 15 to 20)
#    0.000    1.429    1.429    4.286    0.000    6.571 
#    0.000    0.000    0.000    3.000    0.000    0.000 
#    0.000    0.000    0.000    0.000    0.000    0.000 
#
# Total GULP energy -347321.463390 kJ/mol
# GULP energy per Si atom -12404.337978 kJ/mol
# Density = 2.058191 g / cm^3
# Si number density = 20.628859 Si / 1000 Ang^3
#
#
#
# Elastic Constant Matrix: (Units=GPa)
#
#
# Indices 1 2 3 4 5 6 
#
# 1 132.5129 48.5709 49.8352 0.0000 5.8228 0.0000
# 2 48.5709 98.5848 40.7413 0.0000 1.1516 0.0000
# 3 49.8352 40.7413 127.8681 0.0000 4.3014 0.0000
# 4 0.0000 0.0000 0.0000 20.4747 0.0000 4.2914
# 5 5.8228 1.1516 4.3014 0.0000 27.9338 0.0000
# 6 0.0000 0.0000 0.0000 4.2914 0.0000 32.3334
#
#
#
# Elastic Compliance Matrix: (Units=1/GPa)
#
#
# Indices 1 2 3 4 5 6 
#
# 1 0.010004 -0.003824 -0.002629 0.000000 -0.001523 0.000000
# 2 -0.003824 0.013144 -0.002720 0.000000 0.000674 0.000000
# 3 -0.002629 -0.002720 0.009740 0.000000 -0.000840 0.000000
# 4 0.000000 0.000000 0.000000 0.050238 0.000000 -0.006668
# 5 -0.001523 0.000674 -0.000840 0.000000 0.036218 0.000000
# 6 0.000000 0.000000 0.000000 -0.006668 0.000000 0.031813
#
#
# Mechanical properties :
#
#
# Convention : Reuss Voigt Hill
#
# Bulk Modulus (GPa) = 68.77229 70.80675 69.78952
# Shear Modulus (GPa) = 28.67771 30.80292 29.74032
#
# Velocity S-wave (km/s) = 3.73255 3.86838 3.80107
# Velocity P-wave (km/s) = 7.21014 7.37232 7.29168
#
# Compressibility (1/GPa) = 0.01454074
#
# Stress axis : x y z
#
# Youngs Moduli (GPa) = 99.96088 76.08024 102.66761
#
# Poissons Ratio (x) = 0.29096 0.26993
# Poissons Ratio (y) = 0.38229 0.27927
# Poissons Ratio (z) = 0.26281 0.20695
#
# Static dielectric constant tensor:
#      x y z
#    x 4.213980 0.000000 0.170880 
#    y 0.000000 3.614390 0.000000 
#    z 0.170880 0.000000 3.873780 
# 
# 
# High freq. dielectric constant tensor:
#      x y z
#    x 1.819070 0.000000 0.000800 
#    y 0.000000 1.791610 0.000000 
#    z 0.000800 0.000000 1.808650 
# 
# From -- ./inp_files/308944.got.cif
#   From: 2010.06.25/outbox.cif.g09.slc.cpg/sg12_155_cif.got.tgz:308944.got - 2010.06.28 00:19:55.
