data_PCOD8109369
_publ_section_title
;
Structure prediction by ZEFSAII (Michael W. Deem and Ramdas Pophale) SiO2 
 PCOD8109369
Probable space group: C 2/M
;
_chemical_formula_sum "Si O2"
_cell_formula_units_Z 48
_cell_length_a 27.000662
_cell_length_b 14.547733
_cell_length_c 9.553296
_cell_angle_alpha 90.000000
_cell_angle_beta 143.659099
_cell_angle_gamma 90.000000
_cell_volume 2223.699375
_symmetry_space_group_name_H-M "C 2/M"
_symmetry_group_IT_number 12
_symmetry_cell_setting 'monoclinic'
loop_
_space_group_symop_operation_xyz
x,y,z
-x,y,-z
-x,-y,-z
x,-y,z
1/2+x,1/2+y,z
1/2-x,1/2+y,-z
1/2-x,1/2-y,-z
1/2+x,1/2-y,z
loop_
_atom_site_type_symbol
_atom_site_label
_atom_site_fract_x
_atom_site_fract_y
_atom_site_fract_z
Si Si1 0.256194 0.354705 0.471704
Si Si2 0.473659 0.285338 0.280608
Si Si3 0.265878 0.892882 0.007286
Si Si4 0.380968 0.607552 0.518534
Si Si5 0.607716 0.894926 0.926205
Si Si6 0.191613 0.898780 0.117958
O O1 0.250000 0.250000 0.500000
O O2 0.341291 0.373971 0.580180
O O3 0.261154 0.409777 0.627902
O O4 0.175665 0.390109 0.204620
O O5 0.500000 0.304152 0.500000
O O6 0.535192 0.333789 0.310863
O O7 0.468947 0.176383 0.229492
O O8 0.382307 0.326238 0.043872
O O9 0.350002 0.857618 0.123117
O O10 0.260364 0.866306 0.158200
O O11 0.266771 0.000000 0.977199
O O12 0.183099 0.853879 0.743849
O O13 0.402718 0.500000 0.550537
O O14 0.573620 0.000000 0.839285
O O15 0.157728 0.000000 0.995749
#
# Coordination Sequence:
#
# PCOD8109369 Si02
#       6
#     8   8   8   8   8   8
#     4  11  22  41  66  94 121 159 209 259 308 368
#     4  12  24  37  61  96 128 167 205 254 308 375
#     4   8  17  35  63  91 116 154 202 254 308 359
#     4  10  21  39  63  93 130 164 199 251 319 374
#     4  10  22  43  65  87 123 168 211 257 308 364
#     4  11  21  36  61  95 127 155 199 258 317 368
#
# _framework density 21.585652
#
# number of rings (size 3 to 8) (size 9 to 14) (size 15 to 20)
#    0.000    1.667    3.333    3.000    0.000    3.667 
#    0.000    1.667    0.000    4.000    0.000    0.000 
#    0.000    0.000    0.000    0.000    0.000    0.000 
#
# Total GULP energy -297514.125361 kJ/mol
# GULP energy per Si atom -12396.421890 kJ/mol
# Density = 2.153652 g / cm^3
# Si number density = 21.585652 Si / 1000 Ang^3
#
#
#
# Elastic Constant Matrix: (Units=GPa)
#
#
# Indices 1 2 3 4 5 6 
#
# 1 111.8617 43.4111 46.5717 0.0000 -22.2325 0.0000
# 2 43.4111 128.3735 11.4694 0.0000 11.3115 0.0000
# 3 46.5717 11.4694 61.7018 0.0000 -20.5807 0.0000
# 4 0.0000 0.0000 0.0000 25.5507 0.0000 1.8940
# 5 -22.2325 11.3115 -20.5807 0.0000 36.5950 0.0000
# 6 0.0000 0.0000 0.0000 1.8940 0.0000 33.6037
#
#
#
# Elastic Compliance Matrix: (Units=1/GPa)
#
#
# Indices 1 2 3 4 5 6 
#
# 1 0.015895 -0.005118 -0.008982 0.000000 0.006187 0.000000
# 2 -0.005118 0.010084 -0.000109 0.000000 -0.006287 0.000000
# 3 -0.008982 -0.000109 0.026093 0.000000 0.009251 0.000000
# 4 0.000000 0.000000 0.000000 0.039302 0.000000 -0.002215
# 5 0.006187 -0.006287 0.009251 0.000000 0.038231 0.000000
# 6 0.000000 0.000000 0.000000 -0.002215 0.000000 0.029883
#
#
# Mechanical properties :
#
#
# Convention : Reuss Voigt Hill
#
# Bulk Modulus (GPa) = 42.27637 56.09347 49.18492
# Shear Modulus (GPa) = 25.53747 32.51553 29.02650
#
# Velocity S-wave (km/s) = 3.44332 3.88538 3.67101
# Velocity P-wave (km/s) = 5.95286 6.79493 6.38779
#
# Compressibility (1/GPa) = 0.02365388
#
# Stress axis : x y z
#
# Youngs Moduli (GPa) = 62.91288 99.16582 38.32499
#
# Poissons Ratio (x) = 0.50750 0.34425
# Poissons Ratio (y) = 0.32197 0.00417
# Poissons Ratio (z) = 0.56511 0.01079
#
# Static dielectric constant tensor:
#      x y z
#    x 4.018740 0.000000 -0.297320 
#    y 0.000000 7.791630 0.000000 
#    z -0.297320 0.000000 3.846430 
# 
# 
# High freq. dielectric constant tensor:
#      x y z
#    x 1.839400 0.000000 -0.017360 
#    y 0.000000 1.861900 0.000000 
#    z -0.017360 0.000000 1.825590 
# 
# From -- ./inp_files/105021.got.cif
#   From: 2010.06.25/outbox.cif.g09.slc.cpg/sg12_53_cif.got.tgz:105021.got - 2010.06.28 00:19:55.
