data_PCOD8109278
_publ_section_title
;
Structure prediction by ZEFSAII (Michael W. Deem and Ramdas Pophale) SiO2 
 PCOD8109278
Probable space group: C 2/M
;
_chemical_formula_sum "Si O2"
_cell_formula_units_Z 40
_cell_length_a 18.009359
_cell_length_b 8.221480
_cell_length_c 25.965220
_cell_angle_alpha 90.000000
_cell_angle_beta 150.374031
_cell_angle_gamma 90.000000
_cell_volume 1900.476162
_symmetry_space_group_name_H-M "C 2/M"
_symmetry_group_IT_number 12
_symmetry_cell_setting 'monoclinic'
loop_
_space_group_symop_operation_xyz
x,y,z
-x,y,-z
-x,-y,-z
x,-y,z
1/2+x,1/2+y,z
1/2-x,1/2+y,-z
1/2-x,1/2-y,-z
1/2+x,1/2-y,z
loop_
_atom_site_type_symbol
_atom_site_label
_atom_site_fract_x
_atom_site_fract_y
_atom_site_fract_z
Si Si1 0.657898 0.307203 0.895614
Si Si2 0.339354 0.812931 0.505159
Si Si3 0.669142 0.311102 0.699807
Si Si4 0.169454 0.306453 0.102131
Si Si5 0.675000 0.189620 0.308507
O O1 0.632478 0.500000 0.880575
O O2 0.746438 0.247837 0.898422
O O3 0.501495 0.213951 0.802631
O O4 0.750000 0.250000 0.000000
O O5 0.250000 0.750000 0.500000
O O6 0.491829 0.713384 0.591285
O O7 0.236498 0.791424 0.393349
O O8 0.380590 0.000000 0.537700
O O9 0.706517 0.500000 0.723170
O O10 0.742806 0.232897 0.795482
O O11 0.745344 0.237827 0.694531
O O12 0.167522 0.500000 0.102906
O O13 0.000000 0.237546 0.000000
O O14 0.712744 0.000000 0.339370
#
# Coordination Sequence:
#
# PCOD8109278 Si02
#       5
#     8   8   8   8   8
#     4  11  22  37  60  88 120 159 203 252 306 362
#     4  12  25  41  62  88 121 159 201 249 301 359
#     4  10  21  39  63  89 119 157 201 249 304 364
#     4   9  18  35  59  85 113 151 198 244 294 353
#     4  11  23  40  63  90 121 157 199 249 306 366
#
# _framework density 21.047356000000001
#
# number of rings (size 3 to 8) (size 9 to 14) (size 15 to 20)
#    0.000    1.400    0.000    6.000    0.000    8.800 
#    0.000    1.000    0.000    4.200    0.000    0.000 
#    0.000    0.000    0.000    0.000    0.000    0.000 
#
# Total GULP energy -248100.364648 kJ/mol
# GULP energy per Si atom -12405.018232 kJ/mol
# Density = 2.099945 g / cm^3
# Si number density = 21.047356 Si / 1000 Ang^3
#
#
#
# Elastic Constant Matrix: (Units=GPa)
#
#
# Indices 1 2 3 4 5 6 
#
# 1 208.4048 12.5241 79.8402 0.0001 -6.0203 0.0000
# 2 12.5241 35.3285 -6.8827 -0.0001 -8.5988 0.0001
# 3 79.8402 -6.8827 158.0460 0.0004 -6.6256 0.0002
# 4 0.0001 -0.0001 0.0004 29.8076 0.0001 -0.7333
# 5 -6.0203 -8.5988 -6.6256 0.0001 51.3230 0.0000
# 6 0.0000 0.0001 0.0002 -0.7333 0.0000 25.4829
#
#
#
# Elastic Compliance Matrix: (Units=1/GPa)
#
#
# Indices 1 2 3 4 5 6 
#
# 1 0.006222 -0.002887 -0.003276 0.000000 -0.000177 0.000000
# 2 -0.002887 0.031207 0.003039 0.000000 0.005282 0.000000
# 3 -0.003276 0.003039 0.008164 0.000000 0.001179 0.000000
# 4 0.000000 0.000000 0.000000 0.033572 0.000000 0.000966
# 5 -0.000177 0.005282 0.001179 0.000000 0.020501 0.000000
# 6 0.000000 0.000000 0.000000 0.000966 0.000000 0.039270
#
#
# Mechanical properties :
#
#
# Convention : Reuss Voigt Hill
#
# Bulk Modulus (GPa) = 25.41676 63.63807 44.52742
# Shear Modulus (GPa) = 31.58577 42.40922 36.99749
#
# Velocity S-wave (km/s) = 3.87809 4.49368 4.19719
# Velocity P-wave (km/s) = 5.67054 7.56476 6.68508
#
# Compressibility (1/GPa) = 0.03934412
#
# Stress axis : x y z
#
# Youngs Moduli (GPa) = 160.72320 32.04422 122.48762
#
# Poissons Ratio (x) = 0.09251 0.40130
# Poissons Ratio (y) = 0.46401 -0.37223
# Poissons Ratio (z) = 0.52657 -0.09738
#
# Static dielectric constant tensor:
#      x y z
#    x 4.119280 0.000000 -0.142340 
#    y 0.000000 3.594640 0.000000 
#    z -0.142340 0.000000 3.901190 
# 
# 
# High freq. dielectric constant tensor:
#      x y z
#    x 1.846660 0.000000 -0.003290 
#    y 0.000000 1.801670 0.000000 
#    z -0.003290 0.000000 1.841900 
# 
# From -- ./inp_files/151744.got.cif
#   From: 2010.06.25/outbox.cif.g09.slc.cpg/sg12_76_cif.got.tgz:151744.got - 2010.06.28 00:19:55.
