data_PCOD8109425
_publ_section_title
;
Structure prediction by ZEFSAII (Michael W. Deem and Ramdas Pophale) SiO2 
 PCOD8109425
Probable space group: C 2/M
;
_chemical_formula_sum "Si O2"
_cell_formula_units_Z 48
_cell_length_a 20.262591
_cell_length_b 8.693472
_cell_length_c 20.821928
_cell_angle_alpha 90.000000
_cell_angle_beta 41.939973
_cell_angle_gamma 90.000000
_cell_volume 2451.400192
_symmetry_space_group_name_H-M "C 2/M"
_symmetry_group_IT_number 12
_symmetry_cell_setting 'monoclinic'
loop_
_space_group_symop_operation_xyz
x,y,z
-x,y,-z
-x,-y,-z
x,-y,z
1/2+x,1/2+y,z
1/2-x,1/2+y,-z
1/2-x,1/2-y,-z
1/2+x,1/2-y,z
loop_
_atom_site_type_symbol
_atom_site_label
_atom_site_fract_x
_atom_site_fract_y
_atom_site_fract_z
Si Si1 0.356944 0.680462 0.933943
Si Si2 0.712944 0.820006 0.235017
Si Si3 0.650965 0.678629 0.544776
Si Si4 0.955261 0.681022 0.742906
Si Si5 0.898666 0.678401 0.037919
Si Si6 0.112320 0.822434 0.425257
O O1 0.347157 0.500000 0.934453
O O2 0.434709 0.741695 0.826003
O O3 0.250000 0.750000 0.000000
O O4 0.396537 0.722005 0.975216
O O5 0.627585 0.766844 0.247879
O O6 0.810794 0.725144 0.148912
O O7 0.680567 0.780777 0.330520
O O8 0.735154 0.000000 0.212599
O O9 0.643802 0.500000 0.567797
O O10 0.750000 0.750000 0.500000
O O11 0.560806 0.766323 0.642104
O O12 0.650362 0.704155 0.469222
O O13 0.955258 0.500000 0.752464
O O14 0.889032 0.500000 0.026713
O O15 0.000000 0.715616 0.000000
O O16 0.000000 0.764808 0.500000
O O17 0.120181 0.000000 0.398261
#
# Coordination Sequence:
#
# PCOD8109425 Si02
#       6
#     8   8   8   8   8   8
#     4  12  24  40  66  96 127 167 212 262 315 376
#     4  11  23  38  64  96 126 163 208 261 312 371
#     4  11  24  42  64  92 128 168 207 260 319 374
#     4  11  23  40  64  95 127 164 211 261 313 375
#     4  11  25  44  66  93 129 169 209 261 319 376
#     4  10  21  39  64  91 122 162 208 255 308 371
#
# _framework density 19.580646000000002
#
# number of rings (size 3 to 8) (size 9 to 14) (size 15 to 20)
#    0.000    1.000    3.333    3.500    0.000    5.667 
#    0.000    1.667    0.000    0.000    0.000    0.000 
#    0.000    0.000    0.000    0.000    0.000    0.000 
#
# Total GULP energy -297789.187104 kJ/mol
# GULP energy per Si atom -12407.882796 kJ/mol
# Density = 1.953608 g / cm^3
# Si number density = 19.580646 Si / 1000 Ang^3
#
#
#
# Elastic Constant Matrix: (Units=GPa)
#
#
# Indices 1 2 3 4 5 6 
#
# 1 116.1761 53.1104 56.3395 -0.0001 -12.5833 0.0000
# 2 53.1104 100.0811 50.8119 0.0007 -4.2256 -0.0011
# 3 56.3395 50.8119 135.5123 0.0000 -3.1945 -0.0001
# 4 -0.0001 0.0007 0.0000 38.0537 0.0000 2.0409
# 5 -12.5833 -4.2256 -3.1945 0.0000 38.0652 0.0001
# 6 0.0000 -0.0011 -0.0001 2.0409 0.0001 33.4643
#
#
#
# Elastic Compliance Matrix: (Units=1/GPa)
#
#
# Indices 1 2 3 4 5 6 
#
# 1 0.012911 -0.004968 -0.003424 0.000000 0.003429 0.000000
# 2 -0.004968 0.014290 -0.003301 0.000000 -0.000333 0.000000
# 3 -0.003424 -0.003301 0.010025 0.000000 -0.000657 0.000000
# 4 0.000000 0.000000 0.000000 0.026365 0.000000 -0.001608
# 5 0.003429 -0.000333 -0.000657 0.000000 0.027312 0.000000
# 6 0.000000 0.000000 0.000000 -0.001608 0.000000 0.029981
#
#
# Mechanical properties :
#
#
# Convention : Reuss Voigt Hill
#
# Bulk Modulus (GPa) = 72.25226 74.69922 73.47574
# Shear Modulus (GPa) = 33.58358 34.68381 34.13370
#
# Velocity S-wave (km/s) = 4.14592 4.21328 4.17974
# Velocity P-wave (km/s) = 7.73939 7.86774 7.80383
#
# Compressibility (1/GPa) = 0.01384040
#
# Stress axis : x y z
#
# Youngs Moduli (GPa) = 77.45511 69.97879 99.75080
#
# Poissons Ratio (x) = 0.34767 0.34154
# Poissons Ratio (y) = 0.38482 0.32923
# Poissons Ratio (z) = 0.26520 0.23097
#
# Static dielectric constant tensor:
#      x y z
#    x 3.536480 0.000000 0.051790 
#    y 0.000000 3.688290 0.000000 
#    z 0.051790 0.000000 3.635940 
# 
# 
# High freq. dielectric constant tensor:
#      x y z
#    x 1.764870 0.000000 0.004060 
#    y 0.000000 1.775280 0.000000 
#    z 0.004060 0.000000 1.777210 
# 
# From -- ./inp_files/319547.got.cif
#   From: 2010.06.25/outbox.cif.g09.slc.cpg/sg12_160_cif.got.tgz:319547.got - 2010.06.28 00:19:55.
