data_PCOD8109844
_publ_section_title
;
Structure prediction by ZEFSAII (Michael W. Deem and Ramdas Pophale) SiO2 
 PCOD8109844
Probable space group: C 2/M
;
_chemical_formula_sum "Si O2"
_cell_formula_units_Z 48
_cell_length_a 29.887368
_cell_length_b 8.962045
_cell_length_c 17.267826
_cell_angle_alpha 90.000000
_cell_angle_beta 149.682335
_cell_angle_gamma 90.000000
_cell_volume 2334.782682
_symmetry_space_group_name_H-M "C 2/M"
_symmetry_group_IT_number 12
_symmetry_cell_setting 'monoclinic'
loop_
_space_group_symop_operation_xyz
x,y,z
-x,y,-z
-x,-y,-z
x,-y,z
1/2+x,1/2+y,z
1/2-x,1/2+y,-z
1/2-x,1/2-y,-z
1/2+x,1/2-y,z
loop_
_atom_site_type_symbol
_atom_site_label
_atom_site_fract_x
_atom_site_fract_y
_atom_site_fract_z
Si Si1 0.153005 0.826719 0.668771
Si Si2 0.659394 0.176062 0.838544
Si Si3 0.832298 0.670950 0.850715
Si Si4 0.675344 0.172088 0.338448
Si Si5 0.509953 0.672143 0.159348
Si Si6 0.999766 0.828042 0.321554
O O1 0.131933 0.728620 0.712133
O O2 0.250216 0.788354 0.782826
O O3 0.081827 0.782712 0.497779
O O4 0.145153 0.000000 0.679631
O O5 0.583537 0.223527 0.785122
O O6 0.670916 0.000000 0.857915
O O7 0.750000 0.250000 0.000000
O O8 0.862517 0.500000 0.907834
O O9 0.802156 0.697410 0.717675
O O10 0.910949 0.779699 0.991286
O O11 0.750000 0.250000 0.500000
O O12 0.578232 0.235838 0.209785
O O13 0.675695 0.000000 0.361522
O O14 0.521152 0.500000 0.154402
O O15 0.530525 0.700728 0.280017
O O16 0.971897 0.000000 0.292503
#
# Coordination Sequence:
#
# PCOD8109844 Si02
#       6
#     8   8   8   8   8   8
#     4  10  21  40  64  87 117 156 195 239 294 351
#     4  12  25  40  60  88 120 154 197 245 294 350
#     4  10  22  40  61  87 119 157 198 240 291 351
#     4  11  23  40  62  88 120 157 199 245 294 350
#     4  11  23  39  61  90 121 155 198 244 291 347
#     4  10  22  41  63  88 120 157 196 240 293 352
#
# _framework density 20.558658000000001
#
# number of rings (size 3 to 8) (size 9 to 14) (size 15 to 20)
#    0.000    1.333    0.000    5.500    0.000   13.333 
#    0.000    1.667    0.000    0.000    0.000    0.000 
#    0.000    0.000    0.000    0.000    0.000    0.000 
#
# Total GULP energy -297788.237899 kJ/mol
# GULP energy per Si atom -12407.843246 kJ/mol
# Density = 2.051187 g / cm^3
# Si number density = 20.558658 Si / 1000 Ang^3
#
#
#
# Elastic Constant Matrix: (Units=GPa)
#
#
# Indices 1 2 3 4 5 6 
#
# 1 56.8287 26.0114 -9.5693 0.0000 3.6254 0.0000
# 2 26.0114 106.6053 30.3823 0.0000 -1.3868 0.0000
# 3 -9.5693 30.3823 82.1765 0.0000 0.8684 0.0000
# 4 0.0000 0.0000 0.0000 38.9864 0.0000 3.0328
# 5 3.6254 -1.3868 0.8684 0.0000 36.5908 0.0000
# 6 0.0000 0.0000 0.0000 3.0328 0.0000 33.1577
#
#
#
# Elastic Compliance Matrix: (Units=1/GPa)
#
#
# Indices 1 2 3 4 5 6 
#
# 1 0.021709 -0.006771 0.005058 0.000000 -0.002528 0.000000
# 2 -0.006771 0.012606 -0.005463 0.000000 0.001278 0.000000
# 3 0.005058 -0.005463 0.014789 0.000000 -0.001059 0.000000
# 4 0.000000 0.000000 0.000000 0.025834 0.000000 -0.002363
# 5 -0.002528 0.001278 -0.001059 0.000000 0.027653 0.000000
# 6 0.000000 0.000000 0.000000 -0.002363 0.000000 0.030375
#
#
# Mechanical properties :
#
#
# Convention : Reuss Voigt Hill
#
# Bulk Modulus (GPa) = 28.77519 37.69549 33.23534
# Shear Modulus (GPa) = 31.46588 34.99939 33.23263
#
# Velocity S-wave (km/s) = 3.91646 4.13051 4.02491
# Velocity P-wave (km/s) = 5.87184 6.41276 6.14825
#
# Compressibility (1/GPa) = 0.03475216
#
# Stress axis : x y z
#
# Youngs Moduli (GPa) = 46.06354 79.32647 67.61852
#
# Poissons Ratio (x) = 0.53716 -0.34203
# Poissons Ratio (y) = 0.31192 0.36939
# Poissons Ratio (z) = -0.23300 0.43334
#
# Static dielectric constant tensor:
#      x y z
#    x 3.970480 0.000000 -0.012120 
#    y 0.000000 3.840090 0.000000 
#    z -0.012120 0.000000 3.778710 
# 
# 
# High freq. dielectric constant tensor:
#      x y z
#    x 1.818400 0.000000 -0.002000 
#    y 0.000000 1.801950 0.000000 
#    z -0.002000 0.000000 1.817730 
# 
# From -- ./inp_files/274100.got.cif
#   From: 2010.06.25/outbox.cif.g09.slc.cpg/sg12_138_cif.got.tgz:274100.got - 2010.06.28 00:19:55.
