data_PCOD8109445
_publ_section_title
;
Structure prediction by ZEFSAII (Michael W. Deem and Ramdas Pophale) SiO2 
 PCOD8109445
Probable space group: C 2/M
;
_chemical_formula_sum "Si O2"
_cell_formula_units_Z 32
_cell_length_a 13.851589
_cell_length_b 19.056180
_cell_length_c 4.835574
_cell_angle_alpha 90.000000
_cell_angle_beta 75.330986
_cell_angle_gamma 90.000000
_cell_volume 1234.786110
_symmetry_space_group_name_H-M "C 2/M"
_symmetry_group_IT_number 12
_symmetry_cell_setting 'monoclinic'
loop_
_space_group_symop_operation_xyz
x,y,z
-x,y,-z
-x,-y,-z
x,-y,z
1/2+x,1/2+y,z
1/2-x,1/2+y,-z
1/2-x,1/2-y,-z
1/2+x,1/2-y,z
loop_
_atom_site_type_symbol
_atom_site_label
_atom_site_fract_x
_atom_site_fract_y
_atom_site_fract_z
Si Si1 0.708173 0.077995 0.355640
Si Si2 0.930423 0.209292 0.810343
Si Si3 0.115578 0.645563 0.921456
Si Si4 0.381242 0.576393 0.603551
O O1 0.684522 0.093385 0.052993
O O2 0.826898 0.081122 0.343537
O O3 0.667493 0.000000 0.452984
O O4 0.652325 0.136480 0.581063
O O5 0.870221 0.275628 0.974873
O O6 0.850788 0.146800 0.796785
O O7 0.000000 0.232571 0.500000
O O8 0.000000 0.178514 0.000000
O O9 0.000000 0.623706 0.000000
O O10 0.500000 0.582708 0.500000
O O11 0.354203 0.500000 0.762307
#
# Coordination Sequence:
#
# PCOD8109445 Si02
#       4
#     8   8   8   8
#     4  11  24  40  63  95 124 162 213 251 303 376
#     4  10  21  39  64  92 123 163 208 250 305 372
#     4  11  23  41  63  90 128 165 204 257 307 360
#     4   9  21  42  66  93 127 163 203 257 311 364
#
# _framework density 25.915417000000001
#
# number of rings (size 3 to 8) (size 9 to 14) (size 15 to 20)
#    0.000    1.750    0.000    4.500    0.000    9.500 
#    0.000    7.500    0.000    0.000    0.000    0.000 
#    0.000    0.000    0.000    0.000    0.000    0.000 
#
# Total GULP energy -198250.243787 kJ/mol
# GULP energy per Si atom -12390.640237 kJ/mol
# Density = 2.585643 g / cm^3
# Si number density = 25.915417 Si / 1000 Ang^3
#
#
#
# Elastic Constant Matrix: (Units=GPa)
#
#
# Indices 1 2 3 4 5 6 
#
# 1 115.1459 27.0092 -3.4522 0.0000 29.9384 0.0000
# 2 27.0092 167.9794 2.5012 0.0000 18.7315 0.0000
# 3 -3.4522 2.5012 63.9107 0.0000 18.0952 0.0000
# 4 0.0000 0.0000 0.0000 23.6231 0.0000 8.5638
# 5 29.9384 18.7315 18.0952 0.0000 47.4485 0.0000
# 6 0.0000 0.0000 0.0000 8.5638 0.0000 21.2138
#
#
#
# Elastic Compliance Matrix: (Units=1/GPa)
#
#
# Indices 1 2 3 4 5 6 
#
# 1 0.010970 -0.000957 0.002783 0.000000 -0.007605 0.000000
# 2 -0.000957 0.006325 0.000265 0.000000 -0.001994 0.000000
# 3 0.002783 0.000265 0.018288 0.000000 -0.008836 0.000000
# 4 0.000000 0.000000 0.000000 0.049588 0.000000 -0.020018
# 5 -0.007605 -0.001994 -0.008836 0.000000 0.030031 0.000000
# 6 0.000000 0.000000 0.000000 -0.020018 0.000000 0.055220
#
#
# Mechanical properties :
#
#
# Convention : Reuss Voigt Hill
#
# Bulk Modulus (GPa) = 25.14656 44.35027 34.74842
# Shear Modulus (GPa) = 27.85575 39.85559 33.85567
#
# Velocity S-wave (km/s) = 3.28208 3.92587 3.61832
# Velocity P-wave (km/s) = 4.90786 6.14008 5.55823
#
# Compressibility (1/GPa) = 0.03976688
#
# Stress axis : x y z
#
# Youngs Moduli (GPa) = 91.15758 158.09109 54.67946
#
# Poissons Ratio (x) = 0.15133 -0.15219
# Poissons Ratio (y) = 0.08726 -0.01451
# Poissons Ratio (z) = -0.25372 -0.04196
#
# Static dielectric constant tensor:
#      x y z
#    x 4.628960 0.000000 0.357830 
#    y 0.000000 5.100540 0.000000 
#    z 0.357830 0.000000 4.737130 
# 
# 
# High freq. dielectric constant tensor:
#      x y z
#    x 2.039140 0.000000 0.023910 
#    y 0.000000 2.053710 0.000000 
#    z 0.023910 0.000000 2.023310 
# 
# From -- ./inp_files/6051.got.cif
#   From: 2010.06.25/outbox.cif.g09.slc.cpg/sg12_4_cif.got.tgz:6051.got - 2010.06.28 00:19:55.
