data_PCOD8109706
_publ_section_title
;
Structure prediction by ZEFSAII (Michael W. Deem and Ramdas Pophale) SiO2 
 PCOD8109706
Probable space group: C 2/M
;
_chemical_formula_sum "Si O2"
_cell_formula_units_Z 64
_cell_length_a 15.393674
_cell_length_b 8.655194
_cell_length_c 28.388854
_cell_angle_alpha 90.000000
_cell_angle_beta 123.602504
_cell_angle_gamma 90.000000
_cell_volume 3150.346181
_symmetry_space_group_name_H-M "C 2/M"
_symmetry_group_IT_number 12
_symmetry_cell_setting 'monoclinic'
loop_
_space_group_symop_operation_xyz
x,y,z
-x,y,-z
-x,-y,-z
x,-y,z
1/2+x,1/2+y,z
1/2-x,1/2+y,-z
1/2-x,1/2-y,-z
1/2+x,1/2-y,z
loop_
_atom_site_type_symbol
_atom_site_label
_atom_site_fract_x
_atom_site_fract_y
_atom_site_fract_z
Si Si1 0.710542 0.817847 0.121498
Si Si2 0.844676 0.679537 0.499571
Si Si3 0.799277 0.181954 0.389021
Si Si4 0.445490 0.683264 0.190133
Si Si5 0.475759 0.682081 0.886186
Si Si6 0.464633 0.821185 0.374685
Si Si7 0.571357 0.682103 0.318445
Si Si8 0.154575 0.318543 0.999666
O O1 0.828168 0.755192 0.161857
O O2 0.643417 0.730849 0.140967
O O3 0.703985 0.000000 0.128165
O O4 0.665648 0.771339 0.057222
O O5 0.821935 0.500000 0.483629
O O6 0.750000 0.750000 0.500000
O O7 0.857388 0.764814 0.453791
O O8 0.950791 0.706149 0.559381
O O9 0.853062 0.263332 0.360321
O O10 0.678806 0.227609 0.356444
O O11 0.809616 0.000000 0.386493
O O12 0.443189 0.500000 0.187715
O O13 0.490578 0.748342 0.154599
O O14 0.517579 0.740969 0.254362
O O15 0.489424 0.500000 0.891879
O O16 0.545720 0.755139 0.948109
O O17 0.494452 0.722057 0.338104
O O18 0.456891 0.000000 0.358046
O O19 0.593279 0.500000 0.324378
O O20 0.157275 0.500000 0.994201
O O21 0.250000 0.250000 0.000000
#
# Coordination Sequence:
#
# PCOD8109706 Si02
#       8
#     8   8   8   8   8   8   8   8
#     4  10  21  40  61  86 122 159 196 244 303 362
#     4  11  22  38  64  94 128 163 201 250 309 369
#     4  12  25  41  63  93 128 165 207 252 304 367
#     4   9  21  42  63  85 119 161 201 250 307 357
#     4  11  22  39  61  90 124 157 199 247 297 361
#     4  11  24  42  64  93 127 161 203 254 309 367
#     4  11  23  42  67  90 120 162 209 258 310 363
#     4  11  21  36  61  89 122 159 196 243 304 363
#
# _framework density 20.315228999999999
#
# number of rings (size 3 to 8) (size 9 to 14) (size 15 to 20)
#    0.000    1.250    2.500    3.750    0.000    6.500 
#    0.000    6.250    0.000    0.000    0.000    0.000 
#    0.000    0.000    0.000    0.000    0.000    0.000 
#
# Total GULP energy -396981.743614 kJ/mol
# GULP energy per Si atom -12405.679488 kJ/mol
# Density = 2.026899 g / cm^3
# Si number density = 20.315229 Si / 1000 Ang^3
#
#
#
# Elastic Constant Matrix: (Units=GPa)
#
#
# Indices 1 2 3 4 5 6 
#
# 1 126.2424 15.4612 25.5696 0.0000 -0.8205 0.0000
# 2 15.4612 59.6332 28.7004 0.0000 0.0806 0.0000
# 3 25.5696 28.7004 96.2571 0.0000 -10.4877 0.0000
# 4 0.0000 0.0000 0.0000 23.5152 0.0000 0.8631
# 5 -0.8205 0.0806 -10.4877 0.0000 14.4576 0.0000
# 6 0.0000 0.0000 0.0000 0.8631 0.0000 37.8499
#
#
#
# Elastic Compliance Matrix: (Units=1/GPa)
#
#
# Indices 1 2 3 4 5 6 
#
# 1 0.008469 -0.001240 -0.001984 0.000000 -0.000951 0.000000
# 2 -0.001240 0.020061 -0.006159 0.000000 -0.004650 0.000000
# 3 -0.001984 -0.006159 0.013837 0.000000 0.009959 0.000000
# 4 0.000000 0.000000 0.000000 0.042561 0.000000 -0.000971
# 5 -0.000951 -0.004650 0.009959 0.000000 0.076364 0.000000
# 6 0.000000 0.000000 0.000000 -0.000971 0.000000 0.026442
#
#
# Mechanical properties :
#
#
# Convention : Reuss Voigt Hill
#
# Bulk Modulus (GPa) = 42.36809 46.84390 44.60599
# Shear Modulus (GPa) = 23.32454 29.32464 26.32459
#
# Velocity S-wave (km/s) = 3.39208 3.80344 3.60364
# Velocity P-wave (km/s) = 6.02015 6.51128 6.27053
#
# Compressibility (1/GPa) = 0.02360267
#
# Stress axis : x y z
#
# Youngs Moduli (GPa) = 118.08203 49.84793 72.26882
#
# Poissons Ratio (x) = 0.06180 0.14335
# Poissons Ratio (y) = 0.14639 0.44509
# Poissons Ratio (z) = 0.23423 0.30700
#
# Static dielectric constant tensor:
#      x y z
#    x 3.821290 0.000000 -0.025180 
#    y 0.000000 3.547400 0.000000 
#    z -0.025180 0.000000 3.844810 
# 
# 
# High freq. dielectric constant tensor:
#      x y z
#    x 1.811640 0.000000 0.000120 
#    y 0.000000 1.788730 0.000000 
#    z 0.000120 0.000000 1.790810 
# 
# From -- ./inp_files/375595.got.cif
#   From: 2010.06.25/outbox.cif.g09.slc.cpg/sg12_188_cif.got.tgz:375595.got - 2010.06.28 00:19:55.
