data_PCOD8109177
_publ_section_title
;
Structure prediction by ZEFSAII (Michael W. Deem and Ramdas Pophale) SiO2 
 PCOD8109177
Probable space group: C 2/M
;
_chemical_formula_sum "Si O2"
_cell_formula_units_Z 64
_cell_length_a 25.339263
_cell_length_b 14.861816
_cell_length_c 11.945464
_cell_angle_alpha 90.000000
_cell_angle_beta 42.079573
_cell_angle_gamma 90.000000
_cell_volume 3014.732015
_symmetry_space_group_name_H-M "C 2/M"
_symmetry_group_IT_number 12
_symmetry_cell_setting 'monoclinic'
loop_
_space_group_symop_operation_xyz
x,y,z
-x,y,-z
-x,-y,-z
x,-y,z
1/2+x,1/2+y,z
1/2-x,1/2+y,-z
1/2-x,1/2-y,-z
1/2+x,1/2-y,z
loop_
_atom_site_type_symbol
_atom_site_label
_atom_site_fract_x
_atom_site_fract_y
_atom_site_fract_z
Si Si1 0.151416 0.103354 0.493239
Si Si2 0.085878 0.273113 0.027468
Si Si3 0.303530 0.181875 0.346241
Si Si4 0.583408 0.897675 0.426739
Si Si5 0.592991 0.600679 0.351127
Si Si6 0.005007 0.102421 0.860135
Si Si7 0.938744 0.394886 0.282448
Si Si8 0.159069 0.733902 0.140955
O O1 0.242205 0.116768 0.380516
O O2 0.127898 0.145265 0.410368
O O3 0.091721 0.137369 0.684613
O O4 0.133415 0.000000 0.505861
O O5 0.058232 0.170604 0.092103
O O6 0.130935 0.308336 0.067101
O O7 0.012169 0.338761 0.117492
O O8 0.143978 0.270274 0.830280
O O9 0.250000 0.250000 0.500000
O O10 0.358884 0.124684 0.340906
O O11 0.500000 0.886746 0.500000
O O12 0.576568 0.865701 0.565592
O O13 0.643386 0.834513 0.266901
O O14 0.614286 0.000000 0.371871
O O15 0.500000 0.596505 0.500000
O O16 0.626622 0.500000 0.274499
O O17 0.617047 0.669561 0.216969
O O18 0.986885 0.000000 0.848192
O O19 0.000000 0.109161 0.000000
O O20 0.960255 0.500000 0.239143
O O21 0.250000 0.750000 0.000000
#
# Coordination Sequence:
#
# PCOD8109177 Si02
#       8
#     8   8   8   8   8   8   8   8
#     4  10  21  39  62  89 125 166 210 267 329 385
#     4  12  25  42  65  98 128 172 223 278 326 392
#     4  12  26  41  65  96 136 174 216 272 341 400
#     4  10  22  45  71  97 130 176 226 274 331 401
#     4  10  22  40  65  95 126 169 221 268 320 389
#     4  10  21  40  64  90 125 169 216 263 317 387
#     4  11  25  45  72  99 131 177 232 281 328 398
#     4  12  26  40  65  96 136 172 214 269 341 396
#
# _framework density 21.229085000000001
#
# number of rings (size 3 to 8) (size 9 to 14) (size 15 to 20)
#    0.000    1.125    1.250    4.875    5.250    3.500 
#    0.000    0.625    0.000    0.000    0.000    0.000 
#    0.000    0.000    0.000    0.000    0.000    0.000 
#
# Total GULP energy -396826.281980 kJ/mol
# GULP energy per Si atom -12400.821312 kJ/mol
# Density = 2.118077 g / cm^3
# Si number density = 21.229085 Si / 1000 Ang^3
#
#
#
# Elastic Constant Matrix: (Units=GPa)
#
#
# Indices 1 2 3 4 5 6 
#
# 1 133.1863 17.2484 42.5046 0.0000 0.9025 0.0000
# 2 17.2484 88.8659 55.8159 0.0000 -1.8552 0.0000
# 3 42.5046 55.8159 133.2702 0.0000 -6.3668 0.0000
# 4 0.0000 0.0000 0.0000 -54.6523 0.0000 31.2219
# 5 0.9025 -1.8552 -6.3668 0.0000 31.0011 0.0000
# 6 0.0000 0.0000 0.0000 31.2219 0.0000 19.6063
#
#
#
# Elastic Compliance Matrix: (Units=1/GPa)
#
#
# Indices 1 2 3 4 5 6 
#
# 1 0.008379 0.000081 -0.002745 0.000000 -0.000803 0.000000
# 2 0.000081 0.015275 -0.006443 0.000000 -0.000411 0.000000
# 3 -0.002745 -0.006443 0.011172 0.000000 0.001989 0.000000
# 4 0.000000 0.000000 0.000000 -0.009581 0.000000 0.015257
# 5 -0.000803 -0.000411 0.001989 0.000000 0.032664 0.000000
# 6 0.000000 0.000000 0.000000 0.015257 0.000000 0.026707
#
#
# Mechanical properties :
#
#
# Convention : Reuss Voigt Hill
#
# Bulk Modulus (GPa) = 60.19298 65.16224 62.67761
# Shear Modulus (GPa) = 46.13874 15.17459 30.65667
#
# Velocity S-wave (km/s) = 4.66700 2.67648 3.80424
# Velocity P-wave (km/s) = 7.58003 6.34924 6.99177
#
# Compressibility (1/GPa) = 0.01661323
#
# Stress axis : x y z
#
# Youngs Moduli (GPa) = 119.34376 65.46445 89.50661
#
# Poissons Ratio (x) = -0.00528 0.24566
# Poissons Ratio (y) = -0.00963 0.57669
# Poissons Ratio (z) = 0.32755 0.42179
#
# Static dielectric constant tensor:
#      x y z
#    x 4.205580 0.000000 0.510080 
#    y 0.000000 4.322990 0.000000 
#    z 0.510080 0.000000 4.661970 
# 
# 
# High freq. dielectric constant tensor:
#      x y z
#    x 1.840980 0.000000 0.009200 
#    y 0.000000 1.835230 0.000000 
#    z 0.009200 0.000000 1.834420 
# 
# From -- ./inp_files/183773.got.cif
#   From: 2010.06.25/outbox.cif.g09.slc.cpg/sg12_92_cif.got.tgz:183773.got - 2010.06.28 00:19:55.
