data_PCOD8109786
_publ_section_title
;
Structure prediction by ZEFSAII (Michael W. Deem and Ramdas Pophale) SiO2 
 PCOD8109786
Probable space group: C 2/M
;
_chemical_formula_sum "Si O2"
_cell_formula_units_Z 48
_cell_length_a 17.892080
_cell_length_b 14.312123
_cell_length_c 17.261290
_cell_angle_alpha 90.000000
_cell_angle_beta 146.542016
_cell_angle_gamma 90.000000
_cell_volume 2436.947030
_symmetry_space_group_name_H-M "C 2/M"
_symmetry_group_IT_number 12
_symmetry_cell_setting 'monoclinic'
loop_
_space_group_symop_operation_xyz
x,y,z
-x,y,-z
-x,-y,-z
x,-y,z
1/2+x,1/2+y,z
1/2-x,1/2+y,-z
1/2-x,1/2-y,-z
1/2+x,1/2-y,z
loop_
_atom_site_type_symbol
_atom_site_label
_atom_site_fract_x
_atom_site_fract_y
_atom_site_fract_z
Si Si1 0.928151 0.392256 0.614009
Si Si2 0.148548 0.206439 0.098418
Si Si3 0.852937 0.274583 0.406642
Si Si4 0.188364 0.605000 0.323703
Si Si5 0.111342 0.398448 0.990037
Si Si6 0.295127 0.159021 0.083294
O O1 0.970542 0.500000 0.635889
O O2 0.853876 0.350843 0.475265
O O3 0.823210 0.384860 0.593856
O O4 0.062311 0.331380 0.748226
O O5 0.254560 0.182367 0.256911
O O6 0.181020 0.140983 0.051059
O O7 0.170355 0.316472 0.094927
O O8 0.000000 0.182215 0.000000
O O9 0.801863 0.175011 0.392490
O O10 0.000000 0.257210 0.500000
O O11 0.232951 0.500000 0.340539
O O12 0.044754 0.629425 0.159730
O O13 0.123250 0.500000 0.042289
O O14 0.186910 0.413891 0.971878
O O15 0.250000 0.250000 0.000000
#
# Coordination Sequence:
#
# PCOD8109786 Si02
#       6
#     8   8   8   8   8   8
#     4  10  21  40  63  86 115 161 212 242 280 362
#     4  11  21  36  56  87 120 153 192 244 297 358
#     4  12  23  37  58  89 124 161 191 245 308 353
#     4   9  19  37  61  87 116 153 199 244 295 355
#     4   9  18  35  61  86 109 151 199 240 285 359
#     4   9  18  35  59  85 111 145 196 242 285 339
#
# _framework density 19.696777000000001
#
# number of rings (size 3 to 8) (size 9 to 14) (size 15 to 20)
#    0.000    2.000    3.333    2.000    0.000    1.667 
#    0.000    0.000    0.000    4.500    0.000    0.000 
#    0.000    0.000    0.000    0.000    0.000    0.000 
#
# Total GULP energy -297420.202390 kJ/mol
# GULP energy per Si atom -12392.508433 kJ/mol
# Density = 1.965195 g / cm^3
# Si number density = 19.696777 Si / 1000 Ang^3
#
#
#
# Elastic Constant Matrix: (Units=GPa)
#
#
# Indices 1 2 3 4 5 6 
#
# 1 91.0149 4.8233 33.9269 -0.0001 9.9865 0.0000
# 2 4.8233 55.0193 27.6055 0.0000 -1.2355 0.0000
# 3 33.9269 27.6055 99.3259 -0.0003 -6.4314 -0.0001
# 4 -0.0001 0.0000 -0.0003 24.9283 -0.0001 -2.2476
# 5 9.9865 -1.2355 -6.4314 -0.0001 35.3970 0.0000
# 6 0.0000 0.0000 -0.0001 -2.2476 0.0000 18.6017
#
#
#
# Elastic Compliance Matrix: (Units=1/GPa)
#
#
# Indices 1 2 3 4 5 6 
#
# 1 0.013387 0.001357 -0.005253 0.000000 -0.004684 0.000000
# 2 0.001357 0.021262 -0.006425 0.000000 -0.000808 0.000000
# 3 -0.005253 -0.006425 0.013893 0.000000 0.003782 0.000000
# 4 0.000000 0.000000 0.000000 0.040557 0.000000 0.004900
# 5 -0.004684 -0.000808 0.003782 0.000000 0.030231 0.000000
# 6 0.000000 0.000000 0.000000 0.004900 0.000000 0.054351
#
#
# Mechanical properties :
#
#
# Convention : Reuss Voigt Hill
#
# Bulk Modulus (GPa) = 35.84287 42.00794 38.92540
# Shear Modulus (GPa) = 24.55507 27.71903 26.13705
#
# Velocity S-wave (km/s) = 3.53463 3.75545 3.64671
# Velocity P-wave (km/s) = 5.90720 6.33863 6.12671
#
# Compressibility (1/GPa) = 0.02789955
#
# Stress axis : x y z
#
# Youngs Moduli (GPa) = 74.69681 47.03205 71.97964
#
# Poissons Ratio (x) = -0.06382 0.37812
# Poissons Ratio (y) = -0.10136 0.46248
# Poissons Ratio (z) = 0.39240 0.30219
#
# Static dielectric constant tensor:
#      x y z
#    x 4.144300 0.000000 -0.110380 
#    y 0.000000 3.532500 0.000000 
#    z -0.110380 0.000000 3.504440 
# 
# 
# High freq. dielectric constant tensor:
#      x y z
#    x 1.790320 0.000000 -0.014000 
#    y 0.000000 1.747630 0.000000 
#    z -0.014000 0.000000 1.748470 
# 
# From -- ./inp_files/278227.got.cif
#   From: 2010.06.25/outbox.cif.g09.slc.cpg/sg12_140_cif.got.tgz:278227.got - 2010.06.28 00:19:55.
