data_PCOD8109556
_publ_section_title
;
Structure prediction by ZEFSAII (Michael W. Deem and Ramdas Pophale) SiO2 
 PCOD8109556
Probable space group: C 2/M
;
_chemical_formula_sum "Si O2"
_cell_formula_units_Z 48
_cell_length_a 29.431727
_cell_length_b 8.533047
_cell_length_c 14.930192
_cell_angle_alpha 90.000000
_cell_angle_beta 139.865368
_cell_angle_gamma 90.000000
_cell_volume 2416.941024
_symmetry_space_group_name_H-M "C 2/M"
_symmetry_group_IT_number 12
_symmetry_cell_setting 'monoclinic'
loop_
_space_group_symop_operation_xyz
x,y,z
-x,y,-z
-x,-y,-z
x,-y,z
1/2+x,1/2+y,z
1/2-x,1/2+y,-z
1/2-x,1/2-y,-z
1/2+x,1/2-y,z
loop_
_atom_site_type_symbol
_atom_site_label
_atom_site_fract_x
_atom_site_fract_y
_atom_site_fract_z
Si Si1 0.076573 0.316617 0.399450
Si Si2 0.672226 0.816225 0.887560
Si Si3 0.827503 0.316828 0.617938
Si Si4 0.422859 0.680978 0.908699
Si Si5 0.420382 0.682463 0.404485
Si Si6 0.430743 0.680446 0.126468
O O1 0.087500 0.500000 0.434179
O O2 0.127203 0.251188 0.397341
O O3 0.095777 0.220604 0.517034
O O4 0.996309 0.288996 0.249882
O O5 0.632049 0.784183 0.734455
O O6 0.635197 0.726349 0.912901
O O7 0.673404 0.000000 0.909032
O O8 0.750000 0.750000 0.000000
O O9 0.822269 0.500000 0.600638
O O10 0.750000 0.250000 0.500000
O O11 0.864146 0.275033 0.766487
O O12 0.417680 0.500000 0.872783
O O13 0.500000 0.746889 0.000000
O O14 0.407598 0.707861 0.989757
O O15 0.500000 0.730760 0.500000
O O16 0.407256 0.500000 0.365516
O O17 0.452000 0.500000 0.175855
#
# Coordination Sequence:
#
# PCOD8109556 Si02
#       6
#     8   8   8   8   8   8
#     4  11  23  39  63  95 126 164 212 261 312 371
#     4  12  26  44  66  93 130 167 208 260 317 373
#     4  11  25  42  63  92 129 167 209 261 314 372
#     4  10  21  39  65  94 125 165 209 255 309 371
#     4  11  23  40  66  96 126 164 212 258 310 375
#     4  11  22  39  65  95 127 165 210 258 310 373
#
# _framework density 19.859814
#
# number of rings (size 3 to 8) (size 9 to 14) (size 15 to 20)
#    0.000    1.000    3.333    3.500    0.000    5.667 
#    0.000    1.667    0.000    0.000    0.000    0.000 
#    0.000    0.000    0.000    0.000    0.000    0.000 
#
# Total GULP energy -297774.785001 kJ/mol
# GULP energy per Si atom -12407.282708 kJ/mol
# Density = 1.981461 g / cm^3
# Si number density = 19.859814 Si / 1000 Ang^3
#
#
#
# Elastic Constant Matrix: (Units=GPa)
#
#
# Indices 1 2 3 4 5 6 
#
# 1 144.6178 22.6884 64.6575 0.0000 -1.9587 0.0000
# 2 22.6884 49.3030 25.4864 0.0000 -7.3838 0.0000
# 3 64.6575 25.4864 125.6162 0.0000 4.4848 0.0000
# 4 0.0000 0.0000 0.0000 38.8153 0.0000 -1.9617
# 5 -1.9587 -7.3838 4.4848 0.0000 38.3626 0.0000
# 6 0.0000 0.0000 0.0000 -1.9617 0.0000 31.9944
#
#
#
# Elastic Compliance Matrix: (Units=1/GPa)
#
#
# Indices 1 2 3 4 5 6 
#
# 1 0.009166 -0.001872 -0.004360 0.000000 0.000618 0.000000
# 2 -0.001872 0.024005 -0.004086 0.000000 0.005002 0.000000
# 3 -0.004360 -0.004086 0.011117 0.000000 -0.002309 0.000000
# 4 0.000000 0.000000 0.000000 0.025843 0.000000 0.001585
# 5 0.000618 0.005002 -0.002309 0.000000 0.027331 0.000000
# 6 0.000000 0.000000 0.000000 0.001585 0.000000 0.031353
#
#
# Mechanical properties :
#
#
# Convention : Reuss Voigt Hill
#
# Bulk Modulus (GPa) = 42.27860 60.57793 51.42827
# Shear Modulus (GPa) = 31.77937 35.61477 33.69707
#
# Velocity S-wave (km/s) = 4.00457 4.23934 4.12363
# Velocity P-wave (km/s) = 6.53581 7.38456 6.97311
#
# Compressibility (1/GPa) = 0.02365263
#
# Stress axis : x y z
#
# Youngs Moduli (GPa) = 109.09561 41.65754 89.95619
#
# Poissons Ratio (x) = 0.07797 0.39224
# Poissons Ratio (y) = 0.20419 0.36753
# Poissons Ratio (z) = 0.47570 0.17020
#
# Static dielectric constant tensor:
#      x y z
#    x 4.641650 0.000000 -0.630340 
#    y 0.000000 3.656170 0.000000 
#    z -0.630340 0.000000 3.939640 
# 
# 
# High freq. dielectric constant tensor:
#      x y z
#    x 1.787270 0.000000 -0.007980 
#    y 0.000000 1.781000 0.000000 
#    z -0.007980 0.000000 1.777190 
# 
# From -- ./inp_files/229865.got.cif
#   From: 2010.06.25/outbox.cif.g09.slc.cpg/sg12_115_cif.got.tgz:229865.got - 2010.06.28 00:19:55.
