data_PCOD8109620
_publ_section_title
;
Structure prediction by ZEFSAII (Michael W. Deem and Ramdas Pophale) SiO2 
 PCOD8109620
Probable space group: C 2/M
;
_chemical_formula_sum "Si O2"
_cell_formula_units_Z 48
_cell_length_a 18.785204
_cell_length_b 14.497788
_cell_length_c 12.039755
_cell_angle_alpha 90.000000
_cell_angle_beta 135.644908
_cell_angle_gamma 90.000000
_cell_volume 2292.326921
_symmetry_space_group_name_H-M "C 2/M"
_symmetry_group_IT_number 12
_symmetry_cell_setting 'monoclinic'
loop_
_space_group_symop_operation_xyz
x,y,z
-x,y,-z
-x,-y,-z
x,-y,z
1/2+x,1/2+y,z
1/2-x,1/2+y,-z
1/2-x,1/2-y,-z
1/2+x,1/2-y,z
loop_
_atom_site_type_symbol
_atom_site_label
_atom_site_fract_x
_atom_site_fract_y
_atom_site_fract_z
Si Si1 0.898284 0.735898 0.336396
Si Si2 0.315278 0.601389 0.388549
Si Si3 0.063219 0.772068 0.870924
Si Si4 0.289041 0.391032 0.828001
Si Si5 0.835769 0.819827 0.636842
Si Si6 0.603517 0.896746 0.052401
O O1 0.876139 0.822156 0.390331
O O2 0.916558 0.779772 0.236544
O O3 0.811332 0.658981 0.237694
O O4 0.000000 0.688497 0.500000
O O5 0.343649 0.500000 0.373898
O O6 0.343995 0.602797 0.550594
O O7 0.194579 0.620038 0.240733
O O8 0.944252 0.769478 0.769321
O O9 0.114703 0.857677 0.992388
O O10 0.114930 0.675852 0.965785
O O11 0.276679 0.500000 0.829100
O O12 0.304287 0.366610 0.716471
O O13 0.750000 0.750000 0.500000
O O14 0.606182 0.000000 0.004946
O O15 0.500000 0.877155 0.000000
#
# Coordination Sequence:
#
# PCOD8109620 Si02
#       6
#     8   8   8   8   8   8
#     4  12  25  48  66  94 133 179 225 276 335 399
#     4  11  23  41  68  96 128 169 222 274 324 393
#     4  12  24  43  70  94 139 177 217 275 336 399
#     4  12  27  44  68 102 137 177 225 277 342 404
#     4  12  22  44  71  97 138 176 219 272 332 394
#     4  10  21  39  67 101 129 166 220 273 329 391
#
# _framework density 20.939420999999999
#
# number of rings (size 3 to 8) (size 9 to 14) (size 15 to 20)
#    0.000    0.500    5.000    3.500    0.000    4.000 
#    0.000    4.167    0.000    0.000    0.000    0.000 
#    0.000    0.000    0.000    0.000    0.000    0.000 
#
# Total GULP energy -297671.719808 kJ/mol
# GULP energy per Si atom -12402.988325 kJ/mol
# Density = 2.089176 g / cm^3
# Si number density = 20.939421 Si / 1000 Ang^3
#
#
#
# Elastic Constant Matrix: (Units=GPa)
#
#
# Indices 1 2 3 4 5 6 
#
# 1 71.9308 34.0328 29.1911 0.0000 7.5123 0.0000
# 2 34.0328 124.0568 46.8980 0.0000 5.3836 0.0000
# 3 29.1911 46.8980 124.5410 0.0000 6.8868 0.0000
# 4 0.0000 0.0000 0.0000 23.0415 0.0000 1.9376
# 5 7.5123 5.3836 6.8868 0.0000 38.9335 0.0000
# 6 0.0000 0.0000 0.0000 1.9376 0.0000 12.7203
#
#
#
# Elastic Compliance Matrix: (Units=1/GPa)
#
#
# Indices 1 2 3 4 5 6 
#
# 1 0.016843 -0.003587 -0.002469 0.000000 -0.002317 0.000000
# 2 -0.003587 0.010180 -0.002983 0.000000 -0.000188 0.000000
# 3 -0.002469 -0.002983 0.009778 0.000000 -0.000841 0.000000
# 4 0.000000 0.000000 0.000000 0.043963 0.000000 -0.006697
# 5 -0.002317 -0.000188 -0.000841 0.000000 0.026307 0.000000
# 6 0.000000 0.000000 0.000000 -0.006697 0.000000 0.079634
#
#
# Mechanical properties :
#
#
# Convention : Reuss Voigt Hill
#
# Bulk Modulus (GPa) = 53.40491 60.08581 56.74536
# Shear Modulus (GPa) = 23.69401 28.96620 26.33010
#
# Velocity S-wave (km/s) = 3.36750 3.72335 3.54989
# Velocity P-wave (km/s) = 6.37808 6.87327 6.63030
#
# Compressibility (1/GPa) = 0.01872487
#
# Stress axis : x y z
#
# Youngs Moduli (GPa) = 59.37095 98.22763 102.27223
#
# Poissons Ratio (x) = 0.35231 0.25252
# Poissons Ratio (y) = 0.21294 0.30503
# Poissons Ratio (z) = 0.14659 0.29297
#
# Static dielectric constant tensor:
#      x y z
#    x 3.795380 0.000000 0.043370 
#    y 0.000000 3.822260 0.000000 
#    z 0.043370 0.000000 4.204100 
# 
# 
# High freq. dielectric constant tensor:
#      x y z
#    x 1.820730 0.000000 0.006020 
#    y 0.000000 1.817290 0.000000 
#    z 0.006020 0.000000 1.840690 
# 
# From -- ./inp_files/143889.got.cif
#   From: 2010.06.25/outbox.cif.g09.slc.cpg/sg12_72_cif.got.tgz:143889.got - 2010.06.28 00:19:55.
