data_PCOD8109081
_publ_section_title
;
Structure prediction by ZEFSAII (Michael W. Deem and Ramdas Pophale) SiO2 
 PCOD8109081
Probable space group: C 2/M
;
_chemical_formula_sum "Si O2"
_cell_formula_units_Z 64
_cell_length_a 25.510951
_cell_length_b 14.986309
_cell_length_c 13.473018
_cell_angle_alpha 90.000000
_cell_angle_beta 138.516219
_cell_angle_gamma 90.000000
_cell_volume 3412.021803
_symmetry_space_group_name_H-M "C 2/M"
_symmetry_group_IT_number 12
_symmetry_cell_setting 'monoclinic'
loop_
_space_group_symop_operation_xyz
x,y,z
-x,y,-z
-x,-y,-z
x,-y,z
1/2+x,1/2+y,z
1/2-x,1/2+y,-z
1/2-x,1/2-y,-z
1/2+x,1/2-y,z
loop_
_atom_site_type_symbol
_atom_site_label
_atom_site_fract_x
_atom_site_fract_y
_atom_site_fract_z
Si Si1 0.531293 0.900713 0.329114
Si Si2 0.600337 0.843999 0.725954
Si Si3 0.191808 0.732107 0.133349
Si Si4 0.561659 0.102992 0.003354
Si Si5 0.139955 0.729522 0.572984
Si Si6 0.255801 0.096924 0.956080
Si Si7 0.961419 0.100785 0.552308
Si Si8 0.609022 0.336294 0.857052
O O1 0.478405 0.897844 0.354437
O O2 0.474239 0.879055 0.155680
O O3 0.602171 0.827692 0.428935
O O4 0.567742 0.000000 0.369753
O O5 0.605178 0.824063 0.617217
O O6 0.594896 0.753479 0.778351
O O7 0.677739 0.899268 0.865231
O O8 0.264408 0.772847 0.300098
O O9 0.235241 0.677760 0.107322
O O10 0.138558 0.666047 0.124177
O O11 0.138467 0.811931 0.010564
O O12 0.587291 0.000000 0.052887
O O13 0.500000 0.131401 0.000000
O O14 0.111296 0.832100 0.532260
O O15 0.172140 0.102351 0.891200
O O16 0.261421 0.000000 0.910708
O O17 0.000000 0.122097 0.500000
O O18 0.025499 0.111673 0.732644
O O19 0.927756 0.000000 0.506922
#
# Coordination Sequence:
#
# PCOD8109081 Si02
#       8
#     8   8   8   8   8   8   8   8
#     4  11  22  36  56  79 110 149 181 218 270 321
#     4  11  18  31  49  72 110 151 179 213 257 305
#     4  11  20  34  54  74 104 144 171 221 275 311
#     4  10  21  39  62  83 100 126 178 239 282 319
#     4  12  21  35  50  77 118 147 176 214 255 324
#     4  11  19  28  47  76 107 143 188 219 250 305
#     4  11  20  30  45  67 100 147 187 215 250 295
#     4  11  18  33  47  69 105 149 182 214 253 304
#
# _framework density 18.757207000000001
#
# number of rings (size 3 to 8) (size 9 to 14) (size 15 to 20)
#    0.000    1.000    7.500    2.250    0.000    3.500 
#    0.000    0.625    0.000    0.000    0.000    0.000 
#    0.000   14.000    0.000    0.000    0.000    0.000 
#
# Total GULP energy -396707.864951 kJ/mol
# GULP energy per Si atom -12397.120780 kJ/mol
# Density = 1.871452 g / cm^3
# Si number density = 18.757207 Si / 1000 Ang^3
#
#
#
# Elastic Constant Matrix: (Units=GPa)
#
#
# Indices 1 2 3 4 5 6 
#
# 1 63.9784 11.1226 18.6781 0.0000 10.0099 0.0000
# 2 11.1226 78.3342 26.0295 0.0000 3.6392 0.0000
# 3 18.6781 26.0295 85.9626 0.0000 22.9010 0.0000
# 4 0.0000 0.0000 0.0000 19.3338 0.0000 4.3732
# 5 10.0099 3.6392 22.9010 0.0000 12.5558 0.0000
# 6 0.0000 0.0000 0.0000 4.3732 0.0000 19.7808
#
#
#
# Elastic Compliance Matrix: (Units=1/GPa)
#
#
# Indices 1 2 3 4 5 6 
#
# 1 0.018164 -0.002123 0.000759 0.000000 -0.015249 0.000000
# 2 -0.002123 0.014789 -0.006469 0.000000 0.009205 0.000000
# 3 0.000759 -0.006469 0.025460 0.000000 -0.045166 0.000000
# 4 0.000000 0.000000 0.000000 0.054446 0.000000 -0.012037
# 5 -0.015249 0.009205 -0.045166 0.000000 0.171514 0.000000
# 6 0.000000 0.000000 0.000000 -0.012037 0.000000 0.053215
#
#
# Mechanical properties :
#
#
# Convention : Reuss Voigt Hill
#
# Bulk Modulus (GPa) = 23.39419 37.77065 30.58242
# Shear Modulus (GPa) = 13.60534 21.83043 17.71789
#
# Velocity S-wave (km/s) = 2.69613 3.41521 3.07675
# Velocity P-wave (km/s) = 4.71077 5.97762 5.38160
#
# Compressibility (1/GPa) = 0.04274566
#
# Stress axis : x y z
#
# Youngs Moduli (GPa) = 55.05495 67.61677 39.27778
#
# Poissons Ratio (x) = 0.14353 -0.02979
# Poissons Ratio (y) = 0.11686 0.25410
# Poissons Ratio (z) = -0.04176 0.43743
#
# Static dielectric constant tensor:
#      x y z
#    x 2.975310 0.000000 0.186500 
#    y 0.000000 3.600370 0.000000 
#    z 0.186500 0.000000 3.762780 
# 
# 
# High freq. dielectric constant tensor:
#      x y z
#    x 1.656400 0.000000 0.023630 
#    y 0.000000 1.731520 0.000000 
#    z 0.023630 0.000000 1.737850 
# 
# From -- ./inp_files/246378.got.cif
#   From: 2010.06.25/outbox.cif.g09.slc.cpg/sg12_124_cif.got.tgz:246378.got - 2010.06.28 00:19:55.
