data_PCOD8109324
_publ_section_title
;
Structure prediction by ZEFSAII (Michael W. Deem and Ramdas Pophale) SiO2 
 PCOD8109324
Probable space group: C 2/M
;
_chemical_formula_sum "Si O2"
_cell_formula_units_Z 40
_cell_length_a 13.358156
_cell_length_b 16.989729
_cell_length_c 19.160027
_cell_angle_alpha 90.000000
_cell_angle_beta 25.763597
_cell_angle_gamma 90.000000
_cell_volume 1890.069386
_symmetry_space_group_name_H-M "C 2/M"
_symmetry_group_IT_number 12
_symmetry_cell_setting 'monoclinic'
loop_
_space_group_symop_operation_xyz
x,y,z
-x,y,-z
-x,-y,-z
x,-y,z
1/2+x,1/2+y,z
1/2-x,1/2+y,-z
1/2-x,1/2-y,-z
1/2+x,1/2-y,z
loop_
_atom_site_type_symbol
_atom_site_label
_atom_site_fract_x
_atom_site_fract_y
_atom_site_fract_z
Si Si1 0.578829 0.192942 0.568277
Si Si2 0.123428 0.590748 0.054387
Si Si3 0.020902 0.091714 0.702087
Si Si4 0.250286 0.090256 0.867195
Si Si5 0.128439 0.157003 0.351009
O O1 0.750000 0.250000 0.500000
O O2 0.439006 0.143565 0.712358
O O3 0.411531 0.248263 0.627503
O O4 0.742450 0.134085 0.420885
O O5 0.055551 0.500000 0.082689
O O6 0.236487 0.601640 0.058550
O O7 0.899788 0.644389 0.187172
O O8 0.307252 0.621744 0.882439
O O9 0.971878 0.110414 0.652079
O O10 0.057594 0.000000 0.690877
O O11 0.295858 0.000000 0.816920
O O12 0.000000 0.118146 0.000000
O O13 0.000000 0.122930 0.500000
#
# Coordination Sequence:
#
# PCOD8109324 Si02
#       5
#     8   8   8   8   8
#     4  10  22  38  56  85 122 159 196 238 292 353
#     4  10  21  39  64  92 120 153 198 253 305 352
#     4  10  21  39  63  91 122 157 201 249 297 353
#     4  10  22  42  66  89 116 156 205 251 298 356
#     4  11  23  38  58  91 127 160 198 243 301 360
#
# _framework density 21.163245
#
# number of rings (size 3 to 8) (size 9 to 14) (size 15 to 20)
#    0.000    1.800    0.000    4.200    0.000    9.600 
#    0.000    6.000    0.000    6.000    0.000    0.000 
#    0.000    0.000    0.000    0.000    0.000    0.600 
#
# Total GULP energy -248017.639545 kJ/mol
# GULP energy per Si atom -12400.881977 kJ/mol
# Density = 2.111508 g / cm^3
# Si number density = 21.163245 Si / 1000 Ang^3
#
#
#
# Elastic Constant Matrix: (Units=GPa)
#
#
# Indices 1 2 3 4 5 6 
#
# 1 81.5176 39.6430 62.6907 0.1634 -6.1696 0.0480
# 2 39.6430 94.5365 86.4355 0.1910 -8.7805 0.1249
# 3 62.6907 86.4355 197.3127 0.1075 8.2754 0.0392
# 4 0.1634 0.1910 0.1075 33.5836 -0.0161 -16.8496
# 5 -6.1696 -8.7805 8.2754 -0.0161 36.1285 -0.0297
# 6 0.0480 0.1249 0.0392 -16.8496 -0.0297 30.6731
#
#
#
# Elastic Compliance Matrix: (Units=1/GPa)
#
#
# Indices 1 2 3 4 5 6 
#
# 1 0.017288 -0.003014 -0.004307 -0.000076 0.003206 -0.000048
# 2 -0.003014 0.019620 -0.007892 -0.000136 0.006061 -0.000134
# 3 -0.004307 -0.007892 0.010102 0.000058 -0.004967 0.000053
# 4 -0.000076 -0.000136 0.000058 0.041107 -0.000022 0.022582
# 5 0.003206 0.006061 -0.004967 -0.000022 0.030837 -0.000006
# 6 -0.000048 -0.000134 0.000053 0.022582 -0.000006 0.045007
#
#
# Mechanical properties :
#
#
# Convention : Reuss Voigt Hill
#
# Bulk Modulus (GPa) = 60.29259 83.43390 71.86325
# Shear Modulus (GPa) = 25.01061 32.38355 28.69708
#
# Velocity S-wave (km/s) = 3.44145 3.91599 3.68637
# Velocity P-wave (km/s) = 6.65902 7.74314 7.22146
#
# Compressibility (1/GPa) = 0.01658579
#
# Stress axis : x y z
#
# Youngs Moduli (GPa) = 57.84364 50.96733 98.99145
#
# Poissons Ratio (x) = 0.15359 0.42637
# Poissons Ratio (y) = 0.17431 0.78120
# Poissons Ratio (z) = 0.24914 0.40222
#
# Static dielectric constant tensor:
#      x y z
#    x 3.812040 0.000940 -0.121690 
#    y 0.000940 4.235860 0.000330 
#    z -0.121690 0.000330 4.087780 
# 
# 
# High freq. dielectric constant tensor:
#      x y z
#    x 1.821500 0.000000 -0.000210 
#    y 0.000000 1.831240 0.000020 
#    z -0.000210 0.000020 1.846190 
# 
# From -- ./inp_files/61391.got.cif
#   From: 2010.06.25/outbox.cif.g09.slc.cpg/sg12_31_cif.got.tgz:61391.got - 2010.06.28 00:19:55.
