data_PCOD8109641
_publ_section_title
;
Structure prediction by ZEFSAII (Michael W. Deem and Ramdas Pophale) SiO2 
 PCOD8109641
Probable space group: C 2/M
;
_chemical_formula_sum "Si O2"
_cell_formula_units_Z 40
_cell_length_a 9.110918
_cell_length_b 15.063820
_cell_length_c 13.614890
_cell_angle_alpha 90.000000
_cell_angle_beta 99.372641
_cell_angle_gamma 90.000000
_cell_volume 1843.633238
_symmetry_space_group_name_H-M "C 2/M"
_symmetry_group_IT_number 12
_symmetry_cell_setting 'monoclinic'
loop_
_space_group_symop_operation_xyz
x,y,z
-x,y,-z
-x,-y,-z
x,-y,z
1/2+x,1/2+y,z
1/2-x,1/2+y,-z
1/2-x,1/2-y,-z
1/2+x,1/2-y,z
loop_
_atom_site_type_symbol
_atom_site_label
_atom_site_fract_x
_atom_site_fract_y
_atom_site_fract_z
Si Si1 0.575143 0.000000 0.904858
Si Si2 0.863056 0.155317 0.205863
Si Si3 0.526945 0.172299 0.219471
Si Si4 0.395306 0.899082 0.395548
Si Si5 0.068491 0.897097 0.407937
Si Si6 0.641923 0.500000 0.950294
O O1 0.528582 0.913127 0.842675
O O2 0.500000 0.000000 0.000000
O O3 0.747723 0.000000 0.945586
O O4 0.703397 0.183111 0.230971
O O5 0.946852 0.240050 0.168233
O O6 0.841792 0.085874 0.116070
O O7 0.959130 0.114735 0.304524
O O8 0.477013 0.164399 0.327010
O O9 0.500000 0.899212 0.500000
O O10 0.232319 0.857884 0.401681
O O11 0.379993 0.000000 0.352321
O O12 0.000000 0.852809 0.500000
O O13 0.093202 0.000000 0.432727
O O14 0.500000 0.500000 0.000000
#
# Coordination Sequence:
#
# PCOD8109641 Si02
#       6
#     4   8   8   8   8   4
#     4  12  26  52  73 100 133 182 225 286 349 400
#     4  12  26  46  69 106 137 181 226 283 340 406
#     4  12  26  44  73 101 142 176 231 280 340 409
#     4  10  21  39  68 103 138 184 226 274 336 405
#     4  10  21  39  68 101 142 181 227 275 334 405
#     4  12  30  48  77  98 137 178 229 286 345 408
#
# _framework density 21.696290000000001
#
# number of rings (size 3 to 8) (size 9 to 14) (size 15 to 20)
#    0.000    0.800    4.000    2.400    5.600    4.000 
#    0.000    4.000    0.000    0.000    0.000    0.000 
#    0.000    0.000    0.000    0.000    0.000    0.000 
#
# Total GULP energy -248021.612079 kJ/mol
# GULP energy per Si atom -12401.080604 kJ/mol
# Density = 2.164691 g / cm^3
# Si number density = 21.696290 Si / 1000 Ang^3
#
#
#
# Elastic Constant Matrix: (Units=GPa)
#
#
# Indices 1 2 3 4 5 6 
#
# 1 204.1456 24.7997 36.9590 0.0000 -9.9151 0.0000
# 2 24.7997 87.0557 13.9202 0.0000 -5.1916 0.0000
# 3 36.9590 13.9202 70.5531 0.0000 -2.8677 0.0000
# 4 0.0000 0.0000 0.0000 33.7043 0.0000 -4.5691
# 5 -9.9151 -5.1916 -2.8677 0.0000 47.8211 0.0000
# 6 0.0000 0.0000 0.0000 -4.5691 0.0000 29.5123
#
#
#
# Elastic Compliance Matrix: (Units=1/GPa)
#
#
# Indices 1 2 3 4 5 6 
#
# 1 0.005556 -0.001106 -0.002657 0.000000 0.000873 0.000000
# 2 -0.001106 0.012145 -0.001777 0.000000 0.000983 0.000000
# 3 -0.002657 -0.001777 0.015925 0.000000 0.000211 0.000000
# 4 0.000000 0.000000 0.000000 0.030306 0.000000 0.004692
# 5 0.000873 0.000983 0.000211 0.000000 0.021212 0.000000
# 6 0.000000 0.000000 0.000000 0.004692 0.000000 0.034611
#
#
# Mechanical properties :
#
#
# Convention : Reuss Voigt Hill
#
# Bulk Modulus (GPa) = 44.35353 57.01245 50.68299
# Shear Modulus (GPa) = 36.14064 41.27925 38.70995
#
# Velocity S-wave (km/s) = 4.08579 4.36661 4.22853
# Velocity P-wave (km/s) = 6.53801 7.19427 6.87398
#
# Compressibility (1/GPa) = 0.02254612
#
# Stress axis : x y z
#
# Youngs Moduli (GPa) = 179.97875 82.34070 62.79548
#
# Poissons Ratio (x) = 0.09106 0.16684
# Poissons Ratio (y) = 0.19904 0.11158
# Poissons Ratio (z) = 0.47819 0.14631
#
# Static dielectric constant tensor:
#      x y z
#    x 4.204760 0.000000 -0.261240 
#    y 0.000000 4.068870 0.000000 
#    z -0.261240 0.000000 3.607560 
# 
# 
# High freq. dielectric constant tensor:
#      x y z
#    x 1.876700 0.000000 -0.002640 
#    y 0.000000 1.852670 0.000000 
#    z -0.002640 0.000000 1.853200 
# 
# From -- ./inp_files/194584.got.cif
#   From: 2010.06.25/outbox.cif.g09.slc.cpg/sg12_98_cif.got.tgz:194584.got - 2010.06.28 00:19:55.
