data_PCOD8109474
_publ_section_title
;
Structure prediction by ZEFSAII (Michael W. Deem and Ramdas Pophale) SiO2 
 PCOD8109474
Probable space group: C 2/M
;
_chemical_formula_sum "Si O2"
_cell_formula_units_Z 48
_cell_length_a 24.598132
_cell_length_b 8.527485
_cell_length_c 10.997224
_cell_angle_alpha 90.000000
_cell_angle_beta 78.267697
_cell_angle_gamma 90.000000
_cell_volume 2258.587427
_symmetry_space_group_name_H-M "C 2/M"
_symmetry_group_IT_number 12
_symmetry_cell_setting 'monoclinic'
loop_
_space_group_symop_operation_xyz
x,y,z
-x,y,-z
-x,-y,-z
x,-y,z
1/2+x,1/2+y,z
1/2-x,1/2+y,-z
1/2-x,1/2-y,-z
1/2+x,1/2-y,z
loop_
_atom_site_type_symbol
_atom_site_label
_atom_site_fract_x
_atom_site_fract_y
_atom_site_fract_z
Si Si1 0.864696 0.319015 0.683647
Si Si2 0.341631 0.674569 0.204946
Si Si3 0.517909 0.316490 0.358911
Si Si4 0.761477 0.818570 0.865311
Si Si5 0.034448 0.813500 0.868238
Si Si6 0.190183 0.175084 0.512147
O O1 0.880040 0.500000 0.691923
O O2 0.917585 0.216065 0.695094
O O3 0.813305 0.276775 0.791772
O O4 0.847477 0.284472 0.553813
O O5 0.329909 0.500000 0.155985
O O6 0.293618 0.794254 0.189420
O O7 0.401822 0.737042 0.136019
O O8 0.343161 0.663212 0.348747
O O9 0.500000 0.243533 0.500000
O O10 0.506406 0.500000 0.369903
O O11 0.485810 0.246188 0.254514
O O12 0.776785 0.000000 0.862869
O O13 0.750000 0.750000 0.000000
O O14 0.028909 0.000000 0.866287
O O15 0.000000 0.746682 0.000000
O O16 0.250000 0.250000 0.500000
O O17 0.196887 0.000000 0.452008
#
# Coordination Sequence:
#
# PCOD8109474 Si02
#       6
#     8   8   8   8   8   8
#     4  12  25  41  63  94 130 167 213 265 319 381
#     4  10  21  39  64  93 126 161 205 260 315 381
#     4  10  21  40  65  93 126 169 217 265 322 387
#     4  12  26  43  64  91 126 167 211 261 323 386
#     4   9  19  36  61  92 121 159 209 259 314 380
#     4  11  21  36  60  91 126 163 205 254 314 380
#
# _framework density 21.252220999999999
#
# number of rings (size 3 to 8) (size 9 to 14) (size 15 to 20)
#    0.000    1.333    1.667    4.500    2.333    3.667 
#    0.000    0.833    0.000    1.000    0.000    0.000 
#    0.000    0.000    0.000    0.000    0.000    0.000 
#
# Total GULP energy -297577.759414 kJ/mol
# GULP energy per Si atom -12399.073309 kJ/mol
# Density = 2.120385 g / cm^3
# Si number density = 21.252221 Si / 1000 Ang^3
#
#
#
# Elastic Constant Matrix: (Units=GPa)
#
#
# Indices 1 2 3 4 5 6 
#
# 1 98.4984 -6.2773 37.1289 0.0000 -14.6669 0.0000
# 2 -6.2773 45.4602 14.8137 0.0000 0.9014 0.0000
# 3 37.1289 14.8137 130.4960 0.0000 -4.5560 0.0000
# 4 0.0000 0.0000 0.0000 21.7697 0.0000 0.2979
# 5 -14.6669 0.9014 -4.5560 0.0000 39.3497 0.0000
# 6 0.0000 0.0000 0.0000 0.2979 0.0000 31.5675
#
#
#
# Elastic Compliance Matrix: (Units=1/GPa)
#
#
# Indices 1 2 3 4 5 6 
#
# 1 0.012333 0.002823 -0.003686 0.000000 0.004106 0.000000
# 2 0.002823 0.023515 -0.003469 0.000000 0.000112 0.000000
# 3 -0.003686 -0.003469 0.009097 0.000000 -0.000241 0.000000
# 4 0.000000 0.000000 0.000000 0.045941 0.000000 -0.000434
# 5 0.004106 0.000112 -0.000241 0.000000 0.026913 0.000000
# 6 0.000000 0.000000 0.000000 -0.000434 0.000000 0.031682
#
#
# Mechanical properties :
#
#
# Convention : Reuss Voigt Hill
#
# Bulk Modulus (GPa) = 27.56229 40.64279 34.10254
# Shear Modulus (GPa) = 29.37033 33.79000 31.58017
#
# Velocity S-wave (km/s) = 3.72154 3.99175 3.85901
# Velocity P-wave (km/s) = 5.60926 6.35696 5.99478
#
# Compressibility (1/GPa) = 0.03628146
#
# Stress axis : x y z
#
# Youngs Moduli (GPa) = 81.08221 42.52585 109.92403
#
# Poissons Ratio (x) = -0.12004 0.40520
# Poissons Ratio (y) = -0.22888 0.38129
# Poissons Ratio (z) = 0.29888 0.14751
#
# Static dielectric constant tensor:
#      x y z
#    x 3.728160 0.000000 -0.019170 
#    y 0.000000 3.438830 0.000000 
#    z -0.019170 0.000000 4.142330 
# 
# 
# High freq. dielectric constant tensor:
#      x y z
#    x 1.841420 0.000000 -0.004070 
#    y 0.000000 1.805020 0.000000 
#    z -0.004070 0.000000 1.846910 
# 
# From -- ./inp_files/172899.got.cif
#   From: 2010.06.25/outbox.cif.g09.slc.cpg/sg12_87_cif.got.tgz:172899.got - 2010.06.28 00:19:55.
