data_PCOD8109005
_publ_section_title
;
Structure prediction by ZEFSAII (Michael W. Deem and Ramdas Pophale) SiO2 
 PCOD8109005
Probable space group: C 2/M
;
_chemical_formula_sum "Si O2"
_cell_formula_units_Z 64
_cell_length_a 19.993914
_cell_length_b 8.852561
_cell_length_c 32.933552
_cell_angle_alpha 90.000000
_cell_angle_beta 146.492225
_cell_angle_gamma 90.000000
_cell_volume 3217.983730
_symmetry_space_group_name_H-M "C 2/M"
_symmetry_group_IT_number 12
_symmetry_cell_setting 'monoclinic'
loop_
_space_group_symop_operation_xyz
x,y,z
-x,y,-z
-x,-y,-z
x,-y,z
1/2+x,1/2+y,z
1/2-x,1/2+y,-z
1/2-x,1/2-y,-z
1/2+x,1/2-y,z
loop_
_atom_site_type_symbol
_atom_site_label
_atom_site_fract_x
_atom_site_fract_y
_atom_site_fract_z
Si Si1 0.955477 0.672044 0.280920
Si Si2 0.011301 0.676830 0.052761
Si Si3 0.184311 0.822307 0.281029
Si Si4 0.715487 0.326977 0.204815
Si Si5 0.280473 0.322224 0.972989
Si Si6 0.362143 0.320850 0.435180
Si Si7 0.076549 0.824095 0.817705
Si Si8 0.778893 0.676796 0.557214
O O1 0.959929 0.500000 0.266293
O O2 0.857481 0.687481 0.266960
O O3 0.921698 0.788681 0.228789
O O4 0.084067 0.721398 0.363477
O O5 0.990027 0.500000 0.048729
O O6 0.142174 0.724504 0.135896
O O7 0.913385 0.770169 0.028024
O O8 0.000000 0.720432 0.000000
O O9 0.197245 0.767515 0.241253
O O10 0.284638 0.741443 0.358746
O O11 0.051135 0.773693 0.228048
O O12 0.204693 0.000000 0.295559
O O13 0.671005 0.500000 0.178221
O O14 0.279676 0.500000 0.977180
O O15 0.183184 0.272694 0.890787
O O16 0.250000 0.250000 0.000000
O O17 0.500000 0.263579 0.500000
O O18 0.354289 0.500000 0.429412
O O19 0.308290 0.261527 0.450877
O O20 0.102733 0.000000 0.838407
O O21 0.761047 0.500000 0.543436
O O22 0.750000 0.750000 0.500000
#
# Coordination Sequence:
#
# PCOD8109005 Si02
#       8
#     8   8   8   8   8   8   8   8
#     4  10  21  39  61  86 118 160 203 248 304 364
#     4  11  24  42  63  91 126 163 208 257 309 368
#     4  10  22  39  60  87 118 155 198 247 296 356
#     4  10  22  39  60  87 119 157 204 251 304 364
#     4  12  25  41  64  92 124 162 205 253 309 368
#     4  10  22  40  61  87 120 158 198 243 297 358
#     4  11  22  38  61  89 120 155 200 250 303 361
#     4  10  22  39  60  88 122 157 201 248 299 359
#
# _framework density 19.888228999999999
#
# number of rings (size 3 to 8) (size 9 to 14) (size 15 to 20)
#    0.000    1.500    1.250    3.375    1.750    6.750 
#    0.000    0.000    0.000    0.000    0.000    0.000 
#    0.000    0.000    0.000    0.000    0.000    0.000 
#
# Total GULP energy -396971.740152 kJ/mol
# GULP energy per Si atom -12405.366880 kJ/mol
# Density = 1.984296 g / cm^3
# Si number density = 19.888229 Si / 1000 Ang^3
#
#
#
# Elastic Constant Matrix: (Units=GPa)
#
#
# Indices 1 2 3 4 5 6 
#
# 1 125.8918 31.2508 55.2527 0.0001 -4.1329 -0.0001
# 2 31.2508 64.4778 32.3841 0.0001 -2.2184 0.0000
# 3 55.2527 32.3841 122.7253 0.0000 -2.7154 0.0001
# 4 0.0001 0.0001 0.0000 35.7811 0.0000 -2.3171
# 5 -4.1329 -2.2184 -2.7154 0.0000 43.4091 0.0000
# 6 -0.0001 0.0000 0.0001 -2.3171 0.0000 27.8072
#
#
#
# Elastic Compliance Matrix: (Units=1/GPa)
#
#
# Indices 1 2 3 4 5 6 
#
# 1 0.010427 -0.003092 -0.003865 0.000000 0.000593 0.000000
# 2 -0.003092 0.018812 -0.003562 0.000000 0.000444 0.000000
# 3 -0.003865 -0.003562 0.010831 0.000000 0.000127 0.000000
# 4 0.000000 0.000000 0.000000 0.028099 0.000000 0.002341
# 5 0.000593 0.000444 0.000127 0.000000 0.023124 0.000000
# 6 0.000000 0.000000 0.000000 0.002341 0.000000 0.036157
#
#
# Mechanical properties :
#
#
# Convention : Reuss Voigt Hill
#
# Bulk Modulus (GPa) = 52.54454 61.20782 56.87618
# Shear Modulus (GPa) = 32.29287 34.34663 33.31975
#
# Velocity S-wave (km/s) = 4.03391 4.16021 4.09754
# Velocity P-wave (km/s) = 6.94074 7.34297 7.14468
#
# Compressibility (1/GPa) = 0.01903147
#
# Stress axis : x y z
#
# Youngs Moduli (GPa) = 95.90731 53.15703 92.32506
#
# Poissons Ratio (x) = 0.16435 0.35686
# Poissons Ratio (y) = 0.29653 0.32888
# Poissons Ratio (z) = 0.37071 0.18936
#
# Static dielectric constant tensor:
#      x y z
#    x 3.845700 0.000000 0.131720 
#    y 0.000000 3.528010 0.000000 
#    z 0.131720 0.000000 3.641170 
# 
# 
# High freq. dielectric constant tensor:
#      x y z
#    x 1.792860 0.000000 0.003590 
#    y 0.000000 1.770100 0.000000 
#    z 0.003590 0.000000 1.785150 
# 
# From -- ./inp_files/378295.got.cif
#   From: 2010.06.25/outbox.cif.g09.slc.cpg/sg12_190_cif.got.tgz:378295.got - 2010.06.28 00:19:55.
