data_PCOD8109194
_publ_section_title
;
Structure prediction by ZEFSAII (Michael W. Deem and Ramdas Pophale) SiO2 
 PCOD8109194
Probable space group: C 2/M
;
_chemical_formula_sum "Si O2"
_cell_formula_units_Z 40
_cell_length_a 13.813350
_cell_length_b 13.303170
_cell_length_c 10.325547
_cell_angle_alpha 90.000000
_cell_angle_beta 118.948156
_cell_angle_gamma 90.000000
_cell_volume 1660.366944
_symmetry_space_group_name_H-M "C 2/M"
_symmetry_group_IT_number 12
_symmetry_cell_setting 'monoclinic'
loop_
_space_group_symop_operation_xyz
x,y,z
-x,y,-z
-x,-y,-z
x,-y,z
1/2+x,1/2+y,z
1/2-x,1/2+y,-z
1/2-x,1/2-y,-z
1/2+x,1/2-y,z
loop_
_atom_site_type_symbol
_atom_site_label
_atom_site_fract_x
_atom_site_fract_y
_atom_site_fract_z
Si Si1 0.476598 0.231256 0.800072
Si Si2 0.386187 0.710197 0.480765
Si Si3 0.788705 0.616393 0.796671
Si Si4 0.157012 0.884644 0.962960
Si Si5 0.858704 0.614843 0.270384
O O1 0.392207 0.278344 0.639095
O O2 0.403921 0.176950 0.863513
O O3 0.545972 0.320910 0.910205
O O4 0.556480 0.149683 0.785792
O O5 0.500000 0.662039 0.500000
O O6 0.286168 0.635857 0.379049
O O7 0.370496 0.820305 0.407330
O O8 0.817575 0.500000 0.829478
O O9 0.722762 0.657135 0.879251
O O10 0.122818 0.000000 0.917028
O O11 0.233194 0.873848 0.138406
O O12 0.885692 0.500000 0.322666
#
# Coordination Sequence:
#
# PCOD8109194 Si02
#       5
#     8   8   8   8   8
#     4  11  22  39  64  94 126 163 210 260 311 366
#     4  10  21  39  62  90 123 170 207 254 310 374
#     4  11  23  39  64  96 123 160 211 262 313 368
#     4  10  22  42  66  92 126 166 208 255 313 371
#     4  10  21  39  63  90 126 170 207 251 311 373
#
# _framework density 24.091059999999999
#
# number of rings (size 3 to 8) (size 9 to 14) (size 15 to 20)
#    0.000    1.600    4.000    1.800    0.000    6.400 
#    0.000    4.000    0.000    2.400    0.000    0.000 
#    0.000    0.000    0.000    0.000    0.000    0.000 
#
# Total GULP energy -248140.316268 kJ/mol
# GULP energy per Si atom -12407.015813 kJ/mol
# Density = 2.403623 g / cm^3
# Si number density = 24.091060 Si / 1000 Ang^3
#
#
#
# Elastic Constant Matrix: (Units=GPa)
#
#
# Indices 1 2 3 4 5 6 
#
# 1 100.5037 50.6434 22.2846 0.0000 18.1135 0.0000
# 2 50.6434 83.6705 17.2449 0.0000 17.4494 0.0000
# 3 22.2846 17.2449 78.3154 0.0000 22.3964 0.0000
# 4 0.0000 0.0000 0.0000 32.2252 0.0000 6.3456
# 5 18.1135 17.4494 22.3964 0.0000 30.3525 0.0000
# 6 0.0000 0.0000 0.0000 6.3456 0.0000 34.6384
#
#
#
# Elastic Compliance Matrix: (Units=1/GPa)
#
#
# Indices 1 2 3 4 5 6 
#
# 1 0.014920 -0.008057 -0.001584 0.000000 -0.003103 0.000000
# 2 -0.008057 0.017988 -0.000109 0.000000 -0.005452 0.000000
# 3 -0.001584 -0.000109 0.016420 0.000000 -0.011108 0.000000
# 4 0.000000 0.000000 0.000000 0.032193 0.000000 -0.005898
# 5 -0.003103 -0.005452 -0.011108 0.000000 0.046129 0.000000
# 6 0.000000 0.000000 0.000000 -0.005898 0.000000 0.029950
#
#
# Mechanical properties :
#
#
# Convention : Reuss Voigt Hill
#
# Bulk Modulus (GPa) = 33.52515 49.20392 41.36453
# Shear Modulus (GPa) = 26.73169 30.93101 28.83135
#
# Velocity S-wave (km/s) = 3.33470 3.58707 3.46318
# Velocity P-wave (km/s) = 5.36406 6.13389 5.76185
#
# Compressibility (1/GPa) = 0.02982835
#
# Stress axis : x y z
#
# Youngs Moduli (GPa) = 67.02240 55.59256 60.90033
#
# Poissons Ratio (x) = 0.44792 0.09646
# Poissons Ratio (y) = 0.54002 0.00664
# Poissons Ratio (z) = 0.10616 0.00606
#
# Static dielectric constant tensor:
#      x y z
#    x 4.124590 0.000000 0.214260 
#    y 0.000000 4.236620 0.000000 
#    z 0.214260 0.000000 4.457520 
# 
# 
# High freq. dielectric constant tensor:
#      x y z
#    x 1.944470 0.000000 0.013320 
#    y 0.000000 1.950490 0.000000 
#    z 0.013320 0.000000 1.969100 
# 
# From -- ./inp_files/142519.got.cif
#   From: 2010.06.25/outbox.cif.g09.slc.cpg/sg12_72_cif.got.tgz:142519.got - 2010.06.28 00:19:55.
