data_PCOD8109929
_publ_section_title
;
Structure prediction by ZEFSAII (Michael W. Deem and Ramdas Pophale) SiO2 
 PCOD8109929
Probable space group: C 2/M
;
_chemical_formula_sum "Si O2"
_cell_formula_units_Z 56
_cell_length_a 32.363025
_cell_length_b 8.746295
_cell_length_c 22.418185
_cell_angle_alpha 90.000000
_cell_angle_beta 25.601674
_cell_angle_gamma 90.000000
_cell_volume 2742.016752
_symmetry_space_group_name_H-M "C 2/M"
_symmetry_group_IT_number 12
_symmetry_cell_setting 'monoclinic'
loop_
_space_group_symop_operation_xyz
x,y,z
-x,y,-z
-x,-y,-z
x,-y,z
1/2+x,1/2+y,z
1/2-x,1/2+y,-z
1/2-x,1/2-y,-z
1/2+x,1/2-y,z
loop_
_atom_site_type_symbol
_atom_site_label
_atom_site_fract_x
_atom_site_fract_y
_atom_site_fract_z
Si Si1 0.462975 0.326265 0.643909
Si Si2 0.099179 0.679532 0.846845
Si Si3 0.328677 0.325418 0.136946
Si Si4 0.350902 0.817764 0.349358
Si Si5 0.849963 0.679161 0.891369
Si Si6 0.959138 0.820063 0.858728
Si Si7 0.147003 0.173620 0.334130
O O1 0.448068 0.500000 0.685749
O O2 0.431708 0.210603 0.736077
O O3 0.401138 0.294949 0.666149
O O4 0.573377 0.297077 0.484112
O O5 0.089470 0.500000 0.853786
O O6 0.176017 0.723679 0.797130
O O7 0.129427 0.744303 0.743215
O O8 0.000000 0.752879 0.000000
O O9 0.333261 0.500000 0.150547
O O10 0.232052 0.293606 0.226999
O O11 0.417631 0.283461 0.978444
O O12 0.250000 0.750000 0.500000
O O13 0.435685 0.756194 0.281928
O O14 0.347484 0.000000 0.357740
O O15 0.835175 0.500000 0.919667
O O16 0.885544 0.749941 0.907066
O O17 0.750000 0.750000 0.000000
O O18 0.967873 0.000000 0.835351
O O19 0.185445 0.000000 0.287182
#
# Coordination Sequence:
#
# PCOD8109929 Si02
#       7
#     8   8   8   8   8   8   8
#     4   9  19  38  60  84 116 156 200 249 300 357
#     4  10  21  40  65  89 117 156 201 246 299 366
#     4  11  23  36  59  92 122 153 198 253 306 356
#     4  11  24  43  67  95 128 168 210 259 317 377
#     4  12  25  40  61  89 122 163 206 253 308 369
#     4  11  24  42  63  90 124 163 207 258 312 370
#     4   9  19  36  60  86 116 156 199 243 299 364
#
# _framework density 20.422922
#
# number of rings (size 3 to 8) (size 9 to 14) (size 15 to 20)
#    0.000    1.571    1.429    4.286    0.000    7.714 
#    0.000    2.857    0.000    0.000    0.000    0.000 
#    0.000    0.000    0.000    0.000    0.000    0.000 
#
# Total GULP energy -347251.481394 kJ/mol
# GULP energy per Si atom -12401.838621 kJ/mol
# Density = 2.037644 g / cm^3
# Si number density = 20.422922 Si / 1000 Ang^3
#
#
#
# Elastic Constant Matrix: (Units=GPa)
#
#
# Indices 1 2 3 4 5 6 
#
# 1 100.6499 45.0095 44.4577 0.0107 -2.9426 0.0029
# 2 45.0095 84.8760 44.5739 0.0284 0.5968 -0.0010
# 3 44.4577 44.5739 107.8509 0.0323 -3.9282 -0.0001
# 4 0.0107 0.0284 0.0323 34.0786 -0.0044 -2.9092
# 5 -2.9426 0.5968 -3.9282 -0.0044 38.5685 -0.0033
# 6 0.0029 -0.0010 -0.0001 -2.9092 -0.0033 32.2321
#
#
#
# Elastic Compliance Matrix: (Units=1/GPa)
#
#
# Indices 1 2 3 4 5 6 
#
# 1 0.013982 -0.005631 -0.003407 0.000004 0.000807 -0.000001
# 2 -0.005631 0.017345 -0.004891 -0.000008 -0.001196 0.000000
# 3 -0.003407 -0.004891 0.012738 -0.000007 0.001113 0.000000
# 4 0.000004 -0.000008 -0.000007 0.029572 0.000003 0.002669
# 5 0.000807 -0.001196 0.001113 0.000003 0.026121 0.000003
# 6 -0.000001 0.000000 0.000000 0.002669 0.000003 0.031266
#
#
# Mechanical properties :
#
#
# Convention : Reuss Voigt Hill
#
# Bulk Modulus (GPa) = 61.69963 62.38433 62.04198
# Shear Modulus (GPa) = 30.43498 31.59824 31.01661
#
# Velocity S-wave (km/s) = 3.86455 3.93771 3.90130
# Velocity P-wave (km/s) = 7.08446 7.16147 7.12306
#
# Compressibility (1/GPa) = 0.01620755
#
# Stress axis : x y z
#
# Youngs Moduli (GPa) = 71.52032 57.65357 78.50317
#
# Poissons Ratio (x) = 0.32465 0.26745
# Poissons Ratio (y) = 0.40274 0.38395
# Poissons Ratio (z) = 0.24366 0.28198
#
# Static dielectric constant tensor:
#      x y z
#    x 3.663190 0.000000 0.083950 
#    y 0.000000 3.580760 0.000050 
#    z 0.083950 0.000050 3.837270 
# 
# 
# High freq. dielectric constant tensor:
#      x y z
#    x 1.802320 0.000000 -0.000430 
#    y 0.000000 1.793050 0.000000 
#    z -0.000430 0.000000 1.802740 
# 
# From -- ./inp_files/329437.got.cif
#   From: 2010.06.25/outbox.cif.g09.slc.cpg/sg12_165_cif.got.tgz:329437.got - 2010.06.28 00:19:55.
