data_PCOD8109441
_publ_section_title
;
Structure prediction by ZEFSAII (Michael W. Deem and Ramdas Pophale) SiO2 
 PCOD8109441
Probable space group: C 2/M
;
_chemical_formula_sum "Si O2"
_cell_formula_units_Z 32
_cell_length_a 13.917610
_cell_length_b 19.536778
_cell_length_c 5.000866
_cell_angle_alpha 90.000000
_cell_angle_beta 75.270681
_cell_angle_gamma 90.000000
_cell_volume 1315.076957
_symmetry_space_group_name_H-M "C 2/M"
_symmetry_group_IT_number 12
_symmetry_cell_setting 'monoclinic'
loop_
_space_group_symop_operation_xyz
x,y,z
-x,y,-z
-x,-y,-z
x,-y,z
1/2+x,1/2+y,z
1/2-x,1/2+y,-z
1/2-x,1/2-y,-z
1/2+x,1/2-y,z
loop_
_atom_site_type_symbol
_atom_site_label
_atom_site_fract_x
_atom_site_fract_y
_atom_site_fract_z
Si Si1 0.798227 0.422606 0.047803
Si Si2 0.886789 0.645380 0.485966
Si Si3 0.388320 0.573828 0.482442
Si Si4 0.067994 0.211988 0.703917
O O1 0.824519 0.500000 0.946715
O O2 0.868996 0.403221 0.246289
O O3 0.683360 0.414307 0.213237
O O4 0.815463 0.374198 0.780971
O O5 0.861395 0.723597 0.413893
O O6 0.000000 0.639116 0.500000
O O7 0.500000 0.566877 0.500000
O O8 0.359297 0.500000 0.363782
O O9 0.373521 0.639449 0.293242
O O10 0.000000 0.195714 0.500000
O O11 0.000000 0.232744 0.000000
#
# Coordination Sequence:
#
# PCOD8109441 Si02
#       4
#     8   8   8   8
#     4  11  24  40  63  95 124 162 213 251 303 376
#     4  11  23  41  63  90 128 165 204 257 307 360
#     4   9  21  42  66  93 127 163 203 257 311 364
#     4  10  21  39  64  92 122 161 207 250 305 372
#
# _framework density 24.333175000000001
#
# number of rings (size 3 to 8) (size 9 to 14) (size 15 to 20)
#    0.000    1.750    0.000    4.500    0.000    9.500 
#    0.000    7.500    0.000    0.000    0.000    0.000 
#    0.000    0.000    0.000    0.000    0.000    0.000 
#
# Total GULP energy -198290.808592 kJ/mol
# GULP energy per Si atom -12393.175537 kJ/mol
# Density = 2.427779 g / cm^3
# Si number density = 24.333175 Si / 1000 Ang^3
#
#
#
# Elastic Constant Matrix: (Units=GPa)
#
#
# Indices 1 2 3 4 5 6 
#
# 1 59.5424 53.7014 28.7073 0.0000 -12.5782 0.0000
# 2 53.7014 221.4321 98.5116 0.0000 -35.1358 0.0000
# 3 28.7073 98.5116 153.9110 0.0000 -8.5040 0.0000
# 4 0.0000 0.0000 0.0000 40.0116 0.0000 -21.3158
# 5 -12.5782 -35.1358 -8.5040 0.0000 36.7388 0.0000
# 6 0.0000 0.0000 0.0000 -21.3158 0.0000 10.2001
#
#
#
# Elastic Compliance Matrix: (Units=1/GPa)
#
#
# Indices 1 2 3 4 5 6 
#
# 1 0.021888 -0.004298 -0.001159 0.000000 0.003115 0.000000
# 2 -0.004298 0.008303 -0.004209 0.000000 0.005495 0.000000
# 3 -0.001159 -0.004209 0.009282 0.000000 -0.002274 0.000000
# 4 0.000000 0.000000 0.000000 -0.220594 0.000000 -0.460988
# 5 0.003115 0.005495 -0.002274 0.000000 0.033014 0.000000
# 6 0.000000 0.000000 0.000000 -0.460988 0.000000 -0.865314
#
#
# Mechanical properties :
#
#
# Convention : Reuss Voigt Hill
#
# Bulk Modulus (GPa) = 49.65291 88.52510 69.08901
# Shear Modulus (GPa) = -5.06393 34.32111 14.62859
#
# Velocity S-wave (km/s) = -1.44416 3.75969 2.45455
# Velocity P-wave (km/s) = 4.20344 7.43683 6.04050
#
# Compressibility (1/GPa) = 0.02013980
#
# Stress axis : x y z
#
# Youngs Moduli (GPa) = 45.68640 120.44034 107.73726
#
# Poissons Ratio (x) = 0.51769 0.12490
# Poissons Ratio (y) = 0.19638 0.45346
# Poissons Ratio (z) = 0.05296 0.50693
#
# Static dielectric constant tensor:
#      x y z
#    x 4.146950 0.000000 -0.098570 
#    y 0.000000 5.570050 0.000000 
#    z -0.098570 0.000000 4.236550 
# 
# 
# High freq. dielectric constant tensor:
#      x y z
#    x 1.949940 0.000000 -0.010590 
#    y 0.000000 1.998510 0.000000 
#    z -0.010590 0.000000 1.958250 
# 
# From -- ./inp_files/10159.got.cif
#   From: 2010.06.25/outbox.cif.g09.slc.cpg/sg12_6_cif.got.tgz:10159.got - 2010.06.28 00:19:55.
