data_PCOD8109157
_publ_section_title
;
Structure prediction by ZEFSAII (Michael W. Deem and Ramdas Pophale) SiO2 
 PCOD8109157
Probable space group: C 2/M
;
_chemical_formula_sum "Si O2"
_cell_formula_units_Z 48
_cell_length_a 14.371417
_cell_length_b 28.869771
_cell_length_c 4.990604
_cell_angle_alpha 90.000000
_cell_angle_beta 107.338780
_cell_angle_gamma 90.000000
_cell_volume 1976.509729
_symmetry_space_group_name_H-M "C 2/M"
_symmetry_group_IT_number 12
_symmetry_cell_setting 'monoclinic'
loop_
_space_group_symop_operation_xyz
x,y,z
-x,y,-z
-x,-y,-z
x,-y,z
1/2+x,1/2+y,z
1/2-x,1/2+y,-z
1/2-x,1/2-y,-z
1/2+x,1/2-y,z
loop_
_atom_site_type_symbol
_atom_site_label
_atom_site_fract_x
_atom_site_fract_y
_atom_site_fract_z
Si Si1 0.060515 0.622938 0.793305
Si Si2 0.100416 0.280472 0.924477
Si Si3 0.778692 0.449381 0.993295
Si Si4 0.153196 0.051117 0.385068
Si Si5 0.106552 0.147310 0.148914
Si Si6 0.191148 0.194385 0.736869
O O1 0.097232 0.673688 0.730353
O O2 0.000000 0.599253 0.500000
O O3 0.141382 0.589234 0.978252
O O4 0.000000 0.635577 0.000000
O O5 0.119810 0.236466 0.754319
O O6 0.196577 0.288865 0.193766
O O7 0.000000 0.271738 0.000000
O O8 0.822620 0.500000 0.959801
O O9 0.687406 0.439715 0.718200
O O10 0.747372 0.448796 0.275306
O O11 0.087976 0.094031 0.228940
O O12 0.100701 0.000000 0.320136
O O13 0.159553 0.176890 0.420658
O O14 0.174654 0.152965 0.942973
O O15 0.000000 0.168076 0.000000
#
# Coordination Sequence:
#
# PCOD8109157 Si02
#       6
#     8   8   8   8   8   8
#     4  11  23  36  58  90 125 166 211 265 323 384
#     4  10  24  45  70  99 134 174 222 273 329 391
#     4  10  21  39  62  88 124 168 214 266 322 384
#     4  10  21  39  64  91 122 165 214 265 322 385
#     4  12  25  43  68  98 135 176 220 273 331 394
#     4  11  26  45  69  98 133 176 221 273 329 392
#
# _framework density 24.285232000000001
#
# number of rings (size 3 to 8) (size 9 to 14) (size 15 to 20)
#    0.000    1.333    0.000    5.000    0.000   11.667 
#    0.000    0.000    0.000    5.000    0.000    0.000 
#    0.000    0.000    0.000    0.000    0.000    0.000 
#
# Total GULP energy -297448.190874 kJ/mol
# GULP energy per Si atom -12393.674620 kJ/mol
# Density = 2.422996 g / cm^3
# Si number density = 24.285232 Si / 1000 Ang^3
#
#
#
# Elastic Constant Matrix: (Units=GPa)
#
#
# Indices 1 2 3 4 5 6 
#
# 1 106.0197 22.9315 30.9290 0.0000 13.9589 0.0000
# 2 22.9315 120.3102 23.7012 0.0000 7.8485 0.0000
# 3 30.9290 23.7012 112.2502 0.0000 1.0369 0.0000
# 4 0.0000 0.0000 0.0000 24.5130 0.0000 20.4229
# 5 13.9589 7.8485 1.0369 0.0000 28.4198 0.0000
# 6 0.0000 0.0000 0.0000 20.4229 0.0000 60.6859
#
#
#
# Elastic Compliance Matrix: (Units=1/GPa)
#
#
# Indices 1 2 3 4 5 6 
#
# 1 0.011175 -0.001256 -0.002767 0.000000 -0.005041 0.000000
# 2 -0.001256 0.008971 -0.001531 0.000000 -0.001805 0.000000
# 3 -0.002767 -0.001531 0.009981 0.000000 0.001418 0.000000
# 4 0.000000 0.000000 0.000000 0.056689 0.000000 -0.019078
# 5 -0.005041 -0.001805 0.001418 0.000000 0.038109 0.000000
# 6 0.000000 0.000000 0.000000 -0.019078 0.000000 0.022899
#
#
# Mechanical properties :
#
#
# Convention : Reuss Voigt Hill
#
# Bulk Modulus (GPa) = 52.58285 54.85595 53.71940
# Shear Modulus (GPa) = 30.25300 40.12495 35.18898
#
# Velocity S-wave (km/s) = 3.53333 4.06918 3.81069
# Velocity P-wave (km/s) = 6.19234 6.68692 6.44438
#
# Compressibility (1/GPa) = 0.01901761
#
# Stress axis : x y z
#
# Youngs Moduli (GPa) = 89.48643 111.47468 100.18617
#
# Poissons Ratio (x) = 0.14001 0.27725
# Poissons Ratio (y) = 0.11239 0.15342
# Poissons Ratio (z) = 0.24764 0.17071
#
# Static dielectric constant tensor:
#      x y z
#    x 4.079640 0.000000 -0.042420 
#    y 0.000000 4.855390 0.000000 
#    z -0.042420 0.000000 4.175050 
# 
# 
# High freq. dielectric constant tensor:
#      x y z
#    x 1.941120 0.000000 -0.003640 
#    y 0.000000 1.992370 0.000000 
#    z -0.003640 0.000000 1.963340 
# 
# From -- ./inp_files/13243.got.cif
#   From: 2010.06.25/outbox.cif.g09.slc.cpg/sg12_7_cif.got.tgz:13243.got - 2010.06.28 00:19:55.
