data_PCOD8109348
_publ_section_title
;
Structure prediction by ZEFSAII (Michael W. Deem and Ramdas Pophale) SiO2 
 PCOD8109348
Probable space group: C 2/M
;
_chemical_formula_sum "Si O2"
_cell_formula_units_Z 56
_cell_length_a 21.631513
_cell_length_b 29.776841
_cell_length_c 9.442794
_cell_angle_alpha 90.000000
_cell_angle_beta 27.637112
_cell_angle_gamma 90.000000
_cell_volume 2821.384517
_symmetry_space_group_name_H-M "C 2/M"
_symmetry_group_IT_number 12
_symmetry_cell_setting 'monoclinic'
loop_
_space_group_symop_operation_xyz
x,y,z
-x,y,-z
-x,-y,-z
x,-y,z
1/2+x,1/2+y,z
1/2-x,1/2+y,-z
1/2-x,1/2-y,-z
1/2+x,1/2-y,z
loop_
_atom_site_type_symbol
_atom_site_label
_atom_site_fract_x
_atom_site_fract_y
_atom_site_fract_z
Si Si1 0.348508 0.187510 0.322367
Si Si2 0.725438 0.244756 0.780354
Si Si3 0.761295 0.949005 0.637759
Si Si4 0.001320 0.118428 0.833229
Si Si5 0.214105 0.591077 0.443653
Si Si6 0.002602 0.552618 0.658269
Si Si7 0.526221 0.293317 0.602359
O O1 0.277397 0.202867 0.322371
O O2 0.278508 0.210550 0.597368
O O3 0.336625 0.134654 0.368475
O O4 0.500000 0.203423 0.000000
O O5 0.829843 0.230602 0.689117
O O6 0.582105 0.255569 0.136586
O O7 0.721450 0.946231 0.552476
O O8 0.884182 0.917590 0.432183
O O9 0.804390 0.000000 0.581228
O O10 0.638093 0.935071 0.986599
O O11 0.025925 0.164438 0.704536
O O12 0.858761 0.097672 0.078855
O O13 0.000000 0.131179 0.000000
O O14 0.116439 0.578403 0.514374
O O15 0.034112 0.500000 0.603672
O O16 0.000000 0.568844 0.500000
O O17 0.500000 0.311904 0.500000
#
# Coordination Sequence:
#
# PCOD8109348 Si02
#       7
#     8   8   8   8   8   8   8
#     4  11  21  36  65  91 117 152 204 251 302 357
#     4  11  23  40  62  88 117 160 201 249 301 365
#     4  10  21  39  63  92 125 159 200 252 307 355
#     4  10  23  40  63  93 123 156 203 252 307 365
#     4  11  21  37  63  93 121 155 205 257 301 354
#     4  10  22  40  61  87 124 168 207 243 295 365
#     4  12  25  43  62  89 126 162 203 253 306 362
#
# _framework density 19.848410999999999
#
# number of rings (size 3 to 8) (size 9 to 14) (size 15 to 20)
#    0.000    1.286    2.857    3.857    2.000    5.429 
#    0.000    0.714    0.000    3.000    0.000    0.000 
#    0.000    0.000    0.000    0.000    0.000    0.000 
#
# Total GULP energy -347276.411121 kJ/mol
# GULP energy per Si atom -12402.728969 kJ/mol
# Density = 1.980324 g / cm^3
# Si number density = 19.848411 Si / 1000 Ang^3
#
#
#
# Elastic Constant Matrix: (Units=GPa)
#
#
# Indices 1 2 3 4 5 6 
#
# 1 105.3626 56.5285 58.2447 -0.0001 -16.9765 0.0001
# 2 56.5285 91.8088 47.7557 0.0000 -11.6413 0.0000
# 3 58.2447 47.7557 102.2606 -0.0001 -18.1342 0.0002
# 4 -0.0001 0.0000 -0.0001 26.8402 0.0001 -8.4528
# 5 -16.9765 -11.6413 -18.1342 0.0001 27.2503 0.0000
# 6 0.0001 0.0000 0.0002 -8.4528 0.0000 13.3715
#
#
#
# Elastic Compliance Matrix: (Units=1/GPa)
#
#
# Indices 1 2 3 4 5 6 
#
# 1 0.017055 -0.007023 -0.005762 0.000000 0.003790 0.000000
# 2 -0.007023 0.017367 -0.004048 0.000000 0.000350 0.000000
# 3 -0.005762 -0.004048 0.015882 0.000000 0.005250 0.000000
# 4 0.000000 0.000000 0.000000 0.046519 0.000000 0.029407
# 5 0.003790 0.000350 0.005250 0.000000 0.042701 0.000000
# 6 0.000000 0.000000 0.000000 0.029407 0.000000 0.093375
#
#
# Mechanical properties :
#
#
# Convention : Reuss Voigt Hill
#
# Bulk Modulus (GPa) = 60.10570 69.38776 64.74673
# Shear Modulus (GPa) = 18.37483 22.61929 20.49706
#
# Velocity S-wave (km/s) = 3.04593 3.37946 3.21702
# Velocity P-wave (km/s) = 6.53593 7.08960 6.81839
#
# Compressibility (1/GPa) = 0.01663736
#
# Stress axis : x y z
#
# Youngs Moduli (GPa) = 58.63332 57.58210 62.96348
#
# Poissons Ratio (x) = 0.40442 0.36280
# Poissons Ratio (y) = 0.41180 0.25487
# Poissons Ratio (z) = 0.33785 0.23308
#
# Static dielectric constant tensor:
#      x y z
#    x 3.607960 0.000000 -0.188490 
#    y 0.000000 3.463210 0.000000 
#    z -0.188490 0.000000 3.838850 
# 
# 
# High freq. dielectric constant tensor:
#      x y z
#    x 1.769240 0.000000 -0.015390 
#    y 0.000000 1.772700 0.000000 
#    z -0.015390 0.000000 1.784950 
# 
# From -- ./inp_files/91530.got.cif
#   From: 2010.06.25/outbox.cif.g09.slc.cpg/sg12_46_cif.got.tgz:91530.got - 2010.06.28 00:19:55.
