data_PCOD8109293
_publ_section_title
;
Structure prediction by ZEFSAII (Michael W. Deem and Ramdas Pophale) SiO2 
 PCOD8109293
Probable space group: C 2/M
;
_chemical_formula_sum "Si O2"
_cell_formula_units_Z 56
_cell_length_a 30.276160
_cell_length_b 8.810236
_cell_length_c 12.560502
_cell_angle_alpha 90.000000
_cell_angle_beta 53.872965
_cell_angle_gamma 90.000000
_cell_volume 2706.149271
_symmetry_space_group_name_H-M "C 2/M"
_symmetry_group_IT_number 12
_symmetry_cell_setting 'monoclinic'
loop_
_space_group_symop_operation_xyz
x,y,z
-x,y,-z
-x,-y,-z
x,-y,z
1/2+x,1/2+y,z
1/2-x,1/2+y,-z
1/2-x,1/2-y,-z
1/2+x,1/2-y,z
loop_
_atom_site_type_symbol
_atom_site_label
_atom_site_fract_x
_atom_site_fract_y
_atom_site_fract_z
Si Si1 0.552546 0.336893 0.489018
Si Si2 0.800715 0.320246 0.663018
Si Si3 0.865425 0.326215 0.365898
Si Si4 0.317306 0.320774 0.231028
Si Si5 0.598253 0.679776 0.066449
Si Si6 0.015762 0.325443 0.749237
Si Si7 0.634208 0.823788 0.232810
O O1 0.500000 0.381520 0.500000
O O2 0.584841 0.500000 0.456512
O O3 0.531510 0.275633 0.628984
O O4 0.583663 0.203825 0.383058
O O5 0.798793 0.500000 0.664864
O O6 0.847256 0.268103 0.510593
O O7 0.741904 0.250981 0.715048
O O8 0.814610 0.270047 0.765382
O O9 0.846967 0.500000 0.378928
O O10 0.832873 0.228792 0.326849
O O11 0.930758 0.311148 0.250854
O O12 0.314159 0.500000 0.232397
O O13 0.361754 0.262716 0.083214
O O14 0.589542 0.500000 0.078770
O O15 0.540304 0.759537 0.122787
O O16 0.626805 0.725389 0.137205
O O17 0.005522 0.500000 0.731887
O O18 0.637317 0.000000 0.196358
#
# Coordination Sequence:
#
# PCOD8109293 Si02
#       7
#     8   8   8   8   8   8   8
#     4  11  21  33  54  87 123 153 187 240 295 346
#     4   9  19  39  63  89 117 149 193 247 295 343
#     4  10  21  39  63  90 117 144 194 253 295 343
#     4  10  23  42  62  82 116 161 199 240 294 346
#     4  11  24  40  56  85 124 159 196 239 287 349
#     4  11  22  37  60  88 117 155 194 238 293 349
#     4  11  21  36  61  88 118 155 195 237 291 351
#
# _framework density 20.693611000000001
#
# number of rings (size 3 to 8) (size 9 to 14) (size 15 to 20)
#    0.000    1.571    2.857    2.143    0.000    4.000 
#    0.000    4.286    0.000    0.000    0.000    0.000 
#    0.000    0.000    0.000    0.000    0.000    0.000 
#
# Total GULP energy -346967.826985 kJ/mol
# GULP energy per Si atom -12391.708107 kJ/mol
# Density = 2.064651 g / cm^3
# Si number density = 20.693611 Si / 1000 Ang^3
#
#
#
# Elastic Constant Matrix: (Units=GPa)
#
#
# Indices 1 2 3 4 5 6 
#
# 1 117.6910 19.7390 26.4658 0.0000 -11.3307 0.0000
# 2 19.7390 51.1063 9.5057 0.0000 -3.9564 0.0000
# 3 26.4658 9.5057 69.6297 0.0000 -17.1256 0.0000
# 4 0.0000 0.0000 0.0000 25.7480 0.0000 3.9874
# 5 -11.3307 -3.9564 -17.1256 0.0000 14.9957 0.0000
# 6 0.0000 0.0000 0.0000 3.9874 0.0000 31.6927
#
#
#
# Elastic Compliance Matrix: (Units=1/GPa)
#
#
# Indices 1 2 3 4 5 6 
#
# 1 0.009932 -0.003086 -0.002375 0.000000 0.003977 0.000000
# 2 -0.003086 0.021134 -0.001271 0.000000 0.001792 0.000000
# 3 -0.002375 -0.001271 0.020740 0.000000 0.021555 0.000000
# 4 0.000000 0.000000 0.000000 0.039610 0.000000 -0.004983
# 5 0.003977 0.001792 0.021555 0.000000 0.094780 0.000000
# 6 0.000000 0.000000 0.000000 -0.004983 0.000000 0.032180
#
#
# Mechanical properties :
#
#
# Convention : Reuss Voigt Hill
#
# Bulk Modulus (GPa) = 26.08280 38.87199 32.47739
# Shear Modulus (GPa) = 20.43979 26.66839 23.55409
#
# Velocity S-wave (km/s) = 3.14623 3.59378 3.37743
# Velocity P-wave (km/s) = 5.08232 6.00380 5.56218
#
# Compressibility (1/GPa) = 0.03833944
#
# Stress axis : x y z
#
# Youngs Moduli (GPa) = 100.68966 47.31659 48.21686
#
# Poissons Ratio (x) = 0.14603 0.11453
# Poissons Ratio (y) = 0.31075 0.06130
# Poissons Ratio (z) = 0.23918 0.06016
#
# Static dielectric constant tensor:
#      x y z
#    x 4.124710 0.000000 -0.122200 
#    y 0.000000 3.628200 0.000000 
#    z -0.122200 0.000000 3.723130 
# 
# 
# High freq. dielectric constant tensor:
#      x y z
#    x 1.821850 0.000000 -0.000820 
#    y 0.000000 1.801640 0.000000 
#    z -0.000820 0.000000 1.795210 
# 
# From -- ./inp_files/181006.got.cif
#   From: 2010.06.25/outbox.cif.g09.slc.cpg/sg12_91_cif.got.tgz:181006.got - 2010.06.28 00:19:55.
