data_PCOD8109685
_publ_section_title
;
Structure prediction by ZEFSAII (Michael W. Deem and Ramdas Pophale) SiO2 
 PCOD8109685
Probable space group: C 2/M
;
_chemical_formula_sum "Si O2"
_cell_formula_units_Z 44
_cell_length_a 12.692123
_cell_length_b 25.747705
_cell_length_c 8.474415
_cell_angle_alpha 90.000000
_cell_angle_beta 132.569112
_cell_angle_gamma 90.000000
_cell_volume 2039.542682
_symmetry_space_group_name_H-M "C 2/M"
_symmetry_group_IT_number 12
_symmetry_cell_setting 'monoclinic'
loop_
_space_group_symop_operation_xyz
x,y,z
-x,y,-z
-x,-y,-z
x,-y,z
1/2+x,1/2+y,z
1/2-x,1/2+y,-z
1/2-x,1/2-y,-z
1/2+x,1/2-y,z
loop_
_atom_site_type_symbol
_atom_site_label
_atom_site_fract_x
_atom_site_fract_y
_atom_site_fract_z
Si Si1 0.914816 0.917088 0.767029
Si Si2 0.537238 0.307152 0.283345
Si Si3 0.154847 0.559211 0.683541
Si Si4 0.000000 0.720448 0.000000
Si Si5 0.330517 0.440778 0.167860
Si Si6 0.713030 0.333696 0.759152
O O1 0.916851 0.854904 0.779958
O O2 0.749542 0.934555 0.619242
O O3 0.997582 0.938412 0.695164
O O4 0.000000 0.941986 0.000000
O O5 0.643852 0.305648 0.539030
O O6 0.373275 0.315137 0.173401
O O7 0.554833 0.254971 0.201246
O O8 0.122903 0.500000 0.687794
O O9 0.000000 0.587305 0.500000
O O10 0.240398 0.579923 0.923920
O O11 0.875991 0.683429 0.939148
O O12 0.291517 0.500000 0.180879
O O13 0.296487 0.397203 0.266972
#
# Coordination Sequence:
#
# PCOD8109685 Si02
#       6
#     8   8   8   4   8   8
#     4   9  16  31  55  80 110 151 197 234 281 339
#     4  10  21  40  60  86 118 151 195 249 292 350
#     4   9  17  29  50  83 118 151 192 239 284 340
#     4  12  22  40  65  84 117 156 198 248 304 336
#     4   9  18  35  57  81 118 160 192 233 287 348
#     4  10  23  39  60  90 120 151 197 243 295 358
#
# _framework density 21.573463
#
# number of rings (size 3 to 8) (size 9 to 14) (size 15 to 20)
#    0.000    2.364    0.909    1.636    0.000    3.636 
#    0.000    8.636    0.000    0.000    0.000    0.000 
#    0.000    0.000    0.000    0.000    0.000    0.000 
#
# Total GULP energy -272645.838178 kJ/mol
# GULP energy per Si atom -12392.992644 kJ/mol
# Density = 2.152436 g / cm^3
# Si number density = 21.573463 Si / 1000 Ang^3
#
#
#
# Elastic Constant Matrix: (Units=GPa)
#
#
# Indices 1 2 3 4 5 6 
#
# 1 89.3359 38.1210 36.8434 0.0000 26.1220 0.0000
# 2 38.1210 109.8244 21.4179 0.0000 1.6120 0.0000
# 3 36.8434 21.4179 64.9758 0.0000 19.0098 0.0000
# 4 0.0000 0.0000 0.0000 21.8554 0.0000 1.4747
# 5 26.1220 1.6120 19.0098 0.0000 37.0857 0.0000
# 6 0.0000 0.0000 0.0000 1.4747 0.0000 28.0712
#
#
#
# Elastic Compliance Matrix: (Units=1/GPa)
#
#
# Indices 1 2 3 4 5 6 
#
# 1 0.018810 -0.005204 -0.006047 0.000000 -0.009923 0.000000
# 2 -0.005204 0.011236 -0.001979 0.000000 0.004192 0.000000
# 3 -0.006047 -0.001979 0.021411 0.000000 -0.006630 0.000000
# 4 0.000000 0.000000 0.000000 0.045918 0.000000 -0.002412
# 5 -0.009923 0.004192 -0.006630 0.000000 0.037170 0.000000
# 6 0.000000 0.000000 0.000000 -0.002412 0.000000 0.035750
#
#
# Mechanical properties :
#
#
# Convention : Reuss Voigt Hill
#
# Bulk Modulus (GPa) = 40.00575 50.76675 45.38625
# Shear Modulus (GPa) = 24.37958 28.58605 26.48281
#
# Velocity S-wave (km/s) = 3.36530 3.64408 3.50746
# Velocity P-wave (km/s) = 5.80384 6.42564 6.12264
#
# Compressibility (1/GPa) = 0.02499641
#
# Stress axis : x y z
#
# Youngs Moduli (GPa) = 53.16347 88.99722 46.70413
#
# Poissons Ratio (x) = 0.46315 0.28243
# Poissons Ratio (y) = 0.27667 0.09244
# Poissons Ratio (z) = 0.32149 0.17615
#
# Static dielectric constant tensor:
#      x y z
#    x 3.866740 0.000000 0.171550 
#    y 0.000000 3.674310 0.000000 
#    z 0.171550 0.000000 3.924610 
# 
# 
# High freq. dielectric constant tensor:
#      x y z
#    x 1.835860 0.000000 0.006230 
#    y 0.000000 1.832270 0.000000 
#    z 0.006230 0.000000 1.834150 
# 
# From -- ./inp_files/53424.got.cif
#   From: 2010.06.25/outbox.cif.g09.slc.cpg/sg12_27_cif.got.tgz:53424.got - 2010.06.28 00:19:55.
