data_PCOD8109436
_publ_section_title
;
Structure prediction by ZEFSAII (Michael W. Deem and Ramdas Pophale) SiO2 
 PCOD8109436
Probable space group: C 2/M
;
_chemical_formula_sum "Si O2"
_cell_formula_units_Z 40
_cell_length_a 26.190583
_cell_length_b 9.590379
_cell_length_c 20.894079
_cell_angle_alpha 90.000000
_cell_angle_beta 158.771273
_cell_angle_gamma 90.000000
_cell_volume 1900.303932
_symmetry_space_group_name_H-M "C 2/M"
_symmetry_group_IT_number 12
_symmetry_cell_setting 'monoclinic'
loop_
_space_group_symop_operation_xyz
x,y,z
-x,y,-z
-x,-y,-z
x,-y,z
1/2+x,1/2+y,z
1/2-x,1/2+y,-z
1/2-x,1/2-y,-z
1/2+x,1/2-y,z
loop_
_atom_site_type_symbol
_atom_site_label
_atom_site_fract_x
_atom_site_fract_y
_atom_site_fract_z
Si Si1 0.184828 0.836634 0.563783
Si Si2 0.572469 0.850269 0.760492
Si Si3 0.651832 0.155716 0.119475
Si Si4 0.663661 0.251058 0.998579
Si Si5 0.070368 0.841117 0.190365
O O1 0.229657 0.808425 0.689665
O O2 0.285430 0.747820 0.633590
O O3 0.026961 0.779981 0.371727
O O4 0.189500 0.000000 0.550990
O O5 0.622997 0.849756 0.892992
O O6 0.496842 0.000000 0.660588
O O7 0.708893 0.849499 0.874115
O O8 0.592877 0.000000 0.061659
O O9 0.716571 0.165818 0.123231
O O10 0.519618 0.262460 0.970516
O O11 0.521965 0.338773 0.852019
O O12 0.104287 0.000000 0.210340
#
# Coordination Sequence:
#
# PCOD8109436 Si02
#       5
#     8   8   8   8   8
#     4  11  24  39  61  92 127 157 198 249 298 356
#     4  11  23  42  64  89 121 160 202 250 299 354
#     4   9  20  40  63  88 119 161 202 243 296 357
#     4   9  23  41  65  87 118 156 205 246 299 356
#     4  10  21  39  64  92 120 156 200 250 301 356
#
# _framework density 21.049264999999998
#
# number of rings (size 3 to 8) (size 9 to 14) (size 15 to 20)
#    1.200    0.800    0.000    3.000    0.000   10.400 
#    0.000    3.000    0.000    0.000    0.000    0.000 
#    0.000    0.000    0.000    0.000    0.000    0.000 
#
# Total GULP energy -247799.557321 kJ/mol
# GULP energy per Si atom -12389.977866 kJ/mol
# Density = 2.100136 g / cm^3
# Si number density = 21.049265 Si / 1000 Ang^3
#
#
#
# Elastic Constant Matrix: (Units=GPa)
#
#
# Indices 1 2 3 4 5 6 
#
# 1 110.3299 29.9393 43.3352 0.0000 14.5810 0.0000
# 2 29.9393 167.0878 48.8001 0.0000 15.9556 0.0000
# 3 43.3352 48.8001 86.7940 -0.0001 15.3955 -0.0001
# 4 0.0000 0.0000 -0.0001 30.3846 0.0000 0.5376
# 5 14.5810 15.9556 15.3955 0.0000 19.9389 0.0000
# 6 0.0000 0.0000 -0.0001 0.5376 0.0000 -1.3831
#
#
#
# Elastic Compliance Matrix: (Units=1/GPa)
#
#
# Indices 1 2 3 4 5 6 
#
# 1 0.011644 -0.000226 -0.004876 0.000000 -0.004569 0.000000
# 2 -0.000226 0.007328 -0.003472 0.000000 -0.003018 0.000000
# 3 -0.004876 -0.003472 0.017129 0.000000 -0.006882 0.000000
# 4 0.000000 0.000000 0.000000 0.032687 0.000000 0.012706
# 5 -0.004569 -0.003018 -0.006882 0.000000 0.061223 -0.000001
# 6 0.000000 0.000000 0.000000 0.012706 -0.000001 -0.718093
#
#
# Mechanical properties :
#
#
# Convention : Reuss Voigt Hill
#
# Bulk Modulus (GPa) = 52.76335 67.59567 60.17951
# Shear Modulus (GPa) = -8.85556 25.93054 8.53749
#
# Velocity S-wave (km/s) = -2.05334 3.51365 2.01613
# Velocity P-wave (km/s) = 4.41581 6.97451 5.83709
#
# Compressibility (1/GPa) = 0.01895255
#
# Stress axis : x y z
#
# Youngs Moduli (GPa) = 85.87960 136.47170 58.38085
#
# Poissons Ratio (x) = 0.03083 0.28468
# Poissons Ratio (y) = 0.01940 0.20269
# Poissons Ratio (z) = 0.41877 0.47381
#
# Static dielectric constant tensor:
#      x y z
#    x 3.824240 0.000000 0.013870 
#    y 0.000000 3.606500 0.000000 
#    z 0.013870 0.000000 3.505620 
# 
# 
# High freq. dielectric constant tensor:
#      x y z
#    x 1.829210 0.000000 0.002490 
#    y 0.000000 1.823360 0.000000 
#    z 0.002490 0.000000 1.803000 
# 
# From -- ./inp_files/353114.got.cif
#   From: 2010.06.25/outbox.cif.g09.slc.cpg/sg12_177_cif.got.tgz:353114.got - 2010.06.28 00:19:55.
