data_PCOD8109414
_publ_section_title
;
Structure prediction by ZEFSAII (Michael W. Deem and Ramdas Pophale) SiO2 
 PCOD8109414
Probable space group: C 2/M
;
_chemical_formula_sum "Si O2"
_cell_formula_units_Z 56
_cell_length_a 9.700234
_cell_length_b 22.895565
_cell_length_c 14.362817
_cell_angle_alpha 90.000000
_cell_angle_beta 118.949120
_cell_angle_gamma 90.000000
_cell_volume 2791.296783
_symmetry_space_group_name_H-M "C 2/M"
_symmetry_group_IT_number 12
_symmetry_cell_setting 'monoclinic'
loop_
_space_group_symop_operation_xyz
x,y,z
-x,y,-z
-x,-y,-z
x,-y,z
1/2+x,1/2+y,z
1/2-x,1/2+y,-z
1/2-x,1/2-y,-z
1/2+x,1/2-y,z
loop_
_atom_site_type_symbol
_atom_site_label
_atom_site_fract_x
_atom_site_fract_y
_atom_site_fract_z
Si Si1 0.591419 0.500000 0.899035
Si Si2 0.369725 0.435042 0.383044
Si Si3 0.402149 0.379077 0.205429
Si Si4 0.263619 0.000000 0.150378
Si Si5 0.520100 0.902909 0.273654
Si Si6 0.530361 0.207743 0.619978
Si Si7 0.112320 0.776527 0.264023
Si Si8 0.086250 0.324859 0.123735
O O1 0.628679 0.439851 0.857706
O O2 0.404027 0.500000 0.852991
O O3 0.712083 0.500000 0.025284
O O4 0.500000 0.416963 0.500000
O O5 0.403900 0.500000 0.358052
O O6 0.409542 0.389795 0.316711
O O7 0.187185 0.432457 0.357102
O O8 0.559113 0.343532 0.227819
O O9 0.265448 0.331480 0.148131
O O10 0.369327 0.054837 0.216394
O O11 0.489802 0.856857 0.345420
O O12 0.539136 0.877456 0.176594
O O13 0.500000 0.207870 0.500000
O O14 0.704859 0.229167 0.693490
O O15 0.423469 0.253596 0.642826
O O16 0.039709 0.734938 0.160675
O O17 0.000000 0.329711 0.000000
#
# Coordination Sequence:
#
# PCOD8109414 Si02
#       8
#     4   8   8   4   8   8   8   8
#     4  11  24  39  65  93 122 178 211 265 326 384
#     4  10  21  39  64  90 123 165 204 255 320 378
#     4  11  22  41  63  93 127 160 218 265 312 391
#     4  11  22  43  60  90 131 167 214 260 334 377
#     4  10  22  41  63  94 131 161 212 274 314 392
#     4  11  24  42  64  93 126 171 215 264 329 382
#     4  11  23  43  62  93 130 166 215 269 317 382
#     4  10  22  41  64  94 123 168 215 262 328 380
#
# _framework density 20.062359000000001
#
# number of rings (size 3 to 8) (size 9 to 14) (size 15 to 20)
#    0.000    1.429    2.857    2.143    2.000    1.143 
#    5.143    2.500    0.000    0.000    0.000    0.000 
#    0.000    0.000    0.000    0.000    0.000    0.000 
#
# Total GULP energy -346959.700206 kJ/mol
# GULP energy per Si atom -12391.417864 kJ/mol
# Density = 2.001670 g / cm^3
# Si number density = 20.062359 Si / 1000 Ang^3
#
#
#
# Elastic Constant Matrix: (Units=GPa)
#
#
# Indices 1 2 3 4 5 6 
#
# 1 80.9426 20.5430 29.0155 0.0000 5.2735 0.0000
# 2 20.5430 99.9330 33.0015 0.0000 -1.1394 0.0000
# 3 29.0155 33.0015 119.9319 0.0000 7.0056 0.0000
# 4 0.0000 0.0000 0.0000 15.0759 0.0000 4.2266
# 5 5.2735 -1.1394 7.0056 0.0000 30.8909 0.0000
# 6 0.0000 0.0000 0.0000 4.2266 0.0000 41.2843
#
#
#
# Elastic Compliance Matrix: (Units=1/GPa)
#
#
# Indices 1 2 3 4 5 6 
#
# 1 0.013955 -0.001991 -0.002721 0.000000 -0.001839 0.000000
# 2 -0.001991 0.011329 -0.002716 0.000000 0.001374 0.000000
# 3 -0.002721 -0.002716 0.009853 0.000000 -0.001870 0.000000
# 4 0.000000 0.000000 0.000000 0.068291 0.000000 -0.006992
# 5 -0.001839 0.001374 -0.001870 0.000000 0.033161 0.000000
# 6 0.000000 0.000000 0.000000 -0.006992 0.000000 0.024938
#
#
# Mechanical properties :
#
#
# Convention : Reuss Voigt Hill
#
# Bulk Modulus (GPa) = 49.30769 51.76970 50.53870
# Shear Modulus (GPa) = 27.30123 32.00007 29.65065
#
# Velocity S-wave (km/s) = 3.69293 3.99812 3.84855
# Velocity P-wave (km/s) = 6.54326 6.86831 6.70775
#
# Compressibility (1/GPa) = 0.02028081
#
# Stress axis : x y z
#
# Youngs Moduli (GPa) = 71.65936 88.27282 101.49328
#
# Poissons Ratio (x) = 0.17576 0.27615
# Poissons Ratio (y) = 0.14268 0.27563
# Poissons Ratio (z) = 0.19497 0.23973
#
# Static dielectric constant tensor:
#      x y z
#    x 2.479940 0.000000 -0.928980 
#    y 0.000000 3.652590 0.000000 
#    z -0.928980 0.000000 2.770440 
# 
# 
# High freq. dielectric constant tensor:
#      x y z
#    x 1.789380 0.000000 0.006520 
#    y 0.000000 1.791640 0.000000 
#    z 0.006520 0.000000 1.783100 
# 
# From -- ./inp_files/199013.got.cif
#   From: 2010.06.25/outbox.cif.g09.slc.cpg/sg12_100_cif.got.tgz:199013.got - 2010.06.28 00:19:55.
