data_PCOD8109049
_publ_section_title
;
Structure prediction by ZEFSAII (Michael W. Deem and Ramdas Pophale) SiO2 
 PCOD8109049
Probable space group: C 2/M
;
_chemical_formula_sum "Si O2"
_cell_formula_units_Z 48
_cell_length_a 10.591026
_cell_length_b 14.968584
_cell_length_c 19.525392
_cell_angle_alpha 90.000000
_cell_angle_beta 47.440408
_cell_angle_gamma 90.000000
_cell_volume 2280.001120
_symmetry_space_group_name_H-M "C 2/M"
_symmetry_group_IT_number 12
_symmetry_cell_setting 'monoclinic'
loop_
_space_group_symop_operation_xyz
x,y,z
-x,y,-z
-x,-y,-z
x,-y,z
1/2+x,1/2+y,z
1/2-x,1/2+y,-z
1/2-x,1/2-y,-z
1/2+x,1/2-y,z
loop_
_atom_site_type_symbol
_atom_site_label
_atom_site_fract_x
_atom_site_fract_y
_atom_site_fract_z
Si Si1 0.177354 0.597960 0.414562
Si Si2 0.314635 0.102949 0.168751
Si Si3 0.182256 0.844974 0.505637
Si Si4 0.971973 0.893810 0.208849
Si Si5 0.449430 0.734384 0.943497
Si Si6 0.314277 0.601520 0.637854
O O1 0.127318 0.500000 0.405077
O O2 0.282737 0.586481 0.445813
O O3 0.301462 0.641917 0.311579
O O4 0.000000 0.650851 0.500000
O O5 0.463977 0.167952 0.089491
O O6 0.303430 0.122236 0.254063
O O7 0.137431 0.126005 0.195320
O O8 0.367942 0.000000 0.135184
O O9 0.250000 0.750000 0.500000
O O10 0.278758 0.878639 0.400708
O O11 0.978823 0.835588 0.574680
O O12 0.977607 0.837492 0.137053
O O13 0.961067 0.000000 0.197210
O O14 0.500000 0.695131 0.000000
O O15 0.250000 0.750000 0.000000
O O16 0.378590 0.500000 0.617115
#
# Coordination Sequence:
#
# PCOD8109049 Si02
#       6
#     8   8   8   8   8   8
#     4  10  21  39  61  88 130 177 216 260 324 394
#     4  10  22  42  72  97 127 176 228 274 335 413
#     4  11  22  31  55  89 124 164 214 263 308 366
#     4  10  22  44  72  97 132 182 227 275 339 413
#     4  12  26  46  72 104 134 172 219 292 353 406
#     4  10  21  40  61  84 121 172 218 265 310 376
#
# _framework density 21.052620999999998
#
# number of rings (size 3 to 8) (size 9 to 14) (size 15 to 20)
#    0.000    1.500    3.333    2.000    4.667    1.333 
#    3.000    0.000    0.000    0.000    0.000    0.000 
#    0.000    0.000    0.000    0.000    0.000    0.000 
#
# Total GULP energy -297351.714213 kJ/mol
# GULP energy per Si atom -12389.654759 kJ/mol
# Density = 2.100470 g / cm^3
# Si number density = 21.052621 Si / 1000 Ang^3
#
#
#
# Elastic Constant Matrix: (Units=GPa)
#
#
# Indices 1 2 3 4 5 6 
#
# 1 103.9489 32.4940 78.9267 0.0000 13.4753 0.0000
# 2 32.4940 86.6402 53.4816 0.0000 -1.2457 0.0000
# 3 78.9267 53.4816 151.8607 -0.0001 9.9632 0.0001
# 4 0.0000 0.0000 -0.0001 35.2309 0.0001 2.4530
# 5 13.4753 -1.2457 9.9632 0.0001 47.7323 -0.0001
# 6 0.0000 0.0000 0.0001 2.4530 -0.0001 26.7058
#
#
#
# Elastic Compliance Matrix: (Units=1/GPa)
#
#
# Indices 1 2 3 4 5 6 
#
# 1 0.016391 -0.001348 -0.007846 0.000000 -0.003025 0.000000
# 2 -0.001348 0.014964 -0.004684 0.000000 0.001749 0.000000
# 3 -0.007846 -0.004684 0.012344 0.000000 -0.000484 0.000000
# 4 0.000000 0.000000 0.000000 0.028567 0.000000 -0.002624
# 5 -0.003025 0.001749 -0.000484 0.000000 0.021951 0.000000
# 6 0.000000 0.000000 0.000000 -0.002624 0.000000 0.037686
#
#
# Mechanical properties :
#
#
# Convention : Reuss Voigt Hill
#
# Bulk Modulus (GPa) = 62.72151 74.69495 68.70823
# Shear Modulus (GPa) = 30.30817 33.77030 32.03924
#
# Velocity S-wave (km/s) = 3.79837 4.00945 3.90534
# Velocity P-wave (km/s) = 7.00673 7.54927 7.28305
#
# Compressibility (1/GPa) = 0.01594349
#
# Stress axis : x y z
#
# Youngs Moduli (GPa) = 61.01074 66.82658 81.01086
#
# Poissons Ratio (x) = 0.09006 0.63558
# Poissons Ratio (y) = 0.08223 0.37948
# Poissons Ratio (z) = 0.47867 0.31303
#
# Static dielectric constant tensor:
#      x y z
#    x 4.192140 0.000000 0.116040 
#    y 0.000000 2.940910 0.000000 
#    z 0.116040 0.000000 2.918990 
# 
# 
# High freq. dielectric constant tensor:
#      x y z
#    x 1.822470 0.000000 0.015270 
#    y 0.000000 1.821780 0.000000 
#    z 0.015270 0.000000 1.826670 
# 
# From -- ./inp_files/305622.got.cif
#   From: 2010.06.25/outbox.cif.g09.slc.cpg/sg12_153_cif.got.tgz:305622.got - 2010.06.28 00:19:55.
