data_PCOD8109542
_publ_section_title
;
Structure prediction by ZEFSAII (Michael W. Deem and Ramdas Pophale) SiO2 
 PCOD8109542
Probable space group: C 2/M
;
_chemical_formula_sum "Si O2"
_cell_formula_units_Z 64
_cell_length_a 12.346863
_cell_length_b 24.780502
_cell_length_c 10.685654
_cell_angle_alpha 90.000000
_cell_angle_beta 106.659414
_cell_angle_gamma 90.000000
_cell_volume 3132.167984
_symmetry_space_group_name_H-M "C 2/M"
_symmetry_group_IT_number 12
_symmetry_cell_setting 'monoclinic'
loop_
_space_group_symop_operation_xyz
x,y,z
-x,y,-z
-x,-y,-z
x,-y,z
1/2+x,1/2+y,z
1/2-x,1/2+y,-z
1/2-x,1/2-y,-z
1/2+x,1/2-y,z
loop_
_atom_site_type_symbol
_atom_site_label
_atom_site_fract_x
_atom_site_fract_y
_atom_site_fract_z
Si Si1 0.249078 0.309213 0.058607
Si Si2 0.018341 0.874502 0.869197
Si Si3 0.370404 0.210981 0.719478
Si Si4 0.255966 0.885160 0.567661
Si Si5 0.573628 0.561121 0.650038
Si Si6 0.476162 0.938859 0.631376
Si Si7 0.305782 0.672041 0.688603
Si Si8 0.400826 0.156783 0.203488
O O1 0.373137 0.335586 0.105273
O O2 0.195122 0.303200 0.176053
O O3 0.250000 0.250000 0.000000
O O4 0.168282 0.347773 0.948782
O O5 0.016646 0.919985 0.760540
O O6 0.905181 0.838991 0.820123
O O7 0.000000 0.901745 0.000000
O O8 0.330846 0.168255 0.603862
O O9 0.335222 0.268197 0.649175
O O10 0.505867 0.204380 0.778721
O O11 0.174950 0.897123 0.657725
O O12 0.340222 0.936147 0.595188
O O13 0.187458 0.874213 0.416478
O O14 0.500000 0.563405 0.500000
O O15 0.615504 0.500000 0.684626
O O16 0.500000 0.918308 0.500000
O O17 0.540604 0.901095 0.752414
O O18 0.517130 0.000000 0.668332
O O19 0.183552 0.671996 0.712460
#
# Coordination Sequence:
#
# PCOD8109542 Si02
#       8
#     8   8   8   8   8   8   8   8
#     4  12  22  41  65  90 129 179 220 261 324 391
#     4  12  24  42  67  95 135 172 221 274 323 392
#     4  11  24  38  64  92 130 175 213 259 327 393
#     4  11  22  41  64  95 130 163 212 270 325 388
#     4  11  24  44  69  94 126 174 221 270 334 390
#     4  10  21  39  65  93 123 166 213 268 333 382
#     4  12  23  40  62  99 132 172 210 266 327 388
#     4  11  23  40  62  92 132 164 219 268 313 387
#
# _framework density 20.433130999999999
#
# number of rings (size 3 to 8) (size 9 to 14) (size 15 to 20)
#    0.000    0.750    6.250    1.875    0.000    0.250 
#    0.000    1.250    0.000    1.500    0.000    0.000 
#    0.000    0.000    0.000    0.000    0.000    0.000 
#
# Total GULP energy -396666.581336 kJ/mol
# GULP energy per Si atom -12395.830667 kJ/mol
# Density = 2.038662 g / cm^3
# Si number density = 20.433131 Si / 1000 Ang^3
#
#
#
# Elastic Constant Matrix: (Units=GPa)
#
#
# Indices 1 2 3 4 5 6 
#
# 1 125.9447 33.9792 36.1539 0.0000 -3.1263 0.0000
# 2 33.9792 94.6531 34.9448 0.0000 7.5562 0.0000
# 3 36.1539 34.9448 96.3327 0.0000 -2.0500 0.0000
# 4 0.0000 0.0000 0.0000 16.4434 0.0000 -1.5222
# 5 -3.1263 7.5562 -2.0500 0.0000 39.8615 0.0000
# 6 0.0000 0.0000 0.0000 -1.5222 0.0000 26.4605
#
#
#
# Elastic Compliance Matrix: (Units=1/GPa)
#
#
# Indices 1 2 3 4 5 6 
#
# 1 0.009385 -0.002498 -0.002593 0.000000 0.001076 0.000000
# 2 -0.002498 0.013126 -0.003886 0.000000 -0.002884 0.000000
# 3 -0.002593 -0.003886 0.012789 0.000000 0.001191 0.000000
# 4 0.000000 0.000000 0.000000 0.061140 0.000000 0.003517
# 5 0.001076 -0.002884 0.001191 0.000000 0.025779 0.000000
# 6 0.000000 0.000000 0.000000 0.003517 0.000000 0.037994
#
#
# Mechanical properties :
#
#
# Convention : Reuss Voigt Hill
#
# Bulk Modulus (GPa) = 57.64657 58.56517 58.10587
# Shear Modulus (GPa) = 27.18142 30.67660 28.92901
#
# Velocity S-wave (km/s) = 3.65123 3.87889 3.76678
# Velocity P-wave (km/s) = 6.78593 6.98463 6.88600
#
# Compressibility (1/GPa) = 0.01734709
#
# Stress axis : x y z
#
# Youngs Moduli (GPa) = 106.55328 76.18330 78.19334
#
# Poissons Ratio (x) = 0.19027 0.20278
# Poissons Ratio (y) = 0.26612 0.30383
# Poissons Ratio (z) = 0.27633 0.29602
#
# Static dielectric constant tensor:
#      x y z
#    x 3.867140 0.000000 0.170090 
#    y 0.000000 3.613460 0.000000 
#    z 0.170090 0.000000 3.975710 
# 
# 
# High freq. dielectric constant tensor:
#      x y z
#    x 1.814040 0.000000 0.002600 
#    y 0.000000 1.784870 0.000000 
#    z 0.002600 0.000000 1.800690 
# 
# From -- ./inp_files/135968.got.cif
#   From: 2010.06.25/outbox.cif.g09.slc.cpg/sg12_68_cif.got.tgz:135968.got - 2010.06.28 00:19:55.
