data_PCOD8109279
_publ_section_title
;
Structure prediction by ZEFSAII (Michael W. Deem and Ramdas Pophale) SiO2 
 PCOD8109279
Probable space group: C 2/M
;
_chemical_formula_sum "Si O2"
_cell_formula_units_Z 40
_cell_length_a 8.452444
_cell_length_b 28.805731
_cell_length_c 14.029291
_cell_angle_alpha 90.000000
_cell_angle_beta 32.722760
_cell_angle_gamma 90.000000
_cell_volume 1846.513672
_symmetry_space_group_name_H-M "C 2/M"
_symmetry_group_IT_number 12
_symmetry_cell_setting 'monoclinic'
loop_
_space_group_symop_operation_xyz
x,y,z
-x,y,-z
-x,-y,-z
x,-y,z
1/2+x,1/2+y,z
1/2-x,1/2+y,-z
1/2-x,1/2-y,-z
1/2+x,1/2-y,z
loop_
_atom_site_type_symbol
_atom_site_label
_atom_site_fract_x
_atom_site_fract_y
_atom_site_fract_z
Si Si1 0.179886 0.604961 0.688001
Si Si2 0.679147 0.721494 0.694954
Si Si3 0.695554 0.122849 0.308822
Si Si4 0.688010 0.194813 0.812311
Si Si5 0.845672 0.948613 0.976885
O O1 0.500000 0.584173 0.500000
O O2 0.230066 0.650699 0.724459
O O3 0.999010 0.616163 0.685293
O O4 0.992091 0.567747 0.843552
O O5 0.674579 0.674715 0.760728
O O6 0.539730 0.763397 0.827350
O O7 0.502873 0.712764 0.687225
O O8 0.000000 0.736467 0.500000
O O9 0.500000 0.114896 0.500000
O O10 0.967558 0.087388 0.180827
O O11 0.500000 0.181695 0.000000
O O12 0.847659 0.000000 0.929006
O O13 0.000000 0.950731 0.000000
#
# Coordination Sequence:
#
# PCOD8109279 Si02
#       5
#     8   8   8   8   8
#     4  11  22  38  61  88 122 158 198 246 297 349
#     4  11  22  38  58  84 121 159 198 238 288 349
#     4  10  21  39  63  89 119 158 201 243 293 353
#     4  12  24  38  59  88 122 157 199 243 293 350
#     4   9  20  39  62  88 119 155 196 244 299 358
#
# _framework density 21.662445000000002
#
# number of rings (size 3 to 8) (size 9 to 14) (size 15 to 20)
#    0.000    1.400    0.000    6.600    0.000    3.200 
#    0.000    0.000    0.000   13.800    0.000    0.000 
#    0.000    0.000    0.000    0.000    0.000    0.000 
#
# Total GULP energy -248018.320427 kJ/mol
# GULP energy per Si atom -12400.916021 kJ/mol
# Density = 2.161314 g / cm^3
# Si number density = 21.662445 Si / 1000 Ang^3
#
#
#
# Elastic Constant Matrix: (Units=GPa)
#
#
# Indices 1 2 3 4 5 6 
#
# 1 82.1929 10.5868 19.0821 0.0000 -9.9849 0.0000
# 2 10.5868 100.0745 36.4279 0.0000 -7.8844 0.0000
# 3 19.0821 36.4279 120.7619 0.0000 -12.3549 0.0000
# 4 0.0000 0.0000 0.0000 25.9496 0.0000 -2.3224
# 5 -9.9849 -7.8844 -12.3549 0.0000 34.6015 0.0000
# 6 0.0000 0.0000 0.0000 -2.3224 0.0000 12.4941
#
#
#
# Elastic Compliance Matrix: (Units=1/GPa)
#
#
# Indices 1 2 3 4 5 6 
#
# 1 0.012974 -0.000561 -0.001568 0.000000 0.003056 0.000000
# 2 -0.000561 0.011315 -0.003194 0.000000 0.001276 0.000000
# 3 -0.001568 -0.003194 0.009727 0.000000 0.002293 0.000000
# 4 0.000000 0.000000 0.000000 0.039188 0.000000 0.007284
# 5 0.003056 0.001276 0.002293 0.000000 0.030892 0.000000
# 6 0.000000 0.000000 0.000000 0.007284 0.000000 0.081392
#
#
# Mechanical properties :
#
#
# Convention : Reuss Voigt Hill
#
# Bulk Modulus (GPa) = 42.79089 48.35811 45.57450
# Shear Modulus (GPa) = 24.51896 30.40453 27.46174
#
# Velocity S-wave (km/s) = 3.36797 3.75048 3.56436
# Velocity P-wave (km/s) = 5.90937 6.41301 6.16633
#
# Compressibility (1/GPa) = 0.02336946
#
# Stress axis : x y z
#
# Youngs Moduli (GPa) = 77.07665 88.37770 102.81086
#
# Poissons Ratio (x) = 0.04957 0.16123
# Poissons Ratio (y) = 0.04323 0.32838
# Poissons Ratio (z) = 0.12087 0.28228
#
# Static dielectric constant tensor:
#      x y z
#    x 3.965550 0.000000 -0.111960 
#    y 0.000000 4.151450 0.000000 
#    z -0.111960 0.000000 4.055130 
# 
# 
# High freq. dielectric constant tensor:
#      x y z
#    x 1.848780 0.000000 -0.007340 
#    y 0.000000 1.845400 0.000000 
#    z -0.007340 0.000000 1.858640 
# 
# From -- ./inp_files/40324.got.cif
#   From: 2010.06.25/outbox.cif.g09.slc.cpg/sg12_21_cif.got.tgz:40324.got - 2010.06.28 00:19:55.
