data_PCOD8109309
_publ_section_title
;
Structure prediction by ZEFSAII (Michael W. Deem and Ramdas Pophale) SiO2 
 PCOD8109309
Probable space group: C 2/M
;
_chemical_formula_sum "Si O2"
_cell_formula_units_Z 48
_cell_length_a 8.107158
_cell_length_b 26.731864
_cell_length_c 13.299218
_cell_angle_alpha 90.000000
_cell_angle_beta 133.134010
_cell_angle_gamma 90.000000
_cell_volume 2103.303750
_symmetry_space_group_name_H-M "C 2/M"
_symmetry_group_IT_number 12
_symmetry_cell_setting 'monoclinic'
loop_
_space_group_symop_operation_xyz
x,y,z
-x,y,-z
-x,-y,-z
x,-y,z
1/2+x,1/2+y,z
1/2-x,1/2+y,-z
1/2-x,1/2-y,-z
1/2+x,1/2-y,z
loop_
_atom_site_type_symbol
_atom_site_label
_atom_site_fract_x
_atom_site_fract_y
_atom_site_fract_z
Si Si1 0.315351 0.347993 0.006216
Si Si2 0.479153 0.294117 0.274407
Si Si3 0.791399 0.369319 0.474330
Si Si4 0.087931 0.055514 0.648513
Si Si5 0.886070 0.315538 0.716209
Si Si6 0.072387 0.444863 0.916647
O O1 0.291490 0.408372 0.004075
O O2 0.065584 0.332926 0.871935
O O3 0.500000 0.333302 0.000000
O O4 0.364893 0.317737 0.128136
O O5 0.726848 0.317932 0.390854
O O6 0.345813 0.307124 0.321120
O O7 0.509158 0.235098 0.284667
O O8 0.580449 0.406402 0.366559
O O9 0.848253 0.357401 0.614203
O O10 0.000000 0.393074 0.500000
O O11 0.348855 0.074738 0.762019
O O12 0.000000 0.051649 0.500000
O O13 0.076910 0.000000 0.694160
O O14 0.143903 0.500000 0.905646
O O15 0.000000 0.448994 0.000000
#
# Coordination Sequence:
#
# PCOD8109309 Si02
#       6
#     8   8   8   8   8   8
#     4  12  24  40  63  93 126 161 204 254 308 364
#     4  12  25  43  64  89 123 163 207 253 306 365
#     4  12  24  40  63  93 126 161 204 254 308 364
#     4  10  21  39  63  90 122 162 206 251 305 366
#     4  12  25  43  64  89 123 163 207 253 306 365
#     4  10  21  39  63  90 122 162 206 251 305 366
#
# _framework density 22.821238999999998
#
# number of rings (size 3 to 8) (size 9 to 14) (size 15 to 20)
#    0.000    0.667    0.000   10.000    0.000    0.667 
#    0.000    0.000    0.000   10.000    0.000    0.000 
#    0.000    0.000    0.000    0.000    0.000    0.000 
#
# Total GULP energy -297520.265661 kJ/mol
# GULP energy per Si atom -12396.677736 kJ/mol
# Density = 2.276930 g / cm^3
# Si number density = 22.821239 Si / 1000 Ang^3
#
#
#
# Elastic Constant Matrix: (Units=GPa)
#
#
# Indices 1 2 3 4 5 6 
#
# 1 88.9693 24.9529 -3.5273 0.0000 -4.7696 0.0000
# 2 24.9529 82.9089 7.9646 0.0000 3.9870 0.0000
# 3 -3.5273 7.9646 97.6394 0.0000 -10.4277 0.0000
# 4 0.0000 0.0000 0.0000 29.3695 0.0000 6.6658
# 5 -4.7696 3.9870 -10.4277 0.0000 31.4436 0.0000
# 6 0.0000 0.0000 0.0000 6.6658 0.0000 32.5269
#
#
#
# Elastic Compliance Matrix: (Units=1/GPa)
#
#
# Indices 1 2 3 4 5 6 
#
# 1 0.012557 -0.004016 0.001077 0.000000 0.002771 0.000000
# 2 -0.004016 0.013556 -0.001555 0.000000 -0.002844 0.000000
# 3 0.001077 -0.001555 0.010830 0.000000 0.003952 0.000000
# 4 0.000000 0.000000 0.000000 0.035710 0.000000 -0.007318
# 5 0.002771 -0.002844 0.003952 0.000000 0.033894 0.000000
# 6 0.000000 0.000000 0.000000 -0.007318 0.000000 0.032243
#
#
# Mechanical properties :
#
#
# Convention : Reuss Voigt Hill
#
# Bulk Modulus (GPa) = 35.77015 36.47755 36.12385
# Shear Modulus (GPa) = 31.82747 34.67649 33.25198
#
# Velocity S-wave (km/s) = 3.73854 3.90228 3.82129
# Velocity P-wave (km/s) = 5.86035 6.02681 5.94416
#
# Compressibility (1/GPa) = 0.02795627
#
# Stress axis : x y z
#
# Youngs Moduli (GPa) = 79.63369 73.76672 92.33985
#
# Poissons Ratio (x) = 0.29626 -0.09947
# Poissons Ratio (y) = 0.31982 0.14355
# Poissons Ratio (z) = -0.08578 0.11468
#
# Static dielectric constant tensor:
#      x y z
#    x 3.887840 0.000000 0.269600 
#    y 0.000000 4.797430 0.000000 
#    z 0.269600 0.000000 4.655390 
# 
# 
# High freq. dielectric constant tensor:
#      x y z
#    x 1.877380 0.000000 0.000240 
#    y 0.000000 1.918040 0.000000 
#    z 0.000240 0.000000 1.920750 
# 
# From -- ./inp_files/67325.got.cif
#   From: 2010.06.25/outbox.cif.g09.slc.cpg/sg12_34_cif.got.tgz:67325.got - 2010.06.28 00:19:55.
