data_PCOD8109507
_publ_section_title
;
Structure prediction by ZEFSAII (Michael W. Deem and Ramdas Pophale) SiO2 
 PCOD8109507
Probable space group: C 2/M
;
_chemical_formula_sum "Si O2"
_cell_formula_units_Z 28
_cell_length_a 13.657296
_cell_length_b 22.794706
_cell_length_c 5.162243
_cell_angle_alpha 90.000000
_cell_angle_beta 52.702619
_cell_angle_gamma 90.000000
_cell_volume 1278.433050
_symmetry_space_group_name_H-M "C 2/M"
_symmetry_group_IT_number 12
_symmetry_cell_setting 'monoclinic'
loop_
_space_group_symop_operation_xyz
x,y,z
-x,y,-z
-x,-y,-z
x,-y,z
1/2+x,1/2+y,z
1/2-x,1/2+y,-z
1/2-x,1/2-y,-z
1/2+x,1/2-y,z
loop_
_atom_site_type_symbol
_atom_site_label
_atom_site_fract_x
_atom_site_fract_y
_atom_site_fract_z
Si Si1 0.583110 0.000000 0.617742
Si Si2 0.887815 0.738220 0.373476
Si Si3 0.719581 0.120867 0.376056
Si Si4 0.129447 0.853088 0.361931
O O1 0.500000 0.000000 0.500000
O O2 0.668345 0.056444 0.489246
O O3 0.500000 0.000000 0.000000
O O4 0.750000 0.750000 0.500000
O O5 0.891616 0.668782 0.431968
O O6 0.895876 0.782369 0.605434
O O7 0.000000 0.753702 0.000000
O O8 0.825063 0.129620 0.423464
O O9 0.772003 0.127448 0.004900
O O10 0.000000 0.884735 0.500000
#
# Coordination Sequence:
#
# PCOD8109507 Si02
#       4
#     4   8   8   8
#     4  12  26  46  67  92 127 170 218 272 320 384
#     4  10  21  39  64  97 132 170 213 268 331 393
#     4  11  24  42  64  95 129 171 218 265 323 390
#     4  11  22  41  65  95 131 168 210 269 328 392
#
# _framework density 21.901810000000001
#
# number of rings (size 3 to 8) (size 9 to 14) (size 15 to 20)
#    0.000    1.143    0.000    7.714    0.000    5.714 
#    0.000    4.286    0.000    0.000    0.000    0.000 
#    0.000    0.000    0.000    0.000    0.000    0.000 
#
# Total GULP energy -173473.125741 kJ/mol
# GULP energy per Si atom -12390.937553 kJ/mol
# Density = 2.185196 g / cm^3
# Si number density = 21.901810 Si / 1000 Ang^3
#
#
#
# Elastic Constant Matrix: (Units=GPa)
#
#
# Indices 1 2 3 4 5 6 
#
# 1 102.9011 21.6509 17.1213 0.0000 -4.3286 0.0000
# 2 21.6509 176.9315 50.8514 0.0000 -13.1972 0.0000
# 3 17.1213 50.8514 152.3806 0.0000 -15.0770 0.0000
# 4 0.0000 0.0000 0.0000 -17.8773 0.0000 19.5877
# 5 -4.3286 -13.1972 -15.0770 0.0000 38.9644 0.0000
# 6 0.0000 0.0000 0.0000 19.5877 0.0000 12.8286
#
#
#
# Elastic Compliance Matrix: (Units=1/GPa)
#
#
# Indices 1 2 3 4 5 6 
#
# 1 0.010070 -0.000978 -0.000756 0.000000 0.000495 0.000000
# 2 -0.000978 0.006417 -0.001900 0.000000 0.001330 0.000000
# 3 -0.000756 -0.001900 0.007497 0.000000 0.002173 0.000000
# 4 0.000000 0.000000 0.000000 -0.020927 0.000000 0.031953
# 5 0.000495 0.001330 0.002173 0.000000 0.027011 0.000000
# 6 0.000000 0.000000 0.000000 0.031953 0.000000 0.029163
#
#
# Mechanical properties :
#
#
# Convention : Reuss Voigt Hill
#
# Bulk Modulus (GPa) = 59.82460 67.94005 63.88233
# Shear Modulus (GPa) = 69.37658 29.62244 49.49951
#
# Velocity S-wave (km/s) = 5.63427 3.68164 4.75917
# Velocity P-wave (km/s) = 8.34870 7.01144 7.70912
#
# Compressibility (1/GPa) = 0.01671553
#
# Stress axis : x y z
#
# Youngs Moduli (GPa) = 99.29998 155.84059 133.39502
#
# Poissons Ratio (x) = 0.15242 0.10087
# Poissons Ratio (y) = 0.09712 0.25344
# Poissons Ratio (z) = 0.07509 0.29609
#
# Static dielectric constant tensor:
#      x y z
#    x 4.323480 0.000000 -0.152940 
#    y 0.000000 4.371330 0.000000 
#    z -0.152940 0.000000 3.953080 
# 
# 
# High freq. dielectric constant tensor:
#      x y z
#    x 1.878360 0.000000 -0.005030 
#    y 0.000000 1.850830 0.000000 
#    z -0.005030 0.000000 1.868870 
# 
# From -- ./inp_files/10627.got.cif
#   From: 2010.06.25/outbox.cif.g09.slc.cpg/sg12_6_cif.got.tgz:10627.got - 2010.06.28 00:19:55.
