data_PCOD8109617
_publ_section_title
;
Structure prediction by ZEFSAII (Michael W. Deem and Ramdas Pophale) SiO2 
 PCOD8109617
Probable space group: C 2/M
;
_chemical_formula_sum "Si O2"
_cell_formula_units_Z 32
_cell_length_a 10.735698
_cell_length_b 13.205879
_cell_length_c 17.627546
_cell_angle_alpha 90.000000
_cell_angle_beta 147.231541
_cell_angle_gamma 90.000000
_cell_volume 1352.644515
_symmetry_space_group_name_H-M "C 2/M"
_symmetry_group_IT_number 12
_symmetry_cell_setting 'monoclinic'
loop_
_space_group_symop_operation_xyz
x,y,z
-x,y,-z
-x,-y,-z
x,-y,z
1/2+x,1/2+y,z
1/2-x,1/2+y,-z
1/2-x,1/2-y,-z
1/2+x,1/2-y,z
loop_
_atom_site_type_symbol
_atom_site_label
_atom_site_fract_x
_atom_site_fract_y
_atom_site_fract_z
Si Si1 0.964272 0.174344 0.897619
Si Si2 0.003113 0.384326 0.585285
Si Si3 0.042749 0.384995 0.889955
Si Si4 0.237834 0.883182 0.590442
O O1 0.754905 0.120531 0.749586
O O2 0.923295 0.296914 0.878868
O O3 0.000000 0.132110 0.000000
O O4 0.187368 0.138302 0.965534
O O5 0.931436 0.500000 0.537653
O O6 0.000000 0.331210 0.500000
O O7 0.819696 0.335196 0.551397
O O8 0.987764 0.500000 0.890662
O O9 0.948116 0.368951 0.756428
O O10 0.000000 0.832580 0.500000
O O11 0.185837 0.000000 0.549551
#
# Coordination Sequence:
#
# PCOD8109617 Si02
#       4
#     8   8   8   8
#     4  11  22  40  66  96 125 166 221 269 318 387
#     4  10  21  39  66  99 131 167 216 271 323 380
#     4  10  22  40  63  92 129 171 213 266 326 385
#     4   9  18  37  63  91 125 169 213 257 321 389
#
# _framework density 23.657360000000001
#
# number of rings (size 3 to 8) (size 9 to 14) (size 15 to 20)
#    0.000    2.000    2.500    0.750    0.000    2.500 
#    9.000    2.500    0.000    0.000    0.000    0.000 
#    0.000    1.000    0.000    0.000    0.000    0.000 
#
# Total GULP energy -198227.105494 kJ/mol
# GULP energy per Si atom -12389.194093 kJ/mol
# Density = 2.360351 g / cm^3
# Si number density = 23.657360 Si / 1000 Ang^3
#
#
#
# Elastic Constant Matrix: (Units=GPa)
#
#
# Indices 1 2 3 4 5 6 
#
# 1 156.4461 -19.3255 69.4437 -0.0002 -1.8029 -0.0005
# 2 -19.3255 76.5210 1.8029 0.0002 -0.9338 -0.0004
# 3 69.4437 1.8029 133.8556 -0.0060 -7.9619 -0.0197
# 4 -0.0002 0.0002 -0.0060 15.0260 -0.0012 -26.7671
# 5 -1.8029 -0.9338 -7.9619 -0.0012 38.9553 -0.0035
# 6 -0.0005 -0.0004 -0.0197 -26.7671 -0.0035 -63.0468
#
#
#
# Elastic Compliance Matrix: (Units=1/GPa)
#
#
# Indices 1 2 3 4 5 6 
#
# 1 0.008700 0.002299 -0.004573 0.000000 -0.000477 0.000001
# 2 0.002299 0.013683 -0.001368 0.000000 0.000155 0.000000
# 3 -0.004573 -0.001368 0.009968 -0.000001 0.001793 -0.000003
# 4 0.000000 0.000000 -0.000001 0.037893 0.000000 -0.016088
# 5 -0.000477 0.000155 0.001793 0.000000 0.026019 -0.000002
# 6 0.000001 0.000000 -0.000003 -0.016088 -0.000002 -0.009031
#
#
# Mechanical properties :
#
#
# Convention : Reuss Voigt Hill
#
# Bulk Modulus (GPa) = 39.89101 52.29608 46.09355
# Shear Modulus (GPa) = 48.60421 19.18034 33.89227
#
# Velocity S-wave (km/s) = 4.53758 2.85047 3.78912
# Velocity P-wave (km/s) = 6.65969 5.74345 6.21847
#
# Compressibility (1/GPa) = 0.02506831
#
# Stress axis : x y z
#
# Youngs Moduli (GPa) = 114.93714 73.08280 100.31804
#
# Poissons Ratio (x) = -0.16803 0.45876
# Poissons Ratio (y) = -0.26427 0.13723
# Poissons Ratio (z) = 0.52562 0.09997
#
# Static dielectric constant tensor:
#      x y z
#    x 4.544010 0.000000 -0.036000 
#    y 0.000000 4.223430 0.000000 
#    z -0.036000 0.000000 4.061970 
# 
# 
# High freq. dielectric constant tensor:
#      x y z
#    x 1.920790 0.000000 0.002200 
#    y 0.000000 1.942710 0.000000 
#    z 0.002200 0.000000 1.932860 
# 
# From -- ./inp_files/45208.got.cif
#   From: 2010.06.25/outbox.cif.g09.slc.cpg/sg12_23_cif.got.tgz:45208.got - 2010.06.28 00:19:55.
