data_PCOD8109019
_publ_section_title
;
Structure prediction by ZEFSAII (Michael W. Deem and Ramdas Pophale) SiO2 
 PCOD8109019
Probable space group: C 2/M
;
_chemical_formula_sum "Si O2"
_cell_formula_units_Z 48
_cell_length_a 28.965967
_cell_length_b 9.077301
_cell_length_c 14.556502
_cell_angle_alpha 90.000000
_cell_angle_beta 38.902337
_cell_angle_gamma 90.000000
_cell_volume 2403.575899
_symmetry_space_group_name_H-M "C 2/M"
_symmetry_group_IT_number 12
_symmetry_cell_setting 'monoclinic'
loop_
_space_group_symop_operation_xyz
x,y,z
-x,y,-z
-x,-y,-z
x,-y,z
1/2+x,1/2+y,z
1/2-x,1/2+y,-z
1/2-x,1/2-y,-z
1/2+x,1/2-y,z
loop_
_atom_site_type_symbol
_atom_site_label
_atom_site_fract_x
_atom_site_fract_y
_atom_site_fract_z
Si Si1 0.008892 0.668848 0.093465
Si Si2 0.248419 0.169705 0.405377
Si Si3 0.524232 0.675052 0.363568
Si Si4 0.845039 0.170028 0.107663
Si Si5 0.083353 0.830793 0.629554
Si Si6 0.683352 0.329860 0.054630
O O1 0.023974 0.500000 0.096713
O O2 0.934672 0.727736 0.255489
O O3 0.072856 0.771776 0.033451
O O4 0.000000 0.689444 0.000000
O O5 0.250000 0.250000 0.500000
O O6 0.307573 0.237631 0.245612
O O7 0.169852 0.186211 0.477166
O O8 0.269203 0.000000 0.389733
O O9 0.500000 0.739058 0.500000
O O10 0.526624 0.500000 0.362312
O O11 0.462369 0.727495 0.387156
O O12 0.604749 0.735930 0.210134
O O13 0.846572 0.000000 0.134900
O O14 0.805092 0.191553 0.072141
O O15 0.063251 0.000000 0.683480
O O16 0.686753 0.500000 0.076886
O O17 0.750000 0.250000 0.000000
#
# Coordination Sequence:
#
# PCOD8109019 Si02
#       6
#     8   8   8   8   8   8
#     4  11  23  38  60  89 119 154 199 252 307 363
#     4  11  24  40  62  91 124 164 207 252 303 362
#     4   9  18  36  62  88 115 150 196 245 294 356
#     4  11  23  41  62  87 124 164 204 252 303 364
#     4  10  21  39  61  87 118 156 200 245 300 362
#     4  10  22  39  62  90 121 156 198 250 306 365
#
# _framework density 19.970244999999998
#
# number of rings (size 3 to 8) (size 9 to 14) (size 15 to 20)
#    0.000    1.667    1.667    2.500    2.333    6.667 
#    0.000    0.000    0.000    1.000    0.000    0.000 
#    0.000    0.000    0.000    0.000    0.000    0.000 
#
# Total GULP energy -297675.994626 kJ/mol
# GULP energy per Si atom -12403.166443 kJ/mol
# Density = 1.992479 g / cm^3
# Si number density = 19.970245 Si / 1000 Ang^3
#
#
#
# Elastic Constant Matrix: (Units=GPa)
#
#
# Indices 1 2 3 4 5 6 
#
# 1 82.9726 39.6623 17.2647 0.0000 -3.7799 0.0000
# 2 39.6623 85.9789 27.8076 -0.0002 5.5292 0.0001
# 3 17.2647 27.8076 84.3050 -0.0001 11.4198 0.0001
# 4 0.0000 -0.0002 -0.0001 28.1758 0.0000 -5.1505
# 5 -3.7799 5.5292 11.4198 0.0000 36.4038 0.0000
# 6 0.0000 0.0001 0.0001 -5.1505 0.0000 29.3113
#
#
#
# Elastic Compliance Matrix: (Units=1/GPa)
#
#
# Indices 1 2 3 4 5 6 
#
# 1 0.015861 -0.007087 -0.001336 0.000000 0.003142 0.000000
# 2 -0.007087 0.016201 -0.003613 0.000000 -0.002063 0.000000
# 3 -0.001336 -0.003613 0.013861 0.000000 -0.003938 0.000000
# 4 0.000000 0.000000 0.000000 0.036669 0.000000 0.006443
# 5 0.003142 -0.002063 -0.003938 0.000000 0.029345 0.000000
# 6 0.000000 0.000000 0.000000 0.006443 0.000000 0.035249
#
#
# Mechanical properties :
#
#
# Convention : Reuss Voigt Hill
#
# Bulk Modulus (GPa) = 45.76558 46.96950 46.36754
# Shear Modulus (GPa) = 28.00482 30.01299 29.00891
#
# Velocity S-wave (km/s) = 3.74883 3.88091 3.81544
# Velocity P-wave (km/s) = 6.45794 6.60702 6.53291
#
# Compressibility (1/GPa) = 0.02185048
#
# Stress axis : x y z
#
# Youngs Moduli (GPa) = 63.04825 61.72441 72.14712
#
# Poissons Ratio (x) = 0.43741 0.09641
# Poissons Ratio (y) = 0.44679 0.26068
# Poissons Ratio (z) = 0.08425 0.22302
#
# Static dielectric constant tensor:
#      x y z
#    x 3.784680 0.000000 0.006090 
#    y 0.000000 3.503260 0.000000 
#    z 0.006090 0.000000 3.789200 
# 
# 
# High freq. dielectric constant tensor:
#      x y z
#    x 1.787830 0.000000 -0.000880 
#    y 0.000000 1.763580 0.000000 
#    z -0.000880 0.000000 1.788320 
# 
# From -- ./inp_files/244710.got.cif
#   From: 2010.06.25/outbox.cif.g09.slc.cpg/sg12_123_cif.got.tgz:244710.got - 2010.06.28 00:19:55.
