data_PCOD8109237
_publ_section_title
;
Structure prediction by ZEFSAII (Michael W. Deem and Ramdas Pophale) SiO2 
 PCOD8109237
Probable space group: C 2/M
;
_chemical_formula_sum "Si O2"
_cell_formula_units_Z 48
_cell_length_a 12.896278
_cell_length_b 21.763235
_cell_length_c 10.501689
_cell_angle_alpha 90.000000
_cell_angle_beta 47.814593
_cell_angle_gamma 90.000000
_cell_volume 2183.991437
_symmetry_space_group_name_H-M "C 2/M"
_symmetry_group_IT_number 12
_symmetry_cell_setting 'monoclinic'
loop_
_space_group_symop_operation_xyz
x,y,z
-x,y,-z
-x,-y,-z
x,-y,z
1/2+x,1/2+y,z
1/2-x,1/2+y,-z
1/2-x,1/2-y,-z
1/2+x,1/2-y,z
loop_
_atom_site_type_symbol
_atom_site_label
_atom_site_fract_x
_atom_site_fract_y
_atom_site_fract_z
Si Si1 0.849845 0.158753 0.616868
Si Si2 0.531707 0.891255 0.125456
Si Si3 0.888124 0.866157 0.311594
Si Si4 0.616639 0.929384 0.502230
Si Si5 0.081011 0.263497 0.815215
Si Si6 0.337755 0.572286 0.862792
O O1 0.840288 0.120930 0.494745
O O2 0.728904 0.208378 0.737511
O O3 0.840265 0.104320 0.725006
O O4 0.000000 0.193437 0.500000
O O5 0.425192 0.921707 0.313817
O O6 0.516701 0.817881 0.159146
O O7 0.500000 0.907433 0.000000
O O8 0.684345 0.913584 0.045783
O O9 0.757931 0.893615 0.340947
O O10 0.897087 0.791978 0.299669
O O11 0.036470 0.898617 0.154954
O O12 0.500000 0.904809 0.500000
O O13 0.648578 0.000000 0.449994
O O14 0.000000 0.232897 0.000000
O O15 0.362691 0.500000 0.829817
#
# Coordination Sequence:
#
# PCOD8109237 Si02
#       6
#     8   8   8   8   8   8
#     4  10  21  39  62  99 132 164 212 277 337 391
#     4  11  22  43  69 101 129 172 224 281 336 392
#     4  11  24  40  64  93 133 178 211 269 333 402
#     4  11  25  44  65  96 134 177 228 270 328 404
#     4  11  22  43  62  93 133 165 227 269 328 396
#     4  11  23  41  67 101 133 168 218 281 344 391
#
# _framework density 21.978109
#
# number of rings (size 3 to 8) (size 9 to 14) (size 15 to 20)
#    0.000    1.167    5.000    1.500    0.000    9.000 
#    3.000    0.000    0.000    4.000    0.000    0.000 
#    0.000    0.000    0.000    0.000    0.000    0.000 
#
# Total GULP energy -297370.629762 kJ/mol
# GULP energy per Si atom -12390.442907 kJ/mol
# Density = 2.192809 g / cm^3
# Si number density = 21.978109 Si / 1000 Ang^3
#
#
#
# Elastic Constant Matrix: (Units=GPa)
#
#
# Indices 1 2 3 4 5 6 
#
# 1 105.0999 49.1247 36.9168 0.0000 -39.1586 0.0000
# 2 49.1247 139.2813 26.2432 0.0000 -22.4914 0.0000
# 3 36.9168 26.2432 80.4806 0.0000 -36.3735 0.0000
# 4 0.0000 0.0000 0.0000 14.7639 0.0000 -0.0576
# 5 -39.1586 -22.4914 -36.3735 0.0000 48.0077 0.0000
# 6 0.0000 0.0000 0.0000 -0.0576 0.0000 24.0489
#
#
#
# Elastic Compliance Matrix: (Units=1/GPa)
#
#
# Indices 1 2 3 4 5 6 
#
# 1 0.015311 -0.003555 -0.001479 0.000000 0.009703 0.000000
# 2 -0.003555 0.008690 -0.001024 0.000000 0.000396 0.000000
# 3 -0.001479 -0.001024 0.019276 0.000000 0.012919 0.000000
# 4 0.000000 0.000000 0.000000 0.067733 0.000000 0.000162
# 5 0.009703 0.000396 0.012919 0.000000 0.038718 0.000000
# 6 0.000000 0.000000 0.000000 0.000162 0.000000 0.041582
#
#
# Mechanical properties :
#
#
# Convention : Reuss Voigt Hill
#
# Bulk Modulus (GPa) = 32.09022 61.04789 46.56906
# Shear Modulus (GPa) = 23.38479 31.53590 27.46034
#
# Velocity S-wave (km/s) = 3.26545 3.79209 3.53858
# Velocity P-wave (km/s) = 5.37124 6.85640 6.15875
#
# Compressibility (1/GPa) = 0.03116214
#
# Stress axis : x y z
#
# Youngs Moduli (GPa) = 65.31334 115.06975 51.87678
#
# Poissons Ratio (x) = 0.40904 0.07671
# Poissons Ratio (y) = 0.23217 0.05314
# Poissons Ratio (z) = 0.09658 0.11787
#
# Static dielectric constant tensor:
#      x y z
#    x 4.518730 0.000000 -0.477520 
#    y 0.000000 3.737040 0.000000 
#    z -0.477520 0.000000 4.317950 
# 
# 
# High freq. dielectric constant tensor:
#      x y z
#    x 1.858640 0.000000 -0.024480 
#    y 0.000000 1.851730 0.000000 
#    z -0.024480 0.000000 1.876870 
# 
# From -- ./inp_files/133729.got.cif
#   From: 2010.06.25/outbox.cif.g09.slc.cpg/sg12_67_cif.got.tgz:133729.got - 2010.06.28 00:19:55.
