data_PCOD8109696
_publ_section_title
;
Structure prediction by ZEFSAII (Michael W. Deem and Ramdas Pophale) SiO2 
 PCOD8109696
Probable space group: C 2/M
;
_chemical_formula_sum "Si O2"
_cell_formula_units_Z 64
_cell_length_a 19.031171
_cell_length_b 27.593029
_cell_length_c 14.763239
_cell_angle_alpha 90.000000
_cell_angle_beta 28.492248
_cell_angle_gamma 90.000000
_cell_volume 3698.292039
_symmetry_space_group_name_H-M "C 2/M"
_symmetry_group_IT_number 12
_symmetry_cell_setting 'monoclinic'
loop_
_space_group_symop_operation_xyz
x,y,z
-x,y,-z
-x,-y,-z
x,-y,z
1/2+x,1/2+y,z
1/2-x,1/2+y,-z
1/2-x,1/2-y,-z
1/2+x,1/2-y,z
loop_
_atom_site_type_symbol
_atom_site_label
_atom_site_fract_x
_atom_site_fract_y
_atom_site_fract_z
Si Si1 0.551121 0.162373 0.537467
Si Si2 0.150586 0.125778 0.447731
Si Si3 0.664831 0.647966 0.228952
Si Si4 0.977193 0.632541 0.806188
Si Si5 0.680889 0.245592 0.176775
Si Si6 0.305605 0.789804 0.364830
Si Si7 0.839433 0.215318 0.172555
Si Si8 0.900694 0.555886 0.200795
O O1 0.500000 0.139136 0.500000
O O2 0.524252 0.124411 0.648399
O O3 0.458066 0.210432 0.664268
O O4 0.722241 0.176685 0.342652
O O5 0.210826 0.138021 0.279669
O O6 0.183775 0.169006 0.481532
O O7 0.235678 0.076716 0.377910
O O8 0.975091 0.115783 0.644637
O O9 0.612435 0.703386 0.283445
O O10 0.801310 0.638397 0.008352
O O11 0.049978 0.681860 0.762820
O O12 0.019894 0.583766 0.808310
O O13 0.805618 0.228540 0.106551
O O14 0.750000 0.250000 0.000000
O O15 0.250000 0.750000 0.500000
O O16 0.344953 0.763853 0.226517
O O17 0.000000 0.190517 0.000000
O O18 0.887459 0.500000 0.242177
O O19 0.000000 0.563764 0.000000
#
# Coordination Sequence:
#
# PCOD8109696 Si02
#       8
#     8   8   8   8   8   8   8   8
#     4  10  22  37  48  72 109 149 187 228 268 310
#     4  10  22  34  51  77 111 140 180 224 272 326
#     4  11  20  32  50  77 108 144 184 217 268 323
#     4  11  21  36  57  77 105 145 191 221 276 333
#     4  11  21  34  49  69 108 157 187 222 265 317
#     4  11  21  33  48  72 106 148 189 227 257 312
#     4  11  22  32  46  70 103 145 193 228 261 302
#     4  10  21  40  61  82 108 138 177 230 294 342
#
# _framework density 17.305285999999999
#
# number of rings (size 3 to 8) (size 9 to 14) (size 15 to 20)
#    0.000    1.375    5.000    1.500    3.500    0.000 
#    0.000    1.875    0.000    0.375    0.000    0.000 
#    0.000    1.500    0.000    0.000    0.000    0.000 
#
# Total GULP energy -396781.486897 kJ/mol
# GULP energy per Si atom -12399.421466 kJ/mol
# Density = 1.726590 g / cm^3
# Si number density = 17.305286 Si / 1000 Ang^3
#
#
#
# Elastic Constant Matrix: (Units=GPa)
#
#
# Indices 1 2 3 4 5 6 
#
# 1 105.3675 40.6590 57.6402 0.0043 8.2379 -0.0027
# 2 40.6590 90.8269 36.0676 -0.0184 0.5587 0.0106
# 3 57.6402 36.0676 116.9159 -0.0798 -9.1894 0.0390
# 4 0.0043 -0.0184 -0.0798 14.7277 0.0074 5.0296
# 5 8.2379 0.5587 -9.1894 0.0074 36.7674 -0.0052
# 6 -0.0027 0.0106 0.0390 5.0296 -0.0052 18.1457
#
#
#
# Elastic Compliance Matrix: (Units=1/GPa)
#
#
# Indices 1 2 3 4 5 6 
#
# 1 0.015036 -0.004106 -0.006534 -0.000053 -0.004940 0.000032
# 2 -0.004106 0.013719 -0.002195 0.000008 0.000163 -0.000006
# 3 -0.006534 -0.002195 0.012821 0.000083 0.004702 -0.000049
# 4 -0.000053 0.000008 0.000083 0.074999 0.000015 -0.020788
# 5 -0.004940 0.000163 0.004702 0.000015 0.029477 -0.000007
# 6 0.000032 -0.000006 -0.000049 -0.020788 -0.000007 0.060872
#
#
# Mechanical properties :
#
#
# Convention : Reuss Voigt Hill
#
# Bulk Modulus (GPa) = 62.87198 64.64934 63.76066
# Shear Modulus (GPa) = 21.01756 25.84437 23.43097
#
# Velocity S-wave (km/s) = 3.48877 3.86869 3.68364
# Velocity P-wave (km/s) = 7.25525 7.57595 7.41733
#
# Compressibility (1/GPa) = 0.01590534
#
# Stress axis : x y z
#
# Youngs Moduli (GPa) = 66.50879 72.89404 77.99403
#
# Poissons Ratio (x) = 0.29927 0.50964
# Poissons Ratio (y) = 0.27306 0.17121
# Poissons Ratio (z) = 0.43460 0.16002
#
# Static dielectric constant tensor:
#      x y z
#    x 3.542570 -0.000070 0.081360 
#    y -0.000070 2.840660 0.000360 
#    z 0.081360 0.000360 3.393020 
# 
# 
# High freq. dielectric constant tensor:
#      x y z
#    x 1.683360 -0.000010 -0.007010 
#    y -0.000010 1.612160 0.000020 
#    z -0.007010 0.000020 1.673750 
# 
# From -- ./inp_files/228506.got.cif
#   From: 2010.06.25/outbox.cif.g09.slc.cpg/sg12_115_cif.got.tgz:228506.got - 2010.06.28 00:19:55.
