data_PCOD8109601
_publ_section_title
;
Structure prediction by ZEFSAII (Michael W. Deem and Ramdas Pophale) SiO2 
 PCOD8109601
Probable space group: C 2/M
;
_chemical_formula_sum "Si O2"
_cell_formula_units_Z 48
_cell_length_a 22.889360
_cell_length_b 16.692504
_cell_length_c 19.331694
_cell_angle_alpha 90.000000
_cell_angle_beta 17.441112
_cell_angle_gamma 90.000000
_cell_volume 2213.852229
_symmetry_space_group_name_H-M "C 2/M"
_symmetry_group_IT_number 12
_symmetry_cell_setting 'monoclinic'
loop_
_space_group_symop_operation_xyz
x,y,z
-x,y,-z
-x,-y,-z
x,-y,z
1/2+x,1/2+y,z
1/2-x,1/2+y,-z
1/2-x,1/2-y,-z
1/2+x,1/2-y,z
loop_
_atom_site_type_symbol
_atom_site_label
_atom_site_fract_x
_atom_site_fract_y
_atom_site_fract_z
Si Si1 0.889180 0.137047 0.689909
Si Si2 0.468691 0.820776 0.612383
Si Si3 0.031668 0.842115 0.133769
Si Si4 0.521581 0.183475 0.894096
Si Si5 0.836393 0.910824 0.236754
Si Si6 0.604403 0.409038 0.573442
O O1 0.978126 0.225352 0.602317
O O2 0.000000 0.096962 0.500000
O O3 0.930643 0.088257 0.713086
O O4 0.662415 0.135628 0.928077
O O5 0.500000 0.854781 0.500000
O O6 0.647137 0.854231 0.455665
O O7 0.264782 0.851219 0.873351
O O8 0.960704 0.762896 0.172864
O O9 0.935494 0.915068 0.200260
O O10 0.953969 0.847935 0.299455
O O11 0.703016 0.124768 0.680403
O O12 0.500000 0.205375 0.000000
O O13 0.773516 0.000000 0.284935
O O14 0.000000 0.875192 0.000000
O O15 0.636847 0.500000 0.563306
#
# Coordination Sequence:
#
# PCOD8109601 Si02
#       6
#     8   8   8   8   8   8
#     4  10  22  43  70  98 126 168 229 281 332 387
#     4  10  21  39  66  94 128 173 226 280 318 387
#     4  11  24  42  68  97 136 172 222 280 333 392
#     4  11  23  44  75 101 128 174 233 280 326 393
#     4  11  22  35  58  92 134 182 225 266 328 399
#     4  12  27  44  65 101 144 176 214 275 346 406
#
# _framework density 21.681664999999999
#
# number of rings (size 3 to 8) (size 9 to 14) (size 15 to 20)
#    0.000    1.167    3.333    2.500    2.333    7.000 
#    0.000    0.000    0.000    0.000    0.000    0.000 
#    0.000    0.000    0.000    0.000    0.000    0.000 
#
# Total GULP energy -297590.756192 kJ/mol
# GULP energy per Si atom -12399.614841 kJ/mol
# Density = 2.163232 g / cm^3
# Si number density = 21.681665 Si / 1000 Ang^3
#
#
#
# Elastic Constant Matrix: (Units=GPa)
#
#
# Indices 1 2 3 4 5 6 
#
# 1 135.2130 28.8920 51.9841 0.0194 9.1288 -0.0244
# 2 28.8920 68.0359 41.5728 0.0559 -0.8156 -0.0460
# 3 51.9841 41.5728 115.0037 0.0763 -6.2838 -0.0771
# 4 0.0194 0.0559 0.0763 11.2611 -0.0627 0.7611
# 5 9.1288 -0.8156 -6.2838 -0.0627 44.0017 0.0566
# 6 -0.0244 -0.0460 -0.0771 0.7611 0.0566 27.1584
#
#
#
# Elastic Compliance Matrix: (Units=1/GPa)
#
#
# Indices 1 2 3 4 5 6 
#
# 1 0.009376 -0.001717 -0.003755 0.000004 -0.002513 0.000000
# 2 -0.001717 0.019197 -0.006172 -0.000052 -0.000169 0.000015
# 3 -0.003755 -0.006172 0.012760 -0.000037 0.002487 0.000018
# 4 0.000004 -0.000052 -0.000037 0.088971 0.000123 -0.002494
# 5 -0.002513 -0.000169 0.002487 0.000123 0.023600 -0.000048
# 6 0.000000 0.000015 0.000018 -0.002494 -0.000048 0.036891
#
#
# Mechanical properties :
#
#
# Convention : Reuss Voigt Hill
#
# Bulk Modulus (GPa) = 55.42100 62.57226 58.99663
# Shear Modulus (GPa) = 22.71712 29.53783 26.12748
#
# Velocity S-wave (km/s) = 3.24042 3.69499 3.47515
# Velocity P-wave (km/s) = 6.29422 6.86485 6.58572
#
# Compressibility (1/GPa) = 0.01804370
#
# Stress axis : x y z
#
# Youngs Moduli (GPa) = 106.65662 52.09117 78.37170
#
# Poissons Ratio (x) = 0.08947 0.29425
# Poissons Ratio (y) = 0.18318 0.48375
# Poissons Ratio (z) = 0.40045 0.32153
#
# Static dielectric constant tensor:
#      x y z
#    x 3.969950 -0.000080 -0.104450 
#    y -0.000080 3.609900 0.000160 
#    z -0.104450 0.000160 3.881940 
# 
# 
# High freq. dielectric constant tensor:
#      x y z
#    x 1.856520 0.000000 -0.012040 
#    y 0.000000 1.835810 0.000010 
#    z -0.012040 0.000010 1.852630 
# 
# From -- ./inp_files/285345.got.cif
#   From: 2010.06.25/outbox.cif.g09.slc.cpg/sg12_143_cif.got.tgz:285345.got - 2010.06.28 00:19:55.
