data_PCOD8109777
_publ_section_title
;
Structure prediction by ZEFSAII (Michael W. Deem and Ramdas Pophale) SiO2 
 PCOD8109777
Probable space group: C 2/M
;
_chemical_formula_sum "Si O2"
_cell_formula_units_Z 64
_cell_length_a 30.666904
_cell_length_b 9.177383
_cell_length_c 17.090357
_cell_angle_alpha 90.000000
_cell_angle_beta 137.180135
_cell_angle_gamma 90.000000
_cell_volume 3269.297320
_symmetry_space_group_name_H-M "C 2/M"
_symmetry_group_IT_number 12
_symmetry_cell_setting 'monoclinic'
loop_
_space_group_symop_operation_xyz
x,y,z
-x,y,-z
-x,-y,-z
x,-y,z
1/2+x,1/2+y,z
1/2-x,1/2+y,-z
1/2-x,1/2-y,-z
1/2+x,1/2-y,z
loop_
_atom_site_type_symbol
_atom_site_label
_atom_site_fract_x
_atom_site_fract_y
_atom_site_fract_z
Si Si1 0.585802 0.667066 0.187712
Si Si2 0.878203 0.331538 0.208511
Si Si3 0.626755 0.168137 0.515733
Si Si4 0.160830 0.332468 0.014905
Si Si5 0.786009 0.668463 0.224027
Si Si6 0.182919 0.671406 0.421920
Si Si7 0.503137 0.672330 0.413818
Si Si8 0.940318 0.833496 0.025140
O O1 0.605469 0.500000 0.230721
O O2 0.635677 0.776484 0.291807
O O3 0.586386 0.697513 0.096336
O O4 0.515654 0.699623 0.129850
O O5 0.897171 0.500000 0.246366
O O6 0.834860 0.272481 0.222560
O O7 0.942660 0.237858 0.288662
O O8 0.837612 0.309363 0.076203
O O9 0.684189 0.196493 0.651908
O O10 0.652511 0.213807 0.465078
O O11 0.566977 0.268481 0.457839
O O12 0.604693 0.000000 0.489620
O O13 0.165563 0.500000 0.044033
O O14 0.219623 0.252705 0.133192
O O15 0.093960 0.271403 0.958882
O O16 0.771082 0.500000 0.188967
O O17 0.193830 0.500000 0.429010
O O18 0.250000 0.750000 0.500000
O O19 0.500000 0.721662 0.500000
O O20 0.502031 0.500000 0.403445
O O21 0.926437 0.000000 0.030050
#
# Coordination Sequence:
#
# PCOD8109777 Si02
#       8
#     8   8   8   8   8   8   8   8
#     4   9  20  41  65  87 116 155 200 244 293 357
#     4  10  22  40  61  85 120 163 200 238 295 360
#     4  10  23  42  64  88 119 163 207 243 295 370
#     4  11  24  37  57  91 123 151 195 252 299 346
#     4  10  21  40  63  83 113 163 206 239 289 357
#     4  11  25  42  63  93 125 159 200 252 307 361
#     4  11  23  38  61  94 125 156 200 255 304 349
#     4   9  20  40  64  87 115 157 199 240 296 360
#
# _framework density 19.576073000000001
#
# number of rings (size 3 to 8) (size 9 to 14) (size 15 to 20)
#    0.000    1.875    1.250    2.250    3.500    4.500 
#    0.000    1.250    0.000    0.000    0.000    0.000 
#    0.000    0.000    0.000    0.000    0.000    0.000 
#
# Total GULP energy -396983.372921 kJ/mol
# GULP energy per Si atom -12405.730404 kJ/mol
# Density = 1.953152 g / cm^3
# Si number density = 19.576073 Si / 1000 Ang^3
#
#
#
# Elastic Constant Matrix: (Units=GPa)
#
#
# Indices 1 2 3 4 5 6 
#
# 1 86.2185 42.0942 26.7813 0.0000 8.9933 0.0000
# 2 42.0942 78.8625 43.3794 0.0000 11.1586 0.0000
# 3 26.7813 43.3794 95.0642 0.0000 11.5088 0.0000
# 4 0.0000 0.0000 0.0000 31.9640 0.0000 0.5294
# 5 8.9933 11.1586 11.5088 0.0000 26.2227 0.0000
# 6 0.0000 0.0000 0.0000 0.5294 0.0000 33.7197
#
#
#
# Elastic Compliance Matrix: (Units=1/GPa)
#
#
# Indices 1 2 3 4 5 6 
#
# 1 0.015810 -0.007816 -0.000669 0.000000 -0.001803 0.000000
# 2 -0.007816 0.021206 -0.007083 0.000000 -0.003235 0.000000
# 3 -0.000669 -0.007083 0.014307 0.000000 -0.003036 0.000000
# 4 0.000000 0.000000 0.000000 0.031293 0.000000 -0.000491
# 5 -0.001803 -0.003235 -0.003036 0.000000 0.041462 0.000000
# 6 0.000000 0.000000 0.000000 -0.000491 0.000000 0.029664
#
#
# Mechanical properties :
#
#
# Convention : Reuss Voigt Hill
#
# Bulk Modulus (GPa) = 49.53660 53.85056 51.69358
# Shear Modulus (GPa) = 26.09486 28.24063 27.16775
#
# Velocity S-wave (km/s) = 3.65499 3.80229 3.72937
# Velocity P-wave (km/s) = 6.57050 6.84431 6.70880
#
# Compressibility (1/GPa) = 0.02018709
#
# Stress axis : x y z
#
# Youngs Moduli (GPa) = 63.25016 47.15647 69.89354
#
# Poissons Ratio (x) = 0.36856 0.04678
# Poissons Ratio (y) = 0.49435 0.49507
# Poissons Ratio (z) = 0.04234 0.33402
#
# Static dielectric constant tensor:
#      x y z
#    x 3.609320 0.000000 -0.076230 
#    y 0.000000 3.505010 0.000000 
#    z -0.076230 0.000000 3.695310 
# 
# 
# High freq. dielectric constant tensor:
#      x y z
#    x 1.769830 0.000000 -0.000280 
#    y 0.000000 1.760140 0.000000 
#    z -0.000280 0.000000 1.770060 
# 
# From -- ./inp_files/295878.got.cif
#   From: 2010.06.25/outbox.cif.g09.slc.cpg/sg12_148_cif.got.tgz:295878.got - 2010.06.28 00:19:55.
