data_PCOD8109139
_publ_section_title
;
Structure prediction by ZEFSAII (Michael W. Deem and Ramdas Pophale) SiO2 
 PCOD8109139
Probable space group: C 2/M
;
_chemical_formula_sum "Si O2"
_cell_formula_units_Z 56
_cell_length_a 30.280701
_cell_length_b 9.298916
_cell_length_c 20.681082
_cell_angle_alpha 90.000000
_cell_angle_beta 28.738943
_cell_angle_gamma 90.000000
_cell_volume 2799.971690
_symmetry_space_group_name_H-M "C 2/M"
_symmetry_group_IT_number 12
_symmetry_cell_setting 'monoclinic'
loop_
_space_group_symop_operation_xyz
x,y,z
-x,y,-z
-x,-y,-z
x,-y,z
1/2+x,1/2+y,z
1/2-x,1/2+y,-z
1/2-x,1/2-y,-z
1/2+x,1/2-y,z
loop_
_atom_site_type_symbol
_atom_site_label
_atom_site_fract_x
_atom_site_fract_y
_atom_site_fract_z
Si Si1 0.746555 0.167218 0.324528
Si Si2 0.032332 0.670400 0.142044
Si Si3 0.911925 0.340660 0.069771
Si Si4 0.134732 0.840254 0.370693
Si Si5 0.672011 0.169740 0.559462
Si Si6 0.343340 0.169430 0.898955
Si Si7 0.930702 0.160355 0.681257
O O1 0.844625 0.243578 0.198608
O O2 0.694872 0.219598 0.326998
O O3 0.688893 0.206149 0.462468
O O4 0.764212 0.000000 0.296158
O O5 0.024221 0.500000 0.152147
O O6 0.111436 0.718670 0.091114
O O7 0.930047 0.728693 0.291603
O O8 0.063176 0.728546 0.032121
O O9 0.869385 0.500000 0.113475
O O10 0.000000 0.354586 0.000000
O O11 0.141678 0.819034 0.284507
O O12 0.031232 0.821343 0.525115
O O13 0.170403 0.000000 0.343329
O O14 0.750000 0.250000 0.500000
O O15 0.681034 0.000000 0.561405
O O16 0.417319 0.214713 0.750402
O O17 0.325573 0.000000 0.920190
O O18 0.250000 0.250000 0.000000
O O19 0.916538 0.000000 0.729197
#
# Coordination Sequence:
#
# PCOD8109139 Si02
#       7
#     8   8   8   8   8   8   8
#     4  11  23  36  56  88 122 149 185 240 300 353
#     4   9  20  39  61  84 115 157 199 242 290 348
#     4  10  21  39  63  86 111 153 204 243 287 357
#     4   9  19  36  59  83 111 149 191 235 285 348
#     4  10  21  39  62  88 117 150 192 242 298 355
#     4  11  23  38  57  82 117 159 202 245 292 351
#     4   9  19  37  58  82 112 147 192 243 288 336
#
# _framework density 20.000202000000002
#
# number of rings (size 3 to 8) (size 9 to 14) (size 15 to 20)
#    0.000    2.143    0.000    3.429    2.000    4.857 
#    0.000    4.286    0.000    0.000    0.000    0.000 
#    0.000    0.000    0.000    0.000    0.000    0.000 
#
# Total GULP energy -347109.626534 kJ/mol
# GULP energy per Si atom -12396.772376 kJ/mol
# Density = 1.995468 g / cm^3
# Si number density = 20.000202 Si / 1000 Ang^3
#
#
#
# Elastic Constant Matrix: (Units=GPa)
#
#
# Indices 1 2 3 4 5 6 
#
# 1 102.8175 32.5627 29.0049 0.0067 -3.5173 0.0021
# 2 32.5627 67.2870 31.5309 -0.0010 1.3233 -0.0183
# 3 29.0049 31.5309 81.0926 0.0038 2.7335 -0.0167
# 4 0.0067 -0.0010 0.0038 44.8737 0.0004 14.6395
# 5 -3.5173 1.3233 2.7335 0.0004 36.6945 0.0056
# 6 0.0021 -0.0183 -0.0167 14.6395 0.0056 52.1861
#
#
#
# Elastic Compliance Matrix: (Units=1/GPa)
#
#
# Indices 1 2 3 4 5 6 
#
# 1 0.011957 -0.004632 -0.002526 -0.000001 0.001501 -0.000003
# 2 -0.004632 0.019968 -0.006083 0.000000 -0.000711 0.000005
# 3 -0.002526 -0.006083 0.015641 -0.000002 -0.001188 0.000004
# 4 -0.000001 0.000000 -0.000002 0.024530 0.000001 -0.006881
# 5 0.001501 -0.000711 -0.001188 0.000001 0.027510 -0.000004
# 6 -0.000003 0.000005 0.000004 -0.006881 -0.000004 0.021093
#
#
# Mechanical properties :
#
#
# Convention : Reuss Voigt Hill
#
# Bulk Modulus (GPa) = 47.43348 48.59935 48.01641
# Shear Modulus (GPa) = 32.42359 37.29075 34.85717
#
# Velocity S-wave (km/s) = 4.03073 4.32269 4.17926
# Velocity P-wave (km/s) = 6.74021 7.01900 6.88102
#
# Compressibility (1/GPa) = 0.02108216
#
# Stress axis : x y z
#
# Youngs Moduli (GPa) = 83.63296 50.08006 63.93637
#
# Poissons Ratio (x) = 0.23198 0.16152
# Poissons Ratio (y) = 0.38740 0.38895
# Poissons Ratio (z) = 0.21128 0.30465
#
# Static dielectric constant tensor:
#      x y z
#    x 4.320660 -0.000010 -0.047350 
#    y -0.000010 3.539400 0.000000 
#    z -0.047350 0.000000 3.906870 
# 
# 
# High freq. dielectric constant tensor:
#      x y z
#    x 1.790990 0.000000 -0.000840 
#    y 0.000000 1.756800 0.000000 
#    z -0.000840 0.000000 1.789810 
# 
# From -- ./inp_files/329451.got.cif
#   From: 2010.06.25/outbox.cif.g09.slc.cpg/sg12_165_cif.got.tgz:329451.got - 2010.06.28 00:19:55.
