data_PCOD8109334
_publ_section_title
;
Structure prediction by ZEFSAII (Michael W. Deem and Ramdas Pophale) SiO2 
 PCOD8109334
Probable space group: C 2/M
;
_chemical_formula_sum "Si O2"
_cell_formula_units_Z 32
_cell_length_a 13.961415
_cell_length_b 16.434965
_cell_length_c 11.544273
_cell_angle_alpha 90.000000
_cell_angle_beta 29.029604
_cell_angle_gamma 90.000000
_cell_volume 1285.406849
_symmetry_space_group_name_H-M "C 2/M"
_symmetry_group_IT_number 12
_symmetry_cell_setting 'monoclinic'
loop_
_space_group_symop_operation_xyz
x,y,z
-x,y,-z
-x,-y,-z
x,-y,z
1/2+x,1/2+y,z
1/2-x,1/2+y,-z
1/2-x,1/2-y,-z
1/2+x,1/2-y,z
loop_
_atom_site_type_symbol
_atom_site_label
_atom_site_fract_x
_atom_site_fract_y
_atom_site_fract_z
Si Si1 0.424637 0.593466 0.811364
Si Si2 0.632748 0.842222 0.959178
Si Si3 0.152177 0.401881 0.553845
Si Si4 0.706949 0.342871 0.825321
O O1 0.456342 0.500000 0.786069
O O2 0.342218 0.615873 0.770415
O O3 0.639774 0.630336 0.611696
O O4 0.260066 0.620186 0.081509
O O5 0.690868 0.753871 0.852485
O O6 0.500000 0.886831 0.000000
O O7 0.505740 0.848083 0.210280
O O8 0.118025 0.500000 0.600630
O O9 0.132334 0.371998 0.440228
O O10 0.500000 0.380401 0.000000
#
# Coordination Sequence:
#
# PCOD8109334 Si02
#       4
#     8   8   8   8
#     4  10  21  39  63  91 124 162 206 256 308 364
#     4  11  24  40  61  91 129 166 204 250 306 372
#     4  10  22  42  67  92 121 161 208 258 309 360
#     4   9  20  39  63  91 122 158 206 259 306 359
#
# _framework density 24.894841
#
# number of rings (size 3 to 8) (size 9 to 14) (size 15 to 20)
#    0.000    2.000    0.000    2.250    0.000   16.000 
#    0.000   12.500    0.000    0.000    0.000    0.000 
#    0.000    0.000    0.000    0.000    0.000    0.000 
#
# Total GULP energy -198231.024511 kJ/mol
# GULP energy per Si atom -12389.439032 kJ/mol
# Density = 2.483818 g / cm^3
# Si number density = 24.894841 Si / 1000 Ang^3
#
#
#
# Elastic Constant Matrix: (Units=GPa)
#
#
# Indices 1 2 3 4 5 6 
#
# 1 145.6780 15.7698 -5.4794 0.0277 -3.3212 -0.0173
# 2 15.7698 63.3457 21.7562 0.0138 10.4460 -0.0114
# 3 -5.4794 21.7562 75.9554 0.0082 18.1685 -0.0016
# 4 0.0277 0.0138 0.0082 7.1781 0.0006 17.1952
# 5 -3.3212 10.4460 18.1685 0.0006 18.8393 -0.0045
# 6 -0.0173 -0.0114 -0.0016 17.1952 -0.0045 37.5242
#
#
#
# Elastic Compliance Matrix: (Units=1/GPa)
#
#
# Indices 1 2 3 4 5 6 
#
# 1 0.007189 -0.002352 0.000750 0.000317 0.001848 -0.000142
# 2 -0.002352 0.018880 -0.003866 0.000318 -0.007155 -0.000142
# 3 0.000750 -0.003866 0.017916 0.000104 -0.015002 -0.000050
# 4 0.000317 0.000318 0.000104 -1.425608 -0.000022 0.653276
# 5 0.001848 -0.007155 -0.015002 -0.000022 0.071841 0.000017
# 6 -0.000142 -0.000142 -0.000050 0.653276 0.000017 -0.272710
#
#
# Mechanical properties :
#
#
# Convention : Reuss Voigt Hill
#
# Bulk Modulus (GPa) = 30.25879 38.78582 34.52230
# Shear Modulus (GPa) = -3.20402 29.57048 13.18323
#
# Velocity S-wave (km/s) = -1.13570 3.45021 2.30371
# Velocity P-wave (km/s) = 3.23439 5.61120 4.57968
#
# Compressibility (1/GPa) = 0.03304825
#
# Stress axis : x y z
#
# Youngs Moduli (GPa) = 139.09417 52.96735 55.81756
#
# Poissons Ratio (x) = 0.12460 -0.04188
# Poissons Ratio (y) = 0.32720 0.21580
# Poissons Ratio (z) = -0.10437 0.20478
#
# Static dielectric constant tensor:
#      x y z
#    x 5.472780 -0.000020 -0.135550 
#    y -0.000020 3.968900 0.000040 
#    z -0.135550 0.000040 4.521380 
# 
# 
# High freq. dielectric constant tensor:
#      x y z
#    x 2.027390 0.000000 -0.013660 
#    y 0.000000 1.960700 0.000000 
#    z -0.013660 0.000000 1.984680 
# 
# From -- ./inp_files/130740.got.cif
#   From: 2010.06.25/outbox.cif.g09.slc.cpg/sg12_66_cif.got.tgz:130740.got - 2010.06.28 00:19:55.
