data_PCOD8109520
_publ_section_title
;
Structure prediction by ZEFSAII (Michael W. Deem and Ramdas Pophale) SiO2 
 PCOD8109520
Probable space group: C 2/M
;
_chemical_formula_sum "Si O2"
_cell_formula_units_Z 48
_cell_length_a 18.156820
_cell_length_b 14.922321
_cell_length_c 18.187581
_cell_angle_alpha 90.000000
_cell_angle_beta 28.457099
_cell_angle_gamma 90.000000
_cell_volume 2348.089025
_symmetry_space_group_name_H-M "C 2/M"
_symmetry_group_IT_number 12
_symmetry_cell_setting 'monoclinic'
loop_
_space_group_symop_operation_xyz
x,y,z
-x,y,-z
-x,-y,-z
x,-y,z
1/2+x,1/2+y,z
1/2-x,1/2+y,-z
1/2-x,1/2-y,-z
1/2+x,1/2-y,z
loop_
_atom_site_type_symbol
_atom_site_label
_atom_site_fract_x
_atom_site_fract_y
_atom_site_fract_z
Si Si1 0.075274 0.677049 0.156792
Si Si2 0.877483 0.101480 0.232045
Si Si3 0.318855 0.755869 0.668786
Si Si4 0.778199 0.398563 0.346879
Si Si5 0.690084 0.301490 0.939282
Si Si6 0.119846 0.174849 0.615254
O O1 0.200288 0.635039 0.104079
O O2 0.931456 0.613161 0.263489
O O3 0.035616 0.768945 0.236534
O O4 0.150501 0.707805 0.014225
O O5 0.729682 0.156401 0.333694
O O6 0.868247 0.104858 0.328349
O O7 0.863294 0.000000 0.217150
O O8 0.033935 0.143263 0.060427
O O9 0.500000 0.739658 0.500000
O O10 0.226028 0.669393 0.718151
O O11 0.275467 0.772468 0.790630
O O12 0.772051 0.500000 0.322460
O O13 0.629651 0.379525 0.529932
O O14 0.250000 0.250000 0.500000
#
# Coordination Sequence:
#
# PCOD8109520 Si02
#       6
#     8   8   8   8   8   8
#     4   9  19  38  65  90 116 166 215 251 312 368
#     4  11  23  40  64  93 125 162 209 262 318 369
#     4  12  25  41  62  90 130 169 209 258 319 374
#     4  11  22  38  64  96 130 166 209 260 316 374
#     4  10  21  39  65  89 125 164 207 259 310 377
#     4   9  16  36  63  89 122 162 200 253 308 366
#
# _framework density 20.442156000000001
#
# number of rings (size 3 to 8) (size 9 to 14) (size 15 to 20)
#    0.000    1.667    5.000    2.000    2.333    2.667 
#    0.000    1.667    0.000    1.000    0.000    0.000 
#    0.000    0.000    0.000    0.000    0.000    0.000 
#
# Total GULP energy -297411.770291 kJ/mol
# GULP energy per Si atom -12392.157095 kJ/mol
# Density = 2.039563 g / cm^3
# Si number density = 20.442156 Si / 1000 Ang^3
#
#
#
# Elastic Constant Matrix: (Units=GPa)
#
#
# Indices 1 2 3 4 5 6 
#
# 1 75.1447 37.8979 19.4009 -0.0001 -2.1318 -0.0007
# 2 37.8979 119.7148 23.2016 -0.0057 3.9150 0.0020
# 3 19.4009 23.2016 81.2513 -0.0057 7.9498 0.0010
# 4 -0.0001 -0.0057 -0.0057 15.5624 0.0050 0.7915
# 5 -2.1318 3.9150 7.9498 0.0050 39.0341 -0.0011
# 6 -0.0007 0.0020 0.0010 0.7915 -0.0011 12.5324
#
#
#
# Elastic Compliance Matrix: (Units=1/GPa)
#
#
# Indices 1 2 3 4 5 6 
#
# 1 0.016468 -0.004740 -0.002768 -0.000003 0.001939 0.000002
# 2 -0.004740 0.010212 -0.001693 0.000004 -0.000938 -0.000002
# 3 -0.002768 -0.001693 0.013723 0.000005 -0.002776 -0.000002
# 4 -0.000003 0.000004 0.000005 0.064465 -0.000010 -0.004071
# 5 0.001939 -0.000938 -0.002776 -0.000010 0.026384 0.000003
# 6 0.000002 -0.000002 -0.000002 -0.004071 0.000003 0.080050
#
#
# Mechanical properties :
#
#
# Convention : Reuss Voigt Hill
#
# Bulk Modulus (GPa) = 45.45045 48.56795 47.00920
# Shear Modulus (GPa) = 21.09361 26.46647 23.78004
#
# Velocity S-wave (km/s) = 3.21576 3.60210 3.41440
# Velocity P-wave (km/s) = 6.00584 6.41174 6.21211
#
# Compressibility (1/GPa) = 0.02200198
#
# Stress axis : x y z
#
# Youngs Moduli (GPa) = 60.72390 97.91941 72.86788
#
# Poissons Ratio (x) = 0.46415 0.20172
# Poissons Ratio (y) = 0.28784 0.12333
# Poissons Ratio (z) = 0.16810 0.16573
#
# Static dielectric constant tensor:
#      x y z
#    x 3.860670 0.000000 0.132910 
#    y 0.000000 3.461260 0.000010 
#    z 0.132910 0.000010 4.266550 
# 
# 
# High freq. dielectric constant tensor:
#      x y z
#    x 1.797210 0.000000 0.001790 
#    y 0.000000 1.762600 0.000000 
#    z 0.001790 0.000000 1.811120 
# 
# From -- ./inp_files/278046.got.cif
#   From: 2010.06.25/outbox.cif.g09.slc.cpg/sg12_140_cif.got.tgz:278046.got - 2010.06.28 00:19:55.
