data_PCOD8109643
_publ_section_title
;
Structure prediction by ZEFSAII (Michael W. Deem and Ramdas Pophale) SiO2 
 PCOD8109643
Probable space group: C 2/M
;
_chemical_formula_sum "Si O2"
_cell_formula_units_Z 32
_cell_length_a 8.913740
_cell_length_b 29.874857
_cell_length_c 5.442946
_cell_angle_alpha 90.000000
_cell_angle_beta 85.801277
_cell_angle_gamma 90.000000
_cell_volume 1445.548466
_symmetry_space_group_name_H-M "C 2/M"
_symmetry_group_IT_number 12
_symmetry_cell_setting 'monoclinic'
loop_
_space_group_symop_operation_xyz
x,y,z
-x,y,-z
-x,-y,-z
x,-y,z
1/2+x,1/2+y,z
1/2-x,1/2+y,-z
1/2-x,1/2-y,-z
1/2+x,1/2-y,z
loop_
_atom_site_type_symbol
_atom_site_label
_atom_site_fract_x
_atom_site_fract_y
_atom_site_fract_z
Si Si1 0.735452 0.136431 0.290142
Si Si2 0.000000 0.678678 0.000000
Si Si3 0.000000 0.185634 0.000000
Si Si4 0.232308 0.791090 0.323136
Si Si5 0.092930 0.949258 0.738706
O O1 0.756811 0.160544 0.548915
O O2 0.761917 0.083160 0.302190
O O3 0.861751 0.154874 0.092606
O O4 0.569423 0.146742 0.203861
O O5 0.131133 0.711504 0.887251
O O6 0.068192 0.214974 0.215558
O O7 0.250000 0.750000 0.500000
O O8 0.000000 0.941049 0.500000
O O9 0.153339 0.000000 0.740644
O O10 0.000000 0.938956 0.000000
#
# Coordination Sequence:
#
# PCOD8109643 Si02
#       5
#     8   4   4   8   8
#     4  11  22  40  65  94 130 171 217 271 337 397
#     4  10  26  43  61  92 128 172 217 274 338 401
#     4  10  22  39  65  92 118 168 223 264 326 401
#     4  11  25  43  64  90 128 172 221 275 333 397
#     4  10  21  39  68 104 137 172 225 283 338 401
#
# _framework density 22.136925999999999
#
# number of rings (size 3 to 8) (size 9 to 14) (size 15 to 20)
#    0.000    1.500    1.250    3.000    3.500   10.000 
#    0.000    4.375    0.000    3.000    0.000    0.000 
#    0.000    0.000    0.000    0.000    0.000    0.000 
#
# Total GULP energy -198380.961030 kJ/mol
# GULP energy per Si atom -12398.810064 kJ/mol
# Density = 2.208654 g / cm^3
# Si number density = 22.136926 Si / 1000 Ang^3
#
#
#
# Elastic Constant Matrix: (Units=GPa)
#
#
# Indices 1 2 3 4 5 6 
#
# 1 107.8019 46.9738 35.3063 0.0000 39.8454 0.0000
# 2 46.9738 133.4868 38.1567 0.0000 17.7024 0.0000
# 3 35.3063 38.1567 125.1673 0.0000 30.1533 0.0000
# 4 0.0000 0.0000 0.0000 27.2033 0.0000 -2.2362
# 5 39.8454 17.7024 30.1533 0.0000 47.7669 0.0000
# 6 0.0000 0.0000 0.0000 -2.2362 0.0000 33.7309
#
#
#
# Elastic Compliance Matrix: (Units=1/GPa)
#
#
# Indices 1 2 3 4 5 6 
#
# 1 0.015087 -0.003723 -0.000497 0.000000 -0.010892 0.000000
# 2 -0.003723 0.009247 -0.001995 0.000000 0.000937 0.000000
# 3 -0.000497 -0.001995 0.009977 0.000000 -0.005144 0.000000
# 4 0.000000 0.000000 0.000000 0.036962 0.000000 0.002450
# 5 -0.010892 0.000937 -0.005144 0.000000 0.032920 0.000000
# 6 0.000000 0.000000 0.000000 0.002450 0.000000 0.029809
#
#
# Mechanical properties :
#
#
# Convention : Reuss Voigt Hill
#
# Bulk Modulus (GPa) = 45.69907 67.48107 56.59007
# Shear Modulus (GPa) = 32.52576 38.14152 35.33364
#
# Velocity S-wave (km/s) = 3.83730 4.15538 3.99951
# Velocity P-wave (km/s) = 6.34995 7.31933 6.85180
#
# Compressibility (1/GPa) = 0.02188228
#
# Stress axis : x y z
#
# Youngs Moduli (GPa) = 66.28297 108.14049 100.23221
#
# Poissons Ratio (x) = 0.40256 0.04981
# Poissons Ratio (y) = 0.24674 0.19994
# Poissons Ratio (z) = 0.03294 0.21572
#
# Static dielectric constant tensor:
#      x y z
#    x 4.179250 0.000000 0.245300 
#    y 0.000000 3.992850 0.000000 
#    z 0.245300 0.000000 4.668030 
# 
# 
# High freq. dielectric constant tensor:
#      x y z
#    x 1.860590 0.000000 0.007830 
#    y 0.000000 1.858530 0.000000 
#    z 0.007830 0.000000 1.894140 
# 
# From -- ./inp_files/3851.got.cif
#   From: 2010.06.25/outbox.cif.g09.slc.cpg/sg12_2_cif.got.tgz:3851.got - 2010.06.28 00:19:55.
