data_PCOD8109610
_publ_section_title
;
Structure prediction by ZEFSAII (Michael W. Deem and Ramdas Pophale) SiO2 
 PCOD8109610
Probable space group: C 2/M
;
_chemical_formula_sum "Si O2"
_cell_formula_units_Z 48
_cell_length_a 29.889640
_cell_length_b 16.185205
_cell_length_c 13.913790
_cell_angle_alpha 90.000000
_cell_angle_beta 160.977166
_cell_angle_gamma 90.000000
_cell_volume 2193.959381
_symmetry_space_group_name_H-M "C 2/M"
_symmetry_group_IT_number 12
_symmetry_cell_setting 'monoclinic'
loop_
_space_group_symop_operation_xyz
x,y,z
-x,y,-z
-x,-y,-z
x,-y,z
1/2+x,1/2+y,z
1/2-x,1/2+y,-z
1/2-x,1/2-y,-z
1/2+x,1/2-y,z
loop_
_atom_site_type_symbol
_atom_site_label
_atom_site_fract_x
_atom_site_fract_y
_atom_site_fract_z
Si Si1 0.946711 0.402599 0.120523
Si Si2 0.257809 0.405282 0.760871
Si Si3 0.382980 0.161439 0.193164
Si Si4 0.617107 0.592827 0.171772
Si Si5 0.652088 0.826479 0.267761
Si Si6 0.869993 0.151259 0.185020
O O1 0.937996 0.500000 0.076119
O O2 0.878516 0.389371 0.085729
O O3 0.103852 0.368597 0.443883
O O4 0.862431 0.344475 0.875411
O O5 0.244829 0.500000 0.704446
O O6 0.359559 0.364284 0.886494
O O7 0.320173 0.400260 0.993048
O O8 0.500000 0.124180 0.500000
O O9 0.410803 0.257996 0.229168
O O10 0.239543 0.151803 0.953432
O O11 0.564592 0.500000 0.050709
O O12 0.766791 0.594269 0.526144
O O13 0.500000 0.638865 0.000000
O O14 0.750000 0.750000 0.500000
O O15 0.500000 0.818424 0.000000
O O16 0.000000 0.108381 0.500000
#
# Coordination Sequence:
#
# PCOD8109610 Si02
#       6
#     8   8   8   8   8   8
#     4  11  24  41  69 100 130 175 230 282 336 407
#     4  10  21  39  66  95 129 176 220 273 337 402
#     4  10  21  40  63  93 130 175 221 270 328 398
#     4  10  22  42  66  94 133 174 220 280 340 401
#     4  12  26  44  66  98 132 176 223 281 345 412
#     4  10  22  39  62  94 135 175 213 273 335 396
#
# _framework density 21.878253999999998
#
# number of rings (size 3 to 8) (size 9 to 14) (size 15 to 20)
#    0.000    1.500    3.333    1.000    2.333    3.333 
#    0.000    1.667    0.000    0.000    0.000    0.000 
#    0.000    0.000    0.000    0.000    0.000    0.000 
#
# Total GULP energy -297385.887498 kJ/mol
# GULP energy per Si atom -12391.078646 kJ/mol
# Density = 2.182846 g / cm^3
# Si number density = 21.878254 Si / 1000 Ang^3
#
#
#
# Elastic Constant Matrix: (Units=GPa)
#
#
# Indices 1 2 3 4 5 6 
#
# 1 159.5275 31.8008 60.9437 0.0000 -12.0019 0.0000
# 2 31.8008 49.8130 28.7679 0.0000 -4.5532 0.0000
# 3 60.9437 28.7679 142.9908 0.0000 -9.2121 0.0000
# 4 0.0000 0.0000 0.0000 31.3624 0.0000 -8.9601
# 5 -12.0019 -4.5532 -9.2121 0.0000 46.6515 0.0000
# 6 0.0000 0.0000 0.0000 -8.9601 0.0000 4.5071
#
#
#
# Elastic Compliance Matrix: (Units=1/GPa)
#
#
# Indices 1 2 3 4 5 6 
#
# 1 0.008074 -0.003509 -0.002657 0.000000 0.001210 0.000000
# 2 -0.003509 0.024322 -0.003345 0.000000 0.000810 0.000000
# 3 -0.002657 -0.003345 0.008847 0.000000 0.000737 0.000000
# 4 0.000000 0.000000 0.000000 0.073801 0.000000 0.146715
# 5 0.001210 0.000810 0.000737 0.000000 0.021971 0.000000
# 6 0.000000 0.000000 0.000000 0.146715 0.000000 0.513538
#
#
# Mechanical properties :
#
#
# Convention : Reuss Voigt Hill
#
# Bulk Modulus (GPa) = 45.00778 66.15069 55.57924
# Shear Modulus (GPa) = 7.38571 31.89214 19.63893
#
# Velocity S-wave (km/s) = 1.83933 3.82214 2.99932
# Velocity P-wave (km/s) = 5.01273 7.05548 6.11994
#
# Compressibility (1/GPa) = 0.02221838
#
# Stress axis : x y z
#
# Youngs Moduli (GPa) = 123.84995 41.11588 113.03897
#
# Poissons Ratio (x) = 0.14429 0.30038
# Poissons Ratio (y) = 0.43464 0.37814
# Poissons Ratio (z) = 0.32911 0.13754
#
# Static dielectric constant tensor:
#      x y z
#    x 4.117080 0.000000 0.059100 
#    y 0.000000 3.774760 0.000000 
#    z 0.059100 0.000000 4.115750 
# 
# 
# High freq. dielectric constant tensor:
#      x y z
#    x 1.875940 0.000000 0.001000 
#    y 0.000000 1.836810 0.000000 
#    z 0.001000 0.000000 1.862870 
# 
# From -- ./inp_files/184814.got.cif
#   From: 2010.06.25/outbox.cif.g09.slc.cpg/sg12_93_cif.got.tgz:184814.got - 2010.06.28 00:19:55.
