data_PCOD8109657
_publ_section_title
;
Structure prediction by ZEFSAII (Michael W. Deem and Ramdas Pophale) SiO2 
 PCOD8109657
Probable space group: C 2/M
;
_chemical_formula_sum "Si O2"
_cell_formula_units_Z 40
_cell_length_a 13.697164
_cell_length_b 23.027374
_cell_length_c 9.146456
_cell_angle_alpha 90.000000
_cell_angle_beta 150.375541
_cell_angle_gamma 90.000000
_cell_volume 1426.034237
_symmetry_space_group_name_H-M "C 2/M"
_symmetry_group_IT_number 12
_symmetry_cell_setting 'monoclinic'
loop_
_space_group_symop_operation_xyz
x,y,z
-x,y,-z
-x,-y,-z
x,-y,z
1/2+x,1/2+y,z
1/2-x,1/2+y,-z
1/2-x,1/2-y,-z
1/2+x,1/2-y,z
loop_
_atom_site_type_symbol
_atom_site_label
_atom_site_fract_x
_atom_site_fract_y
_atom_site_fract_z
Si Si1 0.298241 0.186509 0.812038
Si Si2 0.242240 0.565770 0.921653
Si Si3 0.015813 0.720985 0.355619
Si Si4 0.820061 0.606418 0.464545
Si Si5 0.666987 0.435060 0.563748
O O1 0.109072 0.214376 0.483345
O O2 0.279050 0.116619 0.794626
O O3 0.500000 0.206484 0.000000
O O4 0.310957 0.215374 0.993255
O O5 0.206201 0.500000 0.828131
O O6 0.292459 0.598643 0.835460
O O7 0.049845 0.588697 0.751908
O O8 0.429359 0.571429 0.275829
O O9 0.169810 0.675095 0.478649
O O10 0.000000 0.696272 0.500000
O O11 0.713578 0.570033 0.451957
O O12 0.735703 0.500000 0.706025
#
# Coordination Sequence:
#
# PCOD8109657 Si02
#       5
#     8   8   8   8   8
#     4  12  28  50  77 116 154 203 256 322 392 459
#     4  10  21  39  69 112 155 206 259 314 380 459
#     4  12  27  50  79 112 151 202 258 319 394 458
#     4  11  21  41  74 112 154 202 258 319 385 457
#     4  11  25  46  75 111 158 207 259 318 386 460
#
# _framework density 28.049817999999998
#
# number of rings (size 3 to 8) (size 9 to 14) (size 15 to 20)
#    0.000    0.800    4.000    4.200    2.800    3.600 
#    0.000    0.000    0.000    3.000    0.000    0.000 
#    0.000    0.000    0.000    0.000    0.000    0.000 
#
# Total GULP energy -247974.762467 kJ/mol
# GULP energy per Si atom -12398.738123 kJ/mol
# Density = 2.798598 g / cm^3
# Si number density = 28.049818 Si / 1000 Ang^3
#
#
#
# Elastic Constant Matrix: (Units=GPa)
#
#
# Indices 1 2 3 4 5 6 
#
# 1 63.5547 5.8910 0.9814 0.0000 11.0822 0.0000
# 2 5.8910 171.0417 36.8463 0.0000 -3.9493 0.0000
# 3 0.9814 36.8463 149.9315 0.0000 -4.6723 0.0000
# 4 0.0000 0.0000 0.0000 45.7343 0.0000 -1.3873
# 5 11.0822 -3.9493 -4.6723 0.0000 25.7405 0.0000
# 6 0.0000 0.0000 0.0000 -1.3873 0.0000 25.3501
#
#
#
# Elastic Compliance Matrix: (Units=1/GPa)
#
#
# Indices 1 2 3 4 5 6 
#
# 1 0.017114 -0.000727 -0.000167 0.000000 -0.007510 0.000000
# 2 -0.000727 0.006216 -0.001492 0.000000 0.000996 0.000000
# 3 -0.000167 -0.001492 0.007073 0.000000 0.001127 0.000000
# 4 0.000000 0.000000 0.000000 0.021902 0.000000 0.001199
# 5 -0.007510 0.000996 0.001127 0.000000 0.042440 0.000000
# 6 0.000000 0.000000 0.000000 0.001199 0.000000 0.039513
#
#
# Mechanical properties :
#
#
# Convention : Reuss Voigt Hill
#
# Bulk Modulus (GPa) = 39.01616 52.44059 45.72838
# Shear Modulus (GPa) = 33.88155 42.08560 37.98357
#
# Velocity S-wave (km/s) = 3.47927 3.87769 3.68387
# Velocity P-wave (km/s) = 5.48454 6.22774 5.86792
#
# Compressibility (1/GPa) = 0.02563041
#
# Stress axis : x y z
#
# Youngs Moduli (GPa) = 58.43172 160.87726 141.39178
#
# Poissons Ratio (x) = 0.11692 0.02368
# Poissons Ratio (y) = 0.04247 0.21093
# Poissons Ratio (z) = 0.00978 0.24000
#
# Static dielectric constant tensor:
#      x y z
#    x 5.228810 0.000000 -0.279650 
#    y 0.000000 5.065500 0.000000 
#    z -0.279650 0.000000 5.133080 
# 
# 
# High freq. dielectric constant tensor:
#      x y z
#    x 2.146860 0.000000 -0.020880 
#    y 0.000000 2.137510 0.000000 
#    z -0.020880 0.000000 2.138560 
# 
# From -- ./inp_files/65615.got.cif
#   From: 2010.06.25/outbox.cif.g09.slc.cpg/sg12_33_cif.got.tgz:65615.got - 2010.06.28 00:19:55.
