data_PCOD8109015
_publ_section_title
;
Structure prediction by ZEFSAII (Michael W. Deem and Ramdas Pophale) SiO2 
 PCOD8109015
Probable space group: C 2/M
;
_chemical_formula_sum "Si O2"
_cell_formula_units_Z 56
_cell_length_a 20.092895
_cell_length_b 22.906524
_cell_length_c 6.298245
_cell_angle_alpha 90.000000
_cell_angle_beta 108.267664
_cell_angle_gamma 90.000000
_cell_volume 2752.726866
_symmetry_space_group_name_H-M "C 2/M"
_symmetry_group_IT_number 12
_symmetry_cell_setting 'monoclinic'
loop_
_space_group_symop_operation_xyz
x,y,z
-x,y,-z
-x,-y,-z
x,-y,z
1/2+x,1/2+y,z
1/2-x,1/2+y,-z
1/2-x,1/2-y,-z
1/2+x,1/2-y,z
loop_
_atom_site_type_symbol
_atom_site_label
_atom_site_fract_x
_atom_site_fract_y
_atom_site_fract_z
Si Si1 0.171926 0.836925 0.079774
Si Si2 0.920972 0.853347 0.409303
Si Si3 0.920972 0.646653 0.932640
Si Si4 0.671926 0.163075 0.764078
Si Si5 0.873373 0.250000 0.623373
Si Si6 0.669470 0.934058 0.426979
Si Si7 0.830530 0.934058 0.588038
O O1 0.250000 0.838095 0.053517
O O2 0.172982 0.781794 0.242310
O O3 0.157061 0.897311 0.186564
O O4 0.109714 0.831198 0.846447
O O5 0.922353 0.798726 0.569237
O O6 0.872869 0.906775 0.435304
O O7 0.000000 0.877036 0.500000
O O8 0.922353 0.701274 0.775469
O O9 0.872869 0.593225 0.810431
O O10 0.890286 0.668802 0.127017
O O11 0.000000 0.622964 0.000000
O O12 0.672982 0.218206 0.603655
O O13 0.657061 0.102689 0.627559
O O14 0.750000 0.932172 0.437563
O O15 0.644038 0.000000 0.444621
O O16 0.855962 0.000000 0.656545
#
# Coordination Sequence:
#
# PCOD8109015 Si02
#       7
#     8   8   8   8   8   8   8
#     4  10  21  39  61  87 115 154 202 252 301 350
#     4  11  24  37  58  87 123 160 198 237 300 361
#     4  11  24  37  58  87 123 160 198 237 300 361
#     4  10  21  39  61  87 115 154 202 252 301 350
#     4  10  23  36  58  84 119 156 200 250 297 350
#     4   9  20  40  63  88 118 153 200 253 298 349
#     4   9  20  40  63  88 118 153 200 253 298 349
#
# _framework density 20.343465999999999
#
# number of rings (size 3 to 8) (size 9 to 14) (size 15 to 20)
#    0.000    2.000    0.000    2.143    4.000    9.714 
#    0.000    4.286    0.000    0.000    0.000    0.000 
#    0.000    0.000    0.000    0.000    0.000    0.000 
#
# Total GULP energy -347141.777097 kJ/mol
# GULP energy per Si atom -12397.920611 kJ/mol
# Density = 2.029716 g / cm^3
# Si number density = 20.343466 Si / 1000 Ang^3
#
#
#
# Elastic Constant Matrix: (Units=GPa)
#
#
# Indices 1 2 3 4 5 6 
#
# 1 113.4273 33.6778 60.6836 0.0000 5.3634 0.0000
# 2 33.6778 133.3077 31.2134 0.0000 0.9098 0.0000
# 3 60.6836 31.2134 93.9914 0.0000 1.8087 0.0000
# 4 0.0000 0.0000 0.0000 20.0348 0.0000 -0.0202
# 5 5.3634 0.9098 1.8087 0.0000 20.4149 0.0000
# 6 0.0000 0.0000 0.0000 -0.0202 0.0000 19.9808
#
#
#
# Elastic Compliance Matrix: (Units=1/GPa)
#
#
# Indices 1 2 3 4 5 6 
#
# 1 0.013906 -0.001523 -0.008418 0.000000 -0.002840 0.000000
# 2 -0.001523 0.008301 -0.001777 0.000000 0.000188 0.000000
# 3 -0.008418 -0.001777 0.016649 0.000000 0.000816 0.000000
# 4 0.000000 0.000000 0.000000 0.049913 0.000000 0.000050
# 5 -0.002840 0.000188 0.000816 0.000000 0.049649 0.000000
# 6 0.000000 0.000000 0.000000 0.000050 0.000000 0.050048
#
#
# Mechanical properties :
#
#
# Convention : Reuss Voigt Hill
#
# Bulk Modulus (GPa) = 64.85012 65.76398 65.30705
# Shear Modulus (GPa) = 23.03704 26.42956 24.73330
#
# Velocity S-wave (km/s) = 3.36877 3.60831 3.49059
# Velocity P-wave (km/s) = 6.86137 7.05385 6.95827
#
# Compressibility (1/GPa) = 0.01542017
#
# Stress axis : x y z
#
# Youngs Moduli (GPa) = 71.91040 120.46794 60.06519
#
# Poissons Ratio (x) = 0.18344 0.50562
# Poissons Ratio (y) = 0.10950 0.10674
# Poissons Ratio (z) = 0.60533 0.21409
#
# Static dielectric constant tensor:
#      x y z
#    x 3.487650 0.000000 -0.045470 
#    y 0.000000 3.851590 0.000000 
#    z -0.045470 0.000000 3.610850 
# 
# 
# High freq. dielectric constant tensor:
#      x y z
#    x 1.784300 0.000000 -0.001290 
#    y 0.000000 1.801040 0.000000 
#    z -0.001290 0.000000 1.787790 
# 
# From -- ./inp_files/21852.got.cif
#   From: 2010.06.25/outbox.cif.g09.slc.cpg/sg12_11_cif.got.tgz:21852.got - 2010.06.28 00:19:55.
