data_PCOD8109589
_publ_section_title
;
Structure prediction by ZEFSAII (Michael W. Deem and Ramdas Pophale) SiO2 
 PCOD8109589
Probable space group: C 2/M
;
_chemical_formula_sum "Si O2"
_cell_formula_units_Z 56
_cell_length_a 18.681284
_cell_length_b 16.549804
_cell_length_c 9.467100
_cell_angle_alpha 90.000000
_cell_angle_beta 67.396404
_cell_angle_gamma 90.000000
_cell_volume 2702.127250
_symmetry_space_group_name_H-M "C 2/M"
_symmetry_group_IT_number 12
_symmetry_cell_setting 'monoclinic'
loop_
_space_group_symop_operation_xyz
x,y,z
-x,y,-z
-x,-y,-z
x,-y,z
1/2+x,1/2+y,z
1/2-x,1/2+y,-z
1/2-x,1/2-y,-z
1/2+x,1/2-y,z
loop_
_atom_site_type_symbol
_atom_site_label
_atom_site_fract_x
_atom_site_fract_y
_atom_site_fract_z
Si Si1 0.554394 0.904574 0.080926
Si Si2 0.993162 0.908697 0.345458
Si Si3 0.781338 0.596524 0.140990
Si Si4 0.948605 0.595171 0.404709
Si Si5 0.077225 0.812427 0.852501
Si Si6 0.646219 0.590831 0.050266
Si Si7 0.314235 0.807887 0.379319
O O1 0.510777 0.868936 0.248129
O O2 0.559135 0.000000 0.088735
O O3 0.500000 0.873902 0.000000
O O4 0.639976 0.870548 0.991208
O O5 0.937336 0.858327 0.284840
O O6 0.000000 0.872172 0.500000
O O7 0.076301 0.907541 0.211877
O O8 0.960333 0.000000 0.380669
O O9 0.778987 0.500000 0.155611
O O10 0.716440 0.630738 0.084274
O O11 0.770133 0.629452 0.309238
O O12 0.929218 0.500000 0.399157
O O13 0.866811 0.643961 0.456204
O O14 0.000000 0.612857 0.500000
O O15 0.127253 0.736139 0.771152
O O16 0.130550 0.865533 0.914917
O O17 0.000000 0.789083 0.000000
O O18 0.667619 0.500000 0.990509
O O19 0.250000 0.750000 0.500000
#
# Coordination Sequence:
#
# PCOD8109589 Si02
#       7
#     8   8   8   8   8   8   8
#     4   9  16  32  64  92 111 148 205 262 306 358
#     4   9  18  35  63  90 116 158 213 259 300 360
#     4  10  21  39  66  92 121 161 215 265 310 375
#     4  10  22  43  69  95 125 166 221 274 317 372
#     4  10  23  41  61  88 125 168 204 251 313 379
#     4   9  19  38  63  91 120 158 209 260 303 364
#     4  12  27  41  58  94 136 170 202 257 331 397
#
# _framework density 20.724412000000001
#
# number of rings (size 3 to 8) (size 9 to 14) (size 15 to 20)
#    0.000    2.143    1.429    0.857    4.000    4.000 
#    2.571    3.571    0.000    0.000    0.000    0.000 
#    0.000    0.000    0.000    0.000    0.000    0.000 
#
# Total GULP energy -346904.039052 kJ/mol
# GULP energy per Si atom -12389.429966 kJ/mol
# Density = 2.067724 g / cm^3
# Si number density = 20.724412 Si / 1000 Ang^3
#
#
#
# Elastic Constant Matrix: (Units=GPa)
#
#
# Indices 1 2 3 4 5 6 
#
# 1 146.2705 47.8073 49.3325 0.0000 32.9178 0.0000
# 2 47.8073 65.3225 39.8452 0.0000 10.9675 0.0000
# 3 49.3325 39.8452 115.4918 0.0000 30.0720 0.0000
# 4 0.0000 0.0000 0.0000 29.2286 0.0000 -5.6113
# 5 32.9178 10.9675 30.0720 0.0000 46.4423 0.0000
# 6 0.0000 0.0000 0.0000 -5.6113 0.0000 24.7863
#
#
#
# Elastic Compliance Matrix: (Units=1/GPa)
#
#
# Indices 1 2 3 4 5 6 
#
# 1 0.010336 -0.006109 -0.000933 0.000000 -0.005279 0.000000
# 2 -0.006109 0.023003 -0.006062 0.000000 0.002823 0.000000
# 3 -0.000933 -0.006062 0.012754 0.000000 -0.006166 0.000000
# 4 0.000000 0.000000 0.000000 0.035768 0.000000 0.008097
# 5 -0.005279 0.002823 -0.006166 0.000000 0.028600 0.000000
# 6 0.000000 0.000000 0.000000 0.008097 0.000000 0.042178
#
#
# Mechanical properties :
#
#
# Convention : Reuss Voigt Hill
#
# Bulk Modulus (GPa) = 50.28694 66.78386 58.53540
# Shear Modulus (GPa) = 26.95785 32.76477 29.86131
#
# Velocity S-wave (km/s) = 3.61054 3.98046 3.80001
# Velocity P-wave (km/s) = 6.45745 7.30891 6.89633
#
# Compressibility (1/GPa) = 0.01988588
#
# Stress axis : x y z
#
# Youngs Moduli (GPa) = 96.74812 43.47181 78.40825
#
# Poissons Ratio (x) = 0.26558 0.07313
# Poissons Ratio (y) = 0.59107 0.47529
# Poissons Ratio (z) = 0.09023 0.26351
#
# Static dielectric constant tensor:
#      x y z
#    x 3.989940 0.000000 0.081280 
#    y 0.000000 3.740830 0.000000 
#    z 0.081280 0.000000 3.740640 
# 
# 
# High freq. dielectric constant tensor:
#      x y z
#    x 1.818430 0.000000 0.011350 
#    y 0.000000 1.801220 0.000000 
#    z 0.011350 0.000000 1.809670 
# 
# From -- ./inp_files/75872.got.cif
#   From: 2010.06.25/outbox.cif.g09.slc.cpg/sg12_38_cif.got.tgz:75872.got - 2010.06.28 00:19:55.
