data_PCOD8109779
_publ_section_title
;
Structure prediction by ZEFSAII (Michael W. Deem and Ramdas Pophale) SiO2 
 PCOD8109779
Probable space group: C 2/M
;
_chemical_formula_sum "Si O2"
_cell_formula_units_Z 64
_cell_length_a 18.726592
_cell_length_b 8.730783
_cell_length_c 30.928845
_cell_angle_alpha 90.000000
_cell_angle_beta 139.339606
_cell_angle_gamma 90.000000
_cell_volume 3294.879327
_symmetry_space_group_name_H-M "C 2/M"
_symmetry_group_IT_number 12
_symmetry_cell_setting 'monoclinic'
loop_
_space_group_symop_operation_xyz
x,y,z
-x,y,-z
-x,-y,-z
x,-y,z
1/2+x,1/2+y,z
1/2-x,1/2+y,-z
1/2-x,1/2-y,-z
1/2+x,1/2-y,z
loop_
_atom_site_type_symbol
_atom_site_label
_atom_site_fract_x
_atom_site_fract_y
_atom_site_fract_z
Si Si1 0.632132 0.821604 0.440990
Si Si2 0.822131 0.676388 0.925071
Si Si3 0.482524 0.823547 0.921821
Si Si4 0.941431 0.177678 0.813137
Si Si5 0.211398 0.174943 0.704414
Si Si6 0.039098 0.820404 0.696956
Si Si7 0.905851 0.678152 0.187168
Si Si8 0.512201 0.324527 0.554716
O O1 0.750000 0.750000 0.500000
O O2 0.571857 0.757844 0.370737
O O3 0.563690 0.785541 0.452373
O O4 0.645545 0.000000 0.441166
O O5 0.784051 0.500000 0.908170
O O6 0.881683 0.713322 0.907275
O O7 0.718285 0.785000 0.883354
O O8 0.903423 0.710217 0.001957
O O9 0.474577 0.713341 0.877408
O O10 0.476665 0.000000 0.904269
O O11 0.814532 0.214989 0.746776
O O12 0.014948 0.279235 0.815525
O O13 0.962424 0.000000 0.813231
O O14 0.141806 0.228295 0.714254
O O15 0.138146 0.191903 0.627643
O O16 0.251541 0.000000 0.728888
O O17 0.061130 0.774260 0.755884
O O18 0.020554 0.000000 0.684823
O O19 0.917392 0.500000 0.202957
O O20 0.500000 0.271237 0.500000
O O21 0.473128 0.500000 0.543159
#
# Coordination Sequence:
#
# PCOD8109779 Si02
#       8
#     8   8   8   8   8   8   8   8
#     4  11  22  37  58  85 118 153 192 235 281 335
#     4   9  19  38  63  88 114 147 186 228 278 337
#     4   9  19  38  63  87 113 147 186 229 280 338
#     4  12  25  38  55  81 115 152 191 236 282 332
#     4   9  19  37  60  83 111 147 185 231 285 340
#     4  10  21  40  63  85 112 147 189 235 284 338
#     4  12  25  39  57  83 116 152 189 232 284 337
#     4   9  19  37  60  85 114 149 189 234 286 340
#
# _framework density 19.42408
#
# number of rings (size 3 to 8) (size 9 to 14) (size 15 to 20)
#    0.000    1.875    0.000    6.000    0.000    8.250 
#    0.000    5.000    0.000    0.000    0.000    0.000 
#    0.000    0.000    0.000    0.000    0.000    0.000 
#
# Total GULP energy -396941.685835 kJ/mol
# GULP energy per Si atom -12404.427682 kJ/mol
# Density = 1.937987 g / cm^3
# Si number density = 19.424080 Si / 1000 Ang^3
#
#
#
# Elastic Constant Matrix: (Units=GPa)
#
#
# Indices 1 2 3 4 5 6 
#
# 1 81.1990 25.2153 53.0481 -0.0001 3.6533 0.0002
# 2 25.2153 80.4468 29.2610 -0.0002 12.3685 0.0003
# 3 53.0481 29.2610 112.9540 -0.0001 3.6938 0.0002
# 4 -0.0001 -0.0002 -0.0001 34.7199 0.0000 1.1021
# 5 3.6533 12.3685 3.6938 0.0000 36.3437 -0.0001
# 6 0.0002 0.0003 0.0002 1.1021 -0.0001 32.1969
#
#
#
# Elastic Compliance Matrix: (Units=1/GPa)
#
#
# Indices 1 2 3 4 5 6 
#
# 1 0.018356 -0.002880 -0.007873 0.000000 -0.000065 0.000000
# 2 -0.002880 0.014888 -0.002356 0.000000 -0.004538 0.000000
# 3 -0.007873 -0.002356 0.013152 0.000000 0.000256 0.000000
# 4 0.000000 0.000000 0.000000 0.028833 0.000000 -0.000987
# 5 -0.000065 -0.004538 0.000256 0.000000 0.029040 0.000000
# 6 0.000000 0.000000 0.000000 -0.000987 0.000000 0.031093
#
#
# Mechanical properties :
#
#
# Convention : Reuss Voigt Hill
#
# Bulk Modulus (GPa) = 49.55543 54.40541 51.98042
# Shear Modulus (GPa) = 29.70798 31.79045 30.74921
#
# Velocity S-wave (km/s) = 3.91505 4.04994 3.98307
# Velocity P-wave (km/s) = 6.78267 7.06679 6.92618
#
# Compressibility (1/GPa) = 0.02017943
#
# Stress axis : x y z
#
# Youngs Moduli (GPa) = 54.47840 67.16904 76.03211
#
# Poissons Ratio (x) = 0.19345 0.59857
# Poissons Ratio (y) = 0.15690 0.17911
# Poissons Ratio (z) = 0.42888 0.15823
#
# Static dielectric constant tensor:
#      x y z
#    x 3.481940 0.000000 -0.002310 
#    y 0.000000 3.500860 0.000000 
#    z -0.002310 0.000000 3.600450 
# 
# 
# High freq. dielectric constant tensor:
#      x y z
#    x 1.750080 0.000000 -0.000610 
#    y 0.000000 1.753690 0.000000 
#    z -0.000610 0.000000 1.771200 
# 
# From -- ./inp_files/378362.got.cif
#   From: 2010.06.25/outbox.cif.g09.slc.cpg/sg12_190_cif.got.tgz:378362.got - 2010.06.28 00:19:55.
