data_PCOD8109947
_publ_section_title
;
Structure prediction by ZEFSAII (Michael W. Deem and Ramdas Pophale) SiO2 
 PCOD8109947
Probable space group: C 2/M
;
_chemical_formula_sum "Si O2"
_cell_formula_units_Z 40
_cell_length_a 28.716874
_cell_length_b 8.795177
_cell_length_c 7.730317
_cell_angle_alpha 90.000000
_cell_angle_beta 92.182618
_cell_angle_gamma 90.000000
_cell_volume 1951.029617
_symmetry_space_group_name_H-M "C 2/M"
_symmetry_group_IT_number 12
_symmetry_cell_setting 'monoclinic'
loop_
_space_group_symop_operation_xyz
x,y,z
-x,y,-z
-x,-y,-z
x,-y,z
1/2+x,1/2+y,z
1/2-x,1/2+y,-z
1/2-x,1/2-y,-z
1/2+x,1/2-y,z
loop_
_atom_site_type_symbol
_atom_site_label
_atom_site_fract_x
_atom_site_fract_y
_atom_site_fract_z
Si Si1 0.352172 0.321181 0.142473
Si Si2 0.640617 0.821393 0.204639
Si Si3 0.549774 0.679716 0.298099
Si Si4 0.300162 0.678727 0.483822
Si Si5 0.052750 0.820751 0.690044
O O1 0.352838 0.500000 0.104680
O O2 0.317678 0.280996 0.294174
O O3 0.404004 0.257480 0.193985
O O4 0.334566 0.234158 0.968700
O O5 0.586586 0.769992 0.186189
O O6 0.664120 0.744436 0.372640
O O7 0.645917 0.000000 0.222744
O O8 0.559132 0.500000 0.280647
O O9 0.497005 0.721006 0.229789
O O10 0.555685 0.739796 0.494715
O O11 0.297370 0.500000 0.511664
O O12 0.250000 0.750000 0.500000
O O13 0.057357 0.000000 0.676208
#
# Coordination Sequence:
#
# PCOD8109947 Si02
#       5
#     8   8   8   8   8
#     4  10  21  40  65  91 119 159 207 251 296 355
#     4  12  25  39  59  91 129 165 200 244 301 364
#     4   9  16  33  60  88 119 159 208 254 294 348
#     4  11  24  45  71  93 118 153 198 254 310 363
#     4   8  15  31  60  90 116 155 209 255 293 347
#
# _framework density 20.501996999999999
#
# number of rings (size 3 to 8) (size 9 to 14) (size 15 to 20)
#    0.000    2.000    2.000    3.600    0.000    3.200 
#    0.000    7.000    0.000    0.000    0.000    0.000 
#    0.000    0.000    0.000    0.000    0.000    0.000 
#
# Total GULP energy -247968.522393 kJ/mol
# GULP energy per Si atom -12398.426120 kJ/mol
# Density = 2.045533 g / cm^3
# Si number density = 20.501997 Si / 1000 Ang^3
#
#
#
# Elastic Constant Matrix: (Units=GPa)
#
#
# Indices 1 2 3 4 5 6 
#
# 1 112.1371 46.2721 31.2849 0.0000 -22.4318 0.0000
# 2 46.2721 90.7729 54.4744 0.0000 -15.1544 0.0000
# 3 31.2849 54.4744 98.2101 0.0000 -26.5964 0.0000
# 4 0.0000 0.0000 0.0000 20.9970 0.0000 0.0174
# 5 -22.4318 -15.1544 -26.5964 0.0000 19.6975 0.0000
# 6 0.0000 0.0000 0.0000 0.0174 0.0000 28.0651
#
#
#
# Elastic Compliance Matrix: (Units=1/GPa)
#
#
# Indices 1 2 3 4 5 6 
#
# 1 0.013663 -0.006425 0.003289 0.000000 0.015058 0.000000
# 2 -0.006425 0.019538 -0.010564 0.000000 -0.006549 0.000000
# 3 0.003289 -0.010564 0.021767 0.000000 0.025009 0.000000
# 4 0.000000 0.000000 0.000000 0.047626 0.000000 -0.000030
# 5 0.015058 -0.006549 0.025009 0.000000 0.096645 0.000000
# 6 0.000000 0.000000 0.000000 -0.000030 0.000000 0.035632
#
#
# Mechanical properties :
#
#
# Convention : Reuss Voigt Hill
#
# Bulk Modulus (GPa) = 36.27359 62.79811 49.53585
# Shear Modulus (GPa) = 18.41893 25.02450 21.72171
#
# Velocity S-wave (km/s) = 3.00058 3.49748 3.25852
# Velocity P-wave (km/s) = 5.45305 6.85613 6.19445
#
# Compressibility (1/GPa) = 0.02756827
#
# Stress axis : x y z
#
# Youngs Moduli (GPa) = 73.18799 51.18227 45.94176
#
# Poissons Ratio (x) = 0.32885 -0.15111
# Poissons Ratio (y) = 0.47023 0.48534
# Poissons Ratio (z) = -0.24073 0.54070
#
# Static dielectric constant tensor:
#      x y z
#    x 4.006060 0.000000 0.034090 
#    y 0.000000 3.366900 0.000000 
#    z 0.034090 0.000000 3.783550 
# 
# 
# High freq. dielectric constant tensor:
#      x y z
#    x 1.806420 0.000000 -0.005520 
#    y 0.000000 1.766360 0.000000 
#    z -0.005520 0.000000 1.805290 
# 
# From -- ./inp_files/107490.got.cif
#   From: 2010.06.25/outbox.cif.g09.slc.cpg/sg12_54_cif.got.tgz:107490.got - 2010.06.28 00:19:55.
