data_PCOD8109183
_publ_section_title
;
Structure prediction by ZEFSAII (Michael W. Deem and Ramdas Pophale) SiO2 
 PCOD8109183
Probable space group: C 2/M
;
_chemical_formula_sum "Si O2"
_cell_formula_units_Z 52
_cell_length_a 9.156393
_cell_length_b 27.786582
_cell_length_c 15.387198
_cell_angle_alpha 90.000000
_cell_angle_beta 141.752163
_cell_angle_gamma 90.000000
_cell_volume 2423.566028
_symmetry_space_group_name_H-M "C 2/M"
_symmetry_group_IT_number 12
_symmetry_cell_setting 'monoclinic'
loop_
_space_group_symop_operation_xyz
x,y,z
-x,y,-z
-x,-y,-z
x,-y,z
1/2+x,1/2+y,z
1/2-x,1/2+y,-z
1/2-x,1/2-y,-z
1/2+x,1/2-y,z
loop_
_atom_site_type_symbol
_atom_site_label
_atom_site_fract_x
_atom_site_fract_y
_atom_site_fract_z
Si Si1 0.539600 0.500000 0.660418
Si Si2 0.086606 0.810419 0.741209
Si Si3 0.035549 0.600348 0.771156
Si Si4 0.667280 0.728063 0.222408
Si Si5 0.614831 0.000000 0.340888
Si Si6 0.000000 0.843027 0.000000
Si Si7 0.409418 0.837141 0.548924
Si Si8 0.709878 0.909657 0.162111
O O1 0.266561 0.500000 0.501740
O O2 0.706076 0.500000 0.655139
O O3 0.596368 0.452448 0.744538
O O4 0.303505 0.783491 0.793989
O O5 0.176253 0.860862 0.823519
O O6 0.003921 0.772110 0.775014
O O7 0.863149 0.822015 0.576643
O O8 0.057343 0.545706 0.747148
O O9 0.928761 0.628406 0.639927
O O10 0.866725 0.603059 0.775651
O O11 0.284084 0.621375 0.916829
O O12 0.539050 0.691836 0.098296
O O13 0.930493 0.710172 0.366065
O O14 0.500000 0.861705 0.500000
O O15 0.500000 0.926329 0.000000
#
# Coordination Sequence:
#
# PCOD8109183 Si02
#       8
#     4   8   8   8   4   4   8   8
#     4   9  19  38  62  92 124 159 195 263 309 362
#     4  11  23  38  60  88 124 162 212 260 306 366
#     4  10  21  39  62  90 120 165 202 258 313 369
#     4  10  23  38  58  85 123 167 209 257 304 368
#     4   9  18  35  63  94 121 149 210 253 309 374
#     4  10  22  39  58  80 126 169 208 244 312 364
#     4   9  20  40  59  84 121 164 208 259 308 363
#     4  11  23  38  61  92 125 161 207 251 313 370
#
# _framework density 21.455984999999998
#
# number of rings (size 3 to 8) (size 9 to 14) (size 15 to 20)
#    0.000    2.000    0.000    2.538    5.385    2.769 
#    0.000    0.385    0.000    9.231    0.000    0.000 
#    0.000    0.000    0.000    0.000    0.000    0.000 
#
# Total GULP energy -322318.882682 kJ/mol
# GULP energy per Si atom -12396.880103 kJ/mol
# Density = 2.140715 g / cm^3
# Si number density = 21.455985 Si / 1000 Ang^3
#
#
#
# Elastic Constant Matrix: (Units=GPa)
#
#
# Indices 1 2 3 4 5 6 
#
# 1 64.4435 31.6898 18.4688 0.0000 -9.7434 0.0000
# 2 31.6898 139.1476 42.5601 0.0000 8.0529 0.0000
# 3 18.4688 42.5601 114.2702 0.0000 5.5609 0.0000
# 4 0.0000 0.0000 0.0000 -69.4459 0.0000 14.0232
# 5 -9.7434 8.0529 5.5609 0.0000 26.2497 0.0000
# 6 0.0000 0.0000 0.0000 14.0232 0.0000 23.4046
#
#
#
# Elastic Compliance Matrix: (Units=1/GPa)
#
#
# Indices 1 2 3 4 5 6 
#
# 1 0.019607 -0.004384 -0.001976 0.000000 0.009041 0.000000
# 2 -0.004384 0.009182 -0.002521 0.000000 -0.003910 0.000000
# 3 -0.001976 -0.002521 0.010112 0.000000 -0.002102 0.000000
# 4 0.000000 0.000000 0.000000 -0.012846 0.000000 0.007697
# 5 0.009041 -0.003910 -0.002102 0.000000 0.043097 0.000000
# 6 0.000000 0.000000 0.000000 0.007697 0.000000 0.038115
#
#
# Mechanical properties :
#
#
# Convention : Reuss Voigt Hill
#
# Bulk Modulus (GPa) = 47.30732 55.92208 51.61470
# Shear Modulus (GPa) = 37.85704 11.05117 24.45410
#
# Velocity S-wave (km/s) = 4.20504 2.27196 3.37966
# Velocity P-wave (km/s) = 6.75817 5.74479 6.27198
#
# Compressibility (1/GPa) = 0.02113838
#
# Stress axis : x y z
#
# Youngs Moduli (GPa) = 51.00325 108.90296 98.89370
#
# Poissons Ratio (x) = 0.47744 0.19542
# Poissons Ratio (y) = 0.22360 0.24933
# Poissons Ratio (z) = 0.10078 0.27456
#
# Static dielectric constant tensor:
#      x y z
#    x 3.715660 0.000000 -0.157740 
#    y 0.000000 3.958460 0.000000 
#    z -0.157740 0.000000 4.090630 
# 
# 
# High freq. dielectric constant tensor:
#      x y z
#    x 1.818970 0.000000 -0.007480 
#    y 0.000000 1.845200 0.000000 
#    z -0.007480 0.000000 1.854040 
# 
# From -- ./inp_files/201405.got.cif
#   From: 2010.06.25/outbox.cif.g09.slc.cpg/sg12_101_cif.got.tgz:201405.got - 2010.06.28 00:19:55.
