data_PCOD8109753
_publ_section_title
;
Structure prediction by ZEFSAII (Michael W. Deem and Ramdas Pophale) SiO2 
 PCOD8109753
Probable space group: C 2/M
;
_chemical_formula_sum "Si O2"
_cell_formula_units_Z 56
_cell_length_a 18.045913
_cell_length_b 18.184198
_cell_length_c 9.301629
_cell_angle_alpha 90.000000
_cell_angle_beta 64.927845
_cell_angle_gamma 90.000000
_cell_volume 2764.727172
_symmetry_space_group_name_H-M "C 2/M"
_symmetry_group_IT_number 12
_symmetry_cell_setting 'monoclinic'
loop_
_space_group_symop_operation_xyz
x,y,z
-x,y,-z
-x,-y,-z
x,-y,z
1/2+x,1/2+y,z
1/2-x,1/2+y,-z
1/2-x,1/2-y,-z
1/2+x,1/2-y,z
loop_
_atom_site_type_symbol
_atom_site_label
_atom_site_fract_x
_atom_site_fract_y
_atom_site_fract_z
Si Si1 0.182840 0.295908 0.972159
Si Si2 0.794357 0.161942 0.633353
Si Si3 0.732515 0.081456 0.113877
Si Si4 0.478044 0.705215 0.862779
Si Si5 0.425001 0.215116 0.447818
Si Si6 0.695389 0.912987 0.467428
Si Si7 0.612480 0.582562 0.202727
O O1 0.213846 0.312144 0.785938
O O2 0.250000 0.250000 0.000000
O O3 0.168834 0.369577 0.076732
O O4 0.098962 0.254801 0.039269
O O5 0.850537 0.232911 0.559199
O O6 0.763382 0.120870 0.517062
O O7 0.845298 0.102453 0.681868
O O8 0.734653 0.100191 0.279468
O O9 0.700131 0.000000 0.113279
O O10 0.824248 0.092368 0.980099
O O11 0.545803 0.756006 0.731621
O O12 0.462203 0.637483 0.767491
O O13 0.500000 0.672421 0.000000
O O14 0.500000 0.215247 0.500000
O O15 0.390092 0.132311 0.455374
O O16 0.679197 0.000000 0.512296
O O17 0.578135 0.500000 0.241053
#
# Coordination Sequence:
#
# PCOD8109753 Si02
#       7
#     8   8   8   8   8   8   8
#     4  11  19  40  65  86 116 169 215 256 299 374
#     4  11  22  40  68  93 124 165 221 266 309 370
#     4   9  19  35  62  92 117 155 207 257 304 364
#     4  12  25  39  60  91 127 162 209 256 316 377
#     4  12  24  42  63  96 131 169 211 259 324 381
#     4  11  24  40  64  97 131 166 213 269 317 368
#     4  10  21  40  62  87 124 164 205 253 315 382
#
# _framework density 20.255163
#
# number of rings (size 3 to 8) (size 9 to 14) (size 15 to 20)
#    0.000    1.143    4.286    3.429    2.000    1.143 
#    0.000    2.857    0.000    1.714    0.000    0.000 
#    0.000    0.000    0.000    0.000    0.000    0.000 
#
# Total GULP energy -347174.924789 kJ/mol
# GULP energy per Si atom -12399.104457 kJ/mol
# Density = 2.020906 g / cm^3
# Si number density = 20.255163 Si / 1000 Ang^3
#
#
#
# Elastic Constant Matrix: (Units=GPa)
#
#
# Indices 1 2 3 4 5 6 
#
# 1 89.4150 61.0851 40.6567 0.0000 16.4386 0.0000
# 2 61.0851 143.2673 45.5880 0.0000 -0.6936 0.0000
# 3 40.6567 45.5880 94.6740 0.0000 10.6649 0.0000
# 4 0.0000 0.0000 0.0000 28.4819 0.0000 1.5249
# 5 16.4386 -0.6936 10.6649 0.0000 19.2857 0.0000
# 6 0.0000 0.0000 0.0000 1.5249 0.0000 26.7723
#
#
#
# Elastic Compliance Matrix: (Units=1/GPa)
#
#
# Indices 1 2 3 4 5 6 
#
# 1 0.021288 -0.008079 -0.003386 0.000000 -0.016564 0.000000
# 2 -0.008079 0.011439 -0.003051 0.000000 0.008985 0.000000
# 3 -0.003386 -0.003051 0.014048 0.000000 -0.004992 0.000000
# 4 0.000000 0.000000 0.000000 0.035217 0.000000 -0.002006
# 5 -0.016564 0.008985 -0.004992 0.000000 0.069054 0.000000
# 6 0.000000 0.000000 0.000000 -0.002006 0.000000 0.037466
#
#
# Mechanical properties :
#
#
# Convention : Reuss Voigt Hill
#
# Bulk Modulus (GPa) = 56.35906 69.11286 62.73596
# Shear Modulus (GPa) = 22.37551 26.90976 24.64264
#
# Velocity S-wave (km/s) = 3.32728 3.64887 3.49178
# Velocity P-wave (km/s) = 6.53039 7.20746 6.87726
#
# Compressibility (1/GPa) = 0.01774338
#
# Stress axis : x y z
#
# Youngs Moduli (GPa) = 46.97495 87.41969 71.18540
#
# Poissons Ratio (x) = 0.70631 0.24100
# Poissons Ratio (y) = 0.37953 0.21717
# Poissons Ratio (z) = 0.15903 0.26669
#
# Static dielectric constant tensor:
#      x y z
#    x 3.421280 0.000000 0.231870 
#    y 0.000000 4.083520 0.000000 
#    z 0.231870 0.000000 4.161750 
# 
# 
# High freq. dielectric constant tensor:
#      x y z
#    x 1.773030 0.000000 0.009780 
#    y 0.000000 1.803140 0.000000 
#    z 0.009780 0.000000 1.802600 
# 
# From -- ./inp_files/75845.got.cif
#   From: 2010.06.25/outbox.cif.g09.slc.cpg/sg12_38_cif.got.tgz:75845.got - 2010.06.28 00:19:55.
