data_PCOD8109613
_publ_section_title
;
Structure prediction by ZEFSAII (Michael W. Deem and Ramdas Pophale) SiO2 
 PCOD8109613
Probable space group: C 2/M
;
_chemical_formula_sum "Si O2"
_cell_formula_units_Z 32
_cell_length_a 8.433777
_cell_length_b 17.646819
_cell_length_c 14.573654
_cell_angle_alpha 90.000000
_cell_angle_beta 40.501888
_cell_angle_gamma 90.000000
_cell_volume 1408.698884
_symmetry_space_group_name_H-M "C 2/M"
_symmetry_group_IT_number 12
_symmetry_cell_setting 'monoclinic'
loop_
_space_group_symop_operation_xyz
x,y,z
-x,y,-z
-x,-y,-z
x,-y,z
1/2+x,1/2+y,z
1/2-x,1/2+y,-z
1/2-x,1/2-y,-z
1/2+x,1/2-y,z
loop_
_atom_site_type_symbol
_atom_site_label
_atom_site_fract_x
_atom_site_fract_y
_atom_site_fract_z
Si Si1 0.039058 0.675790 0.694885
Si Si2 0.268623 0.663572 0.416493
Si Si3 0.597562 0.585669 0.814008
Si Si4 0.622873 0.830546 0.043609
O O1 0.240127 0.638745 0.536871
O O2 0.045165 0.766337 0.675739
O O3 0.769362 0.646016 0.789200
O O4 0.077458 0.657686 0.786212
O O5 0.369971 0.594656 0.310794
O O6 0.000000 0.689696 0.500000
O O7 0.664093 0.500000 0.812463
O O8 0.321600 0.602719 0.964913
O O9 0.500000 0.837037 0.000000
O O10 0.750000 0.750000 0.000000
#
# Coordination Sequence:
#
# PCOD8109613 Si02
#       4
#     8   8   8   8
#     4  10  21  39  66  96 130 172 223 267 320 390
#     4   9  20  37  66  97 132 173 223 273 318 391
#     4  11  24  43  68 101 136 174 217 274 338 392
#     4  12  25  40  67  96 131 174 223 274 328 393
#
# _framework density 22.715997000000002
#
# number of rings (size 3 to 8) (size 9 to 14) (size 15 to 20)
#    0.000    1.500    2.500    2.250    3.500    7.000 
#    0.000    0.000    0.000    2.250    0.000    0.000 
#    0.000    0.000    0.000    0.000    0.000    0.000 
#
# Total GULP energy -198287.218605 kJ/mol
# GULP energy per Si atom -12392.951163 kJ/mol
# Density = 2.266429 g / cm^3
# Si number density = 22.715997 Si / 1000 Ang^3
#
#
#
# Elastic Constant Matrix: (Units=GPa)
#
#
# Indices 1 2 3 4 5 6 
#
# 1 79.4667 33.5950 53.7709 0.0024 24.5398 -0.0009
# 2 33.5950 97.6652 30.6526 0.0015 -12.9601 -0.0014
# 3 53.7709 30.6526 169.0135 0.0118 51.1338 -0.0058
# 4 0.0024 0.0015 0.0118 25.0319 -0.0030 0.7544
# 5 24.5398 -12.9601 51.1338 -0.0030 51.7566 0.0007
# 6 -0.0009 -0.0014 -0.0058 0.7544 0.0007 18.3344
#
#
#
# Elastic Compliance Matrix: (Units=1/GPa)
#
#
# Indices 1 2 3 4 5 6 
#
# 1 0.020071 -0.007394 -0.002290 -0.000001 -0.009106 0.000000
# 2 -0.007394 0.015465 -0.003829 0.000003 0.011162 -0.000001
# 3 -0.002290 -0.003829 0.010414 -0.000006 -0.010162 0.000004
# 4 -0.000001 0.000003 -0.000006 0.039999 0.000009 -0.001646
# 5 -0.009106 0.011162 -0.010162 0.000009 0.036473 -0.000005
# 6 0.000000 -0.000001 0.000004 -0.001646 -0.000005 0.054610
#
#
# Mechanical properties :
#
#
# Convention : Reuss Voigt Hill
#
# Bulk Modulus (GPa) = 52.84083 64.68695 58.76389
# Shear Modulus (GPa) = 23.76809 34.23302 29.00055
#
# Velocity S-wave (km/s) = 3.23819 3.88622 3.57691
# Velocity P-wave (km/s) = 6.10681 6.97676 6.55623
#
# Compressibility (1/GPa) = 0.01892476
#
# Stress axis : x y z
#
# Youngs Moduli (GPa) = 49.82370 64.66068 96.02362
#
# Poissons Ratio (x) = 0.47808 0.21986
# Poissons Ratio (y) = 0.36838 0.36771
# Poissons Ratio (z) = 0.11408 0.24761
#
# Static dielectric constant tensor:
#      x y z
#    x 4.145800 0.000000 0.548470 
#    y 0.000000 3.547780 -0.000010 
#    z 0.548470 -0.000010 4.864410 
# 
# 
# High freq. dielectric constant tensor:
#      x y z
#    x 1.879800 0.000000 0.026230 
#    y 0.000000 1.845080 0.000000 
#    z 0.026230 0.000000 1.928040 
# 
# From -- ./inp_files/196729.got.cif
#   From: 2010.06.25/outbox.cif.g09.slc.cpg/sg12_99_cif.got.tgz:196729.got - 2010.06.28 00:19:55.
