data_PCOD8109289
_publ_section_title
;
Structure prediction by ZEFSAII (Michael W. Deem and Ramdas Pophale) SiO2 
 PCOD8109289
Probable space group: C 2/M
;
_chemical_formula_sum "Si O2"
_cell_formula_units_Z 48
_cell_length_a 22.254898
_cell_length_b 19.544911
_cell_length_c 12.390542
_cell_angle_alpha 90.000000
_cell_angle_beta 27.182560
_cell_angle_gamma 90.000000
_cell_volume 2462.076514
_symmetry_space_group_name_H-M "C 2/M"
_symmetry_group_IT_number 12
_symmetry_cell_setting 'monoclinic'
loop_
_space_group_symop_operation_xyz
x,y,z
-x,y,-z
-x,-y,-z
x,-y,z
1/2+x,1/2+y,z
1/2-x,1/2+y,-z
1/2-x,1/2-y,-z
1/2+x,1/2-y,z
loop_
_atom_site_type_symbol
_atom_site_label
_atom_site_fract_x
_atom_site_fract_y
_atom_site_fract_z
Si Si1 0.278013 0.327359 0.577575
Si Si2 0.201882 0.577469 0.324472
Si Si3 0.823916 0.702209 0.042416
Si Si4 0.496255 0.578030 0.128781
Si Si5 0.615279 0.816962 0.638628
Si Si6 0.142971 0.679412 0.251508
O O1 0.252564 0.342768 0.745295
O O2 0.402972 0.372362 0.345536
O O3 0.295314 0.245912 0.541357
O O4 0.153047 0.342515 0.699248
O O5 0.156736 0.500000 0.414071
O O6 0.144402 0.618685 0.516852
O O7 0.139219 0.605917 0.314605
O O8 0.357823 0.583202 0.058962
O O9 0.755144 0.775111 0.129598
O O10 0.829381 0.664412 0.918468
O O11 0.967614 0.711324 0.864470
O O12 0.442295 0.500000 0.221175
O O13 0.500000 0.603865 0.000000
O O14 0.000000 0.715109 0.500000
#
# Coordination Sequence:
#
# PCOD8109289 Si02
#       6
#     8   8   8   8   8   8
#     4  11  22  35  64  91 127 158 197 265 305 372
#     4  11  22  40  63  89 122 162 215 256 293 365
#     4  11  22  39  60  89 128 156 200 261 315 365
#     4  10  21  39  63  89 122 167 206 242 301 371
#     4  11  22  37  58  95 126 157 206 247 320 366
#     4  11  22  40  61  87 121 167 213 251 306 369
#
# _framework density 19.495737999999999
#
# number of rings (size 3 to 8) (size 9 to 14) (size 15 to 20)
#    0.000    1.167    5.000    1.500    0.000    1.667 
#    0.000    1.667    0.000    4.000    0.000    0.000 
#    0.000    0.000    0.000    0.000    0.000    0.000 
#
# Total GULP energy -297512.821231 kJ/mol
# GULP energy per Si atom -12396.367551 kJ/mol
# Density = 1.945136 g / cm^3
# Si number density = 19.495738 Si / 1000 Ang^3
#
#
#
# Elastic Constant Matrix: (Units=GPa)
#
#
# Indices 1 2 3 4 5 6 
#
# 1 114.7350 39.9568 61.1542 0.0001 24.4103 0.0003
# 2 39.9568 100.5200 46.5485 0.0000 9.1463 0.0001
# 3 61.1542 46.5485 110.2406 0.0000 13.5796 0.0001
# 4 0.0001 0.0000 0.0000 23.9383 -0.0003 -3.0858
# 5 24.4103 9.1463 13.5796 -0.0003 50.3623 0.0001
# 6 0.0003 0.0001 0.0001 -3.0858 0.0001 21.4417
#
#
#
# Elastic Compliance Matrix: (Units=1/GPa)
#
#
# Indices 1 2 3 4 5 6 
#
# 1 0.013721 -0.002204 -0.006114 0.000000 -0.004602 0.000000
# 2 -0.002204 0.012757 -0.004148 0.000000 -0.000130 0.000000
# 3 -0.006114 -0.004148 0.014229 0.000000 -0.000120 0.000000
# 4 0.000000 0.000000 0.000000 0.042564 0.000000 0.006126
# 5 -0.004602 -0.000130 -0.000120 0.000000 0.022142 0.000000
# 6 0.000000 0.000000 0.000000 0.006126 0.000000 0.047520
#
#
# Mechanical properties :
#
#
# Convention : Reuss Voigt Hill
#
# Bulk Modulus (GPa) = 63.39152 68.97940 66.18546
# Shear Modulus (GPa) = 27.30397 31.00419 29.15408
#
# Velocity S-wave (km/s) = 3.74640 3.99219 3.87125
# Velocity P-wave (km/s) = 7.16241 7.53052 7.34877
#
# Compressibility (1/GPa) = 0.01577498
#
# Stress axis : x y z
#
# Youngs Moduli (GPa) = 72.87988 78.38817 70.27941
#
# Poissons Ratio (x) = 0.17278 0.42969
# Poissons Ratio (y) = 0.16064 0.29151
# Poissons Ratio (z) = 0.44559 0.32514
#
# Static dielectric constant tensor:
#      x y z
#    x 3.838600 0.000000 -0.060650 
#    y 0.000000 3.378840 0.000000 
#    z -0.060650 0.000000 3.587140 
# 
# 
# High freq. dielectric constant tensor:
#      x y z
#    x 1.777310 0.000000 -0.004690 
#    y 0.000000 1.731620 0.000000 
#    z -0.004690 0.000000 1.758390 
# 
# From -- ./inp_files/132977.got.cif
#   From: 2010.06.25/outbox.cif.g09.slc.cpg/sg12_67_cif.got.tgz:132977.got - 2010.06.28 00:19:55.
