data_PCOD8109704
_publ_section_title
;
Structure prediction by ZEFSAII (Michael W. Deem and Ramdas Pophale) SiO2 
 PCOD8109704
Probable space group: C 2/M
;
_chemical_formula_sum "Si O2"
_cell_formula_units_Z 56
_cell_length_a 15.249709
_cell_length_b 8.538220
_cell_length_c 28.482633
_cell_angle_alpha 90.000000
_cell_angle_beta 131.103295
_cell_angle_gamma 90.000000
_cell_volume 2794.518795
_symmetry_space_group_name_H-M "C 2/M"
_symmetry_group_IT_number 12
_symmetry_cell_setting 'monoclinic'
loop_
_space_group_symop_operation_xyz
x,y,z
-x,y,-z
-x,-y,-z
x,-y,z
1/2+x,1/2+y,z
1/2-x,1/2+y,-z
1/2-x,1/2-y,-z
1/2+x,1/2-y,z
loop_
_atom_site_type_symbol
_atom_site_label
_atom_site_fract_x
_atom_site_fract_y
_atom_site_fract_z
Si Si1 0.250427 0.814467 0.135338
Si Si2 0.443803 0.816271 0.876362
Si Si3 0.141969 0.184936 0.433118
Si Si4 0.342905 0.684107 0.997108
Si Si5 0.303428 0.185715 0.647907
Si Si6 0.490412 0.185590 0.789045
Si Si7 0.951196 0.683960 0.432300
O O1 0.187626 0.727775 0.156272
O O2 0.189501 0.756387 0.066055
O O3 0.383453 0.756574 0.183467
O O4 0.240623 0.000000 0.138190
O O5 0.466697 0.746756 0.832628
O O6 0.465425 0.000000 0.884728
O O7 0.528296 0.737817 0.944180
O O8 0.250000 0.250000 0.500000
O O9 0.142904 0.264483 0.382752
O O10 0.021588 0.225261 0.416736
O O11 0.155359 0.000000 0.432163
O O12 0.335069 0.500000 0.995881
O O13 0.250000 0.750000 0.000000
O O14 0.393156 0.245875 0.718883
O O15 0.183027 0.270217 0.617227
O O16 0.284704 0.000000 0.642184
O O17 0.487859 0.000000 0.790440
O O18 0.967028 0.500000 0.429625
O O19 0.000000 0.735449 0.500000
#
# Coordination Sequence:
#
# PCOD8109704 Si02
#       7
#     8   8   8   8   8   8   8
#     4  10  21  40  61  85 121 162 201 248 305 361
#     4  11  22  39  61  89 123 158 203 253 301 358
#     4  12  24  40  64  94 126 159 200 248 305 364
#     4  11  21  36  61  89 120 157 202 252 308 361
#     4  11  23  41  66  93 125 163 205 252 307 365
#     4   9  21  42  62  84 122 166 201 245 304 362
#     4  11  23  40  64  93 126 160 200 248 302 363
#
# _framework density 20.039228999999999
#
# number of rings (size 3 to 8) (size 9 to 14) (size 15 to 20)
#    0.000    1.286    2.857    3.429    0.000    4.571 
#    0.000    7.143    0.000    0.000    0.000    0.000 
#    0.000    0.000    0.000    0.000    0.000    0.000 
#
# Total GULP energy -347325.951958 kJ/mol
# GULP energy per Si atom -12404.498284 kJ/mol
# Density = 1.999362 g / cm^3
# Si number density = 20.039229 Si / 1000 Ang^3
#
#
#
# Elastic Constant Matrix: (Units=GPa)
#
#
# Indices 1 2 3 4 5 6 
#
# 1 137.1131 -0.8312 45.6453 0.0000 12.0190 0.0000
# 2 -0.8312 34.4494 11.9527 0.0000 1.2358 0.0000
# 3 45.6453 11.9527 128.9610 0.0000 21.0746 0.0000
# 4 0.0000 0.0000 0.0000 21.0883 0.0000 1.2125
# 5 12.0190 1.2358 21.0746 0.0000 27.1295 0.0000
# 6 0.0000 0.0000 0.0000 1.2125 0.0000 39.6450
#
#
#
# Elastic Compliance Matrix: (Units=1/GPa)
#
#
# Indices 1 2 3 4 5 6 
#
# 1 0.008379 0.001238 -0.002823 0.000000 -0.001575 0.000000
# 2 0.001238 0.030195 -0.003347 0.000000 0.000676 0.000000
# 3 -0.002823 -0.003347 0.010119 0.000000 -0.006457 0.000000
# 4 0.000000 0.000000 0.000000 0.047503 0.000000 -0.001453
# 5 -0.001575 0.000676 -0.006457 0.000000 0.042544 0.000000
# 6 0.000000 0.000000 0.000000 -0.001453 0.000000 0.025268
#
#
# Mechanical properties :
#
#
# Convention : Reuss Voigt Hill
#
# Bulk Modulus (GPa) = 25.75438 46.00636 35.88037
# Shear Modulus (GPa) = 26.76447 33.82302 30.29375
#
# Velocity S-wave (km/s) = 3.65856 4.11279 3.89231
# Velocity P-wave (km/s) = 5.54316 6.74992 6.17608
#
# Compressibility (1/GPa) = 0.03882835
#
# Stress axis : x y z
#
# Youngs Moduli (GPa) = 119.35178 33.11795 98.82443
#
# Poissons Ratio (x) = -0.04100 0.27897
# Poissons Ratio (y) = -0.14777 0.33080
# Poissons Ratio (z) = 0.33691 0.11086
#
# Static dielectric constant tensor:
#      x y z
#    x 3.855590 0.000000 -0.039260 
#    y 0.000000 3.554460 0.000000 
#    z -0.039260 0.000000 3.846720 
# 
# 
# High freq. dielectric constant tensor:
#      x y z
#    x 1.801780 0.000000 -0.000270 
#    y 0.000000 1.774980 0.000000 
#    z -0.000270 0.000000 1.780970 
# 
# From -- ./inp_files/360022.got.cif
#   From: 2010.06.25/outbox.cif.g09.slc.cpg/sg12_181_cif.got.tgz:360022.got - 2010.06.28 00:19:55.
