data_PCOD8109796
_publ_section_title
;
Structure prediction by ZEFSAII (Michael W. Deem and Ramdas Pophale) SiO2 
 PCOD8109796
Probable space group: C 2/M
;
_chemical_formula_sum "Si O2"
_cell_formula_units_Z 64
_cell_length_a 18.437114
_cell_length_b 8.849904
_cell_length_c 28.406992
_cell_angle_alpha 90.000000
_cell_angle_beta 43.789043
_cell_angle_gamma 90.000000
_cell_volume 3207.495581
_symmetry_space_group_name_H-M "C 2/M"
_symmetry_group_IT_number 12
_symmetry_cell_setting 'monoclinic'
loop_
_space_group_symop_operation_xyz
x,y,z
-x,y,-z
-x,-y,-z
x,-y,z
1/2+x,1/2+y,z
1/2-x,1/2+y,-z
1/2-x,1/2-y,-z
1/2+x,1/2-y,z
loop_
_atom_site_type_symbol
_atom_site_label
_atom_site_fract_x
_atom_site_fract_y
_atom_site_fract_z
Si Si1 0.352289 0.321195 0.815909
Si Si2 0.914086 0.177023 0.308760
Si Si3 0.221236 0.323997 0.965192
Si Si4 0.813190 0.325965 0.182236
Si Si5 0.487583 0.334177 0.951146
Si Si6 0.025803 0.322293 0.434779
Si Si7 0.252468 0.674623 0.681117
Si Si8 0.362087 0.323762 0.440564
O O1 0.356950 0.500000 0.816436
O O2 0.471088 0.259711 0.759306
O O3 0.291557 0.254759 0.889902
O O4 0.290776 0.273137 0.797301
O O5 0.827514 0.269061 0.320906
O O6 0.901280 0.209237 0.369773
O O7 0.901033 0.000000 0.303396
O O8 0.240779 0.500000 0.958958
O O9 0.250000 0.250000 0.000000
O O10 0.099802 0.291713 0.014877
O O11 0.838826 0.500000 0.157737
O O12 0.798769 0.302584 0.244140
O O13 0.907549 0.220513 0.122732
O O14 0.457982 0.500000 0.943693
O O15 0.500000 0.354009 0.000000
O O16 0.015196 0.500000 0.432263
O O17 0.142933 0.271945 0.368820
O O18 0.000000 0.274589 0.500000
O O19 0.944971 0.242384 0.438110
O O20 0.279799 0.500000 0.658865
O O21 0.351669 0.500000 0.455403
O O22 0.250000 0.250000 0.500000
#
# Coordination Sequence:
#
# PCOD8109796 Si02
#       8
#     8   8   8   8   8   8   8   8
#     4   9  19  38  62  83 111 157 201 240 300 364
#     4  10  22  41  62  87 123 163 201 245 300 363
#     4  11  23  39  61  87 119 158 199 249 307 366
#     4  10  21  40  63  87 118 158 205 251 304 368
#     4  11  23  39  60  89 121 156 202 254 303 361
#     4  11  24  42  65  93 126 165 206 249 301 360
#     4  11  24  40  62  94 125 158 202 254 304 356
#     4  11  23  40  65  94 127 165 205 252 299 354
#
# _framework density 19.953263
#
# number of rings (size 3 to 8) (size 9 to 14) (size 15 to 20)
#    0.000    1.500    1.250    3.375    1.750    8.500 
#    0.000    1.250    0.000    0.000    0.000    0.000 
#    0.000    0.000    0.000    0.000    0.000    0.000 
#
# Total GULP energy -396862.097721 kJ/mol
# GULP energy per Si atom -12401.940554 kJ/mol
# Density = 1.990785 g / cm^3
# Si number density = 19.953263 Si / 1000 Ang^3
#
#
#
# Elastic Constant Matrix: (Units=GPa)
#
#
# Indices 1 2 3 4 5 6 
#
# 1 148.6778 48.6383 58.3026 0.0000 -2.8894 0.0001
# 2 48.6383 71.4900 45.4765 0.0004 8.8453 0.0013
# 3 58.3026 45.4765 113.0482 0.0000 -11.9749 0.0002
# 4 0.0000 0.0004 0.0000 31.1507 0.0000 1.8675
# 5 -2.8894 8.8453 -11.9749 0.0000 39.0949 -0.0001
# 6 0.0001 0.0013 0.0002 1.8675 -0.0001 37.2565
#
#
#
# Elastic Compliance Matrix: (Units=1/GPa)
#
#
# Indices 1 2 3 4 5 6 
#
# 1 0.009399 -0.004674 -0.002875 0.000000 0.000871 0.000000
# 2 -0.004674 0.023045 -0.007699 0.000000 -0.007917 -0.000001
# 3 -0.002875 -0.007699 0.014043 0.000000 0.005831 0.000000
# 4 0.000000 0.000000 0.000000 0.032199 0.000000 -0.001614
# 5 0.000871 -0.007917 0.005831 0.000000 0.029220 0.000000
# 6 0.000000 -0.000001 0.000000 -0.001614 0.000000 0.026922
#
#
# Mechanical properties :
#
#
# Convention : Reuss Voigt Hill
#
# Bulk Modulus (GPa) = 62.53009 70.89453 66.71231
# Shear Modulus (GPa) = 29.29912 33.55366 31.42639
#
# Velocity S-wave (km/s) = 3.83611 4.10520 3.97293
# Velocity P-wave (km/s) = 7.14334 7.62087 7.38596
#
# Compressibility (1/GPa) = 0.01599230
#
# Stress axis : x y z
#
# Youngs Moduli (GPa) = 106.39110 43.39412 71.20930
#
# Poissons Ratio (x) = 0.20281 0.20473
# Poissons Ratio (y) = 0.49724 0.54821
# Poissons Ratio (z) = 0.30588 0.33407
#
# Static dielectric constant tensor:
#      x y z
#    x 3.602020 0.000000 0.184800 
#    y 0.000000 3.396270 0.000000 
#    z 0.184800 0.000000 3.853260 
# 
# 
# High freq. dielectric constant tensor:
#      x y z
#    x 1.792850 0.000000 0.000400 
#    y 0.000000 1.772510 0.000000 
#    z 0.000400 0.000000 1.793510 
# 
# From -- ./inp_files/378116.got.cif
#   From: 2010.06.25/outbox.cif.g09.slc.cpg/sg12_190_cif.got.tgz:378116.got - 2010.06.28 00:19:55.
