data_PCOD8109393
_publ_section_title
;
Structure prediction by ZEFSAII (Michael W. Deem and Ramdas Pophale) SiO2 
 PCOD8109393
Probable space group: C 2/M
;
_chemical_formula_sum "Si O2"
_cell_formula_units_Z 44
_cell_length_a 11.224158
_cell_length_b 22.211893
_cell_length_c 9.545560
_cell_angle_alpha 90.000000
_cell_angle_beta 60.290508
_cell_angle_gamma 90.000000
_cell_volume 2066.975321
_symmetry_space_group_name_H-M "C 2/M"
_symmetry_group_IT_number 12
_symmetry_cell_setting 'monoclinic'
loop_
_space_group_symop_operation_xyz
x,y,z
-x,y,-z
-x,-y,-z
x,-y,z
1/2+x,1/2+y,z
1/2-x,1/2+y,-z
1/2-x,1/2-y,-z
1/2+x,1/2-y,z
loop_
_atom_site_type_symbol
_atom_site_label
_atom_site_fract_x
_atom_site_fract_y
_atom_site_fract_z
Si Si1 0.387107 0.000000 0.815009
Si Si2 0.289966 0.000000 0.362134
Si Si3 0.000000 0.094139 0.000000
Si Si4 0.232688 0.631170 0.715255
Si Si5 0.000000 0.202371 0.500000
Si Si6 0.662513 0.500000 0.732563
Si Si7 0.003296 0.682212 0.342648
Si Si8 0.725574 0.126348 0.034477
O O1 0.548996 0.000000 0.694250
O O2 0.315143 0.000000 0.706526
O O3 0.335918 0.941281 0.928894
O O4 0.254853 0.941063 0.292770
O O5 0.186444 0.000000 0.553734
O O6 0.076430 0.057196 0.833793
O O7 0.885543 0.131942 0.983823
O O8 0.369881 0.659898 0.576713
O O9 0.112176 0.653397 0.686010
O O10 0.205301 0.651859 0.890033
O O11 0.012468 0.245467 0.630521
O O12 0.000000 0.651612 0.500000
O O13 0.149067 0.669416 0.187778
#
# Coordination Sequence:
#
# PCOD8109393 Si02
#       8
#     4   4   4   8   4   4   8   8
#     4  10  21  39  64 110 142 182 231 282 351 431
#     4  12  25  35  75 106 147 182 224 288 367 426
#     4   9  22  40  60 100 146 188 228 275 350 420
#     4  12  26  45  71 110 142 182 231 295 360 417
#     4  10  28  49  70  97 144 188 246 294 328 430
#     4   9  21  37  60  95 149 192 224 270 339 439
#     4  10  25  46  73  98 134 186 243 292 335 413
#     4  11  23  42  72 101 147 182 234 291 355 418
#
# _framework density 21.287144000000001
#
# number of rings (size 3 to 8) (size 9 to 14) (size 15 to 20)
#    0.545    0.909    1.818    2.455    7.636    1.818 
#    0.000    0.000    0.000    0.000    0.000    0.000 
#    0.000    0.000    0.000    0.000    0.000    0.000 
#
# Total GULP energy -272754.699884 kJ/mol
# GULP energy per Si atom -12397.940904 kJ/mol
# Density = 2.123869 g / cm^3
# Si number density = 21.287144 Si / 1000 Ang^3
#
#
#
# Elastic Constant Matrix: (Units=GPa)
#
#
# Indices 1 2 3 4 5 6 
#
# 1 130.5829 52.7697 80.0422 0.0000 0.3026 0.0000
# 2 52.7697 102.7201 27.6366 0.0000 -11.8820 0.0000
# 3 80.0422 27.6366 146.2247 0.0000 0.0402 0.0000
# 4 0.0000 0.0000 0.0000 -46.3497 0.0000 72.6945
# 5 0.3026 -11.8820 0.0402 0.0000 38.3068 0.0000
# 6 0.0000 0.0000 0.0000 72.6945 0.0000 -80.5840
#
#
#
# Elastic Compliance Matrix: (Units=1/GPa)
#
#
# Indices 1 2 3 4 5 6 
#
# 1 0.013968 -0.005618 -0.006584 0.000000 -0.001846 0.000000
# 2 -0.005618 0.012920 0.000632 0.000000 0.004051 0.000000
# 3 -0.006584 0.000632 0.010323 0.000000 0.000237 0.000000
# 4 0.000000 0.000000 0.000000 0.052008 0.000000 0.046916
# 5 -0.001846 0.004051 0.000237 0.000000 0.027376 0.000000
# 6 0.000000 0.000000 0.000000 0.046916 0.000000 0.029914
#
#
# Mechanical properties :
#
#
# Convention : Reuss Voigt Hill
#
# Bulk Modulus (GPa) = 71.06232 77.82496 74.44364
# Shear Modulus (GPa) = 28.67991 -3.12010 12.77990
#
# Velocity S-wave (km/s) = 3.67452 -1.21198 2.45288
# Velocity P-wave (km/s) = 7.17343 5.88901 6.56272
#
# Compressibility (1/GPa) = 0.01407216
#
# Stress axis : x y z
#
# Youngs Moduli (GPa) = 71.59197 77.40081 96.87024
#
# Poissons Ratio (x) = 0.43483 0.63776
# Poissons Ratio (y) = 0.40220 -0.06125
# Poissons Ratio (z) = 0.47134 -0.04894
#
# Static dielectric constant tensor:
#      x y z
#    x 3.889110 0.000000 -0.152800 
#    y 0.000000 3.759410 0.000000 
#    z -0.152800 0.000000 3.831310 
# 
# 
# High freq. dielectric constant tensor:
#      x y z
#    x 1.839780 0.000000 -0.009690 
#    y 0.000000 1.819910 0.000000 
#    z -0.009690 0.000000 1.842430 
# 
# From -- ./inp_files/51279.got.cif
#   From: 2010.06.25/outbox.cif.g09.slc.cpg/sg12_26_cif.got.tgz:51279.got - 2010.06.28 00:19:55.
