data_PCOD8109563
_publ_section_title
;
Structure prediction by ZEFSAII (Michael W. Deem and Ramdas Pophale) SiO2 
 PCOD8109563
Probable space group: C 2/M
;
_chemical_formula_sum "Si O2"
_cell_formula_units_Z 48
_cell_length_a 11.908444
_cell_length_b 14.070366
_cell_length_c 15.272683
_cell_angle_alpha 90.000000
_cell_angle_beta 118.705052
_cell_angle_gamma 90.000000
_cell_volume 2244.536912
_symmetry_space_group_name_H-M "C 2/M"
_symmetry_group_IT_number 12
_symmetry_cell_setting 'monoclinic'
loop_
_space_group_symop_operation_xyz
x,y,z
-x,y,-z
-x,-y,-z
x,-y,z
1/2+x,1/2+y,z
1/2-x,1/2+y,-z
1/2-x,1/2-y,-z
1/2+x,1/2-y,z
loop_
_atom_site_type_symbol
_atom_site_label
_atom_site_fract_x
_atom_site_fract_y
_atom_site_fract_z
Si Si1 0.133253 0.605255 0.359588
Si Si2 0.906283 0.109331 0.543230
Si Si3 0.350516 0.106245 0.286598
Si Si4 0.625071 0.701789 0.287085
Si Si5 0.678304 0.111256 0.927499
Si Si6 0.938319 0.799542 0.067657
O O1 0.137689 0.500000 0.317732
O O2 0.256539 0.622215 0.465756
O O3 0.130379 0.683591 0.282375
O O4 0.001556 0.615916 0.365628
O O5 0.929923 0.171382 0.638721
O O6 0.000000 0.144813 0.500000
O O7 0.938607 0.000000 0.576314
O O8 0.269959 0.168666 0.324323
O O9 0.319686 0.135306 0.175026
O O10 0.302870 0.000000 0.284731
O O11 0.529670 0.661308 0.178530
O O12 0.577307 0.185093 0.931301
O O13 0.642846 0.000000 0.930971
O O14 0.809910 0.138371 0.024867
O O15 0.000000 0.826549 0.000000
#
# Coordination Sequence:
#
# PCOD8109563 Si02
#       6
#     8   8   8   8   8   8
#     4  10  23  43  65  92 128 171 215 265 322 382
#     4  10  24  45  66  96 134 167 214 272 325 388
#     4  10  21  39  65  95 125 166 220 268 316 380
#     4  12  23  39  70  95 130 172 218 264 328 379
#     4  10  22  41  62  89 131 172 212 266 317 372
#     4  11  23  40  63  96 130 167 217 263 313 384
#
# _framework density 21.385256999999999
#
# number of rings (size 3 to 8) (size 9 to 14) (size 15 to 20)
#    0.000    1.500    3.333    1.000    2.333    2.667 
#    0.000    2.500    0.000    0.000    0.000    0.000 
#    0.000    0.000    0.000    0.000    0.000    0.000 
#
# Total GULP energy -297496.232134 kJ/mol
# GULP energy per Si atom -12395.676339 kJ/mol
# Density = 2.133658 g / cm^3
# Si number density = 21.385257 Si / 1000 Ang^3
#
#
#
# Elastic Constant Matrix: (Units=GPa)
#
#
# Indices 1 2 3 4 5 6 
#
# 1 114.6034 28.9993 58.0202 0.0000 9.6631 0.0000
# 2 28.9993 77.9640 29.5608 0.0000 -1.4558 0.0000
# 3 58.0202 29.5608 122.6906 0.0000 4.1725 0.0000
# 4 0.0000 0.0000 0.0000 18.9332 0.0000 -5.6988
# 5 9.6631 -1.4558 4.1725 0.0000 30.8328 0.0000
# 6 0.0000 0.0000 0.0000 -5.6988 0.0000 20.9769
#
#
#
# Elastic Compliance Matrix: (Units=1/GPa)
#
#
# Indices 1 2 3 4 5 6 
#
# 1 0.012228 -0.002707 -0.005019 0.000000 -0.003281 0.000000
# 2 -0.002707 0.014755 -0.002338 0.000000 0.001861 0.000000
# 3 -0.005019 -0.002338 0.011089 0.000000 -0.000038 0.000000
# 4 0.000000 0.000000 0.000000 0.057521 0.000000 0.015627
# 5 -0.003281 0.001861 -0.000038 0.000000 0.033554 0.000000
# 6 0.000000 0.000000 0.000000 0.015627 0.000000 0.051917
#
#
# Mechanical properties :
#
#
# Convention : Reuss Voigt Hill
#
# Bulk Modulus (GPa) = 55.72992 60.93540 58.33266
# Shear Modulus (GPa) = 24.13450 27.39376 25.76413
#
# Velocity S-wave (km/s) = 3.36305 3.58294 3.47473
# Velocity P-wave (km/s) = 6.41846 6.75815 6.59049
#
# Compressibility (1/GPa) = 0.01794368
#
# Stress axis : x y z
#
# Youngs Moduli (GPa) = 81.77787 67.77583 90.18165
#
# Poissons Ratio (x) = 0.18345 0.45262
# Poissons Ratio (y) = 0.22134 0.21087
# Poissons Ratio (z) = 0.41044 0.15848
#
# Static dielectric constant tensor:
#      x y z
#    x 3.882630 0.000000 0.276250 
#    y 0.000000 4.016120 0.000000 
#    z 0.276250 0.000000 3.785330 
# 
# 
# High freq. dielectric constant tensor:
#      x y z
#    x 1.832490 0.000000 0.021440 
#    y 0.000000 1.846070 0.000000 
#    z 0.021440 0.000000 1.830270 
# 
# From -- ./inp_files/204843.got.cif
#   From: 2010.06.25/outbox.cif.g09.slc.cpg/sg12_103_cif.got.tgz:204843.got - 2010.06.28 00:19:55.
