data_PCOD8109985
_publ_section_title
;
Structure prediction by ZEFSAII (Michael W. Deem and Ramdas Pophale) SiO2 
 PCOD8109985
Probable space group: C 2/M
;
_chemical_formula_sum "Si O2"
_cell_formula_units_Z 52
_cell_length_a 22.518093
_cell_length_b 21.417527
_cell_length_c 6.606617
_cell_angle_alpha 90.000000
_cell_angle_beta 55.231921
_cell_angle_gamma 90.000000
_cell_volume 2617.400648
_symmetry_space_group_name_H-M "C 2/M"
_symmetry_group_IT_number 12
_symmetry_cell_setting 'monoclinic'
loop_
_space_group_symop_operation_xyz
x,y,z
-x,y,-z
-x,-y,-z
x,-y,z
1/2+x,1/2+y,z
1/2-x,1/2+y,-z
1/2-x,1/2-y,-z
1/2+x,1/2-y,z
loop_
_atom_site_type_symbol
_atom_site_label
_atom_site_fract_x
_atom_site_fract_y
_atom_site_fract_z
Si Si1 0.643389 0.167311 0.342681
Si Si2 0.292430 0.930456 0.498174
Si Si3 0.348311 0.570151 0.985822
Si Si4 0.556181 0.318900 0.059388
Si Si5 0.000000 0.723614 0.500000
Si Si6 0.179706 0.221977 0.539174
Si Si7 0.245659 0.112675 0.184980
O O1 0.650363 0.116884 0.511172
O O2 0.562542 0.172829 0.418087
O O3 0.658115 0.236342 0.392194
O O4 0.698961 0.152415 0.056192
O O5 0.293157 0.927585 0.251977
O O6 0.314228 0.000000 0.526042
O O7 0.211202 0.913958 0.728433
O O8 0.380001 0.500000 0.952408
O O9 0.412504 0.621140 0.878463
O O10 0.307512 0.571411 0.848859
O O11 0.516507 0.269551 0.280973
O O12 0.500000 0.343882 0.000000
O O13 0.619685 0.280474 0.829124
O O14 0.250000 0.250000 0.500000
O O15 0.193420 0.154571 0.421413
#
# Coordination Sequence:
#
# PCOD8109985 Si02
#       7
#     8   8   8   8   4   8   8
#     4  11  23  38  61  94 126 164 207 257 314 382
#     4  10  21  40  65  94 124 156 210 267 313 363
#     4  10  22  40  63  92 124 169 214 254 304 368
#     4  12  25  42  61  90 134 168 207 258 313 372
#     4  12  26  42  62  90 132 170 204 254 320 382
#     4  12  20  39  64  94 121 160 210 264 315 366
#     4  11  20  38  65  95 124 158 211 264 317 356
#
# _framework density 19.867038999999998
#
# number of rings (size 3 to 8) (size 9 to 14) (size 15 to 20)
#    0.000    0.923    4.615    3.692    0.000    0.923 
#    0.000    0.769    0.000    0.923    0.000    0.000 
#    0.000    0.000    0.000    0.000    0.000    0.000 
#
# Total GULP energy -322370.251644 kJ/mol
# GULP energy per Si atom -12398.855832 kJ/mol
# Density = 1.982182 g / cm^3
# Si number density = 19.867039 Si / 1000 Ang^3
#
#
#
# Elastic Constant Matrix: (Units=GPa)
#
#
# Indices 1 2 3 4 5 6 
#
# 1 106.2776 34.7186 16.9268 0.0000 10.2892 0.0000
# 2 34.7186 91.1534 20.1508 0.0000 2.1757 0.0000
# 3 16.9268 20.1508 91.3518 0.0000 9.6220 0.0000
# 4 0.0000 0.0000 0.0000 17.7748 0.0000 5.3462
# 5 10.2892 2.1757 9.6220 0.0000 33.1123 0.0000
# 6 0.0000 0.0000 0.0000 5.3462 0.0000 30.5970
#
#
#
# Elastic Compliance Matrix: (Units=1/GPa)
#
#
# Indices 1 2 3 4 5 6 
#
# 1 0.011133 -0.003976 -0.000876 0.000000 -0.002944 0.000000
# 2 -0.003976 0.012953 -0.002229 0.000000 0.001032 0.000000
# 3 -0.000876 -0.002229 0.011921 0.000000 -0.003046 0.000000
# 4 0.000000 0.000000 0.000000 0.059380 0.000000 -0.010376
# 5 -0.002944 0.001032 -0.003046 0.000000 0.031932 0.000000
# 6 0.000000 0.000000 0.000000 -0.010376 0.000000 0.034496
#
#
# Mechanical properties :
#
#
# Convention : Reuss Voigt Hill
#
# Bulk Modulus (GPa) = 45.77722 48.04170 46.90946
# Shear Modulus (GPa) = 27.28367 30.76259 29.02313
#
# Velocity S-wave (km/s) = 3.70984 3.93927 3.82628
# Velocity P-wave (km/s) = 6.43758 6.70258 6.57141
#
# Compressibility (1/GPa) = 0.02184493
#
# Stress axis : x y z
#
# Youngs Moduli (GPa) = 89.82481 77.20084 83.88236
#
# Poissons Ratio (x) = 0.30698 0.07345
# Poissons Ratio (y) = 0.35718 0.18699
# Poissons Ratio (z) = 0.07865 0.17210
#
# Static dielectric constant tensor:
#      x y z
#    x 3.565650 0.000000 -0.084240 
#    y 0.000000 3.544720 0.000000 
#    z -0.084240 0.000000 2.885690 
# 
# 
# High freq. dielectric constant tensor:
#      x y z
#    x 1.772840 0.000000 0.020550 
#    y 0.000000 1.773780 0.000000 
#    z 0.020550 0.000000 1.774530 
# 
# From -- ./inp_files/21807.got.cif
#   From: 2010.06.25/outbox.cif.g09.slc.cpg/sg12_11_cif.got.tgz:21807.got - 2010.06.28 00:19:55.
