data_PCOD8109343
_publ_section_title
;
Structure prediction by ZEFSAII (Michael W. Deem and Ramdas Pophale) SiO2 
 PCOD8109343
Probable space group: C 2/M
;
_chemical_formula_sum "Si O2"
_cell_formula_units_Z 56
_cell_length_a 32.095306
_cell_length_b 17.976479
_cell_length_c 9.069557
_cell_angle_alpha 90.000000
_cell_angle_beta 147.313615
_cell_angle_gamma 90.000000
_cell_volume 2825.910668
_symmetry_space_group_name_H-M "C 2/M"
_symmetry_group_IT_number 12
_symmetry_cell_setting 'monoclinic'
loop_
_space_group_symop_operation_xyz
x,y,z
-x,y,-z
-x,-y,-z
x,-y,z
1/2+x,1/2+y,z
1/2-x,1/2+y,-z
1/2-x,1/2-y,-z
1/2+x,1/2-y,z
loop_
_atom_site_type_symbol
_atom_site_label
_atom_site_fract_x
_atom_site_fract_y
_atom_site_fract_z
Si Si1 0.966828 0.079662 0.558918
Si Si2 0.708432 0.415718 0.952730
Si Si3 0.229271 0.202914 0.794417
Si Si4 0.985021 0.763626 0.282329
Si Si5 0.076686 0.711971 0.306022
Si Si6 0.168377 0.588939 0.442428
Si Si7 0.316757 0.200234 0.763867
O O1 0.878682 0.099352 0.262110
O O2 0.000000 0.064957 0.500000
O O3 0.007124 0.150887 0.754989
O O4 0.975158 0.000000 0.672838
O O5 0.731656 0.500000 0.998975
O O6 0.720855 0.380061 0.829872
O O7 0.760020 0.384753 0.241486
O O8 0.150104 0.235180 0.488347
O O9 0.298316 0.195031 0.882419
O O10 0.250000 0.250000 0.000000
O O11 0.000000 0.759813 0.500000
O O12 0.052518 0.713464 0.407180
O O13 0.900538 0.735767 0.987336
O O14 0.094272 0.628521 0.298889
O O15 0.000000 0.744785 0.000000
O O16 0.156539 0.500000 0.398760
O O17 0.182779 0.620708 0.320258
O O18 0.250000 0.250000 0.500000
#
# Coordination Sequence:
#
# PCOD8109343 Si02
#       7
#     8   8   8   8   8   8   8
#     4   9  19  33  57  91 124 154 197 253 308 367
#     4  10  21  39  63  92 122 160 209 258 314 382
#     4  12  22  39  68  92 121 165 214 259 314 371
#     4  11  23  37  64  94 123 162 214 263 310 374
#     4  12  22  41  62  94 124 162 206 263 317 374
#     4  11  25  43  65  91 125 168 212 258 322 378
#     4  12  24  41  62  92 128 164 211 257 314 377
#
# _framework density 19.816621000000001
#
# number of rings (size 3 to 8) (size 9 to 14) (size 15 to 20)
#    0.000    1.000    5.714    0.857    6.000    0.857 
#    0.000    0.000    0.000    4.286    0.000    0.000 
#    0.000    0.000    0.000    0.000    0.000    0.000 
#
# Total GULP energy -346925.168840 kJ/mol
# GULP energy per Si atom -12390.184601 kJ/mol
# Density = 1.977152 g / cm^3
# Si number density = 19.816621 Si / 1000 Ang^3
#
#
#
# Elastic Constant Matrix: (Units=GPa)
#
#
# Indices 1 2 3 4 5 6 
#
# 1 137.0563 63.2830 23.6256 0.0000 14.2415 0.0000
# 2 63.2830 110.1688 53.4117 0.0000 -1.9429 0.0000
# 3 23.6256 53.4117 88.2592 0.0000 10.1531 0.0000
# 4 0.0000 0.0000 0.0000 29.0989 0.0000 -1.2437
# 5 14.2415 -1.9429 10.1531 0.0000 31.4171 0.0000
# 6 0.0000 0.0000 0.0000 -1.2437 0.0000 36.1660
#
#
#
# Elastic Compliance Matrix: (Units=1/GPa)
#
#
# Indices 1 2 3 4 5 6 
#
# 1 0.011047 -0.007600 0.002360 0.000000 -0.006240 0.000000
# 2 -0.007600 0.018441 -0.010026 0.000000 0.007826 0.000000
# 3 0.002360 -0.010026 0.017615 0.000000 -0.007382 0.000000
# 4 0.000000 0.000000 0.000000 0.034416 0.000000 0.001184
# 5 -0.006240 0.007826 -0.007382 0.000000 0.037528 0.000000
# 6 0.000000 0.000000 0.000000 0.001184 0.000000 0.027691
#
#
# Mechanical properties :
#
#
# Convention : Reuss Voigt Hill
#
# Bulk Modulus (GPa) = 60.34359 68.45833 64.40096
# Shear Modulus (GPa) = 27.35319 32.34733 29.85026
#
# Velocity S-wave (km/s) = 3.71929 4.04460 3.88535
# Velocity P-wave (km/s) = 6.99723 7.51216 7.25927
#
# Compressibility (1/GPa) = 0.01657177
#
# Stress axis : x y z
#
# Youngs Moduli (GPa) = 90.52304 54.22668 56.76928
#
# Poissons Ratio (x) = 0.41211 -0.13397
# Poissons Ratio (y) = 0.68795 0.56916
# Poissons Ratio (z) = -0.21362 0.54367
#
# Static dielectric constant tensor:
#      x y z
#    x 3.914540 0.000000 0.037490 
#    y 0.000000 3.926010 0.000000 
#    z 0.037490 0.000000 3.764920 
# 
# 
# High freq. dielectric constant tensor:
#      x y z
#    x 1.779280 0.000000 0.013290 
#    y 0.000000 1.767420 0.000000 
#    z 0.013290 0.000000 1.770500 
# 
# From -- ./inp_files/113408.got.cif
#   From: 2010.06.25/outbox.cif.g09.slc.cpg/sg12_57_cif.got.tgz:113408.got - 2010.06.28 00:19:55.
