data_PCOD8109496
_publ_section_title
;
Structure prediction by ZEFSAII (Michael W. Deem and Ramdas Pophale) SiO2 
 PCOD8109496
Probable space group: C 2/M
;
_chemical_formula_sum "Si O2"
_cell_formula_units_Z 40
_cell_length_a 9.419757
_cell_length_b 18.896111
_cell_length_c 14.893234
_cell_angle_alpha 90.000000
_cell_angle_beta 135.572040
_cell_angle_gamma 90.000000
_cell_volume 1855.694911
_symmetry_space_group_name_H-M "C 2/M"
_symmetry_group_IT_number 12
_symmetry_cell_setting 'monoclinic'
loop_
_space_group_symop_operation_xyz
x,y,z
-x,y,-z
-x,-y,-z
x,-y,z
1/2+x,1/2+y,z
1/2-x,1/2+y,-z
1/2-x,1/2-y,-z
1/2+x,1/2-y,z
loop_
_atom_site_type_symbol
_atom_site_label
_atom_site_fract_x
_atom_site_fract_y
_atom_site_fract_z
Si Si1 0.190037 0.799286 0.147101
Si Si2 0.819990 0.575697 0.852843
Si Si3 0.974430 0.581894 0.231847
Si Si4 0.182610 0.580896 0.514453
Si Si5 0.996025 0.179672 0.745242
O O1 0.263112 0.875641 0.144499
O O2 0.389682 0.749780 0.237191
O O3 0.123553 0.803310 0.219254
O O4 0.000000 0.772436 0.000000
O O5 0.717427 0.500000 0.782424
O O6 0.670469 0.623332 0.843076
O O7 0.895901 0.611568 0.794044
O O8 0.000000 0.560942 0.000000
O O9 0.915465 0.500000 0.189628
O O10 0.109687 0.592436 0.380646
O O11 0.264758 0.500000 0.564301
O O12 0.350844 0.641688 0.606566
O O13 0.000000 0.594381 0.500000
#
# Coordination Sequence:
#
# PCOD8109496 Si02
#       5
#     8   8   8   8   8
#     4  12  25  41  64  93 128 171 213 260 319 381
#     4  10  21  39  64  95 129 165 210 263 318 378
#     4  10  22  42  66  95 129 165 212 266 315 375
#     4  10  21  42  68  94 125 164 214 265 314 373
#     4  12  24  41  63  90 128 171 211 261 315 375
#
# _framework density 21.555268000000002
#
# number of rings (size 3 to 8) (size 9 to 14) (size 15 to 20)
#    0.000    1.200    2.000    4.200    0.000    2.800 
#    0.000    3.000    0.000    0.000    0.000    0.000 
#    0.000    0.000    0.000    0.000    0.000    0.000 
#
# Total GULP energy -247913.411736 kJ/mol
# GULP energy per Si atom -12395.670587 kJ/mol
# Density = 2.150621 g / cm^3
# Si number density = 21.555268 Si / 1000 Ang^3
#
#
#
# Elastic Constant Matrix: (Units=GPa)
#
#
# Indices 1 2 3 4 5 6 
#
# 1 135.0108 56.0060 24.8747 0.0000 -5.0506 -0.0001
# 2 56.0060 104.3228 38.7745 0.0000 16.0042 0.0002
# 3 24.8747 38.7745 85.4742 -0.0003 -1.1670 0.0003
# 4 0.0000 0.0000 -0.0003 47.1220 -0.0001 13.6138
# 5 -5.0506 16.0042 -1.1670 -0.0001 37.1036 0.0002
# 6 -0.0001 0.0002 0.0003 13.6138 0.0002 4.3804
#
#
#
# Elastic Compliance Matrix: (Units=1/GPa)
#
#
# Indices 1 2 3 4 5 6 
#
# 1 0.010045 -0.005926 -0.000181 -0.000001 0.003918 0.000002
# 2 -0.005926 0.016097 -0.005686 -0.000001 -0.007929 0.000002
# 3 -0.000181 -0.005686 0.014371 0.000004 0.002880 -0.000012
# 4 -0.000001 -0.000001 0.000004 0.207833 0.000004 -0.645926
# 5 0.003918 -0.007929 0.002880 0.000004 0.030995 -0.000013
# 6 0.000002 0.000002 -0.000012 -0.645926 -0.000013 2.235768
#
#
# Mechanical properties :
#
#
# Convention : Reuss Voigt Hill
#
# Bulk Modulus (GPa) = 59.08142 62.67979 60.88061
# Shear Modulus (GPa) = 1.96515 31.39805 16.68160
#
# Velocity S-wave (km/s) = 0.95585 3.82072 2.78492
# Velocity P-wave (km/s) = 5.35602 6.97178 6.21662
#
# Compressibility (1/GPa) = 0.01692580
#
# Stress axis : x y z
#
# Youngs Moduli (GPa) = 99.54954 62.12388 69.58550
#
# Poissons Ratio (x) = 0.36817 0.01262
# Poissons Ratio (y) = 0.58998 0.39564
# Poissons Ratio (z) = 0.01806 0.35322
#
# Static dielectric constant tensor:
#      x y z
#    x 4.171840 0.000000 -0.012510 
#    y 0.000000 4.132320 0.000000 
#    z -0.012510 0.000000 3.769010 
# 
# 
# High freq. dielectric constant tensor:
#      x y z
#    x 1.857540 0.000000 -0.001150 
#    y 0.000000 1.857100 0.000000 
#    z -0.001150 0.000000 1.834900 
# 
# From -- ./inp_files/259054.got.cif
#   From: 2010.06.25/outbox.cif.g09.slc.cpg/sg12_130_cif.got.tgz:259054.got - 2010.06.28 00:19:55.
