data_PCOD8109468
_publ_section_title
;
Structure prediction by ZEFSAII (Michael W. Deem and Ramdas Pophale) SiO2 
 PCOD8109468
Probable space group: C 2/M
;
_chemical_formula_sum "Si O2"
_cell_formula_units_Z 40
_cell_length_a 25.916110
_cell_length_b 15.910404
_cell_length_c 8.897571
_cell_angle_alpha 90.000000
_cell_angle_beta 150.769145
_cell_angle_gamma 90.000000
_cell_volume 1791.577507
_symmetry_space_group_name_H-M "C 2/M"
_symmetry_group_IT_number 12
_symmetry_cell_setting 'monoclinic'
loop_
_space_group_symop_operation_xyz
x,y,z
-x,y,-z
-x,-y,-z
x,-y,z
1/2+x,1/2+y,z
1/2-x,1/2+y,-z
1/2-x,1/2-y,-z
1/2+x,1/2-y,z
loop_
_atom_site_type_symbol
_atom_site_label
_atom_site_fract_x
_atom_site_fract_y
_atom_site_fract_z
Si Si1 0.605143 0.403354 0.337602
Si Si2 0.686732 0.900419 0.294891
Si Si3 0.217737 0.405466 0.717382
Si Si4 0.907382 0.838224 0.369732
Si Si5 0.478611 0.849198 0.611575
O O1 0.604782 0.500000 0.288911
O O2 0.711289 0.364672 0.535319
O O3 0.605461 0.395770 0.517220
O O4 0.500000 0.359807 0.000000
O O5 0.700110 0.876372 0.502422
O O6 0.668908 0.000000 0.225962
O O7 0.586628 0.849585 0.979326
O O8 0.264272 0.500000 0.840590
O O9 0.106715 0.406414 0.521949
O O10 0.298722 0.340915 0.000211
O O11 0.933068 0.744416 0.485925
O O12 0.000000 0.875114 0.500000
O O13 0.500000 0.886202 0.500000
#
# Coordination Sequence:
#
# PCOD8109468 Si02
#       5
#     8   8   8   8   8
#     4  10  21  39  64  93 124 161 207 256 306 363
#     4  10  22  41  66  95 124 158 204 257 310 363
#     4  11  23  41  66  92 122 161 207 258 307 362
#     4  11  24  41  60  88 125 166 206 250 305 366
#     4  11  24  41  60  91 129 163 203 250 308 370
#
# _framework density 22.326692999999999
#
# number of rings (size 3 to 8) (size 9 to 14) (size 15 to 20)
#    0.000    1.400    0.000    4.800    0.000   11.200 
#    0.000    6.000    0.000    0.000    0.000    0.000 
#    0.000    0.000    0.000    0.000    0.000    0.000 
#
# Total GULP energy -248101.373249 kJ/mol
# GULP energy per Si atom -12405.068662 kJ/mol
# Density = 2.227588 g / cm^3
# Si number density = 22.326693 Si / 1000 Ang^3
#
#
#
# Elastic Constant Matrix: (Units=GPa)
#
#
# Indices 1 2 3 4 5 6 
#
# 1 185.4213 16.4153 80.4439 0.0000 2.7081 0.0000
# 2 16.4153 57.9978 47.8297 0.0000 -4.6204 0.0000
# 3 80.4439 47.8297 210.4508 0.0000 -5.1526 0.0000
# 4 0.0000 0.0000 0.0000 32.0661 0.0000 -0.3762
# 5 2.7081 -4.6204 -5.1526 0.0000 47.0285 0.0000
# 6 0.0000 0.0000 0.0000 -0.3762 0.0000 19.2212
#
#
#
# Elastic Compliance Matrix: (Units=1/GPa)
#
#
# Indices 1 2 3 4 5 6 
#
# 1 0.006487 0.000211 -0.002543 0.000000 -0.000631 0.000000
# 2 0.000211 0.021341 -0.004893 0.000000 0.001548 0.000000
# 3 -0.002543 -0.004893 0.006846 0.000000 0.000416 0.000000
# 4 0.000000 0.000000 0.000000 0.031193 0.000000 0.000611
# 5 -0.000631 0.001548 0.000416 0.000000 0.021498 0.000000
# 6 0.000000 0.000000 0.000000 0.000611 0.000000 0.052038
#
#
# Mechanical properties :
#
#
# Convention : Reuss Voigt Hill
#
# Bulk Modulus (GPa) = 49.44707 82.58310 66.01508
# Shear Modulus (GPa) = 31.13457 40.27522 35.70490
#
# Velocity S-wave (km/s) = 3.73835 4.25185 4.00334
# Velocity P-wave (km/s) = 6.38974 7.82132 7.14150
#
# Compressibility (1/GPa) = 0.02022364
#
# Stress axis : x y z
#
# Youngs Moduli (GPa) = 154.15598 46.85863 146.07198
#
# Poissons Ratio (x) = -0.00988 0.37146
# Poissons Ratio (y) = -0.03250 0.71471
# Poissons Ratio (z) = 0.39202 0.22927
#
# Static dielectric constant tensor:
#      x y z
#    x 4.264690 0.000000 0.131000 
#    y 0.000000 3.586260 0.000000 
#    z 0.131000 0.000000 4.128570 
# 
# 
# High freq. dielectric constant tensor:
#      x y z
#    x 1.899380 0.000000 0.003480 
#    y 0.000000 1.855630 0.000000 
#    z 0.003480 0.000000 1.893540 
# 
# From -- ./inp_files/98324.got.cif
#   From: 2010.06.25/outbox.cif.g09.slc.cpg/sg12_50_cif.got.tgz:98324.got - 2010.06.28 00:19:55.
