data_PCOD8109675
_publ_section_title
;
Structure prediction by ZEFSAII (Michael W. Deem and Ramdas Pophale) SiO2 
 PCOD8109675
Probable space group: C 2/M
;
_chemical_formula_sum "Si O2"
_cell_formula_units_Z 56
_cell_length_a 9.038068
_cell_length_b 30.341675
_cell_length_c 11.538615
_cell_angle_alpha 90.000000
_cell_angle_beta 123.684068
_cell_angle_gamma 90.000000
_cell_volume 2632.987102
_symmetry_space_group_name_H-M "C 2/M"
_symmetry_group_IT_number 12
_symmetry_cell_setting 'monoclinic'
loop_
_space_group_symop_operation_xyz
x,y,z
-x,y,-z
-x,-y,-z
x,-y,z
1/2+x,1/2+y,z
1/2-x,1/2+y,-z
1/2-x,1/2-y,-z
1/2+x,1/2-y,z
loop_
_atom_site_type_symbol
_atom_site_label
_atom_site_fract_x
_atom_site_fract_y
_atom_site_fract_z
Si Si1 0.191924 0.616317 0.607945
Si Si2 0.534675 0.574198 0.642380
Si Si3 0.299965 0.950804 0.949162
Si Si4 0.842441 0.168678 0.303438
Si Si5 0.681141 0.796913 0.010919
Si Si6 0.706824 0.374082 0.085839
Si Si7 0.267182 0.698538 0.496151
O O1 0.344199 0.587179 0.613832
O O2 0.224082 0.614707 0.757807
O O3 0.179360 0.667100 0.555221
O O4 0.000000 0.594211 0.500000
O O5 0.500000 0.551981 0.500000
O O6 0.657368 0.545234 0.781104
O O7 0.656286 0.616795 0.676251
O O8 0.309226 0.000000 0.007510
O O9 0.500000 0.936173 0.000000
O O10 0.230621 0.916394 0.013858
O O11 0.813024 0.180427 0.158261
O O12 0.698321 0.186682 0.335100
O O13 0.026961 0.190059 0.412504
O O14 0.500000 0.789937 0.000000
O O15 0.750000 0.750000 0.000000
O O16 0.676065 0.831967 0.904242
O O17 0.500000 0.360660 0.000000
O O18 0.250000 0.750000 0.500000
#
# Coordination Sequence:
#
# PCOD8109675 Si02
#       7
#     8   8   8   8   8   8   8
#     4  11  25  38  63 103 130 179 227 279 346 415
#     4  11  21  45  70  96 138 176 223 280 347 418
#     4  11  26  47  76 107 135 181 236 285 355 435
#     4  10  21  40  59  86 122 176 220 273 334 394
#     4  12  28  40  64  95 134 183 233 285 341 408
#     4  12  24  46  70  98 140 181 226 289 349 418
#     4  10  22  36  59  85 124 170 225 280 328 398
#
# _framework density 21.268619000000001
#
# number of rings (size 3 to 8) (size 9 to 14) (size 15 to 20)
#    0.000    1.000    5.714    1.714   10.000    0.571 
#    0.000    0.000    0.000    0.857    0.000    0.000 
#    0.000    0.000    0.000    0.000    0.000    0.000 
#
# Total GULP energy -346926.108136 kJ/mol
# GULP energy per Si atom -12390.218148 kJ/mol
# Density = 2.122021 g / cm^3
# Si number density = 21.268619 Si / 1000 Ang^3
#
#
#
# Elastic Constant Matrix: (Units=GPa)
#
#
# Indices 1 2 3 4 5 6 
#
# 1 124.4070 39.1980 46.1706 0.0000 -4.2502 0.0000
# 2 39.1980 90.6549 6.3097 0.0000 -4.0506 0.0000
# 3 46.1706 6.3097 127.5037 0.0000 -15.1854 0.0000
# 4 0.0000 0.0000 0.0000 25.0637 0.0000 -0.7664
# 5 -4.2502 -4.0506 -15.1854 0.0000 37.5372 0.0000
# 6 0.0000 0.0000 0.0000 -0.7664 0.0000 14.5338
#
#
#
# Elastic Compliance Matrix: (Units=1/GPa)
#
#
# Indices 1 2 3 4 5 6 
#
# 1 0.010821 -0.004450 -0.003792 0.000000 -0.000789 0.000000
# 2 -0.004450 0.012936 0.001132 0.000000 0.001350 0.000000
# 3 -0.003792 0.001132 0.009585 0.000000 0.003570 0.000000
# 4 0.000000 0.000000 0.000000 0.039963 0.000000 0.002107
# 5 -0.000789 0.001350 0.003570 0.000000 0.028141 0.000000
# 6 0.000000 0.000000 0.000000 0.002107 0.000000 0.068916
#
#
# Mechanical properties :
#
#
# Convention : Reuss Voigt Hill
#
# Bulk Modulus (GPa) = 52.29496 58.43579 55.36537
# Shear Modulus (GPa) = 26.18397 32.15276 29.16837
#
# Velocity S-wave (km/s) = 3.51252 3.89234 3.70730
# Velocity P-wave (km/s) = 6.41028 6.90906 6.66434
#
# Compressibility (1/GPa) = 0.01912230
#
# Stress axis : x y z
#
# Youngs Moduli (GPa) = 92.41644 77.30072 104.32683
#
# Poissons Ratio (x) = 0.34399 0.39561
# Poissons Ratio (y) = 0.41125 -0.11810
# Poissons Ratio (z) = 0.35045 -0.08750
#
# Static dielectric constant tensor:
#      x y z
#    x 4.060050 0.000000 -0.177620 
#    y 0.000000 3.331180 0.000000 
#    z -0.177620 0.000000 4.340080 
# 
# 
# High freq. dielectric constant tensor:
#      x y z
#    x 1.842420 0.000000 -0.006910 
#    y 0.000000 1.815690 0.000000 
#    z -0.006910 0.000000 1.849700 
# 
# From -- ./inp_files/125836.got.cif
#   From: 2010.06.25/outbox.cif.g09.slc.cpg/sg12_63_cif.got.tgz:125836.got - 2010.06.28 00:19:55.
