data_PCOD8109971
_publ_section_title
;
Structure prediction by ZEFSAII (Michael W. Deem and Ramdas Pophale) SiO2 
 PCOD8109971
Probable space group: C 2/M
;
_chemical_formula_sum "Si O2"
_cell_formula_units_Z 56
_cell_length_a 19.305718
_cell_length_b 17.463405
_cell_length_c 9.153127
_cell_angle_alpha 90.000000
_cell_angle_beta 115.093247
_cell_angle_gamma 90.000000
_cell_volume 2794.665265
_symmetry_space_group_name_H-M "C 2/M"
_symmetry_group_IT_number 12
_symmetry_cell_setting 'monoclinic'
loop_
_space_group_symop_operation_xyz
x,y,z
-x,y,-z
-x,-y,-z
x,-y,z
1/2+x,1/2+y,z
1/2-x,1/2+y,-z
1/2-x,1/2-y,-z
1/2+x,1/2-y,z
loop_
_atom_site_type_symbol
_atom_site_label
_atom_site_fract_x
_atom_site_fract_y
_atom_site_fract_z
Si Si1 0.289876 0.153693 0.149318
Si Si2 0.909746 0.587994 0.039272
Si Si3 0.347620 0.409199 0.467362
Si Si4 0.844806 0.820311 0.178032
Si Si5 0.565366 0.152940 0.245998
Si Si6 0.485674 0.697550 0.651337
Si Si7 0.706953 0.911487 0.535314
O O1 0.338876 0.106057 0.077748
O O2 0.329630 0.234284 0.223144
O O3 0.280395 0.103214 0.283741
O O4 0.205209 0.165019 0.009840
O O5 0.906246 0.500000 0.984191
O O6 0.988462 0.602684 0.197674
O O7 0.905154 0.643371 0.893917
O O8 0.357207 0.500000 0.474961
O O9 0.323775 0.380259 0.285766
O O10 0.427810 0.373611 0.591269
O O11 0.280624 0.380401 0.514628
O O12 0.933289 0.830567 0.211750
O O13 0.547624 0.240757 0.266272
O O14 0.629478 0.128498 0.416705
O O15 0.500000 0.731051 0.500000
O O16 0.697144 0.000000 0.493618
#
# Coordination Sequence:
#
# PCOD8109971 Si02
#       7
#     8   8   8   8   8   8   8
#     4  11  23  40  61  91 125 162 203 248 300 363
#     4  11  23  40  61  93 127 164 204 244 296 367
#     4  10  23  42  64  89 119 159 209 260 308 360
#     4  10  22  40  63  88 121 159 206 251 302 363
#     4  11  22  38  64  89 125 161 203 243 299 366
#     4  10  21  40  65  93 120 155 208 258 302 359
#     4  11  23  39  59  89 125 160 199 248 305 360
#
# _framework density 20.038179
#
# number of rings (size 3 to 8) (size 9 to 14) (size 15 to 20)
#    0.000    1.429    1.429    4.714    0.000    9.429 
#    0.000    1.429    0.000    1.714    0.000    0.000 
#    0.000    0.000    0.000    0.000    0.000    0.000 
#
# Total GULP energy -347301.734669 kJ/mol
# GULP energy per Si atom -12403.633381 kJ/mol
# Density = 1.999257 g / cm^3
# Si number density = 20.038179 Si / 1000 Ang^3
#
#
#
# Elastic Constant Matrix: (Units=GPa)
#
#
# Indices 1 2 3 4 5 6 
#
# 1 102.6667 37.0849 57.3441 0.0000 7.0162 0.0000
# 2 37.0849 90.0932 34.4582 0.0000 -9.6253 0.0000
# 3 57.3441 34.4582 97.7616 0.0000 5.7908 0.0000
# 4 0.0000 0.0000 0.0000 29.6163 0.0000 -7.3677
# 5 7.0162 -9.6253 5.7908 0.0000 36.1236 0.0000
# 6 0.0000 0.0000 0.0000 -7.3677 0.0000 29.1987
#
#
#
# Elastic Compliance Matrix: (Units=1/GPa)
#
#
# Indices 1 2 3 4 5 6 
#
# 1 0.015560 -0.003789 -0.007625 0.000000 -0.002809 0.000000
# 2 -0.003789 0.014410 -0.003158 0.000000 0.005082 0.000000
# 3 -0.007625 -0.003158 0.015928 0.000000 -0.001914 0.000000
# 4 0.000000 0.000000 0.000000 0.036027 0.000000 0.009091
# 5 -0.002809 0.005082 -0.001914 0.000000 0.029889 0.000000
# 6 0.000000 0.000000 0.000000 0.009091 0.000000 0.036542
#
#
# Mechanical properties :
#
#
# Convention : Reuss Voigt Hill
#
# Bulk Modulus (GPa) = 59.68510 60.92177 60.30343
# Shear Modulus (GPa) = 27.31001 29.76333 28.53667
#
# Velocity S-wave (km/s) = 3.69575 3.85818 3.77784
# Velocity P-wave (km/s) = 6.93266 7.09340 7.01349
#
# Compressibility (1/GPa) = 0.01675460
#
# Stress axis : x y z
#
# Youngs Moduli (GPa) = 64.26855 69.39738 62.78238
#
# Poissons Ratio (x) = 0.26291 0.47872
# Poissons Ratio (y) = 0.24348 0.19825
# Poissons Ratio (z) = 0.49006 0.21914
#
# Static dielectric constant tensor:
#      x y z
#    x 3.822680 0.000000 0.130600 
#    y 0.000000 3.559170 0.000000 
#    z 0.130600 0.000000 3.612690 
# 
# 
# High freq. dielectric constant tensor:
#      x y z
#    x 1.795160 0.000000 0.011700 
#    y 0.000000 1.776340 0.000000 
#    z 0.011700 0.000000 1.782210 
# 
# From -- ./inp_files/75994.got.cif
#   From: 2010.06.25/outbox.cif.g09.slc.cpg/sg12_38_cif.got.tgz:75994.got - 2010.06.28 00:19:55.
