data_PCOD8109041
_publ_section_title
;
Structure prediction by ZEFSAII (Michael W. Deem and Ramdas Pophale) SiO2 
 PCOD8109041
Probable space group: C 2/M
;
_chemical_formula_sum "Si O2"
_cell_formula_units_Z 64
_cell_length_a 30.990607
_cell_length_b 13.576577
_cell_length_c 22.144214
_cell_angle_alpha 90.000000
_cell_angle_beta 159.173751
_cell_angle_gamma 90.000000
_cell_volume 3312.556101
_symmetry_space_group_name_H-M "C 2/M"
_symmetry_group_IT_number 12
_symmetry_cell_setting 'monoclinic'
loop_
_space_group_symop_operation_xyz
x,y,z
-x,y,-z
-x,-y,-z
x,-y,z
1/2+x,1/2+y,z
1/2-x,1/2+y,-z
1/2-x,1/2-y,-z
1/2+x,1/2-y,z
loop_
_atom_site_type_symbol
_atom_site_label
_atom_site_fract_x
_atom_site_fract_y
_atom_site_fract_z
Si Si1 0.176505 0.386996 0.384710
Si Si2 0.034373 0.762484 0.916097
Si Si3 0.654675 0.112400 0.862292
Si Si4 0.138267 0.883890 0.478054
Si Si5 0.739413 0.258314 0.276292
Si Si6 0.331707 0.613658 0.702822
Si Si7 0.613707 0.705951 0.888634
Si Si8 0.945921 0.613551 0.493035
O O1 0.141331 0.500000 0.329975
O O2 0.280574 0.356032 0.473728
O O3 0.225087 0.365306 0.515265
O O4 0.055680 0.326464 0.215767
O O5 0.107899 0.794098 0.953135
O O6 0.960945 0.857402 0.843487
O O7 0.126028 0.725672 0.087428
O O8 0.640598 0.183092 0.901503
O O9 0.543836 0.132564 0.672757
O O10 0.654446 0.000000 0.885309
O O11 0.779079 0.132779 0.989840
O O12 0.199676 0.841071 0.618796
O O13 0.008739 0.833678 0.301103
O O14 0.122874 0.000000 0.465721
O O15 0.694769 0.325055 0.272646
O O16 0.829904 0.319721 0.353087
O O17 0.336958 0.500000 0.727575
O O18 0.904673 0.500000 0.437287
O O19 0.000000 0.646840 0.500000
#
# Coordination Sequence:
#
# PCOD8109041 Si02
#       8
#     8   8   8   8   8   8   8   8
#     4  10  22  40  63  89 122 163 208 252 295 354
#     4  12  24  38  60  90 127 161 201 251 303 365
#     4  10  22  39  63  93 120 154 205 260 308 360
#     4  11  22  40  64  88 121 166 209 248 301 363
#     4  12  24  39  59  89 125 162 202 249 306 364
#     4  11  23  39  60  88 122 159 201 250 305 366
#     4  11  22  40  65  91 121 161 204 258 307 361
#     4  10  21  39  61  88 122 159 198 246 311 374
#
# _framework density 19.320428
#
# number of rings (size 3 to 8) (size 9 to 14) (size 15 to 20)
#    0.000    1.125    3.750    3.000    0.000    3.000 
#    0.000    1.250    0.000    0.375    0.000    0.000 
#    0.000    0.000    0.000    0.000    0.000    0.000 
#
# Total GULP energy -396994.993269 kJ/mol
# GULP energy per Si atom -12406.093540 kJ/mol
# Density = 1.927645 g / cm^3
# Si number density = 19.320428 Si / 1000 Ang^3
#
#
#
# Elastic Constant Matrix: (Units=GPa)
#
#
# Indices 1 2 3 4 5 6 
#
# 1 105.5470 38.4872 21.7433 0.0000 9.6156 0.0000
# 2 38.4872 75.2981 33.2333 0.0000 -5.6917 0.0000
# 3 21.7433 33.2333 96.9847 0.0000 0.9874 0.0000
# 4 0.0000 0.0000 0.0000 12.5303 0.0000 0.6125
# 5 9.6156 -5.6917 0.9874 0.0000 24.7611 0.0000
# 6 0.0000 0.0000 0.0000 0.6125 0.0000 22.0265
#
#
#
# Elastic Compliance Matrix: (Units=1/GPa)
#
#
# Indices 1 2 3 4 5 6 
#
# 1 0.012607 -0.006728 -0.000455 0.000000 -0.006424 0.000000
# 2 -0.006728 0.019606 -0.005284 0.000000 0.007330 0.000000
# 3 -0.000455 -0.005284 0.012239 0.000000 -0.001526 0.000000
# 4 0.000000 0.000000 0.000000 0.079915 0.000000 -0.002222
# 5 -0.006424 0.007330 -0.001526 0.000000 0.044627 0.000000
# 6 0.000000 0.000000 0.000000 -0.002222 0.000000 0.045462
#
#
# Mechanical properties :
#
#
# Convention : Reuss Voigt Hill
#
# Bulk Modulus (GPa) = 51.24052 51.63971 51.44011
# Shear Modulus (GPa) = 20.33364 24.15464 22.24414
#
# Velocity S-wave (km/s) = 3.24766 3.53967 3.39680
# Velocity P-wave (km/s) = 6.37511 6.59483 6.48590
#
# Compressibility (1/GPa) = 0.01951581
#
# Stress axis : x y z
#
# Youngs Moduli (GPa) = 79.32090 51.00450 81.70369
#
# Poissons Ratio (x) = 0.34318 0.03721
# Poissons Ratio (y) = 0.53371 0.43176
# Poissons Ratio (z) = 0.03612 0.26953
#
# Static dielectric constant tensor:
#      x y z
#    x 3.670260 0.000000 0.043230 
#    y 0.000000 3.663120 0.000000 
#    z 0.043230 0.000000 3.581870 
# 
# 
# High freq. dielectric constant tensor:
#      x y z
#    x 1.757150 0.000000 0.003890 
#    y 0.000000 1.756120 0.000000 
#    z 0.003890 0.000000 1.757790 
# 
# From -- ./inp_files/183841.got.cif
#   From: 2010.06.25/outbox.cif.g09.slc.cpg/sg12_92_cif.got.tgz:183841.got - 2010.06.28 00:19:55.
