data_PCOD8109226
_publ_section_title
;
Structure prediction by ZEFSAII (Michael W. Deem and Ramdas Pophale) SiO2 
 PCOD8109226
Probable space group: C 2/M
;
_chemical_formula_sum "Si O2"
_cell_formula_units_Z 64
_cell_length_a 14.800099
_cell_length_b 17.431266
_cell_length_c 17.398351
_cell_angle_alpha 90.000000
_cell_angle_beta 134.602789
_cell_angle_gamma 90.000000
_cell_volume 3195.778504
_symmetry_space_group_name_H-M "C 2/M"
_symmetry_group_IT_number 12
_symmetry_cell_setting 'monoclinic'
loop_
_space_group_symop_operation_xyz
x,y,z
-x,y,-z
-x,-y,-z
x,-y,z
1/2+x,1/2+y,z
1/2-x,1/2+y,-z
1/2-x,1/2-y,-z
1/2+x,1/2-y,z
loop_
_atom_site_type_symbol
_atom_site_label
_atom_site_fract_x
_atom_site_fract_y
_atom_site_fract_z
Si Si1 0.719728 0.848266 0.710827
Si Si2 0.292800 0.090280 0.607518
Si Si3 0.624645 0.683606 0.621305
Si Si4 0.726590 0.660815 0.986947
Si Si5 0.306132 0.410479 0.613218
Si Si6 0.070394 0.834446 0.757623
Si Si7 0.930414 0.347772 0.228923
Si Si8 0.515942 0.416072 0.095655
O O1 0.707656 0.757928 0.689228
O O2 0.703219 0.891712 0.618924
O O3 0.623697 0.876440 0.720517
O O4 0.859793 0.865289 0.822284
O O5 0.207062 0.123742 0.623530
O O6 0.246668 0.124429 0.498029
O O7 0.437253 0.112318 0.707525
O O8 0.276991 0.000000 0.600512
O O9 0.500000 0.708248 0.500000
O O10 0.585233 0.642671 0.677564
O O11 0.696706 0.636089 0.879992
O O12 0.597532 0.640230 0.951764
O O13 0.750000 0.750000 0.000000
O O14 0.842827 0.623540 0.104350
O O15 0.323302 0.500000 0.614256
O O16 0.443294 0.373888 0.716103
O O17 0.054326 0.743509 0.759221
O O18 0.521738 0.500000 0.143741
O O19 0.500000 0.440504 0.000000
#
# Coordination Sequence:
#
# PCOD8109226 Si02
#       8
#     8   8   8   8   8   8   8   8
#     4  11  23  37  62  96 127 157 206 258 312 380
#     4  11  26  43  61  88 125 169 210 258 320 380
#     4  11  24  42  66  91 118 164 215 264 318 370
#     4  10  21  39  62  92 126 167 211 253 304 361
#     4  11  23  38  61  91 124 162 205 259 315 372
#     4  10  21  39  64  93 116 157 215 266 304 355
#     4  10  23  41  61  91 129 166 204 252 316 379
#     4  11  22  38  62  92 128 169 209 253 309 374
#
# _framework density 20.026419000000001
#
# number of rings (size 3 to 8) (size 9 to 14) (size 15 to 20)
#    0.000    1.375    3.750    1.125    5.250    3.250 
#    0.000    1.875    0.000    0.750    0.000    0.000 
#    0.000    0.000    0.000    0.000    0.000    0.000 
#
# Total GULP energy -396548.961193 kJ/mol
# GULP energy per Si atom -12392.155037 kJ/mol
# Density = 1.998084 g / cm^3
# Si number density = 20.026419 Si / 1000 Ang^3
#
#
#
# Elastic Constant Matrix: (Units=GPa)
#
#
# Indices 1 2 3 4 5 6 
#
# 1 99.4479 43.8327 42.5615 0.0000 -2.8897 0.0000
# 2 43.8327 69.7824 29.9973 0.0000 9.7849 0.0000
# 3 42.5615 29.9973 119.8858 0.0000 -5.6441 0.0000
# 4 0.0000 0.0000 0.0000 5.1702 0.0000 2.1791
# 5 -2.8897 9.7849 -5.6441 0.0000 42.1202 0.0000
# 6 0.0000 0.0000 0.0000 2.1791 0.0000 15.5093
#
#
#
# Elastic Compliance Matrix: (Units=1/GPa)
#
#
# Indices 1 2 3 4 5 6 
#
# 1 0.015272 -0.008610 -0.003144 0.000000 0.002627 0.000000
# 2 -0.008610 0.021723 -0.002661 0.000000 -0.005994 0.000000
# 3 -0.003144 -0.002661 0.010207 0.000000 0.001770 0.000000
# 4 0.000000 0.000000 0.000000 0.205590 0.000000 -0.028886
# 5 0.002627 -0.005994 0.001770 0.000000 0.025551 0.000000
# 6 0.000000 0.000000 0.000000 -0.028886 0.000000 0.068536
#
#
# Mechanical properties :
#
#
# Convention : Reuss Voigt Hill
#
# Bulk Modulus (GPa) = 54.43024 57.98879 56.20951
# Shear Modulus (GPa) = 13.09477 24.07493 18.58485
#
# Velocity S-wave (km/s) = 2.55987 3.47098 3.04964
# Velocity P-wave (km/s) = 5.99796 6.71436 6.36624
#
# Compressibility (1/GPa) = 0.01837214
#
# Stress axis : x y z
#
# Youngs Moduli (GPa) = 65.47827 46.03498 97.97630
#
# Poissons Ratio (x) = 0.39635 0.30803
# Poissons Ratio (y) = 0.56376 0.26070
# Poissons Ratio (z) = 0.20586 0.12249
#
# Static dielectric constant tensor:
#      x y z
#    x 3.811080 0.000000 -0.372910 
#    y 0.000000 3.419440 0.000000 
#    z -0.372910 0.000000 4.117030 
# 
# 
# High freq. dielectric constant tensor:
#      x y z
#    x 1.779270 0.000000 -0.014830 
#    y 0.000000 1.768050 0.000000 
#    z -0.014830 0.000000 1.803420 
# 
# From -- ./inp_files/271731.got.cif
#   From: 2010.06.25/outbox.cif.g09.slc.cpg/sg12_136_cif.got.tgz:271731.got - 2010.06.28 00:19:55.
