data_PCOD8109890
_publ_section_title
;
Structure prediction by ZEFSAII (Michael W. Deem and Ramdas Pophale) SiO2 
 PCOD8109890
Probable space group: C 2/M
;
_chemical_formula_sum "Si O2"
_cell_formula_units_Z 32
_cell_length_a 13.971490
_cell_length_b 8.567527
_cell_length_c 11.989356
_cell_angle_alpha 90.000000
_cell_angle_beta 91.063583
_cell_angle_gamma 90.000000
_cell_volume 1434.892058
_symmetry_space_group_name_H-M "C 2/M"
_symmetry_group_IT_number 12
_symmetry_cell_setting 'monoclinic'
loop_
_space_group_symop_operation_xyz
x,y,z
-x,y,-z
-x,-y,-z
x,-y,z
1/2+x,1/2+y,z
1/2-x,1/2+y,-z
1/2-x,1/2-y,-z
1/2+x,1/2-y,z
loop_
_atom_site_type_symbol
_atom_site_label
_atom_site_fract_x
_atom_site_fract_y
_atom_site_fract_z
Si Si1 0.214365 0.818150 0.114563
Si Si2 0.386422 0.827250 0.511805
Si Si3 0.441572 0.817601 0.747865
Si Si4 0.354893 0.679214 0.290157
O O1 0.114695 0.732561 0.142562
O O2 0.292036 0.789976 0.211798
O O3 0.194393 0.000000 0.100937
O O4 0.250000 0.750000 0.000000
O O5 0.500000 0.821136 0.500000
O O6 0.368818 0.784354 0.641538
O O7 0.335656 0.711707 0.422116
O O8 0.348096 0.000000 0.483892
O O9 0.535330 0.712850 0.737836
O O10 0.470239 0.000000 0.752289
O O11 0.329482 0.500000 0.264721
#
# Coordination Sequence:
#
# PCOD8109890 Si02
#       4
#     8   8   8   8
#     4  12  26  44  63  86 117 155 203 252 298 351
#     4   8  16  33  58  88 122 157 194 239 292 350
#     4  10  21  40  64  91 123 158 197 244 298 352
#     4  11  22  38  62  92 124 159 198 241 295 355
#
# _framework density 22.301328999999999
#
# number of rings (size 3 to 8) (size 9 to 14) (size 15 to 20)
#    0.000    1.750    0.000    6.750    0.000    7.500 
#    0.000    5.000    0.000    0.000    0.000    0.000 
#    0.000    0.000    0.000    0.000    0.000    0.000 
#
# Total GULP energy -198410.941743 kJ/mol
# GULP energy per Si atom -12400.683859 kJ/mol
# Density = 2.225057 g / cm^3
# Si number density = 22.301329 Si / 1000 Ang^3
#
#
#
# Elastic Constant Matrix: (Units=GPa)
#
#
# Indices 1 2 3 4 5 6 
#
# 1 2.4819 5.1386 2.5623 0.0000 2.4063 0.0000
# 2 5.1386 96.6567 23.1551 0.0000 -6.0914 0.0000
# 3 2.5623 23.1551 92.6253 0.0000 -22.2547 0.0000
# 4 0.0000 0.0000 0.0000 37.4016 0.0000 0.5202
# 5 2.4063 -6.0914 -22.2547 0.0000 36.1003 0.0000
# 6 0.0000 0.0000 0.0000 0.5202 0.0000 32.5428
#
#
#
# Elastic Compliance Matrix: (Units=1/GPa)
#
#
# Indices 1 2 3 4 5 6 
#
# 1 0.530158 -0.026549 -0.020656 0.000000 -0.052552 0.000000
# 2 -0.026549 0.012336 -0.001672 0.000000 0.002821 0.000000
# 3 -0.020656 -0.001672 0.014143 0.000000 0.009814 0.000000
# 4 0.000000 0.000000 0.000000 0.026743 0.000000 -0.000427
# 5 -0.052552 0.002821 0.009814 0.000000 0.037729 0.000000
# 6 0.000000 0.000000 0.000000 -0.000427 0.000000 0.030736
#
#
# Mechanical properties :
#
#
# Convention : Reuss Voigt Hill
#
# Bulk Modulus (GPa) = 2.17920 28.16402 15.17161
# Shear Modulus (GPa) = 5.53981 31.93613 18.73797
#
# Velocity S-wave (km/s) = 1.57780 3.78832 2.90180
# Velocity P-wave (km/s) = 2.07330 5.63839 4.24794
#
# Compressibility (1/GPa) = 0.45888472
#
# Stress axis : x y z
#
# Youngs Moduli (GPa) = 1.88623 81.06671 70.70451
#
# Poissons Ratio (x) = 2.15221 1.46045
# Poissons Ratio (y) = 0.05008 0.11819
# Poissons Ratio (z) = 0.03896 0.13551
#
# Static dielectric constant tensor:
#      x y z
#    x 3.853120 0.000000 -0.157210 
#    y 0.000000 3.873770 0.000000 
#    z -0.157210 0.000000 4.411150 
# 
# 
# High freq. dielectric constant tensor:
#      x y z
#    x 1.878930 0.000000 -0.012670 
#    y 0.000000 1.875330 0.000000 
#    z -0.012670 0.000000 1.881170 
# 
# From -- ./inp_files/138343.got.cif
#   From: 2010.06.25/outbox.cif.g09.slc.cpg/sg12_70_cif.got.tgz:138343.got - 2010.06.28 00:19:55.
