data_PCOD8109865
_publ_section_title
;
Structure prediction by ZEFSAII (Michael W. Deem and Ramdas Pophale) SiO2 
 PCOD8109865
Probable space group: C 2/M
;
_chemical_formula_sum "Si O2"
_cell_formula_units_Z 40
_cell_length_a 30.583747
_cell_length_b 8.468167
_cell_length_c 7.644872
_cell_angle_alpha 90.000000
_cell_angle_beta 76.024471
_cell_angle_gamma 90.000000
_cell_volume 1921.324180
_symmetry_space_group_name_H-M "C 2/M"
_symmetry_group_IT_number 12
_symmetry_cell_setting 'monoclinic'
loop_
_space_group_symop_operation_xyz
x,y,z
-x,y,-z
-x,-y,-z
x,-y,z
1/2+x,1/2+y,z
1/2-x,1/2+y,-z
1/2-x,1/2-y,-z
1/2+x,1/2-y,z
loop_
_atom_site_type_symbol
_atom_site_label
_atom_site_fract_x
_atom_site_fract_y
_atom_site_fract_z
Si Si1 0.794776 0.684559 0.372995
Si Si2 0.797944 0.180451 0.001416
Si Si3 0.051606 0.184312 0.433656
Si Si4 0.889330 0.683505 0.924265
Si Si5 0.115310 0.815185 0.686935
O O1 0.789079 0.500000 0.333686
O O2 0.750000 0.750000 0.500000
O O3 0.803526 0.796541 0.200642
O O4 0.841023 0.718436 0.432923
O O5 0.798837 0.000000 0.942229
O O6 0.750000 0.250000 0.000000
O O7 0.841821 0.265265 0.877025
O O8 0.071470 0.278259 0.249703
O O9 0.075044 0.229767 0.594354
O O10 0.000000 0.235382 0.500000
O O11 0.057024 0.000000 0.386896
O O12 0.887213 0.500000 0.968191
O O13 0.898321 0.768859 0.101459
O O14 0.125904 0.000000 0.669811
#
# Coordination Sequence:
#
# PCOD8109865 Si02
#       5
#     8   8   8   8   8
#     4  11  22  37  57  85 121 160 203 248 303 366
#     4  11  22  38  59  86 120 159 204 249 301 365
#     4  10  23  43  67  93 121 161 212 261 313 372
#     4  11  23  40  62  90 127 164 203 254 313 373
#     4  10  21  40  64  89 122 161 207 258 310 369
#
# _framework density 20.818973
#
# number of rings (size 3 to 8) (size 9 to 14) (size 15 to 20)
#    0.000    1.400    0.000    8.400    2.800    2.800 
#    0.000    4.000    0.000    0.000    0.000    0.000 
#    0.000    0.000    0.000    0.000    0.000    0.000 
#
# Total GULP energy -247905.970169 kJ/mol
# GULP energy per Si atom -12395.298508 kJ/mol
# Density = 2.077159 g / cm^3
# Si number density = 20.818973 Si / 1000 Ang^3
#
#
#
# Elastic Constant Matrix: (Units=GPa)
#
#
# Indices 1 2 3 4 5 6 
#
# 1 172.8023 39.7469 61.0665 0.0000 -9.1951 0.0000
# 2 39.7469 88.6188 32.9536 0.0000 -4.7924 0.0000
# 3 61.0665 32.9536 92.5210 0.0000 -12.3563 0.0000
# 4 0.0000 0.0000 0.0000 29.5490 0.0000 -5.8670
# 5 -9.1951 -4.7924 -12.3563 0.0000 36.5538 0.0000
# 6 0.0000 0.0000 0.0000 -5.8670 0.0000 30.9452
#
#
#
# Elastic Compliance Matrix: (Units=1/GPa)
#
#
# Indices 1 2 3 4 5 6 
#
# 1 0.007797 -0.001824 -0.004468 0.000000 0.000212 0.000000
# 2 -0.001824 0.013434 -0.003568 0.000000 0.000096 0.000000
# 3 -0.004468 -0.003568 0.015516 0.000000 0.003653 0.000000
# 4 0.000000 0.000000 0.000000 0.035166 0.000000 0.006667
# 5 0.000212 0.000096 0.003653 0.000000 0.028658 0.000000
# 6 0.000000 0.000000 0.000000 0.006667 0.000000 0.033579
#
#
# Mechanical properties :
#
#
# Convention : Reuss Voigt Hill
#
# Bulk Modulus (GPa) = 58.73125 69.05289 63.89207
# Shear Modulus (GPa) = 31.33877 34.08793 32.71335
#
# Velocity S-wave (km/s) = 3.88403 4.05081 3.96829
# Velocity P-wave (km/s) = 6.95600 7.42422 7.19392
#
# Compressibility (1/GPa) = 0.01702671
#
# Stress axis : x y z
#
# Youngs Moduli (GPa) = 128.25822 74.43531 64.44851
#
# Poissons Ratio (x) = 0.13577 0.28796
# Poissons Ratio (y) = 0.23394 0.22997
# Poissons Ratio (z) = 0.57308 0.26560
#
# Static dielectric constant tensor:
#      x y z
#    x 3.516150 0.000000 0.643000 
#    y 0.000000 3.825620 0.000000 
#    z 0.643000 0.000000 2.527750 
# 
# 
# High freq. dielectric constant tensor:
#      x y z
#    x 1.827520 0.000000 -0.003940 
#    y 0.000000 1.820680 0.000000 
#    z -0.003940 0.000000 1.805970 
# 
# From -- ./inp_files/107448.got.cif
#   From: 2010.06.25/outbox.cif.g09.slc.cpg/sg12_54_cif.got.tgz:107448.got - 2010.06.28 00:19:55.
