data_PCOD8109583
_publ_section_title
;
Structure prediction by ZEFSAII (Michael W. Deem and Ramdas Pophale) SiO2 
 PCOD8109583
Probable space group: C 2/M
;
_chemical_formula_sum "Si O2"
_cell_formula_units_Z 52
_cell_length_a 12.090659
_cell_length_b 24.168514
_cell_length_c 10.340751
_cell_angle_alpha 90.000000
_cell_angle_beta 127.992327
_cell_angle_gamma 90.000000
_cell_volume 2381.384813
_symmetry_space_group_name_H-M "C 2/M"
_symmetry_group_IT_number 12
_symmetry_cell_setting 'monoclinic'
loop_
_space_group_symop_operation_xyz
x,y,z
-x,y,-z
-x,-y,-z
x,-y,z
1/2+x,1/2+y,z
1/2-x,1/2+y,-z
1/2-x,1/2-y,-z
1/2+x,1/2-y,z
loop_
_atom_site_type_symbol
_atom_site_label
_atom_site_fract_x
_atom_site_fract_y
_atom_site_fract_z
Si Si1 0.738860 0.437684 0.095917
Si Si2 0.951018 0.561681 0.776366
Si Si3 0.652973 0.900989 0.562380
Si Si4 0.887629 0.165803 0.112681
Si Si5 0.317257 0.310148 0.550674
Si Si6 0.000000 0.246957 0.000000
Si Si7 0.808335 0.337911 0.792844
O O1 0.689087 0.500000 0.027931
O O2 0.758018 0.433299 0.264847
O O3 0.887311 0.423808 0.135879
O O4 0.619661 0.395821 0.955418
O O5 0.935638 0.500000 0.822807
O O6 0.860030 0.563481 0.578394
O O7 0.892127 0.604110 0.841308
O O8 0.500000 0.885180 0.500000
O O9 0.726021 0.842839 0.589128
O O10 0.753261 0.170674 0.108664
O O11 0.023073 0.181529 0.293181
O O12 0.885746 0.209515 0.993653
O O13 0.250000 0.250000 0.500000
O O14 0.310136 0.336432 0.402334
O O15 0.085478 0.286822 0.159006
#
# Coordination Sequence:
#
# PCOD8109583 Si02
#       7
#     8   8   8   8   8   4   8
#     4  10  21  39  66 101 136 174 215 265 325 383
#     4   9  19  39  67  98 132 170 219 266 312 384
#     4   9  19  37  67  97 130 170 219 267 321 378
#     4  12  25  42  64  93 132 170 214 268 327 389
#     4  11  23  44  61  89 128 172 221 265 323 387
#     4  12  24  44  62  90 128 164 216 268 322 384
#     4  11  24  41  65  94 126 169 215 268 322 382
#
# _framework density 21.836036
#
# number of rings (size 3 to 8) (size 9 to 14) (size 15 to 20)
#    0.000    1.538    1.538    3.231    0.000    3.692 
#    0.000    8.462    0.000    4.615    0.000    0.000 
#    0.000    0.000    0.000    0.000    0.000    0.000 
#
# Total GULP energy -322267.429445 kJ/mol
# GULP energy per Si atom -12394.901133 kJ/mol
# Density = 2.178634 g / cm^3
# Si number density = 21.836036 Si / 1000 Ang^3
#
#
#
# Elastic Constant Matrix: (Units=GPa)
#
#
# Indices 1 2 3 4 5 6 
#
# 1 102.5685 63.6097 20.2802 0.0000 -15.8008 0.0000
# 2 63.6097 177.6140 45.3600 0.0000 6.7378 0.0000
# 3 20.2802 45.3600 97.0845 0.0000 5.6455 0.0000
# 4 0.0000 0.0000 0.0000 31.2605 0.0000 3.4799
# 5 -15.8008 6.7378 5.6455 0.0000 28.0164 0.0000
# 6 0.0000 0.0000 0.0000 3.4799 0.0000 33.7370
#
#
#
# Elastic Compliance Matrix: (Units=1/GPa)
#
#
# Indices 1 2 3 4 5 6 
#
# 1 0.014854 -0.005400 -0.001156 0.000000 0.009909 0.000000
# 2 -0.005400 0.008381 -0.002523 0.000000 -0.004553 0.000000
# 3 -0.001156 -0.002523 0.011862 0.000000 -0.002435 0.000000
# 4 0.000000 0.000000 0.000000 0.032361 0.000000 -0.003338
# 5 0.009909 -0.004553 -0.002435 0.000000 0.042868 0.000000
# 6 0.000000 0.000000 0.000000 -0.003338 0.000000 0.029985
#
#
# Mechanical properties :
#
#
# Convention : Reuss Voigt Hill
#
# Bulk Modulus (GPa) = 59.03657 70.64075 64.83866
# Shear Modulus (GPa) = 30.46631 35.13726 32.80179
#
# Velocity S-wave (km/s) = 3.73933 4.01576 3.88001
# Velocity P-wave (km/s) = 6.76302 7.34320 7.05907
#
# Compressibility (1/GPa) = 0.01693865
#
# Stress axis : x y z
#
# Youngs Moduli (GPa) = 67.32328 119.31318 84.30124
#
# Poissons Ratio (x) = 0.64433 0.09744
# Poissons Ratio (y) = 0.36357 0.21270
# Poissons Ratio (z) = 0.07782 0.30104
#
# Static dielectric constant tensor:
#      x y z
#    x 3.850890 0.000000 -0.167030 
#    y 0.000000 3.953400 0.000000 
#    z -0.167030 0.000000 4.046090 
# 
# 
# High freq. dielectric constant tensor:
#      x y z
#    x 1.844720 0.000000 -0.013670 
#    y 0.000000 1.862280 0.000000 
#    z -0.013670 0.000000 1.865890 
# 
# From -- ./inp_files/136011.got.cif
#   From: 2010.06.25/outbox.cif.g09.slc.cpg/sg12_69_cif.got.tgz:136011.got - 2010.06.28 00:19:55.
