data_PCOD8109470
_publ_section_title
;
Structure prediction by ZEFSAII (Michael W. Deem and Ramdas Pophale) SiO2 
 PCOD8109470
Probable space group: C 2/M
;
_chemical_formula_sum "Si O2"
_cell_formula_units_Z 56
_cell_length_a 30.293973
_cell_length_b 8.699237
_cell_length_c 11.803254
_cell_angle_alpha 90.000000
_cell_angle_beta 60.996957
_cell_angle_gamma 90.000000
_cell_volume 2720.480532
_symmetry_space_group_name_H-M "C 2/M"
_symmetry_group_IT_number 12
_symmetry_cell_setting 'monoclinic'
loop_
_space_group_symop_operation_xyz
x,y,z
-x,y,-z
-x,-y,-z
x,-y,z
1/2+x,1/2+y,z
1/2-x,1/2+y,-z
1/2-x,1/2-y,-z
1/2+x,1/2-y,z
loop_
_atom_site_type_symbol
_atom_site_label
_atom_site_fract_x
_atom_site_fract_y
_atom_site_fract_z
Si Si1 0.144654 0.826896 0.467055
Si Si2 0.245867 0.679938 0.380248
Si Si3 0.503664 0.828079 0.128677
Si Si4 0.903796 0.173756 0.240225
Si Si5 0.942957 0.817470 0.586399
Si Si6 0.838650 0.319762 0.136079
Si Si7 0.596549 0.319962 0.123141
O O1 0.193423 0.722546 0.383206
O O2 0.138086 0.827965 0.610308
O O3 0.094577 0.761550 0.466831
O O4 0.155337 0.000000 0.409830
O O5 0.250418 0.500000 0.389427
O O6 0.250000 0.750000 0.500000
O O7 0.289025 0.735568 0.241440
O O8 0.453126 0.747083 0.236870
O O9 0.549300 0.717976 0.103133
O O10 0.509979 0.000000 0.172218
O O11 0.500000 0.836832 0.000000
O O12 0.885202 0.279289 0.160511
O O13 0.914066 0.000000 0.183909
O O14 0.917194 0.758668 0.734582
O O15 0.000000 0.748712 0.500000
O O16 0.947756 0.000000 0.581309
O O17 0.829032 0.500000 0.147819
O O18 0.853899 0.264362 0.990242
O O19 0.607553 0.500000 0.109465
#
# Coordination Sequence:
#
# PCOD8109470 Si02
#       7
#     8   8   8   8   8   8   8
#     4  10  21  39  64  93 125 160 206 259 314 368
#     4  12  24  40  63  93 127 164 209 256 313 373
#     4  11  22  34  51  80 120 160 199 246 307 368
#     4  11  21  34  58  88 119 157 202 249 307 374
#     4   9  19  39  66  95 125 163 209 258 307 368
#     4  12  24  39  59  87 125 161 200 252 314 370
#     4  11  22  38  62  89 121 162 210 258 311 374
#
# _framework density 20.584599000000001
#
# number of rings (size 3 to 8) (size 9 to 14) (size 15 to 20)
#    0.000    1.143    2.857    4.714    0.000    3.429 
#    0.000    2.143    0.000    3.000    0.000    0.000 
#    0.000    0.000    0.000    0.000    0.000    0.000 
#
# Total GULP energy -347189.786183 kJ/mol
# GULP energy per Si atom -12399.635221 kJ/mol
# Density = 2.053775 g / cm^3
# Si number density = 20.584599 Si / 1000 Ang^3
#
#
#
# Elastic Constant Matrix: (Units=GPa)
#
#
# Indices 1 2 3 4 5 6 
#
# 1 95.5574 29.8762 44.8101 0.0000 -15.4796 0.0000
# 2 29.8762 110.4530 38.9154 0.0000 -8.1971 0.0000
# 3 44.8101 38.9154 131.2861 0.0000 -14.4676 0.0000
# 4 0.0000 0.0000 0.0000 26.2199 0.0000 -10.0897
# 5 -15.4796 -8.1971 -14.4676 0.0000 35.3139 0.0000
# 6 0.0000 0.0000 0.0000 -10.0897 0.0000 24.2238
#
#
#
# Elastic Compliance Matrix: (Units=1/GPa)
#
#
# Indices 1 2 3 4 5 6 
#
# 1 0.013411 -0.002094 -0.003521 0.000000 0.003950 0.000000
# 2 -0.002094 0.010483 -0.002331 0.000000 0.000561 0.000000
# 3 -0.003521 -0.002331 0.009719 0.000000 0.001897 0.000000
# 4 0.000000 0.000000 0.000000 0.045419 0.000000 0.018918
# 5 0.003950 0.000561 0.001897 0.000000 0.030956 0.000000
# 6 0.000000 0.000000 0.000000 0.018918 0.000000 0.049161
#
#
# Mechanical properties :
#
#
# Convention : Reuss Voigt Hill
#
# Bulk Modulus (GPa) = 56.43221 62.72219 59.57720
# Shear Modulus (GPa) = 27.63240 32.06452 29.84846
#
# Velocity S-wave (km/s) = 3.66783 3.95105 3.81207
# Velocity P-wave (km/s) = 6.73881 7.16596 6.95566
#
# Compressibility (1/GPa) = 0.01772038
#
# Stress axis : x y z
#
# Youngs Moduli (GPa) = 74.56763 95.39473 102.89290
#
# Poissons Ratio (x) = 0.19972 0.36233
# Poissons Ratio (y) = 0.15611 0.23983
# Poissons Ratio (z) = 0.26258 0.22236
#
# Static dielectric constant tensor:
#      x y z
#    x 3.731320 0.000000 -0.150030 
#    y 0.000000 3.750010 0.000000 
#    z -0.150030 0.000000 3.945810 
# 
# 
# High freq. dielectric constant tensor:
#      x y z
#    x 1.791360 0.000000 -0.017240 
#    y 0.000000 1.794970 0.000000 
#    z -0.017240 0.000000 1.809670 
# 
# From -- ./inp_files/187155.got.cif
#   From: 2010.06.25/outbox.cif.g09.slc.cpg/sg12_94_cif.got.tgz:187155.got - 2010.06.28 00:19:55.
