data_PCOD8109356
_publ_section_title
;
Structure prediction by ZEFSAII (Michael W. Deem and Ramdas Pophale) SiO2 
 PCOD8109356
Probable space group: C 2/M
;
_chemical_formula_sum "Si O2"
_cell_formula_units_Z 48
_cell_length_a 14.174038
_cell_length_b 14.957820
_cell_length_c 11.562383
_cell_angle_alpha 90.000000
_cell_angle_beta 113.109652
_cell_angle_gamma 90.000000
_cell_volume 2254.662745
_symmetry_space_group_name_H-M "C 2/M"
_symmetry_group_IT_number 12
_symmetry_cell_setting 'monoclinic'
loop_
_space_group_symop_operation_xyz
x,y,z
-x,y,-z
-x,-y,-z
x,-y,z
1/2+x,1/2+y,z
1/2-x,1/2+y,-z
1/2-x,1/2-y,-z
1/2+x,1/2-y,z
loop_
_atom_site_type_symbol
_atom_site_label
_atom_site_fract_x
_atom_site_fract_y
_atom_site_fract_z
Si Si1 0.310674 0.097443 0.699901
Si Si2 0.840442 0.250150 0.882401
Si Si3 0.056936 0.101728 0.220350
Si Si4 0.395366 0.252115 0.163324
Si Si5 0.043621 0.340009 0.405400
Si Si6 0.397160 0.644024 0.511695
O O1 0.366273 0.170541 0.806550
O O2 0.372742 0.094704 0.609408
O O3 0.193255 0.120202 0.618948
O O4 0.316893 0.000000 0.761990
O O5 0.879737 0.156402 0.847006
O O6 0.719459 0.251227 0.845452
O O7 0.899623 0.272179 0.029525
O O8 0.119948 0.098824 0.371131
O O9 0.948336 0.149871 0.198248
O O10 0.039396 0.000000 0.167472
O O11 0.455332 0.180077 0.268776
O O12 0.101132 0.250355 0.473465
O O13 0.000000 0.387248 0.500000
O O14 0.500000 0.608114 0.500000
#
# Coordination Sequence:
#
# PCOD8109356 Si02
#       6
#     8   8   8   8   8   8
#     4  12  24  38  63  94 127 171 213 256 314 389
#     4  11  23  42  65  91 133 168 217 262 323 385
#     4  11  23  40  69 100 129 167 219 276 329 384
#     4  10  23  42  65  91 129 173 206 264 328 382
#     4  10  21  39  65  89 122 164 209 256 321 377
#     4  10  21  39  63  92 129 163 208 270 328 378
#
# _framework density 21.289214999999999
#
# number of rings (size 3 to 8) (size 9 to 14) (size 15 to 20)
#    0.000    1.333    3.333    4.500    2.333    5.000 
#    0.000    5.000    0.000    0.000    0.000    0.000 
#    0.000    0.000    0.000    0.000    0.000    0.000 
#
# Total GULP energy -297553.627800 kJ/mol
# GULP energy per Si atom -12398.067825 kJ/mol
# Density = 2.124076 g / cm^3
# Si number density = 21.289215 Si / 1000 Ang^3
#
#
#
# Elastic Constant Matrix: (Units=GPa)
#
#
# Indices 1 2 3 4 5 6 
#
# 1 83.1917 27.3195 40.2060 0.0000 -16.2304 0.0000
# 2 27.3195 82.9233 32.7407 0.0000 4.6865 0.0000
# 3 40.2060 32.7407 121.0257 0.0000 -11.7396 0.0000
# 4 0.0000 0.0000 0.0000 5.2347 0.0000 2.5042
# 5 -16.2304 4.6865 -11.7396 0.0000 34.5581 0.0000
# 6 0.0000 0.0000 0.0000 2.5042 0.0000 6.0305
#
#
#
# Elastic Compliance Matrix: (Units=1/GPa)
#
#
# Indices 1 2 3 4 5 6 
#
# 1 0.016638 -0.004457 -0.003624 0.000000 0.007187 0.000000
# 2 -0.004457 0.015041 -0.003091 0.000000 -0.005183 0.000000
# 3 -0.003624 -0.003091 0.010525 0.000000 0.002293 0.000000
# 4 0.000000 0.000000 0.000000 0.238390 0.000000 -0.098992
# 5 0.007187 -0.005183 0.002293 0.000000 0.033794 0.000000
# 6 0.000000 0.000000 0.000000 -0.098992 0.000000 0.206930
#
#
# Mechanical properties :
#
#
# Convention : Reuss Voigt Hill
#
# Bulk Modulus (GPa) = 50.35316 54.18591 52.26953
# Shear Modulus (GPa) = 9.08624 21.62297 15.35461
#
# Velocity S-wave (km/s) = 2.06816 3.19043 2.68850
# Velocity P-wave (km/s) = 5.42276 6.25134 5.85174
#
# Compressibility (1/GPa) = 0.01985973
#
# Stress axis : x y z
#
# Youngs Moduli (GPa) = 60.10411 66.48498 95.00800
#
# Poissons Ratio (x) = 0.29629 0.34435
# Poissons Ratio (y) = 0.26786 0.29369
# Poissons Ratio (z) = 0.21785 0.20552
#
# Static dielectric constant tensor:
#      x y z
#    x 3.983000 0.000000 -0.216520 
#    y 0.000000 3.544090 0.000000 
#    z -0.216520 0.000000 4.129400 
# 
# 
# High freq. dielectric constant tensor:
#      x y z
#    x 1.847480 0.000000 -0.009340 
#    y 0.000000 1.803500 0.000000 
#    z -0.009340 0.000000 1.843780 
# 
# From -- ./inp_files/143905.got.cif
#   From: 2010.06.25/outbox.cif.g09.slc.cpg/sg12_72_cif.got.tgz:143905.got - 2010.06.28 00:19:55.
