data_PCOD8109058
_publ_section_title
;
Structure prediction by ZEFSAII (Michael W. Deem and Ramdas Pophale) SiO2 
 PCOD8109058
Probable space group: C 2/M
;
_chemical_formula_sum "Si O2"
_cell_formula_units_Z 64
_cell_length_a 19.938005
_cell_length_b 17.564095
_cell_length_c 17.192676
_cell_angle_alpha 90.000000
_cell_angle_beta 32.316463
_cell_angle_gamma 90.000000
_cell_volume 3218.666734
_symmetry_space_group_name_H-M "C 2/M"
_symmetry_group_IT_number 12
_symmetry_cell_setting 'monoclinic'
loop_
_space_group_symop_operation_xyz
x,y,z
-x,y,-z
-x,-y,-z
x,-y,z
1/2+x,1/2+y,z
1/2-x,1/2+y,-z
1/2-x,1/2-y,-z
1/2+x,1/2-y,z
loop_
_atom_site_type_symbol
_atom_site_label
_atom_site_fract_x
_atom_site_fract_y
_atom_site_fract_z
Si Si1 0.158160 0.415246 0.260325
Si Si2 0.234811 0.261495 0.424488
Si Si3 0.602543 0.830786 0.839185
Si Si4 0.288988 0.586692 0.768549
Si Si5 0.139428 0.413861 0.454197
Si Si6 0.506162 0.703381 0.407734
Si Si7 0.927267 0.585553 0.900105
Si Si8 0.839384 0.302918 0.862204
O O1 0.199983 0.500000 0.198030
O O2 0.191392 0.397259 0.316663
O O3 0.232731 0.360960 0.126069
O O4 0.009280 0.404470 0.395075
O O5 0.250000 0.250000 0.500000
O O6 0.360032 0.238937 0.254182
O O7 0.203302 0.350584 0.445399
O O8 0.132444 0.201281 0.492140
O O9 0.722567 0.865243 0.765748
O O10 0.538136 0.897999 0.852366
O O11 0.500000 0.797888 0.000000
O O12 0.305277 0.500000 0.725181
O O13 0.427589 0.620998 0.648664
O O14 0.208034 0.591641 0.926361
O O15 0.177316 0.500000 0.442617
O O16 0.500000 0.742184 0.500000
O O17 0.583347 0.752015 0.271669
O O18 0.947356 0.500000 0.847537
O O19 0.930649 0.647007 0.827522
O O20 0.750000 0.250000 0.000000
#
# Coordination Sequence:
#
# PCOD8109058 Si02
#       8
#     8   8   8   8   8   8   8   8
#     4   9  18  33  58  90 116 152 201 251 300 360
#     4  12  24  40  60  93 129 157 202 260 314 367
#     4  10  22  39  62  88 119 163 210 253 303 368
#     4  10  21  40  63  89 120 163 212 254 303 370
#     4   9  19  37  62  86 117 156 198 247 305 366
#     4  12  23  41  62  87 122 165 206 254 303 369
#     4  10  21  39  61  89 126 160 201 260 315 363
#     4  12  22  34  57  90 124 160 199 249 314 369
#
# _framework density 19.884008999999999
#
# number of rings (size 3 to 8) (size 9 to 14) (size 15 to 20)
#    0.000    1.500    3.750    3.000    0.000    1.750 
#    0.000    1.250    0.000    0.375    0.000    0.000 
#    0.000    0.000    0.000    0.000    0.000    0.000 
#
# Total GULP energy -396601.492328 kJ/mol
# GULP energy per Si atom -12393.796635 kJ/mol
# Density = 1.983875 g / cm^3
# Si number density = 19.884009 Si / 1000 Ang^3
#
#
#
# Elastic Constant Matrix: (Units=GPa)
#
#
# Indices 1 2 3 4 5 6 
#
# 1 105.0584 51.2768 43.7018 -0.0007 16.1563 0.0004
# 2 51.2768 130.3728 56.7433 -0.0004 12.8335 0.0001
# 3 43.7018 56.7433 97.0627 -0.0001 23.7126 0.0001
# 4 -0.0007 -0.0004 -0.0001 57.0512 0.0003 2.8939
# 5 16.1563 12.8335 23.7126 0.0003 33.5706 -0.0002
# 6 0.0004 0.0001 0.0001 2.8939 -0.0002 33.7511
#
#
#
# Elastic Compliance Matrix: (Units=1/GPa)
#
#
# Indices 1 2 3 4 5 6 
#
# 1 0.012923 -0.003449 -0.003148 0.000000 -0.002677 0.000000
# 2 -0.003449 0.011213 -0.005270 0.000000 0.001096 0.000000
# 3 -0.003148 -0.005270 0.016845 0.000000 -0.008369 0.000000
# 4 0.000000 0.000000 0.000000 0.017605 0.000000 -0.001509
# 5 -0.002677 0.001096 -0.008369 0.000000 0.036569 0.000000
# 6 0.000000 0.000000 0.000000 -0.001509 0.000000 0.029758
#
#
# Mechanical properties :
#
#
# Convention : Reuss Voigt Hill
#
# Bulk Modulus (GPa) = 57.98041 70.65973 64.32007
# Shear Modulus (GPa) = 32.38428 36.92606 34.65517
#
# Velocity S-wave (km/s) = 4.04004 4.31405 4.17929
# Velocity P-wave (km/s) = 7.14039 7.77353 7.46368
#
# Compressibility (1/GPa) = 0.01724720
#
# Stress axis : x y z
#
# Youngs Moduli (GPa) = 77.38008 89.18559 59.36364
#
# Poissons Ratio (x) = 0.30761 0.18689
# Poissons Ratio (y) = 0.26689 0.31283
# Poissons Ratio (z) = 0.24361 0.46998
#
# Static dielectric constant tensor:
#      x y z
#    x 3.603610 0.000000 0.213050 
#    y 0.000000 3.920500 0.000010 
#    z 0.213050 0.000010 1.467330 
# 
# 
# High freq. dielectric constant tensor:
#      x y z
#    x 1.758340 0.000000 0.031200 
#    y 0.000000 1.779310 0.000000 
#    z 0.031200 0.000000 1.770740 
# 
# From -- ./inp_files/226846.got.cif
#   From: 2010.06.25/outbox.cif.g09.slc.cpg/sg12_114_cif.got.tgz:226846.got - 2010.06.28 00:19:55.
