data_PCOD8109800
_publ_section_title
;
Structure prediction by ZEFSAII (Michael W. Deem and Ramdas Pophale) SiO2 
 PCOD8109800
Probable space group: C 2/M
;
_chemical_formula_sum "Si O2"
_cell_formula_units_Z 48
_cell_length_a 27.195525
_cell_length_b 9.008459
_cell_length_c 16.615912
_cell_angle_alpha 90.000000
_cell_angle_beta 36.285454
_cell_angle_gamma 90.000000
_cell_volume 2409.091943
_symmetry_space_group_name_H-M "C 2/M"
_symmetry_group_IT_number 12
_symmetry_cell_setting 'monoclinic'
loop_
_space_group_symop_operation_xyz
x,y,z
-x,y,-z
-x,-y,-z
x,-y,z
1/2+x,1/2+y,z
1/2-x,1/2+y,-z
1/2-x,1/2-y,-z
1/2+x,1/2-y,z
loop_
_atom_site_type_symbol
_atom_site_label
_atom_site_fract_x
_atom_site_fract_y
_atom_site_fract_z
Si Si1 0.608212 0.330265 0.013119
Si Si2 0.854623 0.169474 0.218229
Si Si3 0.058068 0.327242 0.753576
Si Si4 0.666638 0.827641 0.456721
Si Si5 0.909784 0.173695 0.594354
Si Si6 0.743866 0.325494 0.093987
O O1 0.616446 0.500000 0.031721
O O2 0.525392 0.260098 0.159894
O O3 0.601629 0.320991 0.925745
O O4 0.687493 0.239343 0.937204
O O5 0.905961 0.273312 0.209441
O O6 0.760848 0.231038 0.336205
O O7 0.855529 0.000000 0.249274
O O8 0.036483 0.500000 0.788495
O O9 0.125390 0.293578 0.596566
O O10 0.616059 0.746116 0.454817
O O11 0.666322 0.000000 0.435047
O O12 0.845771 0.212171 0.750146
O O13 0.000000 0.236342 0.500000
O O14 0.913751 0.000000 0.573052
O O15 0.757967 0.500000 0.065944
O O16 0.750000 0.250000 0.000000
#
# Coordination Sequence:
#
# PCOD8109800 Si02
#       6
#     8   8   8   8   8   8
#     4  11  23  41  64  88 122 164 206 252 304 359
#     4  10  21  40  63  87 119 162 209 250 302 362
#     4  11  24  38  59  93 127 160 204 253 302 359
#     4  10  22  41  62  89 123 161 203 249 303 361
#     4  10  23  42  64  92 122 156 200 248 301 360
#     4  11  24  42  65  93 125 159 201 249 303 362
#
# _framework density 19.924517999999999
#
# number of rings (size 3 to 8) (size 9 to 14) (size 15 to 20)
#    0.000    1.500    1.667    2.500    2.333    6.333 
#    0.000    0.000    0.000    0.000    0.000    0.000 
#    0.000    0.000    0.000    0.000    0.000    0.000 
#
# Total GULP energy -297754.004844 kJ/mol
# GULP energy per Si atom -12406.416869 kJ/mol
# Density = 1.987917 g / cm^3
# Si number density = 19.924518 Si / 1000 Ang^3
#
#
#
# Elastic Constant Matrix: (Units=GPa)
#
#
# Indices 1 2 3 4 5 6 
#
# 1 93.1303 45.0503 28.5148 0.0007 -6.2314 0.0020
# 2 45.0503 63.2132 31.0660 0.0071 -1.3343 -0.0046
# 3 28.5148 31.0660 81.1722 -0.0014 -16.6655 -0.0005
# 4 0.0007 0.0071 -0.0014 29.7371 0.0010 -2.8151
# 5 -6.2314 -1.3343 -16.6655 0.0010 38.8876 -0.0011
# 6 0.0020 -0.0046 -0.0005 -2.8151 -0.0011 39.1984
#
#
#
# Elastic Compliance Matrix: (Units=1/GPa)
#
#
# Indices 1 2 3 4 5 6 
#
# 1 0.016664 -0.011259 -0.001180 0.000002 0.001778 -0.000002
# 2 -0.011259 0.027367 -0.007342 -0.000006 -0.004012 0.000003
# 3 -0.001180 -0.007342 0.016944 0.000002 0.006821 0.000000
# 4 0.000002 -0.000006 0.000002 0.033858 0.000000 0.002432
# 5 0.001778 -0.004012 0.006821 0.000000 0.028785 0.000000
# 6 -0.000002 0.000003 0.000000 0.002432 0.000000 0.025686
#
#
# Mechanical properties :
#
#
# Convention : Reuss Voigt Hill
#
# Bulk Modulus (GPa) = 46.69957 49.64198 48.17077
# Shear Modulus (GPa) = 25.50960 30.42359 27.96660
#
# Velocity S-wave (km/s) = 3.58203 3.91185 3.75057
# Velocity P-wave (km/s) = 6.37158 6.73591 6.55628
#
# Compressibility (1/GPa) = 0.02141347
#
# Stress axis : x y z
#
# Youngs Moduli (GPa) = 60.00940 36.54044 59.01655
#
# Poissons Ratio (x) = 0.41139 0.06963
# Poissons Ratio (y) = 0.67562 0.43333
# Poissons Ratio (z) = 0.07081 0.26830
#
# Static dielectric constant tensor:
#      x y z
#    x 3.611950 -0.000010 -0.168820 
#    y -0.000010 3.685050 0.000020 
#    z -0.168820 0.000020 3.917480 
# 
# 
# High freq. dielectric constant tensor:
#      x y z
#    x 1.781670 0.000000 -0.005320 
#    y 0.000000 1.778810 0.000000 
#    z -0.005320 0.000000 1.793880 
# 
# From -- ./inp_files/244684.got.cif
#   From: 2010.06.25/outbox.cif.g09.slc.cpg/sg12_123_cif.got.tgz:244684.got - 2010.06.28 00:19:55.
