data_PCOD8109944
_publ_section_title
;
Structure prediction by ZEFSAII (Michael W. Deem and Ramdas Pophale) SiO2 
 PCOD8109944
Probable space group: C 2/M
;
_chemical_formula_sum "Si O2"
_cell_formula_units_Z 64
_cell_length_a 18.448116
_cell_length_b 8.885785
_cell_length_c 29.909368
_cell_angle_alpha 90.000000
_cell_angle_beta 140.901839
_cell_angle_gamma 90.000000
_cell_volume 3092.032690
_symmetry_space_group_name_H-M "C 2/M"
_symmetry_group_IT_number 12
_symmetry_cell_setting 'monoclinic'
loop_
_space_group_symop_operation_xyz
x,y,z
-x,y,-z
-x,-y,-z
x,-y,z
1/2+x,1/2+y,z
1/2-x,1/2+y,-z
1/2-x,1/2-y,-z
1/2+x,1/2-y,z
loop_
_atom_site_type_symbol
_atom_site_label
_atom_site_fract_x
_atom_site_fract_y
_atom_site_fract_z
Si Si1 0.373948 0.822854 0.563308
Si Si2 0.440044 0.829605 0.925746
Si Si3 0.032927 0.324212 0.295101
Si Si4 0.033710 0.176069 0.565792
Si Si5 0.697410 0.329573 0.845690
Si Si6 0.462232 0.323713 0.845669
Si Si7 0.701201 0.175371 0.295643
Si Si8 0.187106 0.323062 0.928486
O O1 0.250000 0.750000 0.500000
O O2 0.424083 0.778119 0.635446
O O3 0.458633 0.765337 0.565514
O O4 0.359992 0.000000 0.551868
O O5 0.301953 0.823947 0.860903
O O6 0.479298 0.718230 0.905543
O O7 0.481644 0.000000 0.934859
O O8 0.500000 0.774367 0.000000
O O9 0.004779 0.500000 0.277932
O O10 0.131231 0.278116 0.306671
O O11 0.915750 0.235425 0.231154
O O12 0.166643 0.217733 0.634994
O O13 0.000000 0.227266 0.500000
O O14 0.009776 0.000000 0.561325
O O15 0.673041 0.500000 0.849668
O O16 0.743734 0.231963 0.909664
O O17 0.480079 0.500000 0.848514
O O18 0.340866 0.271162 0.767287
O O19 0.556236 0.233310 0.861986
O O20 0.684981 0.000000 0.277211
O O21 0.194021 0.500000 0.936471
O O22 0.250000 0.250000 0.000000
#
# Coordination Sequence:
#
# PCOD8109944 Si02
#       8
#     8   8   8   8   8   8   8   8
#     4  11  24  42  66  98 133 171 215 261 317 374
#     4  10  23  43  64  87 122 166 210 263 324 384
#     4  10  22  41  64  90 126 172 212 259 319 378
#     4  10  22  42  68  97 130 171 216 261 315 378
#     4  11  23  39  63  95 125 163 215 264 319 381
#     4  12  25  40  62  93 127 166 215 264 317 378
#     4  10  21  40  65  90 124 171 213 259 319 378
#     4  12  24  41  65  92 126 165 211 264 321 379
#
# _framework density 20.698357999999999
#
# number of rings (size 3 to 8) (size 9 to 14) (size 15 to 20)
#    0.000    1.250    1.250    4.500    1.750    6.000 
#    0.000    1.250    0.000    0.000    0.000    0.000 
#    0.000    0.000    0.000    0.000    0.000    0.000 
#
# Total GULP energy -396955.418680 kJ/mol
# GULP energy per Si atom -12404.856834 kJ/mol
# Density = 2.065125 g / cm^3
# Si number density = 20.698358 Si / 1000 Ang^3
#
#
#
# Elastic Constant Matrix: (Units=GPa)
#
#
# Indices 1 2 3 4 5 6 
#
# 1 90.3024 32.2655 34.5390 0.0000 -4.9345 0.0000
# 2 32.2655 106.8917 48.4005 0.0000 -6.5940 -0.0001
# 3 34.5390 48.4005 117.6265 0.0000 -5.2291 0.0000
# 4 0.0000 0.0000 0.0000 34.6699 0.0000 -1.3614
# 5 -4.9345 -6.5940 -5.2291 0.0000 39.5202 0.0000
# 6 0.0000 -0.0001 0.0000 -1.3614 0.0000 35.0636
#
#
#
# Elastic Compliance Matrix: (Units=1/GPa)
#
#
# Indices 1 2 3 4 5 6 
#
# 1 0.013114 -0.002680 -0.002711 0.000000 0.000832 0.000000
# 2 -0.002680 0.012112 -0.004146 0.000000 0.001138 0.000000
# 3 -0.002711 -0.004146 0.011023 0.000000 0.000428 0.000000
# 4 0.000000 0.000000 0.000000 0.028888 0.000000 0.001122
# 5 0.000832 0.001138 0.000428 0.000000 0.025654 0.000000
# 6 0.000000 0.000000 0.000000 0.001122 0.000000 0.028563
#
#
# Mechanical properties :
#
#
# Convention : Reuss Voigt Hill
#
# Bulk Modulus (GPa) = 58.22668 60.58119 59.40393
# Shear Modulus (GPa) = 34.68580 35.15843 34.92212
#
# Velocity S-wave (km/s) = 4.09806 4.12589 4.11200
# Velocity P-wave (km/s) = 7.11226 7.21314 7.16288
#
# Compressibility (1/GPa) = 0.01717426
#
# Stress axis : x y z
#
# Youngs Moduli (GPa) = 76.25615 82.56471 90.72197
#
# Poissons Ratio (x) = 0.22123 0.24596
# Poissons Ratio (y) = 0.20433 0.37616
# Poissons Ratio (z) = 0.20674 0.34234
#
# Static dielectric constant tensor:
#      x y z
#    x 3.955260 0.000000 0.074560 
#    y 0.000000 3.703220 0.000000 
#    z 0.074560 0.000000 3.882100 
# 
# 
# High freq. dielectric constant tensor:
#      x y z
#    x 1.817620 0.000000 0.000710 
#    y 0.000000 1.806290 0.000000 
#    z 0.000710 0.000000 1.825520 
# 
# From -- ./inp_files/378432.got.cif
#   From: 2010.06.25/outbox.cif.g09.slc.cpg/sg12_190_cif.got.tgz:378432.got - 2010.06.28 00:19:55.
