data_PCOD8109122
_publ_section_title
;
Structure prediction by ZEFSAII (Michael W. Deem and Ramdas Pophale) SiO2 
 PCOD8109122
Probable space group: C 2/M
;
_chemical_formula_sum "Si O2"
_cell_formula_units_Z 64
_cell_length_a 14.737543
_cell_length_b 8.597602
_cell_length_c 26.000832
_cell_angle_alpha 90.000000
_cell_angle_beta 90.069014
_cell_angle_gamma 90.000000
_cell_volume 3294.498789
_symmetry_space_group_name_H-M "C 2/M"
_symmetry_group_IT_number 12
_symmetry_cell_setting 'monoclinic'
loop_
_space_group_symop_operation_xyz
x,y,z
-x,y,-z
-x,-y,-z
x,-y,z
1/2+x,1/2+y,z
1/2-x,1/2+y,-z
1/2-x,1/2-y,-z
1/2+x,1/2-y,z
loop_
_atom_site_type_symbol
_atom_site_label
_atom_site_fract_x
_atom_site_fract_y
_atom_site_fract_z
Si Si1 0.095810 0.318664 0.366247
Si Si2 0.350865 0.317884 0.000244
Si Si3 0.247524 0.317800 0.443712
Si Si4 0.094674 0.182648 0.630972
Si Si5 0.010859 0.680031 0.808061
Si Si6 0.833533 0.819882 0.256430
Si Si7 0.499575 0.316163 0.918942
Si Si8 0.143437 0.819976 0.258386
O O1 0.110652 0.500000 0.353350
O O2 0.155999 0.266234 0.414797
O O3 0.125518 0.218497 0.317579
O O4 0.993299 0.283540 0.381542
O O5 0.339237 0.500000 0.999489
O O6 0.409740 0.266388 0.950728
O O7 0.250000 0.250000 0.000000
O O8 0.408398 0.268970 0.050690
O O9 0.252416 0.500000 0.448909
O O10 0.250000 0.250000 0.500000
O O11 0.332205 0.259042 0.410211
O O12 0.128532 0.224994 0.687774
O O13 0.073211 0.000000 0.626429
O O14 0.035609 0.500000 0.800872
O O15 0.091573 0.785349 0.786248
O O16 0.996690 0.717960 0.867373
O O17 0.918961 0.715647 0.777804
O O18 0.746759 0.715336 0.243863
O O19 0.805559 0.000000 0.254533
O O20 0.498322 0.500000 0.907651
O O21 0.121234 0.000000 0.248418
#
# Coordination Sequence:
#
# PCOD8109122 Si02
#       8
#     8   8   8   8   8   8   8   8
#     4  11  22  39  62  88 119 153 197 247 296 358
#     4   9  19  37  64  90 118 159 206 251 302 358
#     4  10  23  42  61  86 120 154 194 247 301 357
#     4  10  21  39  62  87 117 154 195 241 299 359
#     4  12  25  40  60  91 127 163 205 253 306 362
#     4  11  22  40  63  88 120 158 201 249 302 361
#     4   9  20  40  60  85 123 165 202 247 305 361
#     4  12  24  39  61  89 120 160 204 247 301 363
#
# _framework density 19.426323
#
# number of rings (size 3 to 8) (size 9 to 14) (size 15 to 20)
#    0.000    1.500    2.500    3.750    0.000    4.500 
#    0.000    6.250    0.000    0.000    0.000    0.000 
#    0.000    0.000    0.000    0.000    0.000    0.000 
#
# Total GULP energy -396911.487792 kJ/mol
# GULP energy per Si atom -12403.483994 kJ/mol
# Density = 1.938211 g / cm^3
# Si number density = 19.426323 Si / 1000 Ang^3
#
#
#
# Elastic Constant Matrix: (Units=GPa)
#
#
# Indices 1 2 3 4 5 6 
#
# 1 160.8286 25.9207 86.5235 0.0000 6.1330 0.0000
# 2 25.9207 52.8554 30.5818 0.0000 2.2969 0.0000
# 3 86.5235 30.5818 193.6435 0.0000 12.5715 0.0000
# 4 0.0000 0.0000 0.0000 32.1090 0.0000 -0.0475
# 5 6.1330 2.2969 12.5715 0.0000 30.6136 0.0000
# 6 0.0000 0.0000 0.0000 -0.0475 0.0000 36.7924
#
#
#
# Elastic Compliance Matrix: (Units=1/GPa)
#
#
# Indices 1 2 3 4 5 6 
#
# 1 0.008401 -0.002143 -0.003407 0.000000 -0.000123 0.000000
# 2 -0.002143 0.021370 -0.002405 0.000000 -0.000186 0.000000
# 3 -0.003407 -0.002405 0.007202 0.000000 -0.002095 0.000000
# 4 0.000000 0.000000 0.000000 0.031144 0.000000 0.000040
# 5 -0.000123 -0.000186 -0.002095 0.000000 0.033564 0.000000
# 6 0.000000 0.000000 0.000000 0.000040 0.000000 0.027180
#
#
# Mechanical properties :
#
#
# Convention : Reuss Voigt Hill
#
# Bulk Modulus (GPa) = 47.47812 77.04217 62.26014
# Shear Modulus (GPa) = 32.93950 37.52310 35.23130
#
# Velocity S-wave (km/s) = 4.12225 4.39972 4.26324
# Velocity P-wave (km/s) = 6.86661 8.09659 7.50684
#
# Compressibility (1/GPa) = 0.02106233
#
# Stress axis : x y z
#
# Youngs Moduli (GPa) = 119.03413 46.79384 138.84261
#
# Poissons Ratio (x) = 0.10029 0.47307
# Poissons Ratio (y) = 0.25511 0.33396
# Poissons Ratio (z) = 0.40558 0.11255
#
# Static dielectric constant tensor:
#      x y z
#    x 2.560430 0.000000 0.189610 
#    y 0.000000 4.087720 0.000000 
#    z 0.189610 0.000000 3.300550 
# 
# 
# High freq. dielectric constant tensor:
#      x y z
#    x 1.770410 0.000000 -0.000250 
#    y 0.000000 1.753650 0.000000 
#    z -0.000250 0.000000 1.755840 
# 
# From -- ./inp_files/338749.got.cif
#   From: 2010.06.25/outbox.cif.g09.slc.cpg/sg12_170_cif.got.tgz:338749.got - 2010.06.28 00:19:55.
