data_PCOD8109554
_publ_section_title
;
Structure prediction by ZEFSAII (Michael W. Deem and Ramdas Pophale) SiO2 
 PCOD8109554
Probable space group: C 2/M
;
_chemical_formula_sum "Si O2"
_cell_formula_units_Z 28
_cell_length_a 12.192188
_cell_length_b 13.097660
_cell_length_c 8.051793
_cell_angle_alpha 90.000000
_cell_angle_beta 110.283842
_cell_angle_gamma 90.000000
_cell_volume 1206.048192
_symmetry_space_group_name_H-M "C 2/M"
_symmetry_group_IT_number 12
_symmetry_cell_setting 'monoclinic'
loop_
_space_group_symop_operation_xyz
x,y,z
-x,y,-z
-x,-y,-z
x,-y,z
1/2+x,1/2+y,z
1/2-x,1/2+y,-z
1/2-x,1/2-y,-z
1/2+x,1/2-y,z
loop_
_atom_site_type_symbol
_atom_site_label
_atom_site_fract_x
_atom_site_fract_y
_atom_site_fract_z
Si Si1 0.500000 0.769138 0.500000
Si Si2 0.637313 0.381870 0.042632
Si Si3 0.041006 0.384716 0.197584
Si Si4 0.276228 0.699148 0.260021
O O1 0.477899 0.832444 0.319898
O O2 0.380019 0.705071 0.452161
O O3 0.671602 0.500000 0.093621
O O4 0.714338 0.309403 0.202152
O O5 0.500000 0.364594 0.000000
O O6 0.667707 0.351100 0.871973
O O7 0.997072 0.500000 0.178126
O O8 0.180688 0.377695 0.285823
O O9 0.000000 0.334026 0.000000
#
# Coordination Sequence:
#
# PCOD8109554 Si02
#       4
#     4   8   8   8
#     4  12  25  40  63  94 130 168 207 254 311 374
#     4  10  21  39  65  94 124 164 212 259 311 370
#     4  11  24  43  67  94 125 164 211 261 312 368
#     4  11  22  40  62  90 129 167 205 258 313 369
#
# _framework density 23.216318999999999
#
# number of rings (size 3 to 8) (size 9 to 14) (size 15 to 20)
#    0.000    1.143    0.000    8.143    0.000    4.571 
#    0.000    5.714    0.000    0.857    0.000    0.000 
#    0.000    0.000    0.000    0.000    0.000    0.000 
#
# Total GULP energy -173596.870963 kJ/mol
# GULP energy per Si atom -12399.776497 kJ/mol
# Density = 2.316348 g / cm^3
# Si number density = 23.216319 Si / 1000 Ang^3
#
#
#
# Elastic Constant Matrix: (Units=GPa)
#
#
# Indices 1 2 3 4 5 6 
#
# 1 124.0056 13.0020 16.9773 0.0000 17.0162 0.0000
# 2 13.0020 76.4911 -0.4126 0.0000 5.7573 0.0000
# 3 16.9773 -0.4126 92.1619 0.0000 8.8474 0.0000
# 4 0.0000 0.0000 0.0000 -131.3053 0.0000 -112.1531
# 5 17.0162 5.7573 8.8474 0.0000 57.0778 0.0000
# 6 0.0000 0.0000 0.0000 -112.1531 0.0000 -41.0760
#
#
#
# Elastic Compliance Matrix: (Units=1/GPa)
#
#
# Indices 1 2 3 4 5 6 
#
# 1 0.008701 -0.001318 -0.001393 0.000000 -0.002245 0.000000
# 2 -0.001318 0.013376 0.000400 0.000000 -0.001018 0.000000
# 3 -0.001393 0.000400 0.011240 0.000000 -0.001367 0.000000
# 4 0.000000 0.000000 0.000000 0.005717 0.000000 -0.015610
# 5 -0.002245 -0.001018 -0.001367 0.000000 0.018504 0.000000
# 6 0.000000 0.000000 0.000000 -0.015610 0.000000 0.018275
#
#
# Mechanical properties :
#
#
# Convention : Reuss Voigt Hill
#
# Bulk Modulus (GPa) = 34.84724 39.08800 36.96762
# Shear Modulus (GPa) = 55.55542 -5.52125 25.01708
#
# Velocity S-wave (km/s) = 4.89708 -1.54381 3.28619
# Velocity P-wave (km/s) = 6.85694 3.70070 5.50966
#
# Compressibility (1/GPa) = 0.02869667
#
# Stress axis : x y z
#
# Youngs Moduli (GPa) = 114.92768 74.75969 88.96666
#
# Poissons Ratio (x) = 0.09850 0.12395
# Poissons Ratio (y) = 0.15142 -0.03562
# Poissons Ratio (z) = 0.16012 -0.02993
#
# Static dielectric constant tensor:
#      x y z
#    x 4.414290 0.000000 0.043050 
#    y 0.000000 4.164760 0.000000 
#    z 0.043050 0.000000 3.961300 
# 
# 
# High freq. dielectric constant tensor:
#      x y z
#    x 1.946180 0.000000 0.002430 
#    y 0.000000 1.909700 0.000000 
#    z 0.002430 0.000000 1.900460 
# 
# From -- ./inp_files/44459.got.cif
#   From: 2010.06.25/outbox.cif.g09.slc.cpg/sg12_23_cif.got.tgz:44459.got - 2010.06.28 00:19:55.
