data_PCOD8109984
_publ_section_title
;
Structure prediction by ZEFSAII (Michael W. Deem and Ramdas Pophale) SiO2 
 PCOD8109984
Probable space group: C 2/M
;
_chemical_formula_sum "Si O2"
_cell_formula_units_Z 56
_cell_length_a 11.493261
_cell_length_b 31.148388
_cell_length_c 8.189671
_cell_angle_alpha 90.000000
_cell_angle_beta 62.344364
_cell_angle_gamma 90.000000
_cell_volume 2596.917021
_symmetry_space_group_name_H-M "C 2/M"
_symmetry_group_IT_number 12
_symmetry_cell_setting 'monoclinic'
loop_
_space_group_symop_operation_xyz
x,y,z
-x,y,-z
-x,-y,-z
x,-y,z
1/2+x,1/2+y,z
1/2-x,1/2+y,-z
1/2-x,1/2-y,-z
1/2+x,1/2-y,z
loop_
_atom_site_type_symbol
_atom_site_label
_atom_site_fract_x
_atom_site_fract_y
_atom_site_fract_z
Si Si1 0.132104 0.546095 0.320976
Si Si2 0.796148 0.308790 0.967924
Si Si3 0.364658 0.581332 0.380446
Si Si4 0.890423 0.168760 0.194535
Si Si5 0.877483 0.402193 0.970355
Si Si6 0.639649 0.550115 0.259302
Si Si7 0.553374 0.736101 0.279230
O O1 0.163916 0.500000 0.211597
O O2 0.254189 0.555150 0.359240
O O3 0.095518 0.587375 0.235004
O O4 0.000000 0.537975 0.500000
O O5 0.732513 0.316514 0.832181
O O6 0.842065 0.352753 0.021670
O O7 0.924336 0.280084 0.838785
O O8 0.695383 0.287983 0.166432
O O9 0.353284 0.631519 0.344447
O O10 0.508193 0.562177 0.244716
O O11 0.345934 0.577685 0.585870
O O12 0.940254 0.209759 0.262373
O O13 0.000000 0.150435 0.000000
O O14 0.760085 0.435667 0.072194
O O15 0.000000 0.415410 0.000000
O O16 0.641021 0.500000 0.301821
O O17 0.500000 0.743160 0.500000
#
# Coordination Sequence:
#
# PCOD8109984 Si02
#       7
#     8   8   8   8   8   8   8
#     4  11  24  43  66  95 133 181 229 276 340 406
#     4  10  23  45  63  95 136 169 224 275 339 415
#     4  11  22  40  69  98 135 178 223 280 336 395
#     4  10  21  40  65  93 134 170 216 275 334 401
#     4  12  26  44  66  94 134 183 223 283 339 405
#     4  11  24  41  65 101 135 176 230 282 334 398
#     4  10  23  41  69  98 127 172 218 280 347 402
#
# _framework density 21.564029999999999
#
# number of rings (size 3 to 8) (size 9 to 14) (size 15 to 20)
#    0.000    1.286    1.429    4.714    4.000    6.286 
#    2.571    1.429    0.000    0.000    0.000    0.000 
#    0.000    0.000    0.000    0.000    0.000    0.000 
#
# Total GULP energy -347035.516831 kJ/mol
# GULP energy per Si atom -12394.125601 kJ/mol
# Density = 2.151495 g / cm^3
# Si number density = 21.564030 Si / 1000 Ang^3
#
#
#
# Elastic Constant Matrix: (Units=GPa)
#
#
# Indices 1 2 3 4 5 6 
#
# 1 131.3118 36.9363 29.5266 0.0000 -4.0740 0.0000
# 2 36.9363 117.1237 37.9870 0.0000 -10.3663 0.0000
# 3 29.5266 37.9870 87.4985 0.0000 -2.5130 0.0000
# 4 0.0000 0.0000 0.0000 36.6988 0.0000 1.5659
# 5 -4.0740 -10.3663 -2.5130 0.0000 24.5574 0.0000
# 6 0.0000 0.0000 0.0000 1.5659 0.0000 32.6600
#
#
#
# Elastic Compliance Matrix: (Units=1/GPa)
#
#
# Indices 1 2 3 4 5 6 
#
# 1 0.008656 -0.002041 -0.002025 0.000000 0.000367 0.000000
# 2 -0.002041 0.010778 -0.003881 0.000000 0.003814 0.000000
# 3 -0.002025 -0.003881 0.013781 0.000000 -0.000564 0.000000
# 4 0.000000 0.000000 0.000000 0.027305 0.000000 -0.001309
# 5 0.000367 0.003814 -0.000564 0.000000 0.042334 0.000000
# 6 0.000000 0.000000 0.000000 -0.001309 0.000000 0.030681
#
#
# Mechanical properties :
#
#
# Convention : Reuss Voigt Hill
#
# Bulk Modulus (GPa) = 57.72919 60.53708 59.13314
# Shear Modulus (GPa) = 32.21629 34.21552 33.21591
#
# Velocity S-wave (km/s) = 3.86940 3.98765 3.92897
# Velocity P-wave (km/s) = 6.84048 7.02396 6.93283
#
# Compressibility (1/GPa) = 0.01732226
#
# Stress axis : x y z
#
# Youngs Moduli (GPa) = 115.52534 92.78330 72.56556
#
# Poissons Ratio (x) = 0.18934 0.14691
# Poissons Ratio (y) = 0.23575 0.28162
# Poissons Ratio (z) = 0.23388 0.36009
#
# Static dielectric constant tensor:
#      x y z
#    x 3.877420 0.000000 -0.111890 
#    y 0.000000 3.939440 0.000000 
#    z -0.111890 0.000000 3.844320 
# 
# 
# High freq. dielectric constant tensor:
#      x y z
#    x 1.848960 0.000000 -0.003280 
#    y 0.000000 1.859470 0.000000 
#    z -0.003280 0.000000 1.839230 
# 
# From -- ./inp_files/54580.got.cif
#   From: 2010.06.25/outbox.cif.g09.slc.cpg/sg12_28_cif.got.tgz:54580.got - 2010.06.28 00:19:55.
