data_PCOD8109873
_publ_section_title
;
Structure prediction by ZEFSAII (Michael W. Deem and Ramdas Pophale) SiO2 
 PCOD8109873
Probable space group: C 2/M
;
_chemical_formula_sum "Si O2"
_cell_formula_units_Z 56
_cell_length_a 31.369170
_cell_length_b 8.693608
_cell_length_c 11.845162
_cell_angle_alpha 90.000000
_cell_angle_beta 123.756548
_cell_angle_gamma 90.000000
_cell_volume 2685.698769
_symmetry_space_group_name_H-M "C 2/M"
_symmetry_group_IT_number 12
_symmetry_cell_setting 'monoclinic'
loop_
_space_group_symop_operation_xyz
x,y,z
-x,y,-z
-x,-y,-z
x,-y,z
1/2+x,1/2+y,z
1/2-x,1/2+y,-z
1/2-x,1/2-y,-z
1/2+x,1/2-y,z
loop_
_atom_site_type_symbol
_atom_site_label
_atom_site_fract_x
_atom_site_fract_y
_atom_site_fract_z
Si Si1 0.693637 0.181364 0.405211
Si Si2 0.117665 0.819924 0.673151
Si Si3 0.489791 0.179718 0.856972
Si Si4 0.732332 0.682919 0.856754
Si Si5 0.895039 0.820020 0.593861
Si Si6 0.679709 0.679139 0.153759
Si Si7 0.918494 0.179625 0.142470
O O1 0.750000 0.250000 0.500000
O O2 0.657747 0.233084 0.455765
O O3 0.665388 0.241557 0.250738
O O4 0.698086 0.000000 0.409020
O O5 0.175153 0.754375 0.751446
O O6 0.089522 0.780485 0.513584
O O7 0.086543 0.757266 0.736110
O O8 0.122234 0.000000 0.700598
O O9 0.440588 0.271173 0.742262
O O10 0.538416 0.219290 0.852649
O O11 0.477812 0.000000 0.831521
O O12 0.500000 0.231918 0.000000
O O13 0.735664 0.500000 0.863426
O O14 0.767341 0.747033 0.808644
O O15 0.750000 0.750000 0.000000
O O16 0.884546 0.000000 0.592293
O O17 0.688325 0.500000 0.187071
O O18 0.635332 0.710110 0.998079
O O19 0.933995 0.000000 0.159289
#
# Coordination Sequence:
#
# PCOD8109873 Si02
#       7
#     8   8   8   8   8   8   8
#     4  12  25  42  63  91 128 166 209 258 310 371
#     4   9  20  39  61  89 125 163 204 253 307 370
#     4  11  25  44  64  89 123 160 204 260 318 374
#     4  11  20  35  58  88 128 170 210 254 308 371
#     4  11  23  42  68  93 123 165 208 255 315 375
#     4  11  22  38  62  92 125 163 211 263 315 375
#     4  10  21  40  64  90 121 159 206 255 308 376
#
# _framework density 20.851185000000001
#
# number of rings (size 3 to 8) (size 9 to 14) (size 15 to 20)
#    0.000    1.286    1.429    4.714    0.000    6.286 
#    0.000    6.429    0.000    0.000    0.000    0.000 
#    0.000    0.000    0.000    0.000    0.000    0.000 
#
# Total GULP energy -347293.189891 kJ/mol
# GULP energy per Si atom -12403.328210 kJ/mol
# Density = 2.080373 g / cm^3
# Si number density = 20.851185 Si / 1000 Ang^3
#
#
#
# Elastic Constant Matrix: (Units=GPa)
#
#
# Indices 1 2 3 4 5 6 
#
# 1 126.0689 34.5858 45.3423 0.0000 -13.4504 0.0000
# 2 34.5858 101.2922 44.6583 0.0000 -5.7525 0.0000
# 3 45.3423 44.6583 125.7135 0.0000 -15.9644 0.0000
# 4 0.0000 0.0000 0.0000 29.3586 0.0000 -1.6414
# 5 -13.4504 -5.7525 -15.9644 0.0000 36.1349 0.0000
# 6 0.0000 0.0000 0.0000 -1.6414 0.0000 37.0973
#
#
#
# Elastic Compliance Matrix: (Units=1/GPa)
#
#
# Indices 1 2 3 4 5 6 
#
# 1 0.009616 -0.002078 -0.002455 0.000000 0.002164 0.000000
# 2 -0.002078 0.012155 -0.003624 0.000000 -0.000440 0.000000
# 3 -0.002455 -0.003624 0.010529 0.000000 0.003161 0.000000
# 4 0.000000 0.000000 0.000000 0.034146 0.000000 0.001511
# 5 0.002164 -0.000440 0.003161 0.000000 0.029806 0.000000
# 6 0.000000 0.000000 0.000000 0.001511 0.000000 0.027023
#
#
# Mechanical properties :
#
#
# Convention : Reuss Voigt Hill
#
# Bulk Modulus (GPa) = 62.55895 66.91636 64.73766
# Shear Modulus (GPa) = 34.50211 35.75070 35.12641
#
# Velocity S-wave (km/s) = 4.07219 4.14522 4.10887
# Velocity P-wave (km/s) = 7.22344 7.42109 7.32293
#
# Compressibility (1/GPa) = 0.01598492
#
# Stress axis : x y z
#
# Youngs Moduli (GPa) = 103.99092 82.27174 94.97511
#
# Poissons Ratio (x) = 0.17096 0.23320
# Poissons Ratio (y) = 0.21609 0.34421
# Poissons Ratio (z) = 0.25534 0.29817
#
# Static dielectric constant tensor:
#      x y z
#    x 4.144690 0.000000 -0.188460 
#    y 0.000000 3.770690 0.000000 
#    z -0.188460 0.000000 3.929940 
# 
# 
# High freq. dielectric constant tensor:
#      x y z
#    x 1.825240 0.000000 -0.011080 
#    y 0.000000 1.806960 0.000000 
#    z -0.011080 0.000000 1.828400 
# 
# From -- ./inp_files/187712.got.cif
#   From: 2010.06.25/outbox.cif.g09.slc.cpg/sg12_94_cif.got.tgz:187712.got - 2010.06.28 00:19:55.
