data_PCOD8109182
_publ_section_title
;
Structure prediction by ZEFSAII (Michael W. Deem and Ramdas Pophale) SiO2 
 PCOD8109182
Probable space group: C 2/M
;
_chemical_formula_sum "Si O2"
_cell_formula_units_Z 64
_cell_length_a 22.069368
_cell_length_b 27.202593
_cell_length_c 14.731090
_cell_angle_alpha 90.000000
_cell_angle_beta 158.426056
_cell_angle_gamma 90.000000
_cell_volume 3251.851503
_symmetry_space_group_name_H-M "C 2/M"
_symmetry_group_IT_number 12
_symmetry_cell_setting 'monoclinic'
loop_
_space_group_symop_operation_xyz
x,y,z
-x,y,-z
-x,-y,-z
x,-y,z
1/2+x,1/2+y,z
1/2-x,1/2+y,-z
1/2-x,1/2-y,-z
1/2+x,1/2-y,z
loop_
_atom_site_type_symbol
_atom_site_label
_atom_site_fract_x
_atom_site_fract_y
_atom_site_fract_z
Si Si1 0.362754 0.554397 0.231774
Si Si2 0.907066 0.889671 0.570869
Si Si3 0.089230 0.692884 0.836059
Si Si4 0.867511 0.804784 0.080094
Si Si5 0.858722 0.643234 0.372416
Si Si6 0.185478 0.056009 0.231767
Si Si7 0.360122 0.113395 0.956048
Si Si8 0.323861 0.055904 0.620153
O O1 0.500000 0.552432 0.500000
O O2 0.308786 0.500000 0.127228
O O3 0.431946 0.581697 0.240123
O O4 0.201263 0.581192 0.044112
O O5 0.776979 0.880133 0.310690
O O6 0.834262 0.921567 0.550763
O O7 0.967917 0.837417 0.691818
O O8 0.064857 0.749654 0.826341
O O9 0.935503 0.671795 0.564991
O O10 0.261330 0.685268 0.023027
O O11 0.093679 0.666350 0.939729
O O12 0.758790 0.816973 0.840124
O O13 0.755793 0.594796 0.257024
O O14 0.000000 0.625243 0.500000
O O15 0.300062 0.059010 0.479657
O O16 0.188887 0.000000 0.197108
O O17 0.000000 0.070777 0.000000
O O18 0.515678 0.086646 0.127481
O O19 0.346522 0.000000 0.684942
#
# Coordination Sequence:
#
# PCOD8109182 Si02
#       8
#     8   8   8   8   8   8   8   8
#     4   9  18  33  54  83 117 154 193 240 294 348
#     4  11  22  36  59  89 121 156 201 245 291 358
#     4  10  21  39  62  90 120 156 198 249 308 356
#     4  10  22  38  63  91 120 155 200 250 307 356
#     4  10  21  40  64  91 121 153 200 255 299 355
#     4  10  21  39  63  87 120 165 205 243 297 358
#     4  11  21  37  59  87 123 157 194 248 296 361
#     4  11  23  39  60  88 124 165 200 241 299 363
#
# _framework density 19.681094999999999
#
# number of rings (size 3 to 8) (size 9 to 14) (size 15 to 20)
#    0.000    1.750    2.500    1.875    1.750    2.250 
#    0.000    1.250    0.000    0.000    0.000    0.000 
#    0.000    0.000    0.000    0.000    0.000    0.000 
#
# Total GULP energy -396905.110933 kJ/mol
# GULP energy per Si atom -12403.284717 kJ/mol
# Density = 1.963630 g / cm^3
# Si number density = 19.681095 Si / 1000 Ang^3
#
#
#
# Elastic Constant Matrix: (Units=GPa)
#
#
# Indices 1 2 3 4 5 6 
#
# 1 59.7967 41.2626 11.5609 0.0000 8.9604 0.0000
# 2 41.2626 147.5929 39.8725 0.0000 9.9184 0.0000
# 3 11.5609 39.8725 75.7096 0.0000 5.4206 0.0000
# 4 0.0000 0.0000 0.0000 31.1296 0.0000 5.2390
# 5 8.9604 9.9184 5.4206 0.0000 29.8043 0.0000
# 6 0.0000 0.0000 0.0000 5.2390 0.0000 30.6056
#
#
#
# Elastic Compliance Matrix: (Units=1/GPa)
#
#
# Indices 1 2 3 4 5 6 
#
# 1 0.021301 -0.005666 0.000055 0.000000 -0.004529 0.000000
# 2 -0.005666 0.009514 -0.004094 0.000000 -0.000718 0.000000
# 3 0.000055 -0.004094 0.015461 0.000000 -0.001466 0.000000
# 4 0.000000 0.000000 0.000000 0.033077 0.000000 -0.005662
# 5 -0.004529 -0.000718 -0.001466 0.000000 0.035419 0.000000
# 6 0.000000 0.000000 0.000000 -0.005662 0.000000 0.033643
#
#
# Mechanical properties :
#
#
# Convention : Reuss Voigt Hill
#
# Bulk Modulus (GPa) = 37.22019 52.05458 44.63739
# Shear Modulus (GPa) = 28.28408 31.00145 29.64276
#
# Velocity S-wave (km/s) = 3.79505 3.97317 3.88513
# Velocity P-wave (km/s) = 6.17705 6.89598 6.54639
#
# Compressibility (1/GPa) = 0.02686714
#
# Stress axis : x y z
#
# Youngs Moduli (GPa) = 46.94653 105.11321 64.67953
#
# Poissons Ratio (x) = 0.59554 -0.00359
# Poissons Ratio (y) = 0.26599 0.26478
# Poissons Ratio (z) = -0.00260 0.43031
#
# Static dielectric constant tensor:
#      x y z
#    x 3.439650 0.000000 0.028790 
#    y 0.000000 3.642570 0.000000 
#    z 0.028790 0.000000 3.505260 
# 
# 
# High freq. dielectric constant tensor:
#      x y z
#    x 1.753690 0.000000 -0.002990 
#    y 0.000000 1.770000 0.000000 
#    z -0.002990 0.000000 1.768660 
# 
# From -- ./inp_files/209410.got.cif
#   From: 2010.06.25/outbox.cif.g09.slc.cpg/sg12_105_cif.got.tgz:209410.got - 2010.06.28 00:19:55.
