data_PCOD8109170
_publ_section_title
;
Structure prediction by ZEFSAII (Michael W. Deem and Ramdas Pophale) SiO2 
 PCOD8109170
Probable space group: C 2/M
;
_chemical_formula_sum "Si O2"
_cell_formula_units_Z 48
_cell_length_a 27.789810
_cell_length_b 8.731605
_cell_length_c 17.117287
_cell_angle_alpha 90.000000
_cell_angle_beta 144.274693
_cell_angle_gamma 90.000000
_cell_volume 2425.230102
_symmetry_space_group_name_H-M "C 2/M"
_symmetry_group_IT_number 12
_symmetry_cell_setting 'monoclinic'
loop_
_space_group_symop_operation_xyz
x,y,z
-x,y,-z
-x,-y,-z
x,-y,z
1/2+x,1/2+y,z
1/2-x,1/2+y,-z
1/2-x,1/2-y,-z
1/2+x,1/2-y,z
loop_
_atom_site_type_symbol
_atom_site_label
_atom_site_fract_x
_atom_site_fract_y
_atom_site_fract_z
Si Si1 0.331623 0.680226 0.245014
Si Si2 0.653217 0.681697 0.016203
Si Si3 0.434861 0.823234 0.243073
Si Si4 0.238861 0.180559 0.400957
Si Si5 0.590376 0.317870 0.100553
Si Si6 0.878519 0.323926 0.466346
O O1 0.325037 0.500000 0.226244
O O2 0.242280 0.751663 0.114783
O O3 0.391850 0.745837 0.259541
O O4 0.370051 0.720212 0.379095
O O5 0.658842 0.500000 0.022167
O O6 0.621967 0.743085 0.058714
O O7 0.588856 0.738365 0.867441
O O8 0.532210 0.804158 0.379288
O O9 0.408373 0.000000 0.204109
O O10 0.250000 0.250000 0.500000
O O11 0.153199 0.238909 0.250286
O O12 0.313370 0.235060 0.444146
O O13 0.239103 0.000000 0.409656
O O14 0.587155 0.500000 0.094309
O O15 0.500000 0.249687 0.000000
O O16 0.860418 0.500000 0.418759
#
# Coordination Sequence:
#
# PCOD8109170 Si02
#       6
#     8   8   8   8   8   8
#     4  12  24  40  63  90 121 156 205 254 301 357
#     4  11  22  40  64  88 123 162 202 246 300 359
#     4  11  24  40  61  89 123 160 203 248 301 359
#     4  10  21  39  62  89 122 156 196 242 298 358
#     4   9  19  37  62  89 118 155 197 244 296 352
#     4  10  22  42  63  86 123 166 200 244 304 361
#
# _framework density 19.791937000000001
#
# number of rings (size 3 to 8) (size 9 to 14) (size 15 to 20)
#    0.000    1.500    1.667    3.500    2.333    4.000 
#    0.000    0.000    0.000    2.500    0.000    0.000 
#    0.000    0.000    0.000    0.000    0.000    0.000 
#
# Total GULP energy -297713.934872 kJ/mol
# GULP energy per Si atom -12404.747286 kJ/mol
# Density = 1.974689 g / cm^3
# Si number density = 19.791937 Si / 1000 Ang^3
#
#
#
# Elastic Constant Matrix: (Units=GPa)
#
#
# Indices 1 2 3 4 5 6 
#
# 1 142.1900 31.8618 72.8132 0.0000 -2.6165 0.0000
# 2 31.8618 82.0637 43.3144 0.0000 -4.2526 0.0000
# 3 72.8132 43.3144 150.7812 0.0000 -10.6979 0.0000
# 4 0.0000 0.0000 0.0000 30.0324 0.0000 -12.9645
# 5 -2.6165 -4.2526 -10.6979 0.0000 44.4800 0.0000
# 6 0.0000 0.0000 0.0000 -12.9645 0.0000 17.0763
#
#
#
# Elastic Compliance Matrix: (Units=1/GPa)
#
#
# Indices 1 2 3 4 5 6 
#
# 1 0.009511 -0.001505 -0.004203 0.000000 -0.000595 0.000000
# 2 -0.001505 0.014608 -0.003435 0.000000 0.000482 0.000000
# 3 -0.004203 -0.003435 0.009775 0.000000 0.001775 0.000000
# 4 0.000000 0.000000 0.000000 0.049530 0.000000 0.037604
# 5 -0.000595 0.000482 0.001775 0.000000 0.022920 0.000000
# 6 0.000000 0.000000 0.000000 0.037604 0.000000 0.087110
#
#
# Mechanical properties :
#
#
# Convention : Reuss Voigt Hill
#
# Bulk Modulus (GPa) = 64.07365 74.55710 69.31538
# Shear Modulus (GPa) = 23.04736 33.45410 28.25073
#
# Velocity S-wave (km/s) = 3.41615 4.11577 3.78217
# Velocity P-wave (km/s) = 6.92849 7.76778 7.36011
#
# Compressibility (1/GPa) = 0.01560704
#
# Stress axis : x y z
#
# Youngs Moduli (GPa) = 105.13619 68.45416 102.30638
#
# Poissons Ratio (x) = 0.10305 0.42999
# Poissons Ratio (y) = 0.15827 0.35146
# Poissons Ratio (z) = 0.44188 0.23516
#
# Static dielectric constant tensor:
#      x y z
#    x 3.691640 0.000000 0.152380 
#    y 0.000000 3.502450 0.000000 
#    z 0.152380 0.000000 3.722780 
# 
# 
# High freq. dielectric constant tensor:
#      x y z
#    x 1.785580 0.000000 0.002040 
#    y 0.000000 1.756190 0.000000 
#    z 0.002040 0.000000 1.789840 
# 
# From -- ./inp_files/244883.got.cif
#   From: 2010.06.25/outbox.cif.g09.slc.cpg/sg12_123_cif.got.tgz:244883.got - 2010.06.28 00:19:55.
