data_PCOD8109055
_publ_section_title
;
Structure prediction by ZEFSAII (Michael W. Deem and Ramdas Pophale) SiO2 
 PCOD8109055
Probable space group: C 2/M
;
_chemical_formula_sum "Si O2"
_cell_formula_units_Z 56
_cell_length_a 28.781311
_cell_length_b 9.018207
_cell_length_c 12.500092
_cell_angle_alpha 90.000000
_cell_angle_beta 59.853152
_cell_angle_gamma 90.000000
_cell_volume 2805.627872
_symmetry_space_group_name_H-M "C 2/M"
_symmetry_group_IT_number 12
_symmetry_cell_setting 'monoclinic'
loop_
_space_group_symop_operation_xyz
x,y,z
-x,y,-z
-x,-y,-z
x,-y,z
1/2+x,1/2+y,z
1/2-x,1/2+y,-z
1/2-x,1/2-y,-z
1/2+x,1/2-y,z
loop_
_atom_site_type_symbol
_atom_site_label
_atom_site_fract_x
_atom_site_fract_y
_atom_site_fract_z
Si Si1 0.908935 0.827617 0.848134
Si Si2 0.286428 0.328597 0.043407
Si Si3 0.942360 0.330784 0.014497
Si Si4 0.863295 0.825272 0.508393
Si Si5 0.362194 0.829200 0.291621
Si Si6 0.438481 0.826173 0.595454
Si Si7 0.256711 0.829651 0.292380
O O1 0.925892 0.734432 0.726548
O O2 0.920688 0.000000 0.813775
O O3 0.847199 0.795233 0.942784
O O4 0.942924 0.773028 0.910208
O O5 0.272551 0.500000 0.056493
O O6 0.274374 0.270980 0.174591
O O7 0.250000 0.250000 0.000000
O O8 0.930235 0.500000 0.994019
O O9 0.897179 0.275558 0.150003
O O10 0.000000 0.315671 0.000000
O O11 0.879620 0.767780 0.372700
O O12 0.900943 0.752423 0.552805
O O13 0.801724 0.779449 0.600630
O O14 0.871699 0.000000 0.503441
O O15 0.299163 0.806271 0.339156
O O16 0.375361 0.000000 0.302748
O O17 0.500000 0.789285 0.500000
O O18 0.426554 0.000000 0.605461
O O19 0.256267 0.000000 0.254508
#
# Coordination Sequence:
#
# PCOD8109055 Si02
#       7
#     8   8   8   8   8   8   8
#     4  11  24  42  64  94 127 158 200 255 313 365
#     4  11  23  37  59  90 124 161 202 249 302 364
#     4  10  22  40  65  94 124 163 208 252 302 366
#     4  11  24  40  62  93 128 162 204 258 311 363
#     4  10  21  39  63  91 127 167 206 250 301 364
#     4  11  26  46  67  89 118 162 212 254 302 369
#     4  10  21  39  61  89 124 164 206 248 302 364
#
# _framework density 19.959880999999999
#
# number of rings (size 3 to 8) (size 9 to 14) (size 15 to 20)
#    0.000    1.429    1.429    3.000    2.000    8.857 
#    0.000    0.000    0.000    0.000    0.000    0.000 
#    0.000    0.000    0.000    0.000    0.000    0.000 
#
# Total GULP energy -347363.459915 kJ/mol
# GULP energy per Si atom -12405.837854 kJ/mol
# Density = 1.991445 g / cm^3
# Si number density = 19.959881 Si / 1000 Ang^3
#
#
#
# Elastic Constant Matrix: (Units=GPa)
#
#
# Indices 1 2 3 4 5 6 
#
# 1 111.3733 43.3735 48.8299 0.0000 10.5640 0.0000
# 2 43.3735 86.3651 67.6241 0.0000 -5.1427 0.0000
# 3 48.8299 67.6241 129.8255 0.0000 12.8822 0.0000
# 4 0.0000 0.0000 0.0000 40.8662 0.0000 6.3111
# 5 10.5640 -5.1427 12.8822 0.0000 33.0268 0.0000
# 6 0.0000 0.0000 0.0000 6.3111 0.0000 34.3514
#
#
#
# Elastic Compliance Matrix: (Units=1/GPa)
#
#
# Indices 1 2 3 4 5 6 
#
# 1 0.011997 -0.005155 -0.001422 0.000000 -0.004086 0.000000
# 2 -0.005155 0.023621 -0.011332 0.000000 0.009747 0.000000
# 3 -0.001422 -0.011332 0.014845 0.000000 -0.007100 0.000000
# 4 0.000000 0.000000 0.000000 0.025185 0.000000 -0.004627
# 5 -0.004086 0.009747 -0.007100 0.000000 0.035872 0.000000
# 6 0.000000 0.000000 0.000000 -0.004627 0.000000 0.029961
#
#
# Mechanical properties :
#
#
# Convention : Reuss Voigt Hill
#
# Bulk Modulus (GPa) = 68.28277 71.91321 70.09799
# Shear Modulus (GPa) = 27.44517 32.83131 30.13824
#
# Velocity S-wave (km/s) = 3.71214 4.06009 3.89001
# Velocity P-wave (km/s) = 7.25656 7.62143 7.44123
#
# Compressibility (1/GPa) = 0.01464498
#
# Stress axis : x y z
#
# Youngs Moduli (GPa) = 83.35148 42.33463 67.36440
#
# Poissons Ratio (x) = 0.21825 0.09577
# Poissons Ratio (y) = 0.42970 0.76338
# Poissons Ratio (z) = 0.11850 0.47974
#
# Static dielectric constant tensor:
#      x y z
#    x 3.755490 0.000000 -0.108150 
#    y 0.000000 3.716190 0.000000 
#    z -0.108150 0.000000 3.690940 
# 
# 
# High freq. dielectric constant tensor:
#      x y z
#    x 1.792520 0.000000 0.000790 
#    y 0.000000 1.782550 0.000000 
#    z 0.000790 0.000000 1.788780 
# 
# From -- ./inp_files/180674.got.cif
#   From: 2010.06.25/outbox.cif.g09.slc.cpg/sg12_91_cif.got.tgz:180674.got - 2010.06.28 00:19:55.
