data_PCOD8109760
_publ_section_title
;
Structure prediction by ZEFSAII (Michael W. Deem and Ramdas Pophale) SiO2 
 PCOD8109760
Probable space group: C 2/M
;
_chemical_formula_sum "Si O2"
_cell_formula_units_Z 56
_cell_length_a 20.318617
_cell_length_b 8.530960
_cell_length_c 17.496589
_cell_angle_alpha 90.000000
_cell_angle_beta 71.769165
_cell_angle_gamma 90.000000
_cell_volume 2880.576104
_symmetry_space_group_name_H-M "C 2/M"
_symmetry_group_IT_number 12
_symmetry_cell_setting 'monoclinic'
loop_
_space_group_symop_operation_xyz
x,y,z
-x,y,-z
-x,-y,-z
x,-y,z
1/2+x,1/2+y,z
1/2-x,1/2+y,-z
1/2-x,1/2-y,-z
1/2+x,1/2-y,z
loop_
_atom_site_type_symbol
_atom_site_label
_atom_site_fract_x
_atom_site_fract_y
_atom_site_fract_z
Si Si1 0.062908 0.818938 0.240190
Si Si2 0.942240 0.685550 0.915688
Si Si3 0.839190 0.680570 0.672829
Si Si4 0.690680 0.816637 0.740539
Si Si5 0.578349 0.819382 0.652914
Si Si6 0.907073 0.684949 0.092775
Si Si7 0.922100 0.181825 0.508753
O O1 0.089468 0.774263 0.145802
O O2 0.124728 0.786499 0.276292
O O3 0.996448 0.715420 0.284562
O O4 0.042411 0.000000 0.252899
O O5 0.939584 0.500000 0.902476
O O6 0.020488 0.748635 0.899813
O O7 0.897622 0.733209 0.007284
O O8 0.852017 0.500000 0.687790
O O9 0.758049 0.715241 0.700634
O O10 0.869618 0.718018 0.578560
O O11 0.636633 0.780394 0.693333
O O12 0.657243 0.756825 0.832779
O O13 0.709603 0.000000 0.736945
O O14 0.593599 0.713251 0.573941
O O15 0.580144 0.000000 0.627469
O O16 0.913109 0.500000 0.096749
O O17 0.000000 0.234722 0.500000
O O18 0.910832 0.000000 0.531530
#
# Coordination Sequence:
#
# PCOD8109760 Si02
#       7
#     8   8   8   8   8   8   8
#     4  12  23  37  58  88 122 157 198 247 297 347
#     4   9  16  32  59  90 118 152 200 244 290 349
#     4  12  26  42  62  86 117 159 202 244 295 355
#     4  10  21  40  62  89 123 158 195 241 299 352
#     4  11  22  38  65  92 118 156 199 242 290 353
#     4   8  15  31  59  89 119 155 194 241 294 348
#     4  11  23  40  63  91 121 153 193 245 299 347
#
# _framework density 19.440555
#
# number of rings (size 3 to 8) (size 9 to 14) (size 15 to 20)
#    0.000    1.571    2.857    4.286    0.000    2.286 
#    0.000    2.857    0.000    0.000    0.000    0.000 
#    0.000    0.000    0.000    0.000    0.000    0.000 
#
# Total GULP energy -347275.297038 kJ/mol
# GULP energy per Si atom -12402.689180 kJ/mol
# Density = 1.939631 g / cm^3
# Si number density = 19.440555 Si / 1000 Ang^3
#
#
#
# Elastic Constant Matrix: (Units=GPa)
#
#
# Indices 1 2 3 4 5 6 
#
# 1 88.6671 23.1757 48.1117 0.0000 -5.7967 0.0000
# 2 23.1757 52.6821 27.0660 0.0000 -1.9493 0.0000
# 3 48.1117 27.0660 148.0843 0.0000 1.4157 0.0000
# 4 0.0000 0.0000 0.0000 20.3061 0.0000 1.8407
# 5 -5.7967 -1.9493 1.4157 0.0000 33.8106 0.0000
# 6 0.0000 0.0000 0.0000 1.8407 0.0000 20.0813
#
#
#
# Elastic Compliance Matrix: (Units=1/GPa)
#
#
# Indices 1 2 3 4 5 6 
#
# 1 0.014755 -0.004332 -0.004025 0.000000 0.002448 0.000000
# 2 -0.004332 0.022284 -0.002672 0.000000 0.000654 0.000000
# 3 -0.004025 -0.002672 0.008561 0.000000 -0.001203 0.000000
# 4 0.000000 0.000000 0.000000 0.049659 0.000000 -0.004552
# 5 0.002448 0.000654 -0.001203 0.000000 0.030084 0.000000
# 6 0.000000 0.000000 0.000000 -0.004552 0.000000 0.050215
#
#
# Mechanical properties :
#
#
# Convention : Reuss Voigt Hill
#
# Bulk Modulus (GPa) = 42.47884 54.01559 48.24721
# Shear Modulus (GPa) = 24.33527 27.57829 25.95678
#
# Velocity S-wave (km/s) = 3.54189 3.77051 3.65799
# Velocity P-wave (km/s) = 6.21488 6.84113 6.53551
#
# Compressibility (1/GPa) = 0.02354113
#
# Stress axis : x y z
#
# Youngs Moduli (GPa) = 67.77490 44.87445 116.81510
#
# Poissons Ratio (x) = 0.19440 0.47022
# Poissons Ratio (y) = 0.29361 0.31210
# Poissons Ratio (z) = 0.27282 0.11989
#
# Static dielectric constant tensor:
#      x y z
#    x 3.402170 0.000000 0.009710 
#    y 0.000000 3.323000 0.000000 
#    z 0.009710 0.000000 3.904020 
# 
# 
# High freq. dielectric constant tensor:
#      x y z
#    x 1.736140 0.000000 0.007990 
#    y 0.000000 1.744200 0.000000 
#    z 0.007990 0.000000 1.774500 
# 
# From -- ./inp_files/275216.got.cif
#   From: 2010.06.25/outbox.cif.g09.slc.cpg/sg12_138_cif.got.tgz:275216.got - 2010.06.28 00:19:55.
