data_PCOD8109187
_publ_section_title
;
Structure prediction by ZEFSAII (Michael W. Deem and Ramdas Pophale) SiO2 
 PCOD8109187
Probable space group: C 2/M
;
_chemical_formula_sum "Si O2"
_cell_formula_units_Z 64
_cell_length_a 20.254361
_cell_length_b 8.982025
_cell_length_c 19.811640
_cell_angle_alpha 90.000000
_cell_angle_beta 113.536039
_cell_angle_gamma 90.000000
_cell_volume 3304.396393
_symmetry_space_group_name_H-M "C 2/M"
_symmetry_group_IT_number 12
_symmetry_cell_setting 'monoclinic'
loop_
_space_group_symop_operation_xyz
x,y,z
-x,y,-z
-x,-y,-z
x,-y,z
1/2+x,1/2+y,z
1/2-x,1/2+y,-z
1/2-x,1/2-y,-z
1/2+x,1/2-y,z
loop_
_atom_site_type_symbol
_atom_site_label
_atom_site_fract_x
_atom_site_fract_y
_atom_site_fract_z
Si Si1 0.178428 0.825448 0.852169
Si Si2 0.414826 0.173787 0.072973
Si Si3 0.656590 0.828025 0.096664
Si Si4 0.563716 0.328621 0.164012
Si Si5 0.060073 0.829475 0.317432
Si Si6 0.080647 0.671837 0.547554
Si Si7 0.173639 0.825457 0.475842
Si Si8 0.914453 0.328306 0.294077
O O1 0.141591 0.753199 0.901683
O O2 0.262200 0.784667 0.888834
O O3 0.145565 0.764446 0.769547
O O4 0.164024 0.000000 0.849599
O O5 0.494501 0.232468 0.117284
O O6 0.412661 0.000000 0.088460
O O7 0.393839 0.207008 0.987559
O O8 0.631520 0.727394 0.148731
O O9 0.651058 0.000000 0.115805
O O10 0.547294 0.500000 0.140522
O O11 0.584665 0.307389 0.250557
O O12 0.126270 0.781480 0.391507
O O13 0.993589 0.723964 0.306218
O O14 0.037026 0.000000 0.322002
O O15 0.088165 0.500000 0.528767
O O16 0.135832 0.770166 0.528238
O O17 0.099822 0.696179 0.633113
O O18 0.000000 0.728676 0.500000
O O19 0.250000 0.750000 0.500000
O O20 0.185274 0.000000 0.485819
O O21 0.907813 0.500000 0.270826
#
# Coordination Sequence:
#
# PCOD8109187 Si02
#       8
#     8   8   8   8   8   8   8   8
#     4  11  23  40  61  88 123 159 200 249 303 357
#     4  11  22  39  63  89 118 157 205 249 299 359
#     4  10  24  42  59  85 123 161 198 250 304 358
#     4  11  23  39  62  90 120 158 202 249 302 360
#     4  10  22  40  61  87 121 158 198 248 299 356
#     4  10  21  39  62  90 122 156 199 248 296 353
#     4  11  24  41  63  91 125 164 202 247 303 357
#     4  11  22  37  63  92 119 157 201 249 300 355
#
# _framework density 19.368134999999999
#
# number of rings (size 3 to 8) (size 9 to 14) (size 15 to 20)
#    0.000    1.375    2.500    2.625    0.000    6.750 
#    0.000    3.750    0.000    0.000    0.000    0.000 
#    0.000    0.000    0.000    0.000    0.000    0.000 
#
# Total GULP energy -397008.708866 kJ/mol
# GULP energy per Si atom -12406.522152 kJ/mol
# Density = 1.932405 g / cm^3
# Si number density = 19.368135 Si / 1000 Ang^3
#
#
#
# Elastic Constant Matrix: (Units=GPa)
#
#
# Indices 1 2 3 4 5 6 
#
# 1 86.4316 42.4385 30.7253 0.0000 -12.4471 0.0000
# 2 42.4385 90.3528 41.6889 0.0000 -8.9039 0.0000
# 3 30.7253 41.6889 86.7249 0.0000 -8.4012 0.0000
# 4 0.0000 0.0000 0.0000 30.0052 0.0000 -2.8901
# 5 -12.4471 -8.9039 -8.4012 0.0000 27.7850 0.0000
# 6 0.0000 0.0000 0.0000 -2.8901 0.0000 39.4977
#
#
#
# Elastic Compliance Matrix: (Units=1/GPa)
#
#
# Indices 1 2 3 4 5 6 
#
# 1 0.015996 -0.005981 -0.002353 0.000000 0.004538 0.000000
# 2 -0.005981 0.016638 -0.005792 0.000000 0.000901 0.000000
# 3 -0.002353 -0.005792 0.015315 0.000000 0.001721 0.000000
# 4 0.000000 0.000000 0.000000 0.033564 0.000000 0.002456
# 5 0.004538 0.000901 0.001721 0.000000 0.038833 0.000000
# 6 0.000000 0.000000 0.000000 0.002456 0.000000 0.025498
#
#
# Mechanical properties :
#
#
# Convention : Reuss Voigt Hill
#
# Bulk Modulus (GPa) = 50.76387 54.80163 52.78275
# Shear Modulus (GPa) = 27.67624 29.36802 28.52213
#
# Velocity S-wave (km/s) = 3.78426 3.89820 3.84165
# Velocity P-wave (km/s) = 6.73506 6.97262 6.85487
#
# Compressibility (1/GPa) = 0.01969905
#
# Stress axis : x y z
#
# Youngs Moduli (GPa) = 62.51451 60.10341 65.29531
#
# Poissons Ratio (x) = 0.35946 0.15362
# Poissons Ratio (y) = 0.37388 0.37817
# Poissons Ratio (z) = 0.14708 0.34810
#
# Static dielectric constant tensor:
#      x y z
#    x 3.378580 0.000000 0.083530 
#    y 0.000000 3.647910 0.000000 
#    z 0.083530 0.000000 3.756100 
# 
# 
# High freq. dielectric constant tensor:
#      x y z
#    x 1.756950 0.000000 -0.003790 
#    y 0.000000 1.763390 0.000000 
#    z -0.003790 0.000000 1.767050 
# 
# From -- ./inp_files/320181.got.cif
#   From: 2010.06.25/outbox.cif.g09.slc.cpg/sg12_161_cif.got.tgz:320181.got - 2010.06.28 00:19:55.
