data_PCOD8109212
_publ_section_title
;
Structure prediction by ZEFSAII (Michael W. Deem and Ramdas Pophale) SiO2 
 PCOD8109212
Probable space group: C 2/M
;
_chemical_formula_sum "Si O2"
_cell_formula_units_Z 40
_cell_length_a 24.848182
_cell_length_b 10.260994
_cell_length_c 7.435040
_cell_angle_alpha 90.000000
_cell_angle_beta 78.749782
_cell_angle_gamma 90.000000
_cell_volume 1859.263626
_symmetry_space_group_name_H-M "C 2/M"
_symmetry_group_IT_number 12
_symmetry_cell_setting 'monoclinic'
loop_
_space_group_symop_operation_xyz
x,y,z
-x,y,-z
-x,-y,-z
x,-y,z
1/2+x,1/2+y,z
1/2-x,1/2+y,-z
1/2-x,1/2-y,-z
1/2+x,1/2-y,z
loop_
_atom_site_type_symbol
_atom_site_label
_atom_site_fract_x
_atom_site_fract_y
_atom_site_fract_z
Si Si1 0.075882 0.347676 0.705791
Si Si2 0.124351 0.249754 0.308258
Si Si3 0.986293 0.857666 0.715864
Si Si4 0.765341 0.147376 0.640373
Si Si5 0.664204 0.853207 0.923348
O O1 0.060037 0.500000 0.744743
O O2 0.098417 0.333228 0.487281
O O3 0.021988 0.259056 0.778634
O O4 0.119976 0.286698 0.817297
O O5 0.078379 0.171280 0.227393
O O6 0.170652 0.152351 0.351641
O O7 0.153749 0.339873 0.141611
O O8 0.000000 0.867347 0.500000
O O9 0.998555 0.000000 0.797700
O O10 0.750000 0.250000 0.500000
O O11 0.753088 0.000000 0.580942
O O12 0.726868 0.186277 0.835586
O O13 0.655628 0.000000 0.872215
#
# Coordination Sequence:
#
# PCOD8109212 Si02
#       5
#     8   8   8   8   8
#     4  10  21  39  62  91 123 160 205 250 301 362
#     4  11  21  38  65  89 122 163 203 252 310 357
#     4   9  20  38  60  88 123 161 202 250 302 361
#     4  11  23  42  65  91 125 162 206 255 308 367
#     4  10  22  39  61  94 126 157 204 257 304 365
#
# _framework density 21.513891999999998
#
# number of rings (size 3 to 8) (size 9 to 14) (size 15 to 20)
#    0.000    1.800    2.000    1.800    0.000    6.800 
#    0.000    7.000    0.000    0.000    0.000    0.000 
#    0.000    0.000    0.000    0.000    0.000    0.000 
#
# Total GULP energy -247822.793959 kJ/mol
# GULP energy per Si atom -12391.139698 kJ/mol
# Density = 2.146493 g / cm^3
# Si number density = 21.513892 Si / 1000 Ang^3
#
#
#
# Elastic Constant Matrix: (Units=GPa)
#
#
# Indices 1 2 3 4 5 6 
#
# 1 139.9926 60.1627 18.9891 0.0000 -15.3353 0.0000
# 2 60.1627 118.7268 17.8346 0.0000 0.3333 0.0000
# 3 18.9891 17.8346 77.5704 0.0000 -2.1603 0.0000
# 4 0.0000 0.0000 0.0000 10.0533 0.0000 7.4764
# 5 -15.3353 0.3333 -2.1603 0.0000 23.0009 0.0000
# 6 0.0000 0.0000 0.0000 7.4764 0.0000 26.9146
#
#
#
# Elastic Compliance Matrix: (Units=1/GPa)
#
#
# Indices 1 2 3 4 5 6 
#
# 1 0.010194 -0.005011 -0.001155 0.000000 0.006761 0.000000
# 2 -0.005011 0.011190 -0.001447 0.000000 -0.003639 0.000000
# 3 -0.001155 -0.001447 0.013522 0.000000 0.000521 0.000000
# 4 0.000000 0.000000 0.000000 0.125368 0.000000 -0.034825
# 5 0.006761 -0.003639 0.000521 0.000000 0.048086 0.000000
# 6 0.000000 0.000000 0.000000 -0.034825 0.000000 0.046828
#
#
# Mechanical properties :
#
#
# Convention : Reuss Voigt Hill
#
# Bulk Modulus (GPa) = 50.81757 58.91806 54.86782
# Shear Modulus (GPa) = 18.05223 27.94731 22.99977
#
# Velocity S-wave (km/s) = 2.89986 3.60812 3.27320
# Velocity P-wave (km/s) = 5.90630 6.69355 6.31221
#
# Compressibility (1/GPa) = 0.01967823
#
# Stress axis : x y z
#
# Youngs Moduli (GPa) = 98.09621 89.36857 73.95612
#
# Poissons Ratio (x) = 0.44784 0.08542
# Poissons Ratio (y) = 0.49157 0.10704
# Poissons Ratio (z) = 0.11331 0.12934
#
# Static dielectric constant tensor:
#      x y z
#    x 4.338230 0.000000 -0.217190 
#    y 0.000000 3.856790 0.000000 
#    z -0.217190 0.000000 3.688020 
# 
# 
# High freq. dielectric constant tensor:
#      x y z
#    x 1.858450 0.000000 -0.007190 
#    y 0.000000 1.830470 0.000000 
#    z -0.007190 0.000000 1.833840 
# 
# From -- ./inp_files/101027.got.cif
#   From: 2010.06.25/outbox.cif.g09.slc.cpg/sg12_51_cif.got.tgz:101027.got - 2010.06.28 00:19:55.
