data_PCOD8109001
_publ_section_title
;
Structure prediction by ZEFSAII (Michael W. Deem and Ramdas Pophale) SiO2 
 PCOD8109001
Probable space group: C 2/M
;
_chemical_formula_sum "Si O2"
_cell_formula_units_Z 64
_cell_length_a 9.370264
_cell_length_b 16.547607
_cell_length_c 21.276288
_cell_angle_alpha 90.000000
_cell_angle_beta 86.780166
_cell_angle_gamma 90.000000
_cell_volume 3293.796457
_symmetry_space_group_name_H-M "C 2/M"
_symmetry_group_IT_number 12
_symmetry_cell_setting 'monoclinic'
loop_
_space_group_symop_operation_xyz
x,y,z
-x,y,-z
-x,-y,-z
x,-y,z
1/2+x,1/2+y,z
1/2-x,1/2+y,-z
1/2-x,1/2-y,-z
1/2+x,1/2-y,z
loop_
_atom_site_type_symbol
_atom_site_label
_atom_site_fract_x
_atom_site_fract_y
_atom_site_fract_z
Si Si1 0.334862 0.692953 0.148323
Si Si2 0.506290 0.781947 0.653424
Si Si3 0.848272 0.592145 0.936919
Si Si4 0.140527 0.190524 0.536964
Si Si5 0.760221 0.796855 0.736171
Si Si6 0.111532 0.092237 0.171630
Si Si7 0.658146 0.146164 0.927426
Si Si8 0.898052 0.406515 0.558940
O O1 0.237897 0.623922 0.120565
O O2 0.253246 0.727422 0.210862
O O3 0.481212 0.653379 0.166812
O O4 0.364070 0.762960 0.096779
O O5 0.596671 0.726102 0.604717
O O6 0.608872 0.812198 0.706481
O O7 0.377983 0.728317 0.682897
O O8 0.441471 0.859567 0.620595
O O9 0.803623 0.500000 0.951435
O O10 0.015468 0.595696 0.916592
O O11 0.811907 0.646961 0.998661
O O12 0.250000 0.250000 0.500000
O O13 0.231541 0.108782 0.546224
O O14 0.000000 0.170807 0.500000
O O15 0.803764 0.881208 0.767746
O O16 0.211732 0.100156 0.108561
O O17 0.059684 0.000000 0.180339
O O18 0.923454 0.500000 0.571284
O O19 0.000000 0.375059 0.500000
#
# Coordination Sequence:
#
# PCOD8109001 Si02
#       8
#     8   8   8   8   8   8   8   8
#     4  11  23  40  59  86 120 161 202 251 307 367
#     4  12  21  41  67  90 122 166 214 247 292 371
#     4  11  22  38  60  89 120 156 197 254 315 368
#     4  12  20  38  69  98 123 169 206 250 306 368
#     4  11  24  40  63  90 118 166 214 249 295 369
#     4  11  23  41  61  88 122 155 199 262 311 356
#     4  10  21  39  61  86 117 155 205 248 304 377
#     4  11  24  41  63  99 134 159 202 263 313 356
#
# _framework density 19.430465999999999
#
# number of rings (size 3 to 8) (size 9 to 14) (size 15 to 20)
#    0.000    0.875    5.000    3.750    1.750    2.250 
#    0.000    4.375    0.000    0.000    0.000    0.000 
#    0.000    0.000    0.000    0.000    0.000    0.000 
#
# Total GULP energy -396933.739269 kJ/mol
# GULP energy per Si atom -12404.179352 kJ/mol
# Density = 1.938624 g / cm^3
# Si number density = 19.430466 Si / 1000 Ang^3
#
#
#
# Elastic Constant Matrix: (Units=GPa)
#
#
# Indices 1 2 3 4 5 6 
#
# 1 98.3324 29.0808 39.8702 0.0000 8.6184 0.0000
# 2 29.0808 95.8284 27.3798 0.0000 -1.0981 0.0000
# 3 39.8702 27.3798 82.5259 0.0000 0.4895 0.0000
# 4 0.0000 0.0000 0.0000 21.8076 0.0000 2.7865
# 5 8.6184 -1.0981 0.4895 0.0000 45.7428 0.0000
# 6 0.0000 0.0000 0.0000 2.7865 0.0000 26.7914
#
#
#
# Elastic Compliance Matrix: (Units=1/GPa)
#
#
# Indices 1 2 3 4 5 6 
#
# 1 0.013414 -0.002488 -0.005640 0.000000 -0.002527 0.000000
# 2 -0.002488 0.011994 -0.002782 0.000000 0.000787 0.000000
# 3 -0.005640 -0.002782 0.015760 0.000000 0.000827 0.000000
# 4 0.000000 0.000000 0.000000 0.046473 0.000000 -0.004834
# 5 -0.002527 0.000787 0.000827 0.000000 0.022347 0.000000
# 6 0.000000 0.000000 0.000000 -0.004834 0.000000 0.037828
#
#
# Mechanical properties :
#
#
# Convention : Reuss Voigt Hill
#
# Bulk Modulus (GPa) = 51.68468 52.14979 51.91724
# Shear Modulus (GPa) = 28.39515 30.89210 29.64363
#
# Velocity S-wave (km/s) = 3.82694 3.99166 3.91016
# Velocity P-wave (km/s) = 6.79594 6.93843 6.86756
#
# Compressibility (1/GPa) = 0.01934809
#
# Stress axis : x y z
#
# Youngs Moduli (GPa) = 74.55079 83.37335 63.45066
#
# Poissons Ratio (x) = 0.20744 0.35786
# Poissons Ratio (y) = 0.18549 0.17652
# Poissons Ratio (z) = 0.42046 0.23194
#
# Static dielectric constant tensor:
#      x y z
#    x 3.797340 0.000000 0.052910 
#    y 0.000000 3.432240 0.000000 
#    z 0.052910 0.000000 3.620260 
# 
# 
# High freq. dielectric constant tensor:
#      x y z
#    x 1.771050 0.000000 0.002520 
#    y 0.000000 1.744300 0.000000 
#    z 0.002520 0.000000 1.762430 
# 
# From -- ./inp_files/300791.got.cif
#   From: 2010.06.25/outbox.cif.g09.slc.cpg/sg12_151_cif.got.tgz:300791.got - 2010.06.28 00:19:55.
