data_PCOD8109357
_publ_section_title
;
Structure prediction by ZEFSAII (Michael W. Deem and Ramdas Pophale) SiO2 
 PCOD8109357
Probable space group: C 2/M
;
_chemical_formula_sum "Si O2"
_cell_formula_units_Z 40
_cell_length_a 18.795111
_cell_length_b 7.609131
_cell_length_c 14.285535
_cell_angle_alpha 90.000000
_cell_angle_beta 68.025914
_cell_angle_gamma 90.000000
_cell_volume 1894.617895
_symmetry_space_group_name_H-M "C 2/M"
_symmetry_group_IT_number 12
_symmetry_cell_setting 'monoclinic'
loop_
_space_group_symop_operation_xyz
x,y,z
-x,y,-z
-x,-y,-z
x,-y,z
1/2+x,1/2+y,z
1/2-x,1/2+y,-z
1/2-x,1/2-y,-z
1/2+x,1/2-y,z
loop_
_atom_site_type_symbol
_atom_site_label
_atom_site_fract_x
_atom_site_fract_y
_atom_site_fract_z
Si Si1 0.479448 0.500000 0.174387
Si Si2 0.886650 0.700890 0.313476
Si Si3 0.097539 0.000000 0.982098
Si Si4 0.916151 0.209239 0.507690
Si Si5 0.272580 0.703598 0.693258
Si Si6 0.785518 0.701734 0.080764
O O1 0.453867 0.324364 0.240154
O O2 0.460785 0.500000 0.074532
O O3 0.571153 0.500000 0.106289
O O4 0.898257 0.500000 0.272301
O O5 0.892603 0.703763 0.421872
O O6 0.804565 0.779234 0.318784
O O7 0.141676 0.178989 0.940367
O O8 0.851742 0.280399 0.612303
O O9 0.000000 0.275123 0.500000
O O10 0.916564 0.000000 0.497072
O O11 0.272301 0.500000 0.669931
O O12 0.272551 0.741769 0.804502
O O13 0.811789 0.500000 0.070405
O O14 0.750000 0.750000 0.000000
#
# Coordination Sequence:
#
# PCOD8109357 Si02
#       6
#     4   8   4   8   8   8
#     4  11  24  42  67  90 130 166 211 268 319 375
#     4  11  22  41  66  92 125 166 214 260 312 383
#     4  11  24  42  64  96 122 171 218 260 320 371
#     4  10  21  39  63  92 130 166 205 257 322 378
#     4   9  20  38  62  92 123 166 213 261 305 372
#     4  11  22  40  64  94 131 166 216 262 313 377
#
# _framework density 21.112437
#
# number of rings (size 3 to 8) (size 9 to 14) (size 15 to 20)
#    0.000    1.600    4.000    0.600    0.000    2.800 
#    3.600    2.000    0.000    0.000    0.000    0.000 
#    0.000    0.000    0.000    0.000    0.000    0.000 
#
# Total GULP energy -247841.143992 kJ/mol
# GULP energy per Si atom -12392.057200 kJ/mol
# Density = 2.106438 g / cm^3
# Si number density = 21.112437 Si / 1000 Ang^3
#
#
#
# Elastic Constant Matrix: (Units=GPa)
#
#
# Indices 1 2 3 4 5 6 
#
# 1 63.4043 15.5838 47.9255 0.0000 13.4491 0.0000
# 2 15.5838 105.5992 51.0101 0.0000 -15.0327 0.0000
# 3 47.9255 51.0101 176.7697 0.0000 -6.3448 0.0000
# 4 0.0000 0.0000 0.0000 27.0246 0.0000 3.0406
# 5 13.4491 -15.0327 -6.3448 0.0000 44.0836 0.0000
# 6 0.0000 0.0000 0.0000 3.0406 0.0000 20.3840
#
#
#
# Elastic Compliance Matrix: (Units=1/GPa)
#
#
# Indices 1 2 3 4 5 6 
#
# 1 0.022369 -0.001627 -0.005891 0.000000 -0.008227 0.000000
# 2 -0.001627 0.011625 -0.002768 0.000000 0.004062 0.000000
# 3 -0.005891 -0.002768 0.008125 0.000000 0.002023 0.000000
# 4 0.000000 0.000000 0.000000 0.037635 0.000000 -0.005614
# 5 -0.008227 0.004062 0.002023 0.000000 0.026870 0.000000
# 6 0.000000 0.000000 0.000000 -0.005614 0.000000 0.049895
#
#
# Mechanical properties :
#
#
# Convention : Reuss Voigt Hill
#
# Bulk Modulus (GPa) = 46.40492 63.86800 55.13646
# Shear Modulus (GPa) = 27.13348 33.71536 30.42442
#
# Velocity S-wave (km/s) = 3.58884 4.00051 3.80026
# Velocity P-wave (km/s) = 6.26104 7.18720 6.74005
#
# Compressibility (1/GPa) = 0.02154944
#
# Stress axis : x y z
#
# Youngs Moduli (GPa) = 44.70418 86.02071 123.07079
#
# Poissons Ratio (x) = 0.13994 0.72496
# Poissons Ratio (y) = 0.07273 0.34063
# Poissons Ratio (z) = 0.26333 0.23808
#
# Static dielectric constant tensor:
#      x y z
#    x 3.194900 0.000000 0.249560 
#    y 0.000000 3.580390 0.000000 
#    z 0.249560 0.000000 3.972980 
# 
# 
# High freq. dielectric constant tensor:
#      x y z
#    x 1.816410 0.000000 0.005050 
#    y 0.000000 1.820910 0.000000 
#    z 0.005050 0.000000 1.845170 
# 
# From -- ./inp_files/220625.got.cif
#   From: 2010.06.25/outbox.cif.g09.slc.cpg/sg12_111_cif.got.tgz:220625.got - 2010.06.28 00:19:55.
