data_PCOD8109774
_publ_section_title
;
Structure prediction by ZEFSAII (Michael W. Deem and Ramdas Pophale) SiO2 
 PCOD8109774
Probable space group: C 2/M
;
_chemical_formula_sum "Si O2"
_cell_formula_units_Z 64
_cell_length_a 12.180878
_cell_length_b 23.015353
_cell_length_c 11.240243
_cell_angle_alpha 90.000000
_cell_angle_beta 76.691016
_cell_angle_gamma 90.000000
_cell_volume 3066.539074
_symmetry_space_group_name_H-M "C 2/M"
_symmetry_group_IT_number 12
_symmetry_cell_setting 'monoclinic'
loop_
_space_group_symop_operation_xyz
x,y,z
-x,y,-z
-x,-y,-z
x,-y,z
1/2+x,1/2+y,z
1/2-x,1/2+y,-z
1/2-x,1/2-y,-z
1/2+x,1/2-y,z
loop_
_atom_site_type_symbol
_atom_site_label
_atom_site_fract_x
_atom_site_fract_y
_atom_site_fract_z
Si Si1 0.161702 0.777243 0.176765
Si Si2 0.049096 0.234024 0.605231
Si Si3 0.475169 0.563557 0.642843
Si Si4 0.379966 0.138565 0.491378
Si Si5 0.368509 0.932897 0.032934
Si Si6 0.828120 0.863833 0.304118
Si Si7 0.774444 0.839255 0.062310
Si Si8 0.259460 0.122770 0.280149
O O1 0.203222 0.716164 0.119283
O O2 0.255172 0.809142 0.239317
O O3 0.046040 0.761469 0.270387
O O4 0.144136 0.821018 0.068092
O O5 0.098979 0.294447 0.546379
O O6 0.149260 0.196508 0.633764
O O7 0.000000 0.201366 0.500000
O O8 0.500000 0.557185 0.500000
O O9 0.446315 0.500000 0.703446
O O10 0.587034 0.586197 0.678814
O O11 0.372293 0.606877 0.688290
O O12 0.500000 0.109998 0.500000
O O13 0.301252 0.125080 0.625129
O O14 0.319909 0.111198 0.390826
O O15 0.325525 0.918934 0.175194
O O16 0.343605 0.000000 0.007189
O O17 0.500000 0.918910 0.000000
O O18 0.307914 0.891877 0.952322
O O19 0.845302 0.859698 0.158320
#
# Coordination Sequence:
#
# PCOD8109774 Si02
#       8
#     8   8   8   8   8   8   8   8
#     4  10  21  40  62  97 128 173 211 256 328 390
#     4  11  21  36  62  91 130 170 213 254 317 395
#     4  11  23  42  68  95 125 173 224 270 323 383
#     4  11  24  36  62  98 131 168 204 259 331 390
#     4  10  24  44  68  89 118 175 227 266 318 387
#     4  12  22  40  63  94 133 164 210 268 323 384
#     4  10  23  40  62  94 134 166 210 267 322 382
#     4  11  21  43  67  93 132 167 217 269 321 397
#
# _framework density 20.870432999999998
#
# number of rings (size 3 to 8) (size 9 to 14) (size 15 to 20)
#    0.000    1.250    2.500    4.125    3.500    1.000 
#    0.000    0.000    0.000    4.125    0.000    0.000 
#    0.000    0.000    0.000    0.000    0.000    0.000 
#
# Total GULP energy -396682.180205 kJ/mol
# GULP energy per Si atom -12396.318131 kJ/mol
# Density = 2.082293 g / cm^3
# Si number density = 20.870433 Si / 1000 Ang^3
#
#
#
# Elastic Constant Matrix: (Units=GPa)
#
#
# Indices 1 2 3 4 5 6 
#
# 1 99.9146 28.2139 40.0064 0.0000 2.7979 0.0000
# 2 28.2139 99.6876 21.6123 0.0000 8.3400 0.0000
# 3 40.0064 21.6123 115.6514 0.0000 10.6431 0.0000
# 4 0.0000 0.0000 0.0000 17.5533 0.0000 11.5604
# 5 2.7979 8.3400 10.6431 0.0000 38.2961 0.0000
# 6 0.0000 0.0000 0.0000 11.5604 0.0000 10.3466
#
#
#
# Elastic Compliance Matrix: (Units=1/GPa)
#
#
# Indices 1 2 3 4 5 6 
#
# 1 0.012279 -0.002712 -0.003810 0.000000 0.000752 0.000000
# 2 -0.002712 0.011173 -0.000969 0.000000 -0.001966 0.000000
# 3 -0.003810 -0.000969 0.010366 0.000000 -0.002391 0.000000
# 4 0.000000 0.000000 0.000000 0.215669 0.000000 -0.240970
# 5 0.000752 -0.001966 -0.002391 0.000000 0.027150 0.000000
# 6 0.000000 0.000000 0.000000 -0.240970 0.000000 0.365890
#
#
# Mechanical properties :
#
#
# Convention : Reuss Voigt Hill
#
# Bulk Modulus (GPa) = 53.08965 54.99097 54.04031
# Shear Modulus (GPa) = 7.53252 28.26726 17.89989
#
# Velocity S-wave (km/s) = 1.90185 3.68423 2.93177
# Velocity P-wave (km/s) = 5.50596 6.67113 6.11636
#
# Compressibility (1/GPa) = 0.01883606
#
# Stress axis : x y z
#
# Youngs Moduli (GPa) = 81.44082 89.49771 96.47141
#
# Poissons Ratio (x) = 0.24273 0.36755
# Poissons Ratio (y) = 0.22088 0.09347
# Poissons Ratio (z) = 0.31028 0.08672
#
# Static dielectric constant tensor:
#      x y z
#    x 3.754320 0.000000 0.132170 
#    y 0.000000 3.813450 0.000000 
#    z 0.132170 0.000000 4.165530 
# 
# 
# High freq. dielectric constant tensor:
#      x y z
#    x 1.813600 0.000000 -0.003820 
#    y 0.000000 1.804850 0.000000 
#    z -0.003820 0.000000 1.832220 
# 
# From -- ./inp_files/135340.got.cif
#   From: 2010.06.25/outbox.cif.g09.slc.cpg/sg12_68_cif.got.tgz:135340.got - 2010.06.28 00:19:55.
