data_PCOD8109245
_publ_section_title
;
Structure prediction by ZEFSAII (Michael W. Deem and Ramdas Pophale) SiO2 
 PCOD8109245
Probable space group: C 2/M
;
_chemical_formula_sum "Si O2"
_cell_formula_units_Z 56
_cell_length_a 17.980922
_cell_length_b 8.689928
_cell_length_c 25.130435
_cell_angle_alpha 90.000000
_cell_angle_beta 45.025765
_cell_angle_gamma 90.000000
_cell_volume 2777.847188
_symmetry_space_group_name_H-M "C 2/M"
_symmetry_group_IT_number 12
_symmetry_cell_setting 'monoclinic'
loop_
_space_group_symop_operation_xyz
x,y,z
-x,y,-z
-x,-y,-z
x,-y,z
1/2+x,1/2+y,z
1/2-x,1/2+y,-z
1/2-x,1/2-y,-z
1/2+x,1/2-y,z
loop_
_atom_site_type_symbol
_atom_site_label
_atom_site_fract_x
_atom_site_fract_y
_atom_site_fract_z
Si Si1 0.061369 0.680296 0.849856
Si Si2 0.844097 0.819222 0.986078
Si Si3 0.483307 0.682230 0.591477
Si Si4 0.066094 0.817293 0.267652
Si Si5 0.168410 0.182079 0.424750
Si Si6 0.296959 0.818495 0.121782
Si Si7 0.121849 0.180985 0.712174
O O1 0.037580 0.500000 0.861778
O O2 0.129464 0.727840 0.866413
O O3 0.127508 0.727109 0.764583
O O4 0.952765 0.772256 0.903646
O O5 0.844141 0.761320 0.046281
O O6 0.832450 0.000000 0.990503
O O7 0.750000 0.750000 0.000000
O O8 0.480239 0.500000 0.595314
O O9 0.464082 0.754075 0.659535
O O10 0.597347 0.732023 0.511237
O O11 0.391000 0.736687 0.598775
O O12 0.179767 0.755552 0.192068
O O13 0.981037 0.763381 0.267666
O O14 0.068937 0.000000 0.271065
O O15 0.277127 0.274106 0.373939
O O16 0.189674 0.000000 0.413524
O O17 0.296323 0.000000 0.112309
O O18 0.119167 0.000000 0.724359
#
# Coordination Sequence:
#
# PCOD8109245 Si02
#       7
#     8   8   8   8   8   8   8
#     4  11  23  40  63  87 112 147 194 241 285 338
#     4  12  25  41  62  88 121 155 188 230 281 336
#     4   8  15  31  55  79 102 138 189 235 278 335
#     4   9  18  33  53  78 109 145 184 228 279 336
#     4   9  17  32  56  80 103 138 187 238 283 335
#     4  10  21  39  63  87 112 147 192 238 286 341
#     4  11  22  34  52  80 115 151 185 227 285 346
#
# _framework density 20.159497000000002
#
# number of rings (size 3 to 8) (size 9 to 14) (size 15 to 20)
#    0.000    2.000    0.000    5.143    0.000    6.857 
#    0.000    2.143    0.000    3.429    0.000    0.000 
#    0.000    0.000    0.000    0.000    0.000    0.000 
#
# Total GULP energy -347282.791988 kJ/mol
# GULP energy per Si atom -12402.956857 kJ/mol
# Density = 2.011361 g / cm^3
# Si number density = 20.159497 Si / 1000 Ang^3
#
#
#
# Elastic Constant Matrix: (Units=GPa)
#
#
# Indices 1 2 3 4 5 6 
#
# 1 83.0390 32.3001 22.0678 0.0000 -12.7995 0.0001
# 2 32.3001 45.9637 14.2889 -0.0001 -2.5946 -0.0003
# 3 22.0678 14.2889 98.3400 0.0000 -10.7305 0.0000
# 4 0.0000 -0.0001 0.0000 27.0711 0.0000 -6.9045
# 5 -12.7995 -2.5946 -10.7305 0.0000 43.2387 0.0000
# 6 0.0001 -0.0003 0.0000 -6.9045 0.0000 21.5036
#
#
#
# Elastic Compliance Matrix: (Units=1/GPa)
#
#
# Indices 1 2 3 4 5 6 
#
# 1 0.017680 -0.011624 -0.001833 0.000000 0.004081 0.000000
# 2 -0.011624 0.030441 -0.002046 0.000000 -0.002122 0.000001
# 3 -0.001833 -0.002046 0.011106 0.000000 0.002091 0.000000
# 4 0.000000 0.000000 0.000000 0.040235 0.000000 0.012919
# 5 0.004081 -0.002122 0.002091 0.000000 0.024727 0.000000
# 6 0.000000 0.000001 0.000000 0.012919 0.000000 0.050652
#
#
# Mechanical properties :
#
#
# Convention : Reuss Voigt Hill
#
# Bulk Modulus (GPa) = 35.43583 40.51737 37.97660
# Shear Modulus (GPa) = 23.22828 28.94172 26.08500
#
# Velocity S-wave (km/s) = 3.39813 3.79309 3.60103
# Velocity P-wave (km/s) = 5.74563 6.27100 6.01405
#
# Compressibility (1/GPa) = 0.02822003
#
# Stress axis : x y z
#
# Youngs Moduli (GPa) = 56.56000 32.85009 90.04454
#
# Poissons Ratio (x) = 0.38186 0.16507
# Poissons Ratio (y) = 0.65747 0.18425
# Poissons Ratio (z) = 0.10368 0.06722
#
# Static dielectric constant tensor:
#      x y z
#    x 3.767600 0.000000 0.075110 
#    y 0.000000 3.291850 0.000000 
#    z 0.075110 0.000000 3.865300 
# 
# 
# High freq. dielectric constant tensor:
#      x y z
#    x 1.793130 0.000000 -0.001220 
#    y 0.000000 1.754520 0.000000 
#    z -0.001220 0.000000 1.805900 
# 
# From -- ./inp_files/362896.got.cif
#   From: 2010.06.25/outbox.cif.g09.slc.cpg/sg12_182_cif.got.tgz:362896.got - 2010.06.28 00:19:55.
