data_PCOD8109963
_publ_section_title
;
Structure prediction by ZEFSAII (Michael W. Deem and Ramdas Pophale) SiO2 
 PCOD8109963
Probable space group: C 2/M
;
_chemical_formula_sum "Si O2"
_cell_formula_units_Z 56
_cell_length_a 25.248294
_cell_length_b 13.790482
_cell_length_c 8.648870
_cell_angle_alpha 90.000000
_cell_angle_beta 64.545513
_cell_angle_gamma 90.000000
_cell_volume 2719.089372
_symmetry_space_group_name_H-M "C 2/M"
_symmetry_group_IT_number 12
_symmetry_cell_setting 'monoclinic'
loop_
_space_group_symop_operation_xyz
x,y,z
-x,y,-z
-x,-y,-z
x,-y,z
1/2+x,1/2+y,z
1/2-x,1/2+y,-z
1/2-x,1/2-y,-z
1/2+x,1/2-y,z
loop_
_atom_site_type_symbol
_atom_site_label
_atom_site_fract_x
_atom_site_fract_y
_atom_site_fract_z
Si Si1 0.063093 0.285796 0.855647
Si Si2 0.350755 0.775643 0.752280
Si Si3 0.656612 0.111252 0.930219
Si Si4 0.877280 0.895666 0.330611
Si Si5 0.554766 0.887899 0.541138
Si Si6 0.065422 0.108587 0.423576
Si Si7 0.766858 0.183912 0.620249
O O1 0.095066 0.365287 0.922592
O O2 0.106650 0.192292 0.804229
O O3 0.051883 0.325160 0.698988
O O4 0.000000 0.256116 0.000000
O O5 0.385681 0.860249 0.620671
O O6 0.391204 0.680057 0.723171
O O7 0.292861 0.748408 0.727863
O O8 0.332153 0.816842 0.941049
O O9 0.710682 0.123539 0.745514
O O10 0.653376 0.000000 0.990557
O O11 0.924349 0.892431 0.407060
O O12 0.814497 0.889687 0.492869
O O13 0.880203 0.000000 0.239505
O O14 0.500000 0.863836 0.500000
O O15 0.556242 0.000000 0.585328
O O16 0.000000 0.149992 0.500000
O O17 0.071379 0.000000 0.345046
O O18 0.750000 0.250000 0.500000
#
# Coordination Sequence:
#
# PCOD8109963 Si02
#       7
#     8   8   8   8   8   8   8
#     4  12  25  41  64  94 133 173 211 269 329 389
#     4  11  22  39  65  95 128 165 214 268 322 385
#     4  12  26  43  65  96 136 174 215 268 327 389
#     4  10  21  40  65  92 123 164 211 263 320 381
#     4  11  22  39  63  92 128 173 222 267 320 389
#     4   9  18  34  62  93 123 164 209 255 317 382
#     4  11  21  44  71  92 124 171 217 270 323 381
#
# _framework density 20.595130000000001
#
# number of rings (size 3 to 8) (size 9 to 14) (size 15 to 20)
#    0.000    1.143    4.286    3.000    2.000    3.143 
#    0.000    2.857    0.000    0.000    0.000    0.000 
#    0.000    0.000    0.000    0.000    0.000    0.000 
#
# Total GULP energy -347196.936548 kJ/mol
# GULP energy per Si atom -12399.890591 kJ/mol
# Density = 2.054825 g / cm^3
# Si number density = 20.595130 Si / 1000 Ang^3
#
#
#
# Elastic Constant Matrix: (Units=GPa)
#
#
# Indices 1 2 3 4 5 6 
#
# 1 98.0091 30.4480 24.4750 0.0000 0.4335 0.0000
# 2 30.4480 138.8889 37.4158 0.0000 3.5779 0.0000
# 3 24.4750 37.4158 89.2662 0.0000 -9.4349 0.0000
# 4 0.0000 0.0000 0.0000 23.0480 0.0000 -0.5805
# 5 0.4335 3.5779 -9.4349 0.0000 33.1430 0.0000
# 6 0.0000 0.0000 0.0000 -0.5805 0.0000 14.0560
#
#
#
# Elastic Compliance Matrix: (Units=1/GPa)
#
#
# Indices 1 2 3 4 5 6 
#
# 1 0.011378 -0.001825 -0.002422 0.000000 -0.000641 0.000000
# 2 -0.001825 0.008527 -0.003267 0.000000 -0.001827 0.000000
# 3 -0.002422 -0.003267 0.013688 0.000000 0.004281 0.000000
# 4 0.000000 0.000000 0.000000 0.043433 0.000000 0.001794
# 5 -0.000641 -0.001827 0.004281 0.000000 0.031597 0.000000
# 6 0.000000 0.000000 0.000000 0.001794 0.000000 0.071218
#
#
# Mechanical properties :
#
#
# Convention : Reuss Voigt Hill
#
# Bulk Modulus (GPa) = 53.86548 56.76019 55.31284
# Shear Modulus (GPa) = 24.86846 29.63777 27.25311
#
# Velocity S-wave (km/s) = 3.47867 3.79762 3.64164
# Velocity P-wave (km/s) = 6.50739 6.84464 6.67814
#
# Compressibility (1/GPa) = 0.01856477
#
# Stress axis : x y z
#
# Youngs Moduli (GPa) = 87.88958 117.27110 73.05471
#
# Poissons Ratio (x) = 0.21405 0.17696
# Poissons Ratio (y) = 0.16042 0.23866
# Poissons Ratio (z) = 0.21290 0.38310
#
# Static dielectric constant tensor:
#      x y z
#    x 3.975240 0.000000 -0.296690 
#    y 0.000000 3.934010 0.000000 
#    z -0.296690 0.000000 3.881270 
# 
# 
# High freq. dielectric constant tensor:
#      x y z
#    x 1.813700 0.000000 -0.007230 
#    y 0.000000 1.815990 0.000000 
#    z -0.007230 0.000000 1.789230 
# 
# From -- ./inp_files/96741.got.cif
#   From: 2010.06.25/outbox.cif.g09.slc.cpg/sg12_49_cif.got.tgz:96741.got - 2010.06.28 00:19:55.
