data_PCOD8109106
_publ_section_title
;
Structure prediction by ZEFSAII (Michael W. Deem and Ramdas Pophale) SiO2 
 PCOD8109106
Probable space group: C 2/M
;
_chemical_formula_sum "Si O2"
_cell_formula_units_Z 64
_cell_length_a 19.438133
_cell_length_b 8.822934
_cell_length_c 31.218354
_cell_angle_alpha 90.000000
_cell_angle_beta 143.576234
_cell_angle_gamma 90.000000
_cell_volume 3178.946210
_symmetry_space_group_name_H-M "C 2/M"
_symmetry_group_IT_number 12
_symmetry_cell_setting 'monoclinic'
loop_
_space_group_symop_operation_xyz
x,y,z
-x,y,-z
-x,-y,-z
x,-y,z
1/2+x,1/2+y,z
1/2-x,1/2+y,-z
1/2-x,1/2-y,-z
1/2+x,1/2-y,z
loop_
_atom_site_type_symbol
_atom_site_label
_atom_site_fract_x
_atom_site_fract_y
_atom_site_fract_z
Si Si1 0.028701 0.173513 0.214264
Si Si2 0.227357 0.820820 0.762167
Si Si3 0.095754 0.178531 0.014456
Si Si4 0.486033 0.821721 0.879727
Si Si5 0.193105 0.820676 0.513592
Si Si6 0.735355 0.179286 0.623045
Si Si7 0.813882 0.825705 0.164110
Si Si8 0.572996 0.679338 0.607441
O O1 0.980643 0.276223 0.151717
O O2 0.155301 0.227030 0.292945
O O3 0.941685 0.195692 0.209929
O O4 0.031817 0.000000 0.200353
O O5 0.357306 0.756988 0.823701
O O6 0.177135 0.768634 0.782563
O O7 0.147505 0.754668 0.684460
O O8 0.228079 0.000000 0.758061
O O9 0.223105 0.225283 0.092795
O O10 0.087865 0.000000 0.006885
O O11 0.000000 0.241287 0.000000
O O12 0.074717 0.247466 0.957192
O O13 0.493658 0.000000 0.889363
O O14 0.250000 0.750000 0.500000
O O15 0.255123 0.754120 0.586640
O O16 0.058491 0.774142 0.449055
O O17 0.209461 0.000000 0.520137
O O18 0.618811 0.242487 0.586915
O O19 0.727082 0.000000 0.613050
O O20 0.771980 0.000000 0.140966
O O21 0.586209 0.500000 0.608127
#
# Coordination Sequence:
#
# PCOD8109106 Si02
#       8
#     8   8   8   8   8   8   8   8
#     4  10  23  40  61  90 124 159 196 248 305 353
#     4   9  18  34  61  90 113 148 202 252 291 346
#     4  11  23  38  58  86 122 155 192 249 309 359
#     4  11  21  37  64  89 116 155 202 250 294 358
#     4  11  25  42  64  92 127 164 204 251 303 361
#     4  11  23  40  64  91 126 164 203 250 303 362
#     4  10  21  39  62  86 116 157 204 246 295 359
#     4  10  21  40  65  91 121 162 208 251 299 358
#
# _framework density 20.132459000000001
#
# number of rings (size 3 to 8) (size 9 to 14) (size 15 to 20)
#    0.000    1.625    2.500    1.875    1.750    4.500 
#    0.000    0.625    0.000    0.000    0.000    0.000 
#    0.000    0.000    0.000    0.000    0.000    0.000 
#
# Total GULP energy -396948.840464 kJ/mol
# GULP energy per Si atom -12404.651264 kJ/mol
# Density = 2.008664 g / cm^3
# Si number density = 20.132459 Si / 1000 Ang^3
#
#
#
# Elastic Constant Matrix: (Units=GPa)
#
#
# Indices 1 2 3 4 5 6 
#
# 1 125.5709 36.8342 36.8790 0.0001 -15.2292 -0.0001
# 2 36.8342 65.9445 32.6485 0.0002 -4.2331 -0.0003
# 3 36.8790 32.6485 85.7467 0.0000 -13.8239 0.0000
# 4 0.0001 0.0002 0.0000 28.6498 0.0000 -3.4905
# 5 -15.2292 -4.2331 -13.8239 0.0000 39.1439 0.0001
# 6 -0.0001 -0.0003 0.0000 -3.4905 0.0001 32.5751
#
#
#
# Elastic Compliance Matrix: (Units=1/GPa)
#
#
# Indices 1 2 3 4 5 6 
#
# 1 0.010263 -0.004423 -0.002294 0.000000 0.002704 0.000000
# 2 -0.004423 0.020603 -0.006215 0.000000 -0.001687 0.000000
# 3 -0.002294 -0.006215 0.015654 0.000000 0.003964 0.000000
# 4 0.000000 0.000000 0.000000 0.035366 0.000000 0.003790
# 5 0.002704 -0.001687 0.003964 0.000000 0.027816 0.000000
# 6 0.000000 0.000000 0.000000 0.003790 0.000000 0.031104
#
#
# Mechanical properties :
#
#
# Convention : Reuss Voigt Hill
#
# Bulk Modulus (GPa) = 48.40930 54.44283 51.42606
# Shear Modulus (GPa) = 28.80926 31.46713 30.13820
#
# Velocity S-wave (km/s) = 3.78694 3.95777 3.87330
# Velocity P-wave (km/s) = 6.57410 6.92722 6.75297
#
# Compressibility (1/GPa) = 0.02065719
#
# Stress axis : x y z
#
# Youngs Moduli (GPa) = 97.43977 48.53585 63.88130
#
# Poissons Ratio (x) = 0.21468 0.14653
# Poissons Ratio (y) = 0.43099 0.39699
# Poissons Ratio (z) = 0.22351 0.30163
#
# Static dielectric constant tensor:
#      x y z
#    x 3.704730 0.000000 -0.077240 
#    y 0.000000 3.465110 0.000000 
#    z -0.077240 0.000000 3.748020 
# 
# 
# High freq. dielectric constant tensor:
#      x y z
#    x 1.793610 0.000000 -0.007870 
#    y 0.000000 1.771810 0.000000 
#    z -0.007870 0.000000 1.793620 
# 
# From -- ./inp_files/378399.got.cif
#   From: 2010.06.25/outbox.cif.g09.slc.cpg/sg12_190_cif.got.tgz:378399.got - 2010.06.28 00:19:55.
