data_PCOD8109133
_publ_section_title
;
Structure prediction by ZEFSAII (Michael W. Deem and Ramdas Pophale) SiO2 
 PCOD8109133
Probable space group: C 2/M
;
_chemical_formula_sum "Si O2"
_cell_formula_units_Z 56
_cell_length_a 12.214108
_cell_length_b 18.658310
_cell_length_c 13.418993
_cell_angle_alpha 90.000000
_cell_angle_beta 114.401688
_cell_angle_gamma 90.000000
_cell_volume 2784.939257
_symmetry_space_group_name_H-M "C 2/M"
_symmetry_group_IT_number 12
_symmetry_cell_setting 'monoclinic'
loop_
_space_group_symop_operation_xyz
x,y,z
-x,y,-z
-x,-y,-z
x,-y,z
1/2+x,1/2+y,z
1/2-x,1/2+y,-z
1/2-x,1/2-y,-z
1/2+x,1/2-y,z
loop_
_atom_site_type_symbol
_atom_site_label
_atom_site_fract_x
_atom_site_fract_y
_atom_site_fract_z
Si Si1 0.861232 0.175455 0.217776
Si Si2 0.591750 0.203881 0.117091
Si Si3 0.035247 0.131660 0.121165
Si Si4 0.126806 0.917891 0.587867
Si Si5 0.284851 0.919355 0.277650
Si Si6 0.980629 0.326683 0.277522
Si Si7 0.154728 0.583069 0.474655
O O1 0.727769 0.194741 0.130128
O O2 0.837247 0.128453 0.304869
O O3 0.944756 0.243476 0.278220
O O4 0.922237 0.128522 0.153717
O O5 0.576561 0.287539 0.125476
O O6 0.559654 0.162815 0.207600
O O7 0.500000 0.173779 0.000000
O O8 0.142277 0.085879 0.208833
O O9 0.000000 0.099270 0.000000
O O10 0.221853 0.905914 0.536709
O O11 0.000000 0.890365 0.500000
O O12 0.119635 0.000000 0.619473
O O13 0.355267 0.870114 0.224598
O O14 0.319091 0.895252 0.402149
O O15 0.326151 0.000000 0.274556
O O16 0.055522 0.361146 0.397049
O O17 0.109991 0.500000 0.448487
#
# Coordination Sequence:
#
# PCOD8109133 Si02
#       7
#     8   8   8   8   8   8   8
#     4  11  22  40  64  94 120 156 199 257 301 354
#     4  10  22  40  65  91 118 157 204 252 306 360
#     4  10  23  39  62  89 122 161 203 250 302 361
#     4  10  21  39  62  87 121 162 199 242 302 364
#     4  11  23  40  61  89 127 165 204 246 301 361
#     4  11  22  38  64  92 121 157 202 251 305 358
#     4  10  21  39  62  87 122 164 203 246 299 363
#
# _framework density 20.108158
#
# number of rings (size 3 to 8) (size 9 to 14) (size 15 to 20)
#    0.000    1.571    2.857    1.714    2.000    6.000 
#    0.000    2.857    0.000    2.143    0.000    0.000 
#    0.000    0.000    0.000    0.000    0.000    0.000 
#
# Total GULP energy -347205.997167 kJ/mol
# GULP energy per Si atom -12400.214185 kJ/mol
# Density = 2.006239 g / cm^3
# Si number density = 20.108158 Si / 1000 Ang^3
#
#
#
# Elastic Constant Matrix: (Units=GPa)
#
#
# Indices 1 2 3 4 5 6 
#
# 1 120.9181 18.8208 29.2519 0.0000 3.4679 0.0000
# 2 18.8208 46.7865 31.9731 0.0000 -3.3933 0.0000
# 3 29.2519 31.9731 102.3436 0.0000 8.3691 0.0000
# 4 0.0000 0.0000 0.0000 13.9123 0.0000 -4.5837
# 5 3.4679 -3.3933 8.3691 0.0000 36.7835 0.0000
# 6 0.0000 0.0000 0.0000 -4.5837 0.0000 21.3063
#
#
#
# Elastic Compliance Matrix: (Units=1/GPa)
#
#
# Indices 1 2 3 4 5 6 
#
# 1 0.009107 -0.002509 -0.001763 0.000000 -0.000689 0.000000
# 2 -0.002509 0.028626 -0.008622 0.000000 0.004839 0.000000
# 3 -0.001763 -0.008622 0.013267 0.000000 -0.003648 0.000000
# 4 0.000000 0.000000 0.000000 0.077362 0.000000 0.016643
# 5 -0.000689 0.004839 -0.003648 0.000000 0.028527 0.000000
# 6 0.000000 0.000000 0.000000 0.016643 0.000000 0.050515
#
#
# Mechanical properties :
#
#
# Convention : Reuss Voigt Hill
#
# Bulk Modulus (GPa) = 39.66232 47.79332 43.72782
# Shear Modulus (GPa) = 20.69592 27.06727 23.88159
#
# Velocity S-wave (km/s) = 3.21164 3.67288 3.44998
# Velocity P-wave (km/s) = 5.78966 6.46579 6.13704
#
# Compressibility (1/GPa) = 0.02521284
#
# Stress axis : x y z
#
# Youngs Moduli (GPa) = 109.80875 34.93375 75.37718
#
# Poissons Ratio (x) = 0.08764 0.13288
# Poissons Ratio (y) = 0.27547 0.64987
# Poissons Ratio (z) = 0.19358 0.30118
#
# Static dielectric constant tensor:
#      x y z
#    x 3.943680 0.000000 -0.017170 
#    y 0.000000 3.471460 0.000000 
#    z -0.017170 0.000000 3.689020 
# 
# 
# High freq. dielectric constant tensor:
#      x y z
#    x 1.809020 0.000000 -0.000210 
#    y 0.000000 1.768350 0.000000 
#    z -0.000210 0.000000 1.779530 
# 
# From -- ./inp_files/133964.got.cif
#   From: 2010.06.25/outbox.cif.g09.slc.cpg/sg12_67_cif.got.tgz:133964.got - 2010.06.28 00:19:55.
