data_PCOD8109240
_publ_section_title
;
Structure prediction by ZEFSAII (Michael W. Deem and Ramdas Pophale) SiO2 
 PCOD8109240
Probable space group: C 2/M
;
_chemical_formula_sum "Si O2"
_cell_formula_units_Z 56
_cell_length_a 19.556843
_cell_length_b 8.673674
_cell_length_c 29.239136
_cell_angle_alpha 90.000000
_cell_angle_beta 146.576212
_cell_angle_gamma 90.000000
_cell_volume 2732.007199
_symmetry_space_group_name_H-M "C 2/M"
_symmetry_group_IT_number 12
_symmetry_cell_setting 'monoclinic'
loop_
_space_group_symop_operation_xyz
x,y,z
-x,y,-z
-x,-y,-z
x,-y,z
1/2+x,1/2+y,z
1/2-x,1/2+y,-z
1/2-x,1/2-y,-z
1/2+x,1/2-y,z
loop_
_atom_site_type_symbol
_atom_site_label
_atom_site_fract_x
_atom_site_fract_y
_atom_site_fract_z
Si Si1 0.489644 0.183136 0.634138
Si Si2 0.654554 0.820990 0.359029
Si Si3 0.914355 0.682347 0.493207
Si Si4 0.751468 0.177577 0.816613
Si Si5 0.960004 0.322131 0.172648
Si Si6 0.991514 0.824741 0.893404
Si Si7 0.213639 0.321203 0.068424
O O1 0.384308 0.235239 0.611737
O O2 0.458708 0.251969 0.566819
O O3 0.623212 0.245031 0.725028
O O4 0.494843 0.000000 0.634781
O O5 0.771804 0.727504 0.405631
O O6 0.537184 0.786978 0.261370
O O7 0.689943 0.000000 0.378649
O O8 0.925801 0.500000 0.500261
O O9 0.000000 0.749642 0.500000
O O10 0.852443 0.194762 0.833588
O O11 0.795789 0.278533 0.883846
O O12 0.735652 0.000000 0.823773
O O13 0.968208 0.500000 0.162966
O O14 0.817649 0.279185 0.101416
O O15 0.015326 0.218886 0.163366
O O16 0.037829 0.000000 0.925334
O O17 0.082683 0.712951 0.971735
O O18 0.245910 0.500000 0.080807
#
# Coordination Sequence:
#
# PCOD8109240 Si02
#       7
#     8   8   8   8   8   8   8
#     4   9  18  38  62  86 118 158 198 241 296 352
#     4  10  21  39  63  85 117 160 200 244 296 357
#     4  10  22  37  61  93 125 155 192 244 296 354
#     4  10  21  40  64  87 120 163 205 248 302 366
#     4  11  23  41  63  87 121 162 206 255 306 361
#     4  11  24  39  62  91 122 162 204 251 307 365
#     4  12  24  40  62  89 123 159 204 257 303 360
#
# _framework density 20.49775
#
# number of rings (size 3 to 8) (size 9 to 14) (size 15 to 20)
#    0.000    1.571    1.429    3.429    2.000    4.286 
#    0.000    0.714    0.000    0.000    0.000    0.000 
#    0.000    0.000    0.000    0.000    0.000    0.000 
#
# Total GULP energy -347336.386785 kJ/mol
# GULP energy per Si atom -12404.870957 kJ/mol
# Density = 2.045110 g / cm^3
# Si number density = 20.497750 Si / 1000 Ang^3
#
#
#
# Elastic Constant Matrix: (Units=GPa)
#
#
# Indices 1 2 3 4 5 6 
#
# 1 138.8615 29.8434 35.9430 0.0000 4.0702 0.0000
# 2 29.8434 35.7699 22.0693 0.0000 -0.9201 0.0001
# 3 35.9430 22.0693 83.1116 0.0000 5.5914 0.0000
# 4 0.0000 0.0000 0.0000 26.6270 0.0000 1.8521
# 5 4.0702 -0.9201 5.5914 0.0000 35.3187 0.0000
# 6 0.0000 0.0001 0.0000 1.8521 0.0000 26.0401
#
#
#
# Elastic Compliance Matrix: (Units=1/GPa)
#
#
# Indices 1 2 3 4 5 6 
#
# 1 0.009155 -0.006283 -0.002233 0.000000 -0.000865 0.000000
# 2 -0.006283 0.037932 -0.007551 0.000000 0.002908 0.000000
# 3 -0.002233 -0.007551 0.015160 0.000000 -0.002339 0.000000
# 4 0.000000 0.000000 0.000000 0.037743 0.000000 -0.002684
# 5 -0.000865 0.002908 -0.002339 0.000000 0.028859 0.000000
# 6 0.000000 0.000000 0.000000 -0.002684 0.000000 0.038593
#
#
# Mechanical properties :
#
#
# Convention : Reuss Voigt Hill
#
# Bulk Modulus (GPa) = 33.20708 48.16163 40.68436
# Shear Modulus (GPa) = 23.85350 28.92299 26.38824
#
# Velocity S-wave (km/s) = 3.41502 3.76045 3.59189
# Velocity P-wave (km/s) = 5.63785 6.51166 6.09045
#
# Compressibility (1/GPa) = 0.03011406
#
# Stress axis : x y z
#
# Youngs Moduli (GPa) = 109.23026 26.36304 65.96312
#
# Poissons Ratio (x) = 0.16564 0.14727
# Poissons Ratio (y) = 0.68628 0.49808
# Poissons Ratio (z) = 0.24387 0.19906
#
# Static dielectric constant tensor:
#      x y z
#    x 3.895950 0.000000 -0.107460 
#    y 0.000000 3.496240 0.000000 
#    z -0.107460 0.000000 3.732700 
# 
# 
# High freq. dielectric constant tensor:
#      x y z
#    x 1.816070 0.000000 -0.000710 
#    y 0.000000 1.778680 0.000000 
#    z -0.000710 0.000000 1.807280 
# 
# From -- ./inp_files/380563.got.cif
#   From: 2010.06.25/outbox.cif.g09.slc.cpg/sg12_191_cif.got.tgz:380563.got - 2010.06.28 00:19:55.
