data_PCOD8109918
_publ_section_title
;
Structure prediction by ZEFSAII (Michael W. Deem and Ramdas Pophale) SiO2 
 PCOD8109918
Probable space group: C 2/M
;
_chemical_formula_sum "Si O2"
_cell_formula_units_Z 48
_cell_length_a 9.151973
_cell_length_b 28.852113
_cell_length_c 16.753466
_cell_angle_alpha 90.000000
_cell_angle_beta 31.056212
_cell_angle_gamma 90.000000
_cell_volume 2282.152636
_symmetry_space_group_name_H-M "C 2/M"
_symmetry_group_IT_number 12
_symmetry_cell_setting 'monoclinic'
loop_
_space_group_symop_operation_xyz
x,y,z
-x,y,-z
-x,-y,-z
x,-y,z
1/2+x,1/2+y,z
1/2-x,1/2+y,-z
1/2-x,1/2-y,-z
1/2+x,1/2-y,z
loop_
_atom_site_type_symbol
_atom_site_label
_atom_site_fract_x
_atom_site_fract_y
_atom_site_fract_z
Si Si1 0.735666 0.214267 0.673136
Si Si2 0.665429 0.947262 0.344107
Si Si3 0.612486 0.630450 0.110925
Si Si4 0.910780 0.052715 0.456167
Si Si5 0.248016 0.130561 0.222331
Si Si6 0.827229 0.785579 0.156927
O O1 0.825876 0.166503 0.673184
O O2 0.493266 0.206405 0.720823
O O3 0.640625 0.249202 0.786721
O O4 0.000000 0.234469 0.500000
O O5 0.500000 0.929480 0.500000
O O6 0.429832 0.943486 0.385306
O O7 0.934110 0.916686 0.195803
O O8 0.772324 0.000000 0.306427
O O9 0.652086 0.651404 0.181505
O O10 0.456004 0.666344 0.126889
O O11 0.919008 0.618761 0.931043
O O12 0.000000 0.071411 0.500000
O O13 0.068080 0.083699 0.316694
O O14 0.008772 0.000000 0.394783
O O15 0.000000 0.766489 0.000000
#
# Coordination Sequence:
#
# PCOD8109918 Si02
#       6
#     8   8   8   8   8   8
#     4  12  27  45  70  99 131 173 223 275 329 398
#     4  10  21  40  64  95 132 173 222 274 325 382
#     4  11  25  40  66  97 130 178 218 267 331 395
#     4  10  22  41  66  94 131 176 218 270 330 384
#     4  11  24  42  63  96 135 172 222 270 328 391
#     4  12  26  47  70  97 135 175 217 274 337 399
#
# _framework density 21.032774
#
# number of rings (size 3 to 8) (size 9 to 14) (size 15 to 20)
#    0.000    1.000    3.333    2.500    7.000    1.333 
#    0.000    1.667    0.000    3.500    0.000    0.000 
#    0.000    0.000    0.000    0.000    0.000    0.000 
#
# Total GULP energy -297666.453030 kJ/mol
# GULP energy per Si atom -12402.768876 kJ/mol
# Density = 2.098490 g / cm^3
# Si number density = 21.032774 Si / 1000 Ang^3
#
#
#
# Elastic Constant Matrix: (Units=GPa)
#
#
# Indices 1 2 3 4 5 6 
#
# 1 114.4140 22.3886 36.5685 0.0000 -8.9322 0.0000
# 2 22.3886 90.4717 42.9138 0.0000 2.6156 0.0000
# 3 36.5685 42.9138 116.3433 0.0000 -3.0761 0.0000
# 4 0.0000 0.0000 0.0000 32.5131 0.0000 -1.0169
# 5 -8.9322 2.6156 -3.0761 0.0000 35.7306 0.0000
# 6 0.0000 0.0000 0.0000 -1.0169 0.0000 29.9081
#
#
#
# Elastic Compliance Matrix: (Units=1/GPa)
#
#
# Indices 1 2 3 4 5 6 
#
# 1 0.010014 -0.001313 -0.002600 0.000000 0.002376 0.000000
# 2 -0.001313 0.013641 -0.004664 0.000000 -0.001728 0.000000
# 3 -0.002600 -0.004664 0.011150 0.000000 0.000651 0.000000
# 4 0.000000 0.000000 0.000000 0.030790 0.000000 0.001047
# 5 0.002376 -0.001728 0.000651 0.000000 0.028764 0.000000
# 6 0.000000 0.000000 0.000000 0.001047 0.000000 0.033471
#
#
# Mechanical properties :
#
#
# Convention : Reuss Voigt Hill
#
# Bulk Modulus (GPa) = 56.66111 58.33010 57.49560
# Shear Modulus (GPa) = 33.14160 34.25423 33.69792
#
# Velocity S-wave (km/s) = 3.97383 4.03998 4.00704
# Velocity P-wave (km/s) = 6.93203 7.03954 6.98599
#
# Compressibility (1/GPa) = 0.01764879
#
# Stress axis : x y z
#
# Youngs Moduli (GPa) = 99.86296 73.31057 89.68444
#
# Poissons Ratio (x) = 0.09628 0.23320
# Poissons Ratio (y) = 0.13116 0.41831
# Poissons Ratio (z) = 0.25967 0.34194
#
# Static dielectric constant tensor:
#      x y z
#    x 4.162200 0.000000 -0.078400 
#    y 0.000000 3.649100 0.000000 
#    z -0.078400 0.000000 3.764440 
# 
# 
# High freq. dielectric constant tensor:
#      x y z
#    x 1.849310 0.000000 -0.009260 
#    y 0.000000 1.816160 0.000000 
#    z -0.009260 0.000000 1.818650 
# 
# From -- ./inp_files/260222.got.cif
#   From: 2010.06.25/outbox.cif.g09.slc.cpg/sg12_131_cif.got.tgz:260222.got - 2010.06.28 00:19:55.
