data_PCOD8109567
_publ_section_title
;
Structure prediction by ZEFSAII (Michael W. Deem and Ramdas Pophale) SiO2 
 PCOD8109567
Probable space group: C 2/M
;
_chemical_formula_sum "Si O2"
_cell_formula_units_Z 28
_cell_length_a 15.032708
_cell_length_b 10.189864
_cell_length_c 14.158987
_cell_angle_alpha 90.000000
_cell_angle_beta 36.493630
_cell_angle_gamma 90.000000
_cell_volume 1289.912141
_symmetry_space_group_name_H-M "C 2/M"
_symmetry_group_IT_number 12
_symmetry_cell_setting 'monoclinic'
loop_
_space_group_symop_operation_xyz
x,y,z
-x,y,-z
-x,-y,-z
x,-y,z
1/2+x,1/2+y,z
1/2-x,1/2+y,-z
1/2-x,1/2-y,-z
1/2+x,1/2-y,z
loop_
_atom_site_type_symbol
_atom_site_label
_atom_site_fract_x
_atom_site_fract_y
_atom_site_fract_z
Si Si1 0.000000 0.749804 0.500000
Si Si2 0.068861 0.351974 0.087337
Si Si3 0.710975 0.853234 0.166355
Si Si4 0.247319 0.852827 0.418388
O O1 0.891625 0.658128 0.653855
O O2 0.901942 0.841587 0.515935
O O3 0.113604 0.500000 0.018670
O O4 0.109576 0.324939 0.161533
O O5 0.891428 0.329344 0.228465
O O6 0.153501 0.250930 0.946387
O O7 0.778532 0.000000 0.105459
O O8 0.250000 0.750000 0.500000
O O9 0.253744 0.000000 0.456005
#
# Coordination Sequence:
#
# PCOD8109567 Si02
#       4
#     4   8   8   8
#     4  12  24  40  66 102 132 164 214 270 320 382
#     4   9  20  41  64  89 127 171 213 261 320 380
#     4  10  21  39  65  95 127 169 216 264 316 379
#     4  11  24  43  66  96 131 171 214 264 323 381
#
# _framework density 21.706906
#
# number of rings (size 3 to 8) (size 9 to 14) (size 15 to 20)
#    0.000    1.714    2.857    0.857    0.000    5.714 
#    0.000    4.286    0.000    0.000    0.000    0.000 
#    0.000    0.000    0.000    0.000    0.000    0.000 
#
# Total GULP energy -173634.063988 kJ/mol
# GULP energy per Si atom -12402.433142 kJ/mol
# Density = 2.165750 g / cm^3
# Si number density = 21.706906 Si / 1000 Ang^3
#
#
#
# Elastic Constant Matrix: (Units=GPa)
#
#
# Indices 1 2 3 4 5 6 
#
# 1 89.6552 47.5098 41.6808 0.0000 -13.0925 0.0000
# 2 47.5098 166.8047 91.0947 0.0000 -8.2193 0.0000
# 3 41.6808 91.0947 133.8861 0.0000 -1.6685 0.0000
# 4 0.0000 0.0000 0.0000 38.8953 0.0000 -1.7988
# 5 -13.0925 -8.2193 -1.6685 0.0000 37.3133 0.0000
# 6 0.0000 0.0000 0.0000 -1.7988 0.0000 13.9551
#
#
#
# Elastic Compliance Matrix: (Units=1/GPa)
#
#
# Indices 1 2 3 4 5 6 
#
# 1 0.014342 -0.002323 -0.002829 0.000000 0.004394 0.000000
# 2 -0.002323 0.010040 -0.006094 0.000000 0.001124 0.000000
# 3 -0.002829 -0.006094 0.012474 0.000000 -0.001777 0.000000
# 4 0.000000 0.000000 0.000000 0.025864 0.000000 0.003334
# 5 0.004394 0.001124 -0.001777 0.000000 0.028510 0.000000
# 6 0.000000 0.000000 0.000000 0.003334 0.000000 0.072088
#
#
# Mechanical properties :
#
#
# Convention : Reuss Voigt Hill
#
# Bulk Modulus (GPa) = 69.62355 83.43517 76.52936
# Shear Modulus (GPa) = 26.23307 32.03679 29.13493
#
# Velocity S-wave (km/s) = 3.48014 3.84589 3.66757
# Velocity P-wave (km/s) = 6.94928 7.63163 7.29843
#
# Compressibility (1/GPa) = 0.01436296
#
# Stress axis : x y z
#
# Youngs Moduli (GPa) = 69.72509 99.60039 80.16688
#
# Poissons Ratio (x) = 0.23139 0.22683
# Poissons Ratio (y) = 0.16199 0.48853
# Poissons Ratio (z) = 0.19728 0.60696
#
# Static dielectric constant tensor:
#      x y z
#    x 3.861210 0.000000 -0.189910 
#    y 0.000000 3.875780 0.000000 
#    z -0.189910 0.000000 3.930100 
# 
# 
# High freq. dielectric constant tensor:
#      x y z
#    x 1.844390 0.000000 -0.007690 
#    y 0.000000 1.855270 0.000000 
#    z -0.007690 0.000000 1.852890 
# 
# From -- ./inp_files/56701.got.cif
#   From: 2010.06.25/outbox.cif.g09.slc.cpg/sg12_29_cif.got.tgz:56701.got - 2010.06.28 00:19:55.
