data_PCOD8109172
_publ_section_title
;
Structure prediction by ZEFSAII (Michael W. Deem and Ramdas Pophale) SiO2 
 PCOD8109172
Probable space group: C 2/M
;
_chemical_formula_sum "Si O2"
_cell_formula_units_Z 48
_cell_length_a 29.910464
_cell_length_b 19.780411
_cell_length_c 13.226904
_cell_angle_alpha 90.000000
_cell_angle_beta 162.211599
_cell_angle_gamma 90.000000
_cell_volume 2390.735338
_symmetry_space_group_name_H-M "C 2/M"
_symmetry_group_IT_number 12
_symmetry_cell_setting 'monoclinic'
loop_
_space_group_symop_operation_xyz
x,y,z
-x,y,-z
-x,-y,-z
x,-y,z
1/2+x,1/2+y,z
1/2-x,1/2+y,-z
1/2-x,1/2-y,-z
1/2+x,1/2-y,z
loop_
_atom_site_type_symbol
_atom_site_label
_atom_site_fract_x
_atom_site_fract_y
_atom_site_fract_z
Si Si1 0.737229 0.578633 0.261745
Si Si2 0.665357 0.578721 0.876737
Si Si3 0.243112 0.689580 0.275169
Si Si4 0.670554 0.810334 0.885488
Si Si5 0.537496 0.421238 0.195320
Si Si6 0.543716 0.189776 0.209622
O O1 0.770938 0.500000 0.350274
O O2 0.879541 0.618132 0.605091
O O3 0.703894 0.596555 0.074474
O O4 0.598142 0.601541 0.027821
O O5 0.500000 0.602237 0.500000
O O6 0.685391 0.500000 0.895604
O O7 0.773830 0.618009 0.036438
O O8 0.318562 0.617937 0.459883
O O9 0.349006 0.749918 0.532456
O O10 0.202719 0.695025 0.072081
O O11 0.097961 0.695860 0.027255
O O12 0.500000 0.804019 0.500000
O O13 0.750000 0.750000 0.000000
O O14 0.572730 0.500000 0.284444
O O15 0.500000 0.402283 0.000000
O O16 0.500000 0.195375 0.000000
#
# Coordination Sequence:
#
# PCOD8109172 Si02
#       6
#     8   8   8   8   8   8
#     4  10  21  39  62  89 122 158 197 241 293 352
#     4  10  21  39  63  90 121 158 198 241 292 350
#     4  12  24  40  63  89 120 156 199 245 295 353
#     4  12  25  41  61  88 121 157 199 246 296 350
#     4  10  21  39  63  91 122 156 197 244 294 350
#     4  12  25  42  63  88 120 156 198 246 298 353
#
# _framework density 20.077504999999999
#
# number of rings (size 3 to 8) (size 9 to 14) (size 15 to 20)
#    0.000    1.000    0.000    7.500    0.000    3.333 
#    0.000    0.000    0.000    0.000    0.000    0.000 
#    0.000    0.000    0.000    0.000    0.000    0.000 
#
# Total GULP energy -297789.655221 kJ/mol
# GULP energy per Si atom -12407.902301 kJ/mol
# Density = 2.003181 g / cm^3
# Si number density = 20.077505 Si / 1000 Ang^3
#
#
#
# Elastic Constant Matrix: (Units=GPa)
#
#
# Indices 1 2 3 4 5 6 
#
# 1 196.1216 67.7055 104.7807 0.0000 -2.7889 0.0000
# 2 67.7055 99.0547 81.8158 0.0000 4.3664 0.0000
# 3 104.7807 81.8158 181.0451 0.0000 4.0665 0.0000
# 4 0.0000 0.0000 0.0000 59.1354 0.0000 7.4355
# 5 -2.7889 4.3664 4.0665 0.0000 49.9807 0.0000
# 6 0.0000 0.0000 0.0000 7.4355 0.0000 42.9563
#
#
#
# Elastic Compliance Matrix: (Units=1/GPa)
#
#
# Indices 1 2 3 4 5 6 
#
# 1 0.007807 -0.002598 -0.003365 0.000000 0.000936 0.000000
# 2 -0.002598 0.017006 -0.006156 0.000000 -0.001130 0.000000
# 3 -0.003365 -0.006156 0.010264 0.000000 -0.000485 0.000000
# 4 0.000000 0.000000 0.000000 0.017287 0.000000 -0.002992
# 5 0.000936 -0.001130 -0.000485 0.000000 0.020198 0.000000
# 6 0.000000 0.000000 0.000000 -0.002992 0.000000 0.023797
#
#
# Mechanical properties :
#
#
# Convention : Reuss Voigt Hill
#
# Bulk Modulus (GPa) = 92.26696 109.42504 100.84600
# Shear Modulus (GPa) = 40.25433 45.20911 42.73172
#
# Velocity S-wave (km/s) = 4.48252 4.75039 4.61840
# Velocity P-wave (km/s) = 8.53498 9.20369 8.87563
#
# Compressibility (1/GPa) = 0.01083812
#
# Stress axis : x y z
#
# Youngs Moduli (GPa) = 128.08968 58.80412 97.42657
#
# Poissons Ratio (x) = 0.15276 0.32788
# Poissons Ratio (y) = 0.33275 0.59977
# Poissons Ratio (z) = 0.43108 0.36201
#
# Static dielectric constant tensor:
#      x y z
#    x 3.889940 0.000000 -0.037680 
#    y 0.000000 3.794550 0.000000 
#    z -0.037680 0.000000 3.780440 
# 
# 
# High freq. dielectric constant tensor:
#      x y z
#    x 1.805670 0.000000 -0.003890 
#    y 0.000000 1.797640 0.000000 
#    z -0.003890 0.000000 1.793810 
# 
# From -- ./inp_files/184765.got.cif
#   From: 2010.06.25/outbox.cif.g09.slc.cpg/sg12_93_cif.got.tgz:184765.got - 2010.06.28 00:19:55.
