data_PCOD8109576
_publ_section_title
;
Structure prediction by ZEFSAII (Michael W. Deem and Ramdas Pophale) SiO2 
 PCOD8109576
Probable space group: C 2/M
;
_chemical_formula_sum "Si O2"
_cell_formula_units_Z 56
_cell_length_a 18.406832
_cell_length_b 22.241129
_cell_length_c 9.134984
_cell_angle_alpha 90.000000
_cell_angle_beta 46.210759
_cell_angle_gamma 90.000000
_cell_volume 2699.695647
_symmetry_space_group_name_H-M "C 2/M"
_symmetry_group_IT_number 12
_symmetry_cell_setting 'monoclinic'
loop_
_space_group_symop_operation_xyz
x,y,z
-x,y,-z
-x,-y,-z
x,-y,z
1/2+x,1/2+y,z
1/2-x,1/2+y,-z
1/2-x,1/2-y,-z
1/2+x,1/2-y,z
loop_
_atom_site_type_symbol
_atom_site_label
_atom_site_fract_x
_atom_site_fract_y
_atom_site_fract_z
Si Si1 0.816443 0.430844 0.089123
Si Si2 0.331412 0.376971 0.924256
Si Si3 0.302588 0.155258 0.631265
Si Si4 0.981830 0.929821 0.189144
Si Si5 0.882462 0.223144 0.640084
Si Si6 0.480681 0.932451 0.356084
Si Si7 0.293764 0.639475 0.527447
O O1 0.823170 0.500000 0.128520
O O2 0.721952 0.423134 0.112014
O O3 0.800769 0.387850 0.251194
O O4 0.919440 0.410102 0.867134
O O5 0.445237 0.397521 0.795723
O O6 0.333002 0.310253 0.849310
O O7 0.272273 0.380865 0.159253
O O8 0.339586 0.210368 0.678319
O O9 0.391211 0.113034 0.447005
O O10 0.243552 0.173807 0.566439
O O11 0.866785 0.916322 0.390305
O O12 0.003146 0.000000 0.168973
O O13 0.000000 0.905284 0.000000
O O14 0.858184 0.187654 0.526357
O O15 0.000000 0.228747 0.500000
O O16 0.500000 0.931696 0.500000
O O17 0.451395 0.000000 0.346040
#
# Coordination Sequence:
#
# PCOD8109576 Si02
#       7
#     8   8   8   8   8   8   8
#     4  10  22  40  63  94 131 167 211 262 324 387
#     4  11  22  40  65  95 126 166 217 269 319 379
#     4  12  24  41  67  93 128 168 219 263 329 386
#     4  11  22  38  64  98 133 171 213 262 324 389
#     4  11  24  43  67  89 126 169 214 273 321 380
#     4  10  21  39  65  97 129 166 215 271 319 383
#     4  11  24  43  62  95 134 168 210 270 327 386
#
# _framework density 20.743079000000002
#
# number of rings (size 3 to 8) (size 9 to 14) (size 15 to 20)
#    0.000    1.143    4.286    2.143    0.000    2.286 
#    0.000    3.571    3.143    0.000    0.000    0.000 
#    0.000    0.000    0.000    0.000    0.000    0.000 
#
# Total GULP energy -347250.131635 kJ/mol
# GULP energy per Si atom -12401.790416 kJ/mol
# Density = 2.069587 g / cm^3
# Si number density = 20.743079 Si / 1000 Ang^3
#
#
#
# Elastic Constant Matrix: (Units=GPa)
#
#
# Indices 1 2 3 4 5 6 
#
# 1 102.4090 30.1378 27.3484 0.0000 -0.4809 0.0000
# 2 30.1378 75.9881 20.4231 0.0000 -6.3249 0.0000
# 3 27.3484 20.4231 105.2793 0.0000 -8.3242 0.0000
# 4 0.0000 0.0000 0.0000 25.5406 0.0000 -3.2579
# 5 -0.4809 -6.3249 -8.3242 0.0000 32.7983 0.0000
# 6 0.0000 0.0000 0.0000 -3.2579 0.0000 25.0904
#
#
#
# Elastic Compliance Matrix: (Units=1/GPa)
#
#
# Indices 1 2 3 4 5 6 
#
# 1 0.011574 -0.004069 -0.002312 0.000000 -0.001202 0.000000
# 2 -0.004069 0.015449 -0.001744 0.000000 0.002477 0.000000
# 3 -0.002312 -0.001744 0.010621 0.000000 0.002325 0.000000
# 4 0.000000 0.000000 0.000000 0.039813 0.000000 0.005170
# 5 -0.001202 0.002477 0.002325 0.000000 0.031540 0.000000
# 6 0.000000 0.000000 0.000000 0.005170 0.000000 0.040527
#
#
# Mechanical properties :
#
#
# Convention : Reuss Voigt Hill
#
# Bulk Modulus (GPa) = 46.74310 48.83277 47.78793
# Shear Modulus (GPa) = 28.91754 30.40367 29.66061
#
# Velocity S-wave (km/s) = 3.73779 3.83263 3.78551
# Velocity P-wave (km/s) = 6.41961 6.57102 6.49575
#
# Compressibility (1/GPa) = 0.02139353
#
# Stress axis : x y z
#
# Youngs Moduli (GPa) = 86.39993 64.73043 94.14958
#
# Poissons Ratio (x) = 0.26339 0.21770
# Poissons Ratio (y) = 0.35156 0.16420
# Poissons Ratio (z) = 0.19978 0.11289
#
# Static dielectric constant tensor:
#      x y z
#    x 3.764330 0.000000 0.029020 
#    y 0.000000 3.626150 0.000000 
#    z 0.029020 0.000000 3.854170 
# 
# 
# High freq. dielectric constant tensor:
#      x y z
#    x 1.816970 0.000000 0.000920 
#    y 0.000000 1.799980 0.000000 
#    z 0.000920 0.000000 1.820440 
# 
# From -- ./inp_files/79061.got.cif
#   From: 2010.06.25/outbox.cif.g09.slc.cpg/sg12_40_cif.got.tgz:79061.got - 2010.06.28 00:19:55.
