data_PCOD8109077
_publ_section_title
;
Structure prediction by ZEFSAII (Michael W. Deem and Ramdas Pophale) SiO2 
 PCOD8109077
Probable space group: C 2/M
;
_chemical_formula_sum "Si O2"
_cell_formula_units_Z 40
_cell_length_a 9.981104
_cell_length_b 9.877673
_cell_length_c 21.614858
_cell_angle_alpha 90.000000
_cell_angle_beta 108.774527
_cell_angle_gamma 90.000000
_cell_volume 2017.624741
_symmetry_space_group_name_H-M "C 2/M"
_symmetry_group_IT_number 12
_symmetry_cell_setting 'monoclinic'
loop_
_space_group_symop_operation_xyz
x,y,z
-x,y,-z
-x,-y,-z
x,-y,z
1/2+x,1/2+y,z
1/2-x,1/2+y,-z
1/2-x,1/2-y,-z
1/2+x,1/2-y,z
loop_
_atom_site_type_symbol
_atom_site_label
_atom_site_fract_x
_atom_site_fract_y
_atom_site_fract_z
Si Si1 0.227450 0.731174 0.131049
Si Si2 0.332807 0.000000 0.970592
Si Si3 0.044436 0.155821 0.575986
Si Si4 0.022150 0.654118 0.207622
Si Si5 0.855558 0.000000 0.941519
Si Si6 0.371882 0.156782 0.641751
O O1 0.223045 0.633417 0.071473
O O2 0.146928 0.665616 0.176527
O O3 0.391201 0.749586 0.172543
O O4 0.149865 0.870198 0.103069
O O5 0.500000 0.000000 0.000000
O O6 0.277915 0.000000 0.032426
O O7 0.208155 0.189248 0.608623
O O8 0.000000 0.190311 0.500000
O O9 0.958126 0.251690 0.607943
O O10 0.010822 0.000000 0.587533
O O11 0.967015 0.500000 0.200389
O O12 0.085407 0.697567 0.282656
O O13 0.000000 0.000000 0.000000
O O14 0.405316 0.000000 0.632702
#
# Coordination Sequence:
#
# PCOD8109077 Si02
#       6
#     8   4   8   8   4   8
#     4  12  23  43  66  88 125 162 199 256 309 364
#     4  12  24  42  66  92 122 160 199 250 315 370
#     4  10  21  39  61  93 129 163 206 254 303 359
#     4  11  23  43  62  91 125 160 207 255 304 365
#     4  12  24  40  60  96 120 150 209 250 297 376
#     4  10  22  39  62  89 124 165 207 254 302 359
#
# _framework density 19.825292999999999
#
# number of rings (size 3 to 8) (size 9 to 14) (size 15 to 20)
#    0.000    1.000    2.000    5.400    0.000    1.200 
#    3.600    0.000    0.000    0.000    0.000    0.000 
#    0.000    0.000    0.000    0.000    0.000    0.000 
#
# Total GULP energy -248156.943162 kJ/mol
# GULP energy per Si atom -12407.847158 kJ/mol
# Density = 1.978017 g / cm^3
# Si number density = 19.825293 Si / 1000 Ang^3
#
#
#
# Elastic Constant Matrix: (Units=GPa)
#
#
# Indices 1 2 3 4 5 6 
#
# 1 112.4021 29.0871 51.3689 0.0000 7.7600 0.0000
# 2 29.0871 94.0196 45.1707 0.0000 1.9959 0.0000
# 3 51.3689 45.1707 123.8637 0.0000 12.0978 0.0000
# 4 0.0000 0.0000 0.0000 35.3186 0.0000 -5.0322
# 5 7.7600 1.9959 12.0978 0.0000 42.9922 0.0000
# 6 0.0000 0.0000 0.0000 -5.0322 0.0000 40.5473
#
#
#
# Elastic Compliance Matrix: (Units=1/GPa)
#
#
# Indices 1 2 3 4 5 6 
#
# 1 0.011174 -0.001518 -0.004001 0.000000 -0.000821 0.000000
# 2 -0.001518 0.013125 -0.004241 0.000000 0.000858 0.000000
# 3 -0.004001 -0.004241 0.011506 0.000000 -0.002319 0.000000
# 4 0.000000 0.000000 0.000000 0.028823 0.000000 0.003577
# 5 -0.000821 0.000858 -0.002319 0.000000 0.024021 0.000000
# 6 0.000000 0.000000 0.000000 0.003577 0.000000 0.025107
#
#
# Mechanical properties :
#
#
# Convention : Reuss Voigt Hill
#
# Bulk Modulus (GPa) = 61.39986 64.61544 63.00765
# Shear Modulus (GPa) = 36.04842 37.41551 36.73197
#
# Velocity S-wave (km/s) = 4.26878 4.34898 4.30907
# Velocity P-wave (km/s) = 7.43871 7.60798 7.52382
#
# Compressibility (1/GPa) = 0.01628668
#
# Stress axis : x y z
#
# Youngs Moduli (GPa) = 89.49072 76.19160 86.91456
#
# Poissons Ratio (x) = 0.11562 0.34772
# Poissons Ratio (y) = 0.13581 0.36859
# Poissons Ratio (z) = 0.35802 0.32311
#
# Static dielectric constant tensor:
#      x y z
#    x 3.565240 0.000000 0.053830 
#    y 0.000000 3.646870 0.000000 
#    z 0.053830 0.000000 3.919630 
# 
# 
# High freq. dielectric constant tensor:
#      x y z
#    x 1.782050 0.000000 0.008380 
#    y 0.000000 1.779520 0.000000 
#    z 0.008380 0.000000 1.790080 
# 
# From -- ./inp_files/331819.got.cif
#   From: 2010.06.25/outbox.cif.g09.slc.cpg/sg12_166_cif.got.tgz:331819.got - 2010.06.28 00:19:55.
