data_PCOD8109887
_publ_section_title
;
Structure prediction by ZEFSAII (Michael W. Deem and Ramdas Pophale) SiO2 
 PCOD8109887
Probable space group: C 2/M
;
_chemical_formula_sum "Si O2"
_cell_formula_units_Z 48
_cell_length_a 8.770929
_cell_length_b 32.997314
_cell_length_c 8.110146
_cell_angle_alpha 90.000000
_cell_angle_beta 93.859528
_cell_angle_gamma 90.000000
_cell_volume 2341.891612
_symmetry_space_group_name_H-M "C 2/M"
_symmetry_group_IT_number 12
_symmetry_cell_setting 'monoclinic'
loop_
_space_group_symop_operation_xyz
x,y,z
-x,y,-z
-x,-y,-z
x,-y,z
1/2+x,1/2+y,z
1/2-x,1/2+y,-z
1/2-x,1/2-y,-z
1/2+x,1/2-y,z
loop_
_atom_site_type_symbol
_atom_site_label
_atom_site_fract_x
_atom_site_fract_y
_atom_site_fract_z
Si Si1 0.419546 0.650902 0.319527
Si Si2 0.274864 0.500000 0.641055
Si Si3 0.330264 0.708214 0.044634
Si Si4 0.366180 0.500000 0.281889
Si Si5 0.075070 0.576276 0.681388
Si Si6 0.264549 0.917695 0.825986
Si Si7 0.215001 0.132123 0.144065
O O1 0.500000 0.660962 0.500000
O O2 0.337637 0.691375 0.235984
O O3 0.298470 0.613798 0.320093
O O4 0.542751 0.634689 0.196952
O O5 0.266458 0.500000 0.442317
O O6 0.452682 0.500000 0.692527
O O7 0.192134 0.539094 0.711588
O O8 0.500000 0.714940 0.000000
O O9 0.250000 0.750000 0.000000
O O10 0.238978 0.675672 0.926579
O O11 0.322516 0.459981 0.181003
O O12 0.169216 0.618558 0.703235
O O13 0.000000 0.573997 0.500000
O O14 0.944349 0.575090 0.810943
O O15 0.232153 0.901339 0.004657
#
# Coordination Sequence:
#
# PCOD8109887 Si02
#       7
#     8   4   8   4   8   8   8
#     4  10  21  40  64  91 120 163 207 250 301 369
#     4  11  24  38  57  84 123 162 205 258 311 360
#     4   9  20  40  64  89 126 161 195 246 303 363
#     4  11  23  39  60  86 116 170 210 251 312 359
#     4  12  22  38  58  86 122 159 203 259 307 358
#     4  11  22  37  61  86 121 159 207 258 308 359
#     4  10  23  41  60  90 120 159 204 251 310 368
#
# _framework density 20.496251999999998
#
# number of rings (size 3 to 8) (size 9 to 14) (size 15 to 20)
#    0.000    1.500    1.667    4.750    2.333    3.333 
#    0.000    8.333    0.000    0.000    0.000    0.000 
#    0.000    0.000    0.000    0.000    0.000    0.000 
#
# Total GULP energy -297476.898266 kJ/mol
# GULP energy per Si atom -12394.870761 kJ/mol
# Density = 2.044960 g / cm^3
# Si number density = 20.496252 Si / 1000 Ang^3
#
#
#
# Elastic Constant Matrix: (Units=GPa)
#
#
# Indices 1 2 3 4 5 6 
#
# 1 89.7647 56.1737 33.5253 0.0000 -4.3579 0.0000
# 2 56.1737 174.2697 50.8994 0.0000 11.2603 0.0000
# 3 33.5253 50.8994 64.7831 0.0000 -10.6303 0.0000
# 4 0.0000 0.0000 0.0000 25.1541 0.0000 8.9816
# 5 -4.3579 11.2603 -10.6303 0.0000 28.5381 0.0000
# 6 0.0000 0.0000 0.0000 8.9816 0.0000 38.3514
#
#
#
# Elastic Compliance Matrix: (Units=1/GPa)
#
#
# Indices 1 2 3 4 5 6 
#
# 1 0.015301 -0.003700 -0.004674 0.000000 0.002055 0.000000
# 2 -0.003700 0.009233 -0.006423 0.000000 -0.006601 0.000000
# 3 -0.004674 -0.006423 0.024711 0.000000 0.011025 0.000000
# 4 0.000000 0.000000 0.000000 0.043383 0.000000 -0.010160
# 5 0.002055 -0.006601 0.011025 0.000000 0.042066 0.000000
# 6 0.000000 0.000000 0.000000 -0.010160 0.000000 0.028454
#
#
# Mechanical properties :
#
#
# Convention : Reuss Voigt Hill
#
# Bulk Modulus (GPa) = 50.88788 67.77937 59.33362
# Shear Modulus (GPa) = 25.08884 30.95664 28.02274
#
# Velocity S-wave (km/s) = 3.50247 3.89055 3.70160
# Velocity P-wave (km/s) = 6.42169 7.30224 6.87608
#
# Compressibility (1/GPa) = 0.01965104
#
# Stress axis : x y z
#
# Youngs Moduli (GPa) = 65.35546 108.30427 40.46840
#
# Poissons Ratio (x) = 0.40069 0.18916
# Poissons Ratio (y) = 0.24179 0.25993
# Poissons Ratio (z) = 0.30549 0.69564
#
# Static dielectric constant tensor:
#      x y z
#    x 4.003270 0.000000 0.064910 
#    y 0.000000 3.954320 0.000000 
#    z 0.064910 0.000000 3.754610 
# 
# 
# High freq. dielectric constant tensor:
#      x y z
#    x 1.811030 0.000000 0.004500 
#    y 0.000000 1.794410 0.000000 
#    z 0.004500 0.000000 1.796830 
# 
# From -- ./inp_files/42301.got.cif
#   From: 2010.06.25/outbox.cif.g09.slc.cpg/sg12_22_cif.got.tgz:42301.got - 2010.06.28 00:19:55.
