data_PCOD8109936
_publ_section_title
;
Structure prediction by ZEFSAII (Michael W. Deem and Ramdas Pophale) SiO2 
 PCOD8109936
Probable space group: C 2/M
;
_chemical_formula_sum "Si O2"
_cell_formula_units_Z 56
_cell_length_a 27.903960
_cell_length_b 8.501450
_cell_length_c 18.312222
_cell_angle_alpha 90.000000
_cell_angle_beta 37.515970
_cell_angle_gamma 90.000000
_cell_volume 2645.481499
_symmetry_space_group_name_H-M "C 2/M"
_symmetry_group_IT_number 12
_symmetry_cell_setting 'monoclinic'
loop_
_space_group_symop_operation_xyz
x,y,z
-x,y,-z
-x,-y,-z
x,-y,z
1/2+x,1/2+y,z
1/2-x,1/2+y,-z
1/2-x,1/2-y,-z
1/2+x,1/2-y,z
loop_
_atom_site_type_symbol
_atom_site_label
_atom_site_fract_x
_atom_site_fract_y
_atom_site_fract_z
Si Si1 0.016305 0.682090 0.560610
Si Si2 0.625122 0.315170 0.184315
Si Si3 0.962640 0.814581 0.122905
Si Si4 0.262892 0.321280 0.829536
Si Si5 0.709002 0.813071 0.623144
Si Si6 0.407336 0.180288 0.930833
Si Si7 0.824058 0.185223 0.607940
O O1 0.037859 0.500000 0.529149
O O2 0.086606 0.770693 0.517544
O O3 0.000000 0.753672 0.500000
O O4 0.941589 0.709671 0.699850
O O5 0.607753 0.500000 0.212321
O O6 0.705338 0.260169 0.129892
O O7 0.625524 0.268004 0.100175
O O8 0.878922 0.743669 0.248975
O O9 0.022274 0.771294 0.115713
O O10 0.952481 0.000000 0.130186
O O11 0.000000 0.751629 0.000000
O O12 0.291255 0.500000 0.793403
O O13 0.303794 0.235726 0.711203
O O14 0.170101 0.310273 0.925648
O O15 0.750000 0.750000 0.500000
O O16 0.765710 0.746454 0.617719
O O17 0.706240 0.000000 0.621151
O O18 0.432445 0.000000 0.884801
O O19 0.812385 0.000000 0.623222
#
# Coordination Sequence:
#
# PCOD8109936 Si02
#       7
#     8   8   8   8   8   8   8
#     4  11  23  38  58  90 126 163 207 255 306 367
#     4  11  22  38  61  88 125 167 207 253 309 375
#     4  11  25  46  70  97 130 170 221 273 327 393
#     4   9  19  37  62  91 122 161 207 253 307 374
#     4  11  25  44  69  98 132 171 217 276 335 393
#     4  11  23  40  64  93 127 163 206 260 316 376
#     4  10  21  40  65  90 119 163 211 254 311 379
#
# _framework density 21.168168999999999
#
# number of rings (size 3 to 8) (size 9 to 14) (size 15 to 20)
#    0.000    1.429    1.429    3.429    2.000    4.000 
#    0.000    3.571    0.000    0.000    0.000    0.000 
#    0.000    0.000    0.000    0.000    0.000    0.000 
#
# Total GULP energy -346978.498109 kJ/mol
# GULP energy per Si atom -12392.089218 kJ/mol
# Density = 2.111999 g / cm^3
# Si number density = 21.168169 Si / 1000 Ang^3
#
#
#
# Elastic Constant Matrix: (Units=GPa)
#
#
# Indices 1 2 3 4 5 6 
#
# 1 145.8943 32.7873 47.3159 -0.1674 -10.5813 0.0937
# 2 32.7873 53.1542 27.5818 -0.1044 1.7094 0.0633
# 3 47.3159 27.5818 106.7629 -0.2641 -6.3857 0.1393
# 4 -0.1674 -0.1044 -0.2641 320.9222 0.1246 -145.8794
# 5 -10.5813 1.7094 -6.3857 0.1246 38.2813 -0.0657
# 6 0.0937 0.0633 0.1393 -145.8794 -0.0657 101.3702
#
#
#
# Elastic Compliance Matrix: (Units=1/GPa)
#
#
# Indices 1 2 3 4 5 6 
#
# 1 0.008813 -0.004095 -0.002718 0.000000 0.002166 -0.000001
# 2 -0.004095 0.023770 -0.004502 0.000000 -0.002944 -0.000007
# 3 -0.002718 -0.004502 0.011819 0.000005 0.001421 -0.000003
# 4 0.000000 0.000000 0.000005 0.009010 -0.000006 0.012966
# 5 0.002166 -0.002944 0.001421 -0.000006 0.027090 0.000006
# 6 -0.000001 -0.000007 -0.000003 0.012966 0.000006 0.028524
#
#
# Mechanical properties :
#
#
# Convention : Reuss Voigt Hill
#
# Bulk Modulus (GPa) = 45.93210 57.90906 51.92058
# Shear Modulus (GPa) = 35.99334 105.32315 70.65824
#
# Velocity S-wave (km/s) = 4.12801 7.06141 5.78377
# Velocity P-wave (km/s) = 6.66831 9.69024 8.31766
#
# Compressibility (1/GPa) = 0.02177127
#
# Stress axis : x y z
#
# Youngs Moduli (GPa) = 113.46445 42.06952 84.60659
#
# Poissons Ratio (x) = 0.17229 0.22999
# Poissons Ratio (y) = 0.46468 0.38090
# Poissons Ratio (z) = 0.30844 0.18940
#
# Static dielectric constant tensor:
#      x y z
#    x 4.241950 -0.000020 0.207000 
#    y -0.000020 3.625460 0.000060 
#    z 0.207000 0.000060 4.037300 
# 
# 
# High freq. dielectric constant tensor:
#      x y z
#    x 1.845980 0.000000 -0.003950 
#    y 0.000000 1.814440 0.000000 
#    z -0.003950 0.000000 1.838680 
# 
# From -- ./inp_files/292375.got.cif
#   From: 2010.06.25/outbox.cif.g09.slc.cpg/sg12_147_cif.got.tgz:292375.got - 2010.06.28 00:19:55.
