data_PCOD8109602
_publ_section_title
;
Structure prediction by ZEFSAII (Michael W. Deem and Ramdas Pophale) SiO2 
 PCOD8109602
Probable space group: C 2/M
;
_chemical_formula_sum "Si O2"
_cell_formula_units_Z 56
_cell_length_a 12.142325
_cell_length_b 14.516322
_cell_length_c 16.324995
_cell_angle_alpha 90.000000
_cell_angle_beta 67.345949
_cell_angle_gamma 90.000000
_cell_volume 2655.469618
_symmetry_space_group_name_H-M "C 2/M"
_symmetry_group_IT_number 12
_symmetry_cell_setting 'monoclinic'
loop_
_space_group_symop_operation_xyz
x,y,z
-x,y,-z
-x,-y,-z
x,-y,z
1/2+x,1/2+y,z
1/2-x,1/2+y,-z
1/2-x,1/2-y,-z
1/2+x,1/2-y,z
loop_
_atom_site_type_symbol
_atom_site_label
_atom_site_fract_x
_atom_site_fract_y
_atom_site_fract_z
Si Si1 0.677406 0.890778 0.053389
Si Si2 0.551623 0.718144 0.323635
Si Si3 0.749460 0.398582 0.342529
Si Si4 0.306438 0.653751 0.464377
Si Si5 0.040045 0.307193 0.796204
Si Si6 0.869042 0.242164 0.065991
Si Si7 0.603748 0.101773 0.405310
O O1 0.551649 0.878293 0.135964
O O2 0.782497 0.844905 0.076872
O O3 0.700234 0.000000 0.032357
O O4 0.672974 0.835244 0.968812
O O5 0.664444 0.655300 0.305749
O O6 0.443336 0.668243 0.401394
O O7 0.529191 0.725499 0.232306
O O8 0.585228 0.820963 0.343010
O O9 0.756123 0.500000 0.304602
O O10 0.703146 0.403823 0.449139
O O11 0.881366 0.355092 0.297657
O O12 0.250000 0.750000 0.500000
O O13 0.233248 0.607265 0.411717
O O14 0.127796 0.263340 0.838442
O O15 0.000000 0.211257 0.000000
O O16 0.500000 0.116714 0.500000
O O17 0.593973 0.000000 0.367661
#
# Coordination Sequence:
#
# PCOD8109602 Si02
#       7
#     8   8   8   8   8   8   8
#     4  10  21  39  66  95 124 159 199 242 292 354
#     4  12  23  40  59  81 118 157 199 251 306 357
#     4  12  25  39  60  88 118 158 208 258 308 360
#     4  12  21  39  59  81 112 154 200 254 309 357
#     4  11  22  40  61  87 125 162 199 248 299 359
#     4   9  21  41  64  94 127 160 197 239 295 358
#     4  11  21  35  55  79 104 140 189 242 296 354
#
# _framework density 21.088549
#
# number of rings (size 3 to 8) (size 9 to 14) (size 15 to 20)
#    0.000    1.000    4.286    2.143    0.000    7.429 
#    0.000    0.714    0.000    0.000    0.000    0.000 
#    0.000    0.000    0.000    0.000    0.000    0.000 
#
# Total GULP energy -347177.238951 kJ/mol
# GULP energy per Si atom -12399.187105 kJ/mol
# Density = 2.104055 g / cm^3
# Si number density = 21.088549 Si / 1000 Ang^3
#
#
#
# Elastic Constant Matrix: (Units=GPa)
#
#
# Indices 1 2 3 4 5 6 
#
# 1 128.1518 55.1584 31.0684 0.0000 14.4200 0.0000
# 2 55.1584 79.8128 17.4194 0.0000 7.4042 0.0000
# 3 31.0684 17.4194 72.0151 0.0000 14.4364 0.0000
# 4 0.0000 0.0000 0.0000 41.2990 0.0000 20.6193
# 5 14.4200 7.4042 14.4364 0.0000 38.2411 0.0000
# 6 0.0000 0.0000 0.0000 20.6193 0.0000 45.9763
#
#
#
# Elastic Compliance Matrix: (Units=1/GPa)
#
#
# Indices 1 2 3 4 5 6 
#
# 1 0.011935 -0.007421 -0.002964 0.000000 -0.001945 0.000000
# 2 -0.007421 0.017918 -0.001080 0.000000 -0.000263 0.000000
# 3 -0.002964 -0.001080 0.016401 0.000000 -0.004865 0.000000
# 4 0.000000 0.000000 0.000000 0.031200 0.000000 -0.013992
# 5 -0.001945 -0.000263 -0.004865 0.000000 0.028771 0.000000
# 6 0.000000 0.000000 0.000000 -0.013992 0.000000 0.028025
#
#
# Mechanical properties :
#
#
# Convention : Reuss Voigt Hill
#
# Bulk Modulus (GPa) = 42.87341 54.14136 48.50738
# Shear Modulus (GPa) = 30.31163 36.85884 33.58523
#
# Velocity S-wave (km/s) = 3.79535 4.18522 3.99505
# Velocity P-wave (km/s) = 6.29131 7.00599 6.65824
#
# Compressibility (1/GPa) = 0.02332448
#
# Stress axis : x y z
#
# Youngs Moduli (GPa) = 83.79003 55.81025 60.97139
#
# Poissons Ratio (x) = 0.41415 0.18072
# Poissons Ratio (y) = 0.62178 0.06584
# Poissons Ratio (z) = 0.24835 0.06027
#
# Static dielectric constant tensor:
#      x y z
#    x 3.765060 0.000000 -0.584600 
#    y 0.000000 4.297230 0.000000 
#    z -0.584600 0.000000 1.937800 
# 
# 
# High freq. dielectric constant tensor:
#      x y z
#    x 1.847660 0.000000 -0.001580 
#    y 0.000000 1.813250 0.000000 
#    z -0.001580 0.000000 1.813090 
# 
# From -- ./inp_files/263244.got.cif
#   From: 2010.06.25/outbox.cif.g09.slc.cpg/sg12_132_cif.got.tgz:263244.got - 2010.06.28 00:19:55.
