data_PCOD8109600
_publ_section_title
;
Structure prediction by ZEFSAII (Michael W. Deem and Ramdas Pophale) SiO2 
 PCOD8109600
Probable space group: C 2/M
;
_chemical_formula_sum "Si O2"
_cell_formula_units_Z 40
_cell_length_a 8.755871
_cell_length_b 25.512235
_cell_length_c 16.431952
_cell_angle_alpha 90.000000
_cell_angle_beta 32.145059
_cell_angle_gamma 90.000000
_cell_volume 1952.996191
_symmetry_space_group_name_H-M "C 2/M"
_symmetry_group_IT_number 12
_symmetry_cell_setting 'monoclinic'
loop_
_space_group_symop_operation_xyz
x,y,z
-x,y,-z
-x,-y,-z
x,-y,z
1/2+x,1/2+y,z
1/2-x,1/2+y,-z
1/2-x,1/2-y,-z
1/2+x,1/2-y,z
loop_
_atom_site_type_symbol
_atom_site_label
_atom_site_fract_x
_atom_site_fract_y
_atom_site_fract_z
Si Si1 0.791469 0.706333 0.912493
Si Si2 0.134256 0.500000 0.852887
Si Si3 0.717344 0.887085 0.477146
Si Si4 0.291097 0.792342 0.412685
Si Si5 0.384455 0.885647 0.143995
Si Si6 0.729684 0.000000 0.465235
O O1 0.986540 0.730759 0.752990
O O2 0.944471 0.654980 0.877985
O O3 0.500000 0.689483 0.000000
O O4 0.750000 0.750000 0.000000
O O5 0.050200 0.444389 0.848444
O O6 0.471722 0.500000 0.716924
O O7 0.000000 0.500000 0.000000
O O8 0.500000 0.884309 0.500000
O O9 0.600164 0.846350 0.596323
O O10 0.704176 0.945125 0.526170
O O11 0.042526 0.873478 0.301367
O O12 0.250000 0.750000 0.500000
O O13 0.000000 0.806246 0.500000
O O14 0.500000 0.880423 0.000000
O O15 0.500000 0.000000 0.500000
#
# Coordination Sequence:
#
# PCOD8109600 Si02
#       6
#     8   4   8   8   8   4
#     4  12  27  44  64  89 123 165 211 258 315 370
#     4   8  16  34  60  92 124 164 202 244 299 369
#     4  10  21  39  66  96 127 164 206 254 305 368
#     4  12  25  43  63  90 124 159 208 260 315 370
#     4  10  21  39  66  94 128 165 208 252 305 370
#     4   8  16  34  60  93 126 160 202 244 300 369
#
# _framework density 20.481351
#
# number of rings (size 3 to 8) (size 9 to 14) (size 15 to 20)
#    0.000    1.600    2.000    2.400    5.600    0.000 
#    0.000    2.000    0.000    0.000    0.000    0.000 
#    0.000    0.000    0.000    0.000    0.000    0.000 
#
# Total GULP energy -247786.881810 kJ/mol
# GULP energy per Si atom -12389.344090 kJ/mol
# Density = 2.043473 g / cm^3
# Si number density = 20.481351 Si / 1000 Ang^3
#
#
#
# Elastic Constant Matrix: (Units=GPa)
#
#
# Indices 1 2 3 4 5 6 
#
# 1 110.5483 75.3153 47.6555 0.0002 -11.1886 -0.0013
# 2 75.3153 182.3244 53.4295 0.0001 3.2157 0.0000
# 3 47.6555 53.4295 113.5808 0.0006 6.3251 -0.0049
# 4 0.0002 0.0001 0.0006 28.6303 -0.0004 -10.4390
# 5 -11.1886 3.2157 6.3251 -0.0004 43.1551 0.0026
# 6 -0.0013 0.0000 -0.0049 -10.4390 0.0026 119.8360
#
#
#
# Elastic Compliance Matrix: (Units=1/GPa)
#
#
# Indices 1 2 3 4 5 6 
#
# 1 0.014658 -0.004940 -0.004092 0.000000 0.004768 0.000000
# 2 -0.004940 0.008027 -0.001612 0.000000 -0.001643 0.000000
# 3 -0.004092 -0.001612 0.011425 0.000000 -0.002615 0.000000
# 4 0.000000 0.000000 0.000000 0.036074 0.000000 0.003142
# 5 0.004768 -0.001643 -0.002615 0.000000 0.024914 -0.000001
# 6 0.000000 0.000000 0.000000 0.003142 -0.000001 0.008618
#
#
# Mechanical properties :
#
#
# Convention : Reuss Voigt Hill
#
# Bulk Modulus (GPa) = 77.98734 84.36158 81.17446
# Shear Modulus (GPa) = 38.67677 53.66115 46.16896
#
# Velocity S-wave (km/s) = 4.35027 5.12415 4.75299
# Velocity P-wave (km/s) = 7.96198 8.73430 8.35707
#
# Compressibility (1/GPa) = 0.01282259
#
# Stress axis : x y z
#
# Youngs Moduli (GPa) = 68.22311 124.58584 87.52835
#
# Poissons Ratio (x) = 0.61544 0.35814
# Poissons Ratio (y) = 0.33702 0.14107
# Poissons Ratio (z) = 0.27915 0.20079
#
# Static dielectric constant tensor:
#      x y z
#    x 2.905230 0.000000 -0.108480 
#    y 0.000000 4.579990 0.000000 
#    z -0.108480 0.000000 3.949270 
# 
# 
# High freq. dielectric constant tensor:
#      x y z
#    x 1.778450 0.000000 -0.012210 
#    y 0.000000 1.826910 0.000000 
#    z -0.012210 0.000000 1.808110 
# 
# From -- ./inp_files/259641.got.cif
#   From: 2010.06.25/outbox.cif.g09.slc.cpg/sg12_130_cif.got.tgz:259641.got - 2010.06.28 00:19:55.
