data_PCOD8109288
_publ_section_title
;
Structure prediction by ZEFSAII (Michael W. Deem and Ramdas Pophale) SiO2 
 PCOD8109288
Probable space group: C 2/M
;
_chemical_formula_sum "Si O2"
_cell_formula_units_Z 48
_cell_length_a 26.697677
_cell_length_b 8.998212
_cell_length_c 21.758146
_cell_angle_alpha 90.000000
_cell_angle_beta 26.184592
_cell_angle_gamma 90.000000
_cell_volume 2306.484906
_symmetry_space_group_name_H-M "C 2/M"
_symmetry_group_IT_number 12
_symmetry_cell_setting 'monoclinic'
loop_
_space_group_symop_operation_xyz
x,y,z
-x,y,-z
-x,-y,-z
x,-y,z
1/2+x,1/2+y,z
1/2-x,1/2+y,-z
1/2-x,1/2-y,-z
1/2+x,1/2-y,z
loop_
_atom_site_type_symbol
_atom_site_label
_atom_site_fract_x
_atom_site_fract_y
_atom_site_fract_z
Si Si1 0.631170 0.829968 0.626814
Si Si2 0.326673 0.324393 0.096993
Si Si3 0.552482 0.830373 0.848565
Si Si4 0.773401 0.826274 0.681561
Si Si5 0.468982 0.330397 0.375977
Si Si6 0.729273 0.672166 0.087509
O O1 0.750000 0.750000 0.500000
O O2 0.562772 0.808181 0.764657
O O3 0.552186 0.767209 0.660508
O O4 0.657453 0.000000 0.583981
O O5 0.320735 0.500000 0.097410
O O6 0.233380 0.267583 0.248383
O O7 0.306131 0.251660 0.053458
O O8 0.450437 0.272912 0.985069
O O9 0.669801 0.782593 0.750964
O O10 0.522165 0.000000 0.898860
O O11 0.889767 0.779230 0.519711
O O12 0.772699 0.000000 0.699109
O O13 0.438824 0.500000 0.392031
O O14 0.599052 0.311743 0.252290
O O15 0.765188 0.500000 0.042893
O O16 0.750000 0.750000 0.000000
#
# Coordination Sequence:
#
# PCOD8109288 Si02
#       6
#     8   8   8   8   8   8
#     4  11  21  35  59  91 125 159 198 246 301 361
#     4  12  26  41  60  90 126 163 207 253 303 364
#     4  10  21  39  63  89 122 165 208 253 306 364
#     4  10  21  41  64  88 122 161 205 253 309 368
#     4  10  22  41  64  92 122 159 206 254 305 362
#     4  11  24  44  69  93 122 159 203 253 305 363
#
# _framework density 20.810887999999998
#
# number of rings (size 3 to 8) (size 9 to 14) (size 15 to 20)
#    0.000    1.333    1.667    4.000    0.000    9.333 
#    0.000    3.333    0.000    0.000    0.000    0.000 
#    0.000    0.000    0.000    0.000    0.000    0.000 
#
# Total GULP energy -297750.083809 kJ/mol
# GULP energy per Si atom -12406.253492 kJ/mol
# Density = 2.076352 g / cm^3
# Si number density = 20.810888 Si / 1000 Ang^3
#
#
#
# Elastic Constant Matrix: (Units=GPa)
#
#
# Indices 1 2 3 4 5 6 
#
# 1 72.3738 41.1528 29.4226 0.0105 9.6609 -0.0039
# 2 41.1528 117.3343 45.6873 0.0190 8.5451 -0.0124
# 3 29.4226 45.6873 113.5084 0.0210 6.1509 -0.0137
# 4 0.0105 0.0190 0.0210 31.8129 -0.0122 5.3042
# 5 9.6609 8.5451 6.1509 -0.0122 34.7929 0.0051
# 6 -0.0039 -0.0124 -0.0137 5.3042 0.0051 35.0453
#
#
#
# Elastic Compliance Matrix: (Units=1/GPa)
#
#
# Indices 1 2 3 4 5 6 
#
# 1 0.018211 -0.005189 -0.002450 -0.000003 -0.003349 0.000000
# 2 -0.005189 0.011696 -0.003317 -0.000004 -0.000845 0.000003
# 3 -0.002450 -0.003317 0.010803 -0.000005 -0.000415 0.000004
# 4 -0.000003 -0.000004 -0.000005 0.032248 0.000015 -0.004881
# 5 -0.003349 -0.000845 -0.000415 0.000015 0.029952 -0.000007
# 6 0.000000 0.000003 0.000004 -0.004881 -0.000007 0.029273
#
#
# Mechanical properties :
#
#
# Convention : Reuss Voigt Hill
#
# Bulk Modulus (GPa) = 53.20038 59.52685 56.36362
# Shear Modulus (GPa) = 31.17982 32.79380 31.98681
#
# Velocity S-wave (km/s) = 3.87492 3.97394 3.92474
# Velocity P-wave (km/s) = 6.75568 7.05139 6.90512
#
# Compressibility (1/GPa) = 0.01879686
#
# Stress axis : x y z
#
# Youngs Moduli (GPa) = 54.91192 85.50208 92.57116
#
# Poissons Ratio (x) = 0.44368 0.22683
# Poissons Ratio (y) = 0.28495 0.30702
# Poissons Ratio (z) = 0.13455 0.28358
#
# Static dielectric constant tensor:
#      x y z
#    x 3.824950 0.000010 0.140280 
#    y 0.000010 3.864920 -0.000020 
#    z 0.140280 -0.000020 4.020600 
# 
# 
# High freq. dielectric constant tensor:
#      x y z
#    x 1.814630 0.000000 0.003460 
#    y 0.000000 1.807560 0.000000 
#    z 0.003460 0.000000 1.829400 
# 
# From -- ./inp_files/327149.got.cif
#   From: 2010.06.25/outbox.cif.g09.slc.cpg/sg12_164_cif.got.tgz:327149.got - 2010.06.28 00:19:55.
