data_PCOD8109648
_publ_section_title
;
Structure prediction by ZEFSAII (Michael W. Deem and Ramdas Pophale) SiO2 
 PCOD8109648
Probable space group: C 2/M
;
_chemical_formula_sum "Si O2"
_cell_formula_units_Z 64
_cell_length_a 18.691408
_cell_length_b 18.290388
_cell_length_c 15.012873
_cell_angle_alpha 90.000000
_cell_angle_beta 38.388631
_cell_angle_gamma 90.000000
_cell_volume 3187.241236
_symmetry_space_group_name_H-M "C 2/M"
_symmetry_group_IT_number 12
_symmetry_cell_setting 'monoclinic'
loop_
_space_group_symop_operation_xyz
x,y,z
-x,y,-z
-x,-y,-z
x,-y,z
1/2+x,1/2+y,z
1/2-x,1/2+y,-z
1/2-x,1/2-y,-z
1/2+x,1/2-y,z
loop_
_atom_site_type_symbol
_atom_site_label
_atom_site_fract_x
_atom_site_fract_y
_atom_site_fract_z
Si Si1 0.341444 0.082724 0.925215
Si Si2 0.755967 0.860246 0.346696
Si Si3 0.993678 0.083604 0.176076
Si Si4 0.751520 0.307514 0.354398
Si Si5 0.079142 0.646407 0.665093
Si Si6 0.788801 0.142174 0.113829
Si Si7 0.493672 0.697822 0.329043
Si Si8 0.261053 0.694843 0.835642
O O1 0.478891 0.090441 0.787303
O O2 0.291165 0.101058 0.877904
O O3 0.310380 0.000000 0.980894
O O4 0.287136 0.133861 0.052661
O O5 0.863777 0.909183 0.269166
O O6 0.785005 0.776348 0.341478
O O7 0.643307 0.882398 0.513230
O O8 0.730274 0.869934 0.267337
O O9 0.021625 0.132805 0.234029
O O10 0.016560 0.000000 0.180333
O O11 0.082617 0.108485 0.012061
O O12 0.831138 0.355818 0.340632
O O13 0.618381 0.322938 0.505185
O O14 0.773186 0.328420 0.230902
O O15 0.024236 0.726397 0.705515
O O16 0.798025 0.228095 0.081884
O O17 0.601366 0.704677 0.290590
#
# Coordination Sequence:
#
# PCOD8109648 Si02
#       8
#     8   8   8   8   8   8   8   8
#     4  12  26  42  61  89 126 168 205 250 305 366
#     4  10  22  39  64  94 123 157 205 255 309 361
#     4  12  23  37  61  91 127 166 202 249 307 364
#     4  10  21  39  68  97 118 155 208 262 302 356
#     4  11  21  42  66  89 124 164 204 253 299 366
#     4  11  23  40  63  94 123 160 207 253 303 368
#     4  11  19  40  66  93 121 157 205 255 304 361
#     4  11  23  40  68  94 120 159 208 255 308 362
#
# _framework density 20.080061000000001
#
# number of rings (size 3 to 8) (size 9 to 14) (size 15 to 20)
#    0.000    1.000    5.000    3.000    0.000    3.000 
#    0.000    2.500    0.000    1.500    0.000    0.000 
#    0.000    0.000    0.000    0.000    0.000    0.000 
#
# Total GULP energy -396958.920075 kJ/mol
# GULP energy per Si atom -12404.966252 kJ/mol
# Density = 2.003436 g / cm^3
# Si number density = 20.080061 Si / 1000 Ang^3
#
#
#
# Elastic Constant Matrix: (Units=GPa)
#
#
# Indices 1 2 3 4 5 6 
#
# 1 88.4171 37.4041 48.9820 0.0000 2.7358 0.0000
# 2 37.4041 98.4238 43.7445 0.0000 4.2249 0.0000
# 3 48.9820 43.7445 113.8383 0.0000 -10.0381 0.0000
# 4 0.0000 0.0000 0.0000 7.3565 0.0000 -8.0382
# 5 2.7358 4.2249 -10.0381 0.0000 26.1998 0.0000
# 6 0.0000 0.0000 0.0000 -8.0382 0.0000 17.0943
#
#
#
# Elastic Compliance Matrix: (Units=1/GPa)
#
#
# Indices 1 2 3 4 5 6 
#
# 1 0.016129 -0.003332 -0.005962 0.000000 -0.003431 0.000000
# 2 -0.003332 0.013341 -0.003986 0.000000 -0.003331 0.000000
# 3 -0.005962 -0.003986 0.013447 0.000000 0.006418 0.000000
# 4 0.000000 0.000000 0.000000 0.279587 0.000000 0.131469
# 5 -0.003431 -0.003331 0.006418 0.000000 0.041522 0.000000
# 6 0.000000 0.000000 0.000000 0.131469 0.000000 0.120319
#
#
# Mechanical properties :
#
#
# Convention : Reuss Voigt Hill
#
# Bulk Modulus (GPa) = 61.13962 62.32671 61.73317
# Shear Modulus (GPa) = 9.68317 21.50004 15.59161
#
# Velocity S-wave (km/s) = 2.19835 3.27573 2.78955
# Velocity P-wave (km/s) = 6.07928 6.73897 6.41761
#
# Compressibility (1/GPa) = 0.01635600
#
# Stress axis : x y z
#
# Youngs Moduli (GPa) = 62.00121 74.95500 74.36383
#
# Poissons Ratio (x) = 0.24978 0.44334
# Poissons Ratio (y) = 0.20661 0.29645
# Poissons Ratio (z) = 0.36964 0.29881
#
# Static dielectric constant tensor:
#      x y z
#    x 3.640090 0.000000 -0.038100 
#    y 0.000000 3.457190 0.000000 
#    z -0.038100 0.000000 3.825020 
# 
# 
# High freq. dielectric constant tensor:
#      x y z
#    x 1.788500 0.000000 -0.003830 
#    y 0.000000 1.761350 0.000000 
#    z -0.003830 0.000000 1.794070 
# 
# From -- ./inp_files/226853.got.cif
#   From: 2010.06.25/outbox.cif.g09.slc.cpg/sg12_114_cif.got.tgz:226853.got - 2010.06.28 00:19:55.
