data_PCOD8109376
_publ_section_title
;
Structure prediction by ZEFSAII (Michael W. Deem and Ramdas Pophale) SiO2 
 PCOD8109376
Probable space group: C 2/M
;
_chemical_formula_sum "Si O2"
_cell_formula_units_Z 60
_cell_length_a 11.316786
_cell_length_b 18.715277
_cell_length_c 18.764511
_cell_angle_alpha 90.000000
_cell_angle_beta 134.525606
_cell_angle_gamma 90.000000
_cell_volume 2833.399747
_symmetry_space_group_name_H-M "C 2/M"
_symmetry_group_IT_number 12
_symmetry_cell_setting 'monoclinic'
loop_
_space_group_symop_operation_xyz
x,y,z
-x,y,-z
-x,-y,-z
x,-y,z
1/2+x,1/2+y,z
1/2-x,1/2+y,-z
1/2-x,1/2-y,-z
1/2+x,1/2-y,z
loop_
_atom_site_type_symbol
_atom_site_label
_atom_site_fract_x
_atom_site_fract_y
_atom_site_fract_z
Si Si1 0.201467 0.423262 0.292240
Si Si2 0.850135 0.080910 0.990465
Si Si3 0.000000 0.778630 0.500000
Si Si4 0.895019 0.316256 0.327099
Si Si5 0.576880 0.191448 0.822986
Si Si6 0.740652 0.884033 0.458692
Si Si7 0.477200 0.655322 0.811567
Si Si8 0.005072 0.920599 0.324448
O O1 0.137763 0.500000 0.234530
O O2 0.236098 0.437674 0.390294
O O3 0.370980 0.399443 0.327078
O O4 0.077994 0.359099 0.227705
O O5 0.917446 0.100497 0.096773
O O6 0.771296 0.000000 0.959278
O O7 0.729846 0.144394 0.914767
O O8 0.000000 0.080593 0.000000
O O9 0.901294 0.737124 0.396286
O O10 0.851618 0.817574 0.478880
O O11 0.905575 0.283704 0.251728
O O12 0.717788 0.355988 0.255162
O O13 0.052623 0.367580 0.402189
O O14 0.543527 0.263769 0.853816
O O15 0.817561 0.918666 0.561677
O O16 0.510039 0.636531 0.743822
O O17 0.976847 0.000000 0.281762
#
# Coordination Sequence:
#
# PCOD8109376 Si02
#       8
#     8   8   4   8   8   8   8   8
#     4  10  21  39  63  94 128 173 222 264 311 376
#     4  11  24  47  71  96 126 163 210 266 330 397
#     4  12  20  36  57  94 135 172 214 264 320 368
#     4  11  23  38  58  96 132 173 213 261 321 374
#     4  11  24  42  70  96 128 166 215 268 322 389
#     4  11  21  36  61  89 130 178 224 259 306 373
#     4  12  25  42  67  96 133 163 215 268 330 382
#     4  11  23  41  62  93 135 178 217 264 320 377
#
# _framework density 21.175974
#
# number of rings (size 3 to 8) (size 9 to 14) (size 15 to 20)
#    0.000    0.933    2.667    5.200    1.867    1.067 
#    0.000    3.333    0.000    2.400    0.000    0.000 
#    0.000    0.000    0.000    0.000    0.000    0.000 
#
# Total GULP energy -371768.531428 kJ/mol
# GULP energy per Si atom -12392.284381 kJ/mol
# Density = 2.112778 g / cm^3
# Si number density = 21.175974 Si / 1000 Ang^3
#
#
#
# Elastic Constant Matrix: (Units=GPa)
#
#
# Indices 1 2 3 4 5 6 
#
# 1 74.5413 50.6468 32.3296 0.0000 8.8608 0.0000
# 2 50.6468 103.3581 39.9117 0.0000 7.0915 0.0000
# 3 32.3296 39.9117 96.4152 0.0000 10.1635 0.0000
# 4 0.0000 0.0000 0.0000 39.7284 0.0000 -7.7132
# 5 8.8608 7.0915 10.1635 0.0000 22.8752 0.0000
# 6 0.0000 0.0000 0.0000 -7.7132 0.0000 16.1693
#
#
#
# Elastic Compliance Matrix: (Units=1/GPa)
#
#
# Indices 1 2 3 4 5 6 
#
# 1 0.021326 -0.009014 -0.002983 0.000000 -0.004141 0.000000
# 2 -0.009014 0.015377 -0.003366 0.000000 0.000220 0.000000
# 3 -0.002983 -0.003366 0.013149 0.000000 -0.003643 0.000000
# 4 0.000000 0.000000 0.000000 0.027740 0.000000 0.013233
# 5 -0.004141 0.000220 -0.003643 0.000000 0.046870 0.000000
# 6 0.000000 0.000000 0.000000 0.013233 0.000000 0.068158
#
#
# Mechanical properties :
#
#
# Convention : Reuss Voigt Hill
#
# Bulk Modulus (GPa) = 52.28436 57.78787 55.03611
# Shear Modulus (GPa) = 21.76547 25.84967 23.80757
#
# Velocity S-wave (km/s) = 3.20947 3.49765 3.35666
# Velocity P-wave (km/s) = 6.20309 6.60757 6.40852
#
# Compressibility (1/GPa) = 0.01912618
#
# Stress axis : x y z
#
# Youngs Moduli (GPa) = 46.89130 65.03331 76.04857
#
# Poissons Ratio (x) = 0.58621 0.22686
# Poissons Ratio (y) = 0.42268 0.25598
# Poissons Ratio (z) = 0.13988 0.21890
#
# Static dielectric constant tensor:
#      x y z
#    x 3.808640 0.000000 0.025990 
#    y 0.000000 3.931060 0.000000 
#    z 0.025990 0.000000 3.974810 
# 
# 
# High freq. dielectric constant tensor:
#      x y z
#    x 1.832320 0.000000 0.002580 
#    y 0.000000 1.830780 0.000000 
#    z 0.002580 0.000000 1.828620 
# 
# From -- ./inp_files/306383.got.cif
#   From: 2010.06.25/outbox.cif.g09.slc.cpg/sg12_154_cif.got.tgz:306383.got - 2010.06.28 00:19:55.
