data_PCOD8109767
_publ_section_title
;
Structure prediction by ZEFSAII (Michael W. Deem and Ramdas Pophale) SiO2 
 PCOD8109767
Probable space group: C 2/M
;
_chemical_formula_sum "Si O2"
_cell_formula_units_Z 56
_cell_length_a 22.075187
_cell_length_b 8.850292
_cell_length_c 17.710898
_cell_angle_alpha 90.000000
_cell_angle_beta 129.882565
_cell_angle_gamma 90.000000
_cell_volume 2655.228521
_symmetry_space_group_name_H-M "C 2/M"
_symmetry_group_IT_number 12
_symmetry_cell_setting 'monoclinic'
loop_
_space_group_symop_operation_xyz
x,y,z
-x,y,-z
-x,-y,-z
x,-y,z
1/2+x,1/2+y,z
1/2-x,1/2+y,-z
1/2-x,1/2-y,-z
1/2+x,1/2-y,z
loop_
_atom_site_type_symbol
_atom_site_label
_atom_site_fract_x
_atom_site_fract_y
_atom_site_fract_z
Si Si1 0.355184 0.827586 0.266651
Si Si2 0.760859 0.174963 0.588330
Si Si3 0.930125 0.828564 0.757085
Si Si4 0.711904 0.677348 0.044896
Si Si5 0.496918 0.330819 0.341821
Si Si6 0.124596 0.173661 0.563598
Si Si7 0.045125 0.677286 0.959648
O O1 0.271864 0.792806 0.161588
O O2 0.427204 0.789491 0.267246
O O3 0.378213 0.709549 0.350414
O O4 0.358657 0.000000 0.297226
O O5 0.750000 0.250000 0.500000
O O6 0.839936 0.224128 0.696709
O O7 0.689569 0.212770 0.585281
O O8 0.765866 0.000000 0.575477
O O9 0.941101 0.817667 0.676124
O O10 0.986607 0.712873 0.844620
O O11 0.945626 0.000000 0.798690
O O12 0.701328 0.500000 0.020107
O O13 0.750000 0.750000 0.000000
O O14 0.628582 0.743037 0.007342
O O15 0.461474 0.500000 0.316658
O O16 0.541761 0.293032 0.456158
O O17 0.149223 0.000000 0.570050
O O18 0.062042 0.500000 0.978312
O O19 0.000000 0.734081 0.000000
#
# Coordination Sequence:
#
# PCOD8109767 Si02
#       7
#     8   8   8   8   8   8   8
#     4  11  25  41  61  94 126 160 207 261 316 374
#     4  11  22  39  62  93 128 167 211 256 306 370
#     4  10  22  41  65  91 125 167 211 257 313 378
#     4  11  25  46  71  97 129 170 219 274 332 394
#     4  10  21  40  62  90 125 166 209 251 306 375
#     4  11  23  40  61  89 127 169 209 254 311 374
#     4  11  26  45  66  98 133 168 218 275 330 390
#
# _framework density 21.090463
#
# number of rings (size 3 to 8) (size 9 to 14) (size 15 to 20)
#    0.000    1.286    1.429    3.429    2.000   10.286 
#    0.000    0.000    0.000    0.000    0.000    0.000 
#    0.000    0.000    0.000    0.000    0.000    0.000 
#
# Total GULP energy -347134.312468 kJ/mol
# GULP energy per Si atom -12397.654017 kJ/mol
# Density = 2.104246 g / cm^3
# Si number density = 21.090463 Si / 1000 Ang^3
#
#
#
# Elastic Constant Matrix: (Units=GPa)
#
#
# Indices 1 2 3 4 5 6 
#
# 1 112.4287 47.6887 42.4504 0.0000 16.0465 0.0000
# 2 47.6887 81.7448 60.3487 0.0000 15.1690 0.0000
# 3 42.4504 60.3487 115.1497 0.0000 14.4373 0.0000
# 4 0.0000 0.0000 0.0000 35.1008 0.0000 1.4539
# 5 16.0465 15.1690 14.4373 0.0000 38.2668 0.0000
# 6 0.0000 0.0000 0.0000 1.4539 0.0000 39.4701
#
#
#
# Elastic Compliance Matrix: (Units=1/GPa)
#
#
# Indices 1 2 3 4 5 6 
#
# 1 0.012117 -0.005794 -0.001135 0.000000 -0.002356 0.000000
# 2 -0.005794 0.023375 -0.009717 0.000000 -0.003170 0.000000
# 3 -0.001135 -0.009717 0.014331 0.000000 -0.001079 0.000000
# 4 0.000000 0.000000 0.000000 0.028533 0.000000 -0.001051
# 5 -0.002356 -0.003170 -0.001079 0.000000 0.028784 0.000000
# 6 0.000000 0.000000 0.000000 -0.001051 0.000000 0.025374
#
#
# Mechanical properties :
#
#
# Convention : Reuss Voigt Hill
#
# Bulk Modulus (GPa) = 60.49323 67.81098 64.15210
# Shear Modulus (GPa) = 29.18565 33.15656 31.17110
#
# Velocity S-wave (km/s) = 3.72402 3.96929 3.84861
# Velocity P-wave (km/s) = 6.87286 7.29584 7.08750
#
# Compressibility (1/GPa) = 0.01653078
#
# Stress axis : x y z
#
# Youngs Moduli (GPa) = 82.52968 42.78011 69.77925
#
# Poissons Ratio (x) = 0.24785 0.07921
# Poissons Ratio (y) = 0.47814 0.67808
# Poissons Ratio (z) = 0.09369 0.41571
#
# Static dielectric constant tensor:
#      x y z
#    x 5.891330 0.000000 -0.242340 
#    y 0.000000 3.729240 0.000000 
#    z -0.242340 0.000000 3.834970 
# 
# 
# High freq. dielectric constant tensor:
#      x y z
#    x 1.842140 0.000000 0.007110 
#    y 0.000000 1.826200 0.000000 
#    z 0.007110 0.000000 1.831210 
# 
# From -- ./inp_files/288398.got.cif
#   From: 2010.06.25/outbox.cif.g09.slc.cpg/sg12_145_cif.got.tgz:288398.got - 2010.06.28 00:19:55.
