data_PCOD8109928
_publ_section_title
;
Structure prediction by ZEFSAII (Michael W. Deem and Ramdas Pophale) SiO2 
 PCOD8109928
Probable space group: C 2/M
;
_chemical_formula_sum "Si O2"
_cell_formula_units_Z 64
_cell_length_a 29.774341
_cell_length_b 8.934769
_cell_length_c 14.940113
_cell_angle_alpha 90.000000
_cell_angle_beta 128.167742
_cell_angle_gamma 90.000000
_cell_volume 3124.748987
_symmetry_space_group_name_H-M "C 2/M"
_symmetry_group_IT_number 12
_symmetry_cell_setting 'monoclinic'
loop_
_space_group_symop_operation_xyz
x,y,z
-x,y,-z
-x,-y,-z
x,-y,z
1/2+x,1/2+y,z
1/2-x,1/2+y,-z
1/2-x,1/2-y,-z
1/2+x,1/2-y,z
loop_
_atom_site_type_symbol
_atom_site_label
_atom_site_fract_x
_atom_site_fract_y
_atom_site_fract_z
Si Si1 0.912547 0.823536 0.748401
Si Si2 0.065535 0.663477 0.578210
Si Si3 0.457212 0.328256 0.096684
Si Si4 0.902539 0.169670 0.213193
Si Si5 0.794968 0.327534 0.116029
Si Si6 0.125941 0.172824 0.496076
Si Si7 0.137330 0.677313 0.142309
Si Si8 0.765847 0.172719 0.259892
O O1 0.886315 0.776969 0.620540
O O2 0.874925 0.739215 0.774723
O O3 0.978521 0.771861 0.842813
O O4 0.907853 0.000000 0.757443
O O5 0.096034 0.500000 0.636027
O O6 0.073094 0.793805 0.659821
O O7 0.086377 0.723829 0.508651
O O8 0.000000 0.626593 0.500000
O O9 0.449921 0.500000 0.057394
O O10 0.449292 0.310245 0.193432
O O11 0.409670 0.234494 0.985776
O O12 0.853253 0.291030 0.135884
O O13 0.878698 0.000000 0.184177
O O14 0.781350 0.500000 0.103087
O O15 0.796361 0.262989 0.217979
O O16 0.750000 0.250000 0.000000
O O17 0.193361 0.195013 0.603014
O O18 0.108053 0.000000 0.487568
O O19 0.134675 0.500000 0.141189
O O20 0.201463 0.732729 0.196487
O O21 0.763258 0.000000 0.228144
#
# Coordination Sequence:
#
# PCOD8109928 Si02
#       8
#     8   8   8   8   8   8   8   8
#     4  10  22  41  64  90 118 156 207 259 309 366
#     4  11  23  37  56  88 127 162 200 249 301 358
#     4  10  22  40  62  89 121 157 205 257 304 366
#     4  11  22  38  61  89 120 158 203 245 299 363
#     4  12  24  38  59  88 123 161 203 248 302 361
#     4  10  21  40  65  88 118 162 209 254 305 367
#     4  11  24  40  61  90 122 158 202 255 316 371
#     4  10  22  41  62  88 123 161 205 255 304 366
#
# _framework density 20.481643999999999
#
# number of rings (size 3 to 8) (size 9 to 14) (size 15 to 20)
#    0.000    1.375    1.250    4.125    0.000    9.000 
#    0.000    0.000    0.000    0.000    0.000    0.000 
#    0.000    0.000    0.000    0.000    0.000    0.000 
#
# Total GULP energy -396734.092174 kJ/mol
# GULP energy per Si atom -12397.940380 kJ/mol
# Density = 2.043503 g / cm^3
# Si number density = 20.481644 Si / 1000 Ang^3
#
#
#
# Elastic Constant Matrix: (Units=GPa)
#
#
# Indices 1 2 3 4 5 6 
#
# 1 88.4534 37.2289 16.3673 0.0000 -0.6587 0.0000
# 2 37.2289 85.0912 31.9665 0.0000 -5.4597 0.0000
# 3 16.3673 31.9665 97.8306 0.0000 -2.1673 0.0000
# 4 0.0000 0.0000 0.0000 29.8212 0.0000 -0.6523
# 5 -0.6587 -5.4597 -2.1673 0.0000 38.0266 0.0000
# 6 0.0000 0.0000 0.0000 -0.6523 0.0000 8.6081
#
#
#
# Elastic Compliance Matrix: (Units=1/GPa)
#
#
# Indices 1 2 3 4 5 6 
#
# 1 0.013885 -0.005971 -0.000386 0.000000 -0.000639 0.000000
# 2 -0.005971 0.016072 -0.004209 0.000000 0.001964 0.000000
# 3 -0.000386 -0.004209 0.011663 0.000000 0.000054 0.000000
# 4 0.000000 0.000000 0.000000 0.033589 0.000000 0.002545
# 5 -0.000639 0.001964 0.000054 0.000000 0.026571 0.000000
# 6 0.000000 0.000000 0.000000 0.002545 0.000000 0.116362
#
#
# Mechanical properties :
#
#
# Convention : Reuss Voigt Hill
#
# Bulk Modulus (GPa) = 48.81014 49.16673 48.98844
# Shear Modulus (GPa) = 20.31664 27.67870 23.99767
#
# Velocity S-wave (km/s) = 3.15293 3.68011 3.42668
# Velocity P-wave (km/s) = 6.09406 6.48961 6.29494
#
# Compressibility (1/GPa) = 0.02048755
#
# Stress axis : x y z
#
# Youngs Moduli (GPa) = 72.01934 62.22109 85.74227
#
# Poissons Ratio (x) = 0.37152 0.03311
# Poissons Ratio (y) = 0.43002 0.36089
# Poissons Ratio (z) = 0.02781 0.26189
#
# Static dielectric constant tensor:
#      x y z
#    x 3.746840 0.000000 0.038920 
#    y 0.000000 3.748550 0.000000 
#    z 0.038920 0.000000 3.782210 
# 
# 
# High freq. dielectric constant tensor:
#      x y z
#    x 1.802840 0.000000 0.004990 
#    y 0.000000 1.800700 0.000000 
#    z 0.004990 0.000000 1.810550 
# 
# From -- ./inp_files/250070.got.cif
#   From: 2010.06.25/outbox.cif.g09.slc.cpg/sg12_126_cif.got.tgz:250070.got - 2010.06.28 00:19:55.
