data_PCOD8109822
_publ_section_title
;
Structure prediction by ZEFSAII (Michael W. Deem and Ramdas Pophale) SiO2 
 PCOD8109822
Probable space group: C 2/M
;
_chemical_formula_sum "Si O2"
_cell_formula_units_Z 56
_cell_length_a 20.134015
_cell_length_b 9.039948
_cell_length_c 31.864249
_cell_angle_alpha 90.000000
_cell_angle_beta 28.987262
_cell_angle_gamma 90.000000
_cell_volume 2810.586822
_symmetry_space_group_name_H-M "C 2/M"
_symmetry_group_IT_number 12
_symmetry_cell_setting 'monoclinic'
loop_
_space_group_symop_operation_xyz
x,y,z
-x,y,-z
-x,-y,-z
x,-y,z
1/2+x,1/2+y,z
1/2-x,1/2+y,-z
1/2-x,1/2-y,-z
1/2+x,1/2-y,z
loop_
_atom_site_type_symbol
_atom_site_label
_atom_site_fract_x
_atom_site_fract_y
_atom_site_fract_z
Si Si1 0.359951 0.330036 0.056812
Si Si2 0.351731 0.171836 0.975315
Si Si3 0.577679 0.170402 0.498544
Si Si4 0.882894 0.829229 0.301800
Si Si5 0.923362 0.173421 0.656324
Si Si6 0.864438 0.671053 0.224427
Si Si7 0.580619 0.829680 0.254855
O O1 0.374077 0.500000 0.034478
O O2 0.241394 0.310601 0.156698
O O3 0.500000 0.271891 0.000000
O O4 0.323637 0.232073 0.036980
O O5 0.507924 0.203798 0.876220
O O6 0.317125 0.000000 0.993850
O O7 0.250000 0.250000 0.000000
O O8 0.500000 0.228328 0.500000
O O9 0.738961 0.192787 0.404498
O O10 0.532362 0.268068 0.562680
O O11 0.538072 0.000000 0.528686
O O12 0.872987 0.774216 0.259899
O O13 0.997180 0.735731 0.262175
O O14 0.926670 0.000000 0.277027
O O15 0.770320 0.215706 0.726899
O O16 0.957946 0.245657 0.681570
O O17 0.943262 0.000000 0.650160
O O18 0.860075 0.500000 0.241152
O O19 0.540003 0.000000 0.282601
#
# Coordination Sequence:
#
# PCOD8109822 Si02
#       7
#     8   8   8   8   8   8   8
#     4  10  22  41  63  87 117 157 202 247 297 353
#     4  11  23  38  58  86 120 157 197 245 297 350
#     4  10  21  40  63  90 121 154 196 244 295 350
#     4  11  23  39  63  90 120 158 199 244 295 354
#     4  11  23  39  63  91 119 154 199 245 292 353
#     4  10  22  39  59  87 121 155 195 245 299 351
#     4  11  24  41  61  87 123 160 196 245 301 352
#
# _framework density 19.924665000000001
#
# number of rings (size 3 to 8) (size 9 to 14) (size 15 to 20)
#    0.000    1.429    1.429    3.429    0.000    8.571 
#    0.000    0.000    0.000    0.000    0.000    0.000 
#    0.000    0.000    0.000    0.000    0.000    0.000 
#
# Total GULP energy -347413.568890 kJ/mol
# GULP energy per Si atom -12407.627460 kJ/mol
# Density = 1.987932 g / cm^3
# Si number density = 19.924665 Si / 1000 Ang^3
#
#
#
# Elastic Constant Matrix: (Units=GPa)
#
#
# Indices 1 2 3 4 5 6 
#
# 1 71.7207 44.1910 10.2800 -0.0049 5.8370 -0.0062
# 2 44.1910 98.3739 35.3913 -0.0016 13.5620 -0.0001
# 3 10.2800 35.3913 66.0822 -0.0036 9.7945 0.0002
# 4 -0.0049 -0.0016 -0.0036 33.5981 -0.0006 4.9952
# 5 5.8370 13.5620 9.7945 -0.0006 36.8782 0.0007
# 6 -0.0062 -0.0001 0.0002 4.9952 0.0007 37.6762
#
#
#
# Elastic Compliance Matrix: (Units=1/GPa)
#
#
# Indices 1 2 3 4 5 6 
#
# 1 0.019502 -0.009484 0.002067 0.000002 -0.000148 0.000003
# 2 -0.009484 0.017521 -0.007470 -0.000001 -0.002958 -0.000001
# 3 0.002067 -0.007470 0.019209 0.000002 -0.002682 0.000000
# 4 0.000002 -0.000001 0.000002 0.030362 0.000000 -0.004025
# 5 -0.000148 -0.002958 -0.002682 0.000000 0.028940 -0.000001
# 6 0.000003 -0.000001 0.000000 -0.004025 -0.000001 0.027076
#
#
# Mechanical properties :
#
#
# Convention : Reuss Voigt Hill
#
# Bulk Modulus (GPa) = 37.79354 46.21127 42.00240
# Shear Modulus (GPa) = 27.59343 31.38481 29.48912
#
# Velocity S-wave (km/s) = 3.72545 3.97315 3.85129
# Velocity P-wave (km/s) = 6.12492 6.65517 6.39554
#
# Compressibility (1/GPa) = 0.02645955
#
# Stress axis : x y z
#
# Youngs Moduli (GPa) = 51.27585 57.07486 52.05872
#
# Poissons Ratio (x) = 0.54130 -0.10763
# Poissons Ratio (y) = 0.48631 0.38886
# Poissons Ratio (z) = -0.10601 0.42633
#
# Static dielectric constant tensor:
#      x y z
#    x 1.569670 -0.000080 -1.283260 
#    y -0.000080 3.682180 -0.000020 
#    z -1.283260 -0.000020 3.023630 
# 
# 
# High freq. dielectric constant tensor:
#      x y z
#    x 1.783520 0.000000 -0.002290 
#    y 0.000000 1.783680 0.000000 
#    z -0.002290 0.000000 1.787990 
# 
# From -- ./inp_files/380657.got.cif
#   From: 2010.06.25/outbox.cif.g09.slc.cpg/sg12_191_cif.got.tgz:380657.got - 2010.06.28 00:19:55.
