data_PCOD8109222
_publ_section_title
;
Structure prediction by ZEFSAII (Michael W. Deem and Ramdas Pophale) SiO2 
 PCOD8109222
Probable space group: C 2/M
;
_chemical_formula_sum "Si O2"
_cell_formula_units_Z 64
_cell_length_a 16.630207
_cell_length_b 16.568248
_cell_length_c 18.532228
_cell_angle_alpha 90.000000
_cell_angle_beta 38.002766
_cell_angle_gamma 90.000000
_cell_volume 3143.914226
_symmetry_space_group_name_H-M "C 2/M"
_symmetry_group_IT_number 12
_symmetry_cell_setting 'monoclinic'
loop_
_space_group_symop_operation_xyz
x,y,z
-x,y,-z
-x,-y,-z
x,-y,z
1/2+x,1/2+y,z
1/2-x,1/2+y,-z
1/2-x,1/2-y,-z
1/2+x,1/2-y,z
loop_
_atom_site_type_symbol
_atom_site_label
_atom_site_fract_x
_atom_site_fract_y
_atom_site_fract_z
Si Si1 0.794413 0.592714 0.636802
Si Si2 0.789962 0.591738 0.312883
Si Si3 0.041266 0.160984 0.748053
Si Si4 0.642454 0.302591 0.533306
Si Si5 0.010998 0.651462 0.386255
Si Si6 0.766431 0.093558 0.951482
Si Si7 0.038748 0.345850 0.201685
Si Si8 0.854258 0.404325 0.111633
O O1 0.764530 0.500000 0.676531
O O2 0.660490 0.639367 0.716050
O O3 0.859015 0.637530 0.659237
O O4 0.892711 0.595747 0.499117
O O5 0.738783 0.500000 0.353494
O O6 0.702015 0.646077 0.426741
O O7 0.784332 0.625727 0.234739
O O8 0.941129 0.593820 0.229858
O O9 0.077363 0.138989 0.639344
O O10 0.918008 0.108678 0.859865
O O11 0.011792 0.255501 0.774273
O O12 0.750000 0.250000 0.500000
O O13 0.533526 0.244591 0.575497
O O14 0.042153 0.628204 0.282468
O O15 0.732693 0.123911 0.894528
O O16 0.732900 0.000000 0.985016
O O17 0.683129 0.144782 0.067518
O O18 0.865508 0.500000 0.108277
O O19 0.000000 0.367331 0.000000
#
# Coordination Sequence:
#
# PCOD8109222 Si02
#       8
#     8   8   8   8   8   8   8   8
#     4  11  22  39  64  93 126 164 209 263 319 377
#     4  11  20  34  65  96 122 161 207 262 314 372
#     4  11  23  42  60  87 130 167 207 256 323 384
#     4  11  20  42  60  90 127 163 203 261 318 379
#     4  10  21  39  62  92 124 158 214 264 310 372
#     4  11  23  40  63  90 123 169 209 260 319 374
#     4  11  21  40  63  90 122 161 217 257 310 380
#     4   9  18  36  57  89 122 149 203 258 305 362
#
# _framework density 20.356791000000001
#
# number of rings (size 3 to 8) (size 9 to 14) (size 15 to 20)
#    0.000    1.375    5.000    1.875    0.000    4.000 
#   13.500    0.625    0.000    3.750    0.000    0.000 
#    0.000    0.000    0.000    0.000    0.000    0.000 
#
# Total GULP energy -396838.759879 kJ/mol
# GULP energy per Si atom -12401.211246 kJ/mol
# Density = 2.031046 g / cm^3
# Si number density = 20.356791 Si / 1000 Ang^3
#
#
#
# Elastic Constant Matrix: (Units=GPa)
#
#
# Indices 1 2 3 4 5 6 
#
# 1 140.8436 46.0625 68.1713 0.0001 -0.0911 0.0000
# 2 46.0625 70.3548 35.2749 0.0001 5.3535 0.0000
# 3 68.1713 35.2749 133.1551 0.0002 10.5587 -0.0001
# 4 0.0001 0.0001 0.0002 32.9087 0.0000 -0.8917
# 5 -0.0911 5.3535 10.5587 0.0000 40.4032 0.0000
# 6 0.0000 0.0000 -0.0001 -0.8917 0.0000 26.0708
#
#
#
# Elastic Compliance Matrix: (Units=1/GPa)
#
#
# Indices 1 2 3 4 5 6 
#
# 1 0.010874 -0.005068 -0.004370 0.000000 0.001838 0.000000
# 2 -0.005068 0.018797 -0.002233 0.000000 -0.001919 0.000000
# 3 -0.004370 -0.002233 0.010535 0.000000 -0.002467 0.000000
# 4 0.000000 0.000000 0.000000 0.030415 0.000000 0.001040
# 5 0.001838 -0.001919 -0.002467 0.000000 0.025654 0.000000
# 6 0.000000 0.000000 0.000000 0.001040 0.000000 0.038393
#
#
# Mechanical properties :
#
#
# Convention : Reuss Voigt Hill
#
# Bulk Modulus (GPa) = 59.29966 71.48564 65.39265
# Shear Modulus (GPa) = 30.55647 32.86620 31.71133
#
# Velocity S-wave (km/s) = 3.87854 4.02245 3.95115
# Velocity P-wave (km/s) = 7.01789 7.53433 7.28069
#
# Compressibility (1/GPa) = 0.01686350
#
# Stress axis : x y z
#
# Youngs Moduli (GPa) = 91.96147 53.19897 94.92460
#
# Poissons Ratio (x) = 0.26962 0.41485
# Poissons Ratio (y) = 0.46607 0.21195
# Poissons Ratio (z) = 0.40190 0.11879
#
# Static dielectric constant tensor:
#      x y z
#    x 3.735990 0.000000 0.104100 
#    y 0.000000 3.473570 0.000000 
#    z 0.104100 0.000000 3.838080 
# 
# 
# High freq. dielectric constant tensor:
#      x y z
#    x 1.793740 0.000000 0.004460 
#    y 0.000000 1.778430 0.000000 
#    z 0.004460 0.000000 1.798320 
# 
# From -- ./inp_files/271717.got.cif
#   From: 2010.06.25/outbox.cif.g09.slc.cpg/sg12_136_cif.got.tgz:271717.got - 2010.06.28 00:19:55.
