data_PCOD8109527
_publ_section_title
;
Structure prediction by ZEFSAII (Michael W. Deem and Ramdas Pophale) SiO2 
 PCOD8109527
Probable space group: C 2/M
;
_chemical_formula_sum "Si O2"
_cell_formula_units_Z 60
_cell_length_a 19.223487
_cell_length_b 26.046699
_cell_length_c 11.466863
_cell_angle_alpha 90.000000
_cell_angle_beta 150.369075
_cell_angle_gamma 90.000000
_cell_volume 2838.688214
_symmetry_space_group_name_H-M "C 2/M"
_symmetry_group_IT_number 12
_symmetry_cell_setting 'monoclinic'
loop_
_space_group_symop_operation_xyz
x,y,z
-x,y,-z
-x,-y,-z
x,-y,z
1/2+x,1/2+y,z
1/2-x,1/2+y,-z
1/2-x,1/2-y,-z
1/2+x,1/2-y,z
loop_
_atom_site_type_symbol
_atom_site_label
_atom_site_fract_x
_atom_site_fract_y
_atom_site_fract_z
Si Si1 0.506096 0.057152 0.759817
Si Si2 0.836533 0.696028 0.788180
Si Si3 0.222990 0.114761 0.790192
Si Si4 0.759780 0.379418 0.485954
Si Si5 0.855748 0.191461 0.858989
Si Si6 0.193462 0.870161 0.002862
Si Si7 0.000000 0.406314 0.500000
Si Si8 0.554134 0.561055 0.341680
O O1 0.411201 0.093716 0.702779
O O2 0.467989 0.059655 0.567185
O O3 0.477701 0.000000 0.762770
O O4 0.668476 0.070052 0.016989
O O5 0.807747 0.661818 0.858613
O O6 0.755593 0.670763 0.562026
O O7 0.779363 0.753672 0.729097
O O8 0.000000 0.698149 0.000000
O O9 0.108995 0.089026 0.539136
O O10 0.157512 0.137813 0.813655
O O11 0.731814 0.357259 0.316695
O O12 0.645919 0.420848 0.364200
O O13 0.870552 0.178542 0.018455
O O14 0.000000 0.191951 0.000000
O O15 0.361205 0.872485 0.270026
O O16 0.107558 0.921718 0.915503
O O17 0.561978 0.500000 0.366332
#
# Coordination Sequence:
#
# PCOD8109527 Si02
#       8
#     8   8   8   8   8   8   4   8
#     4  11  21  36  61  90 124 161 203 248 305 366
#     4  10  21  39  65  91 120 163 203 251 307 363
#     4  10  23  41  62  92 126 161 207 255 302 362
#     4  11  21  40  61  93 125 159 203 258 306 361
#     4  11  22  41  65  90 121 163 203 253 314 368
#     4  11  23  42  64  91 126 162 201 260 306 367
#     4  10  23  40  60  86 126 162 204 246 311 366
#     4  11  24  41  64  90 125 167 209 253 305 363
#
# _framework density 21.136524000000001
#
# number of rings (size 3 to 8) (size 9 to 14) (size 15 to 20)
#    0.000    1.333    4.000    1.800    0.000    4.267 
#    0.000    2.667    5.867    0.000    0.000    0.000 
#    0.000    0.000    0.000    0.000    0.000    0.000 
#
# Total GULP energy -371900.660462 kJ/mol
# GULP energy per Si atom -12396.688682 kJ/mol
# Density = 2.108842 g / cm^3
# Si number density = 21.136524 Si / 1000 Ang^3
#
#
#
# Elastic Constant Matrix: (Units=GPa)
#
#
# Indices 1 2 3 4 5 6 
#
# 1 109.9525 60.2209 19.8987 0.0000 -5.1846 0.0000
# 2 60.2209 144.0923 31.7023 0.0000 -9.4459 0.0000
# 3 19.8987 31.7023 65.3190 0.0000 6.8059 0.0000
# 4 0.0000 0.0000 0.0000 -3.5923 0.0000 -30.1632
# 5 -5.1846 -9.4459 6.8059 0.0000 31.2064 0.0000
# 6 0.0000 0.0000 0.0000 -30.1632 0.0000 -10.1382
#
#
#
# Elastic Compliance Matrix: (Units=1/GPa)
#
#
# Indices 1 2 3 4 5 6 
#
# 1 0.011926 -0.004594 -0.001499 0.000000 0.000918 0.000000
# 2 -0.004594 0.009875 -0.003710 0.000000 0.003035 0.000000
# 3 -0.001499 -0.003710 0.018121 0.000000 -0.005324 0.000000
# 4 0.000000 0.000000 0.000000 0.011608 0.000000 -0.034535
# 5 0.000918 0.003035 -0.005324 0.000000 0.034277 0.000000
# 6 0.000000 0.000000 0.000000 -0.034535 0.000000 0.004113
#
#
# Mechanical properties :
#
#
# Convention : Reuss Voigt Hill
#
# Bulk Modulus (GPa) = 49.22015 60.33418 54.77717
# Shear Modulus (GPa) = 42.99341 17.33132 30.16236
#
# Velocity S-wave (km/s) = 4.51497 2.86662 3.78170
# Velocity P-wave (km/s) = 7.10755 6.28996 6.71122
#
# Compressibility (1/GPa) = 0.02031688
#
# Stress axis : x y z
#
# Youngs Moduli (GPa) = 83.85341 101.26436 55.18399
#
# Poissons Ratio (x) = 0.46523 0.08271
# Poissons Ratio (y) = 0.38524 0.20471
# Poissons Ratio (z) = 0.12568 0.37564
#
# Static dielectric constant tensor:
#      x y z
#    x 3.986490 0.000000 -0.084980 
#    y 0.000000 3.793070 0.000000 
#    z -0.084980 0.000000 3.728160 
# 
# 
# High freq. dielectric constant tensor:
#      x y z
#    x 1.842050 0.000000 -0.001780 
#    y 0.000000 1.814240 0.000000 
#    z -0.001780 0.000000 1.822900 
# 
# From -- ./inp_files/170403.got.cif
#   From: 2010.06.25/outbox.cif.g09.slc.cpg/sg12_86_cif.got.tgz:170403.got - 2010.06.28 00:19:55.
