data_PCOD8109464
_publ_section_title
;
Structure prediction by ZEFSAII (Michael W. Deem and Ramdas Pophale) SiO2 
 PCOD8109464
Probable space group: C 2/M
;
_chemical_formula_sum "Si O2"
_cell_formula_units_Z 48
_cell_length_a 9.612883
_cell_length_b 25.695485
_cell_length_c 16.821891
_cell_angle_alpha 90.000000
_cell_angle_beta 35.918211
_cell_angle_gamma 90.000000
_cell_volume 2437.526834
_symmetry_space_group_name_H-M "C 2/M"
_symmetry_group_IT_number 12
_symmetry_cell_setting 'monoclinic'
loop_
_space_group_symop_operation_xyz
x,y,z
-x,y,-z
-x,-y,-z
x,-y,z
1/2+x,1/2+y,z
1/2-x,1/2+y,-z
1/2-x,1/2-y,-z
1/2+x,1/2-y,z
loop_
_atom_site_type_symbol
_atom_site_label
_atom_site_fract_x
_atom_site_fract_y
_atom_site_fract_z
Si Si1 0.254498 0.059770 0.412090
Si Si2 0.423165 0.693169 0.779974
Si Si3 0.114150 0.560013 0.102439
Si Si4 0.000000 0.617280 0.000000
Si Si5 0.759664 0.706267 0.769668
Si Si6 0.500000 0.626845 0.000000
Si Si7 0.848566 0.645519 0.493957
O O1 0.441547 0.068317 0.256078
O O2 0.327843 0.093159 0.453653
O O3 0.000000 0.079186 0.500000
O O4 0.243580 0.000000 0.444898
O O5 0.235545 0.651562 0.897945
O O6 0.572009 0.714390 0.785733
O O7 0.278354 0.739889 0.807488
O O8 0.591735 0.667110 0.636235
O O9 0.178866 0.500000 0.059366
O O10 0.357366 0.590675 0.004857
O O11 0.982850 0.581208 0.085291
O O12 0.016850 0.690752 0.616833
O O13 0.679958 0.661721 0.866792
O O14 0.000000 0.629088 0.500000
#
# Coordination Sequence:
#
# PCOD8109464 Si02
#       7
#     8   8   8   4   8   4   8
#     4  10  21  39  64  93 123 164 211 255 311 371
#     4  11  25  40  63  92 125 167 209 257 313 371
#     4  11  24  42  66  94 127 167 208 259 314 372
#     4  12  24  42  62  96 128 164 206 260 312 374
#     4  11  24  41  63  91 125 163 213 258 312 372
#     4  12  22  42  66  92 126 164 210 262 308 376
#     4  10  22  42  62  90 126 163 207 260 312 366
#
# _framework density 19.692091000000001
#
# number of rings (size 3 to 8) (size 9 to 14) (size 15 to 20)
#    0.000    1.167    3.333    2.500    2.333    3.000 
#    0.000    0.833    0.000    0.000    0.000    0.000 
#    0.000    0.000    0.000    0.000    0.000    0.000 
#
# Total GULP energy -297776.139803 kJ/mol
# GULP energy per Si atom -12407.339158 kJ/mol
# Density = 1.964727 g / cm^3
# Si number density = 19.692091 Si / 1000 Ang^3
#
#
#
# Elastic Constant Matrix: (Units=GPa)
#
#
# Indices 1 2 3 4 5 6 
#
# 1 96.0687 61.2461 22.9306 -0.0011 6.9974 -0.0014
# 2 61.2461 121.1750 46.1665 -0.0009 11.0709 -0.0009
# 3 22.9306 46.1665 86.7075 -0.0018 -8.3730 -0.0024
# 4 -0.0011 -0.0009 -0.0018 86.3709 0.0009 66.0011
# 5 6.9974 11.0709 -8.3730 0.0009 30.3772 0.0013
# 6 -0.0014 -0.0009 -0.0024 66.0011 0.0013 108.0274
#
#
#
# Elastic Compliance Matrix: (Units=1/GPa)
#
#
# Indices 1 2 3 4 5 6 
#
# 1 0.015374 -0.007683 -0.000048 0.000000 -0.000754 0.000000
# 2 -0.007683 0.015147 -0.006570 0.000000 -0.005561 0.000000
# 3 -0.000048 -0.006570 0.015694 0.000000 0.006731 0.000000
# 4 0.000000 0.000000 0.000000 0.021717 0.000000 -0.013268
# 5 -0.000754 -0.005561 0.006731 0.000000 0.036975 0.000000
# 6 0.000000 0.000000 0.000000 -0.013268 0.000000 0.017364
#
#
# Mechanical properties :
#
#
# Convention : Reuss Voigt Hill
#
# Bulk Modulus (GPa) = 56.77746 62.73752 59.75749
# Shear Modulus (GPa) = 31.89906 56.52896 44.21401
#
# Velocity S-wave (km/s) = 4.02915 5.36365 4.74357
# Velocity P-wave (km/s) = 7.10920 8.38372 7.77263
#
# Compressibility (1/GPa) = 0.01761262
#
# Stress axis : x y z
#
# Youngs Moduli (GPa) = 65.04524 66.01843 63.71934
#
# Poissons Ratio (x) = 0.50725 0.00303
# Poissons Ratio (y) = 0.49977 0.41864
# Poissons Ratio (z) = 0.00310 0.43375
#
# Static dielectric constant tensor:
#      x y z
#    x 3.597760 0.000000 0.006530 
#    y 0.000000 3.529470 0.000000 
#    z 0.006530 0.000000 3.727310 
# 
# 
# High freq. dielectric constant tensor:
#      x y z
#    x 1.774790 0.000000 -0.000270 
#    y 0.000000 1.771500 0.000000 
#    z -0.000270 0.000000 1.781570 
# 
# From -- ./inp_files/200163.got.cif
#   From: 2010.06.25/outbox.cif.g09.slc.cpg/sg12_101_cif.got.tgz:200163.got - 2010.06.28 00:19:55.
