data_PCOD8109257
_publ_section_title
;
Structure prediction by ZEFSAII (Michael W. Deem and Ramdas Pophale) SiO2 
 PCOD8109257
Probable space group: C 2/M
;
_chemical_formula_sum "Si O2"
_cell_formula_units_Z 64
_cell_length_a 8.888961
_cell_length_b 19.926401
_cell_length_c 25.515295
_cell_angle_alpha 90.000000
_cell_angle_beta 44.083397
_cell_angle_gamma 90.000000
_cell_volume 3144.165367
_symmetry_space_group_name_H-M "C 2/M"
_symmetry_group_IT_number 12
_symmetry_cell_setting 'monoclinic'
loop_
_space_group_symop_operation_xyz
x,y,z
-x,y,-z
-x,-y,-z
x,-y,z
1/2+x,1/2+y,z
1/2-x,1/2+y,-z
1/2-x,1/2-y,-z
1/2+x,1/2-y,z
loop_
_atom_site_type_symbol
_atom_site_label
_atom_site_fract_x
_atom_site_fract_y
_atom_site_fract_z
Si Si1 0.991495 0.819589 0.731586
Si Si2 0.214469 0.574823 0.979799
Si Si3 0.510698 0.576013 0.813042
Si Si4 0.005707 0.577122 0.277111
Si Si5 0.927997 0.695343 0.575115
Si Si6 0.758544 0.806444 0.041359
Si Si7 0.779757 0.162528 0.575419
Si Si8 0.052908 0.309333 0.785208
O O1 0.917660 0.875177 0.791993
O O2 0.213699 0.844005 0.648268
O O3 0.022274 0.747092 0.749424
O O4 0.805085 0.811998 0.735617
O O5 0.253351 0.500000 0.991587
O O6 0.414451 0.597990 0.893280
O O7 0.189920 0.622069 0.035682
O O8 0.000000 0.579401 0.000000
O O9 0.435242 0.500000 0.819131
O O10 0.767234 0.582261 0.750237
O O11 0.946865 0.500000 0.278949
O O12 0.829499 0.608578 0.359683
O O13 0.017705 0.618571 0.220027
O O14 0.858895 0.773075 0.588537
O O15 0.000000 0.667582 0.500000
O O16 0.122694 0.685901 0.567568
O O17 0.592924 0.788985 0.128894
O O18 0.750000 0.750000 0.000000
O O19 0.000000 0.811340 0.000000
O O20 0.000000 0.127387 0.500000
#
# Coordination Sequence:
#
# PCOD8109257 Si02
#       8
#     8   8   8   8   8   8   8   8
#     4  12  22  39  64  90 123 155 205 249 309 362
#     4  10  21  39  63  88 118 160 206 250 304 368
#     4  10  21  40  63  87 121 162 203 250 304 369
#     4  11  24  42  61  88 125 168 211 252 306 365
#     4  11  22  37  64  98 123 156 196 251 305 358
#     4  12  24  40  60  88 127 159 202 257 317 366
#     4  11  22  39  65  92 127 160 203 249 306 366
#     4  12  25  38  63  92 120 163 205 260 304 368
#
# _framework density 20.355163000000001
#
# number of rings (size 3 to 8) (size 9 to 14) (size 15 to 20)
#    0.000    0.875    2.500    6.375    1.750    1.500 
#    0.000    0.000    0.000    0.750    0.000    0.000 
#    0.000    0.000    0.000    0.000    0.000    0.000 
#
# Total GULP energy -396907.265802 kJ/mol
# GULP energy per Si atom -12403.352056 kJ/mol
# Density = 2.030883 g / cm^3
# Si number density = 20.355163 Si / 1000 Ang^3
#
#
#
# Elastic Constant Matrix: (Units=GPa)
#
#
# Indices 1 2 3 4 5 6 
#
# 1 82.1818 38.5446 12.4765 -0.0094 -0.1151 0.0208
# 2 38.5446 96.3240 24.4343 0.0075 15.6669 -0.0093
# 3 12.4765 24.4343 106.8940 0.0244 -5.4775 0.1230
# 4 -0.0094 0.0075 0.0244 36.3235 0.0126 11.0128
# 5 -0.1151 15.6669 -5.4775 0.0126 35.3611 -0.0509
# 6 0.0208 -0.0093 0.1230 11.0128 -0.0509 50.2105
#
#
#
# Elastic Compliance Matrix: (Units=1/GPa)
#
#
# Indices 1 2 3 4 5 6 
#
# 1 0.015265 -0.006551 -0.000134 0.000006 0.002932 -0.000006
# 2 -0.006551 0.014921 -0.003010 -0.000002 -0.007098 0.000006
# 3 -0.000134 -0.003010 0.010208 0.000000 0.002914 -0.000022
# 4 0.000006 -0.000002 0.000000 0.029492 -0.000019 -0.006468
# 5 0.002932 -0.007098 0.002914 -0.000019 0.031886 0.000027
# 6 -0.000006 0.000006 -0.000022 -0.006468 0.000027 0.021335
#
#
# Mechanical properties :
#
#
# Convention : Reuss Voigt Hill
#
# Bulk Modulus (GPa) = 47.60936 48.47896 48.04416
# Shear Modulus (GPa) = 33.44515 38.37532 35.91024
#
# Velocity S-wave (km/s) = 4.05789 4.34670 4.20477
# Velocity P-wave (km/s) = 6.73761 7.00428 6.87224
#
# Compressibility (1/GPa) = 0.02100427
#
# Stress axis : x y z
#
# Youngs Moduli (GPa) = 65.50818 67.01865 97.96171
#
# Poissons Ratio (x) = 0.43906 0.01313
# Poissons Ratio (y) = 0.42916 0.29485
# Poissons Ratio (z) = 0.00878 0.20172
#
# Static dielectric constant tensor:
#      x y z
#    x 3.685190 -0.000030 -0.257490 
#    y -0.000030 3.655940 0.000090 
#    z -0.257490 0.000090 4.797190 
# 
# 
# High freq. dielectric constant tensor:
#      x y z
#    x 1.800790 0.000000 -0.010040 
#    y 0.000000 1.782340 0.000000 
#    z -0.010040 0.000000 1.814540 
# 
# From -- ./inp_files/333701.got.cif
#   From: 2010.06.25/outbox.cif.g09.slc.cpg/sg12_167_cif.got.tgz:333701.got - 2010.06.28 00:19:55.
