data_PCOD8109071
_publ_section_title
;
Structure prediction by ZEFSAII (Michael W. Deem and Ramdas Pophale) SiO2 
 PCOD8109071
Probable space group: C 2/M
;
_chemical_formula_sum "Si O2"
_cell_formula_units_Z 56
_cell_length_a 28.932421
_cell_length_b 8.792535
_cell_length_c 12.479304
_cell_angle_alpha 90.000000
_cell_angle_beta 58.655818
_cell_angle_gamma 90.000000
_cell_volume 2711.293874
_symmetry_space_group_name_H-M "C 2/M"
_symmetry_group_IT_number 12
_symmetry_cell_setting 'monoclinic'
loop_
_space_group_symop_operation_xyz
x,y,z
-x,y,-z
-x,-y,-z
x,-y,z
1/2+x,1/2+y,z
1/2-x,1/2+y,-z
1/2-x,1/2-y,-z
1/2+x,1/2-y,z
loop_
_atom_site_type_symbol
_atom_site_label
_atom_site_fract_x
_atom_site_fract_y
_atom_site_fract_z
Si Si1 0.635346 0.822729 0.516518
Si Si2 0.902578 0.179285 0.857345
Si Si3 0.937761 0.677202 0.595716
Si Si4 0.446091 0.821206 0.004140
Si Si5 0.287981 0.821632 0.042098
Si Si6 0.253668 0.673939 0.296277
Si Si7 0.634276 0.674263 0.738585
O O1 0.597214 0.772372 0.464567
O O2 0.697234 0.780147 0.417991
O O3 0.616153 0.731820 0.644023
O O4 0.628163 0.000000 0.549813
O O5 0.917208 0.226412 0.720119
O O6 0.898136 0.000000 0.869378
O O7 0.947482 0.239377 0.886814
O O8 0.846657 0.250179 0.962581
O O9 0.929139 0.500000 0.631750
O O10 0.000000 0.716287 0.500000
O O11 0.394207 0.771828 0.135031
O O12 0.443769 0.000000 0.987226
O O13 0.500000 0.770378 0.000000
O O14 0.262663 0.787484 0.187711
O O15 0.292137 0.000000 0.018454
O O16 0.250000 0.750000 0.000000
O O17 0.251654 0.500000 0.256245
O O18 0.301136 0.694350 0.326176
O O19 0.616447 0.500000 0.773449
#
# Coordination Sequence:
#
# PCOD8109071 Si02
#       7
#     8   8   8   8   8   8   8
#     4  10  22  40  63  90 126 171 217 262 313 379
#     4  12  25  43  67  97 132 167 212 268 325 384
#     4  10  23  43  66  92 125 171 221 267 316 378
#     4  11  25  44  68  95 126 169 218 264 320 390
#     4  12  24  39  64  94 129 172 214 264 320 382
#     4  10  21  39  61  91 128 167 211 262 319 383
#     4  11  23  39  63  95 131 166 209 264 321 381
#
# _framework density 20.654344999999999
#
# number of rings (size 3 to 8) (size 9 to 14) (size 15 to 20)
#    0.000    1.143    1.429    4.714    2.000    4.286 
#    0.000    0.000    0.000    0.000    0.000    0.000 
#    0.000    0.000    0.000    0.000    0.000    0.000 
#
# Total GULP energy -347392.222605 kJ/mol
# GULP energy per Si atom -12406.865093 kJ/mol
# Density = 2.060733 g / cm^3
# Si number density = 20.654345 Si / 1000 Ang^3
#
#
#
# Elastic Constant Matrix: (Units=GPa)
#
#
# Indices 1 2 3 4 5 6 
#
# 1 110.2650 33.1439 26.9933 0.0000 17.3959 0.0000
# 2 33.1439 95.5354 26.4403 0.0000 16.5528 0.0000
# 3 26.9933 26.4403 80.7482 0.0000 22.6175 0.0000
# 4 0.0000 0.0000 0.0000 -117.1149 0.0000 315.8060
# 5 17.3959 16.5528 22.6175 0.0000 38.9297 0.0000
# 6 0.0000 0.0000 0.0000 315.8060 0.0000 -589.3385
#
#
#
# Elastic Compliance Matrix: (Units=1/GPa)
#
#
# Indices 1 2 3 4 5 6 
#
# 1 0.010780 -0.002755 -0.002007 0.000000 -0.002480 0.000000
# 2 -0.002755 0.012565 -0.002439 0.000000 -0.002695 0.000000
# 3 -0.002007 -0.002439 0.015899 0.000000 -0.007304 0.000000
# 4 0.000000 0.000000 0.000000 0.019189 0.000000 0.010282
# 5 -0.002480 -0.002695 -0.007304 0.000000 0.032184 0.000000
# 6 0.000000 0.000000 0.000000 0.010282 0.000000 0.003813
#
#
# Mechanical properties :
#
#
# Convention : Reuss Voigt Hill
#
# Bulk Modulus (GPa) = 40.25237 51.07817 45.66527
# Shear Modulus (GPa) = 42.69444 -120.17334 -38.73945
#
# Velocity S-wave (km/s) = 4.55146 -7.63606 -4.33553
# Velocity P-wave (km/s) = 6.86673 7.27751 1.70444
#
# Compressibility (1/GPa) = 0.02484326
#
# Stress axis : x y z
#
# Youngs Moduli (GPa) = 92.76798 79.58739 62.89588
#
# Poissons Ratio (x) = 0.21924 0.12623
# Poissons Ratio (y) = 0.25555 0.15338
# Poissons Ratio (z) = 0.18618 0.19408
#
# Static dielectric constant tensor:
#      x y z
#    x 3.967750 0.000000 0.029770 
#    y 0.000000 3.704200 0.000000 
#    z 0.029770 0.000000 3.687350 
# 
# 
# High freq. dielectric constant tensor:
#      x y z
#    x 1.824650 0.000000 0.006530 
#    y 0.000000 1.808400 0.000000 
#    z 0.006530 0.000000 1.811790 
# 
# From -- ./inp_files/181028.got.cif
#   From: 2010.06.25/outbox.cif.g09.slc.cpg/sg12_91_cif.got.tgz:181028.got - 2010.06.28 00:19:55.
