data_PCOD8109082
_publ_section_title
;
Structure prediction by ZEFSAII (Michael W. Deem and Ramdas Pophale) SiO2 
 PCOD8109082
Probable space group: C 2/M
;
_chemical_formula_sum "Si O2"
_cell_formula_units_Z 64
_cell_length_a 20.370229
_cell_length_b 8.653551
_cell_length_c 24.304283
_cell_angle_alpha 90.000000
_cell_angle_beta 53.121179
_cell_angle_gamma 90.000000
_cell_volume 3426.986020
_symmetry_space_group_name_H-M "C 2/M"
_symmetry_group_IT_number 12
_symmetry_cell_setting 'monoclinic'
loop_
_space_group_symop_operation_xyz
x,y,z
-x,y,-z
-x,-y,-z
x,-y,z
1/2+x,1/2+y,z
1/2-x,1/2+y,-z
1/2-x,1/2-y,-z
1/2+x,1/2-y,z
loop_
_atom_site_type_symbol
_atom_site_label
_atom_site_fract_x
_atom_site_fract_y
_atom_site_fract_z
Si Si1 0.048563 0.684024 0.847833
Si Si2 0.394266 0.181268 0.297715
Si Si3 0.426889 0.169648 0.993390
Si Si4 0.312760 0.815799 0.140869
Si Si5 0.422359 0.320102 0.502337
Si Si6 0.779348 0.680992 0.639125
Si Si7 0.338342 0.819333 0.729121
Si Si8 0.513391 0.320585 0.648855
O O1 0.046527 0.500000 0.855148
O O2 0.052009 0.732718 0.782428
O O3 0.130665 0.745253 0.837122
O O4 0.965850 0.753320 0.919338
O O5 0.299958 0.218368 0.334077
O O6 0.424939 0.280237 0.333373
O O7 0.403910 0.000000 0.305006
O O8 0.350215 0.250894 0.063796
O O9 0.396836 0.000000 0.990318
O O10 0.500000 0.154283 0.000000
O O11 0.220938 0.756446 0.195684
O O12 0.313353 0.000000 0.138395
O O13 0.500000 0.274269 0.500000
O O14 0.400213 0.500000 0.520668
O O15 0.345970 0.216221 0.558827
O O16 0.441359 0.275734 0.430158
O O17 0.757745 0.500000 0.649891
O O18 0.815540 0.737802 0.679359
O O19 0.430513 0.774907 0.697576
O O20 0.328003 0.000000 0.739116
O O21 0.490534 0.500000 0.660969
#
# Coordination Sequence:
#
# PCOD8109082 Si02
#       8
#     8   8   8   8   8   8   8   8
#     4   8  14  26  48  78 109 143 179 219 267 318
#     4  11  22  37  58  83 115 149 184 223 268 325
#     4   7  11  21  42  75 108 136 175 223 266 312
#     4   9  15  27  51  80 108 140 181 226 269 316
#     4  10  21  39  62  84 106 138 181 228 277 327
#     4  11  23  37  58  85 113 145 182 224 270 323
#     4  11  22  35  54  82 114 145 181 225 272 323
#     4  11  24  41  60  81 109 142 181 227 276 330
#
# _framework density 18.675301000000001
#
# number of rings (size 3 to 8) (size 9 to 14) (size 15 to 20)
#    0.000    2.250    2.500    3.000    0.000    2.750 
#    0.000    0.000    0.000    5.625    0.000    0.000 
#    0.000    0.000    0.000    0.000    0.000    0.000 
#
# Total GULP energy -396644.305943 kJ/mol
# GULP energy per Si atom -12395.134561 kJ/mol
# Density = 1.863280 g / cm^3
# Si number density = 18.675301 Si / 1000 Ang^3
#
#
#
# Elastic Constant Matrix: (Units=GPa)
#
#
# Indices 1 2 3 4 5 6 
#
# 1 60.0897 7.7882 35.2499 -0.0012 4.7445 -0.0017
# 2 7.7882 28.0917 26.3055 -0.0022 1.0506 -0.0044
# 3 35.2499 26.3055 154.4482 -0.0002 -0.7978 -0.0002
# 4 -0.0012 -0.0022 -0.0002 2.7413 -0.0002 2.4958
# 5 4.7445 1.0506 -0.7978 -0.0002 24.8400 0.0001
# 6 -0.0017 -0.0044 -0.0002 2.4958 0.0001 22.5624
#
#
#
# Elastic Compliance Matrix: (Units=1/GPa)
#
#
# Indices 1 2 3 4 5 6 
#
# 1 0.019621 -0.001290 -0.004278 0.000007 -0.003830 0.000000
# 2 -0.001290 0.042539 -0.006960 0.000028 -0.001776 0.000005
# 3 -0.004278 -0.006960 0.008644 -0.000006 0.001389 -0.000001
# 4 0.000007 0.000028 -0.000006 0.405636 0.000000 -0.044870
# 5 -0.003830 -0.001776 0.001389 0.000000 0.041109 -0.000001
# 6 0.000000 0.000005 -0.000001 -0.044870 -0.000001 0.049285
#
#
# Mechanical properties :
#
#
# Convention : Reuss Voigt Hill
#
# Bulk Modulus (GPa) = 21.85933 42.36854 32.11393
# Shear Modulus (GPa) = 8.23534 21.58115 14.90824
#
# Velocity S-wave (km/s) = 2.10222 3.40310 2.82846
# Velocity P-wave (km/s) = 4.19795 6.17880 5.28206
#
# Compressibility (1/GPa) = 0.04574707
#
# Stress axis : x y z
#
# Youngs Moduli (GPa) = 50.96548 23.50772 115.69173
#
# Poissons Ratio (x) = 0.03033 0.49495
# Poissons Ratio (y) = 0.06576 0.80521
# Poissons Ratio (z) = 0.21804 0.16361
#
# Static dielectric constant tensor:
#      x y z
#    x 3.096930 0.000000 0.071230 
#    y 0.000000 3.107840 0.000000 
#    z 0.071230 0.000000 3.952750 
# 
# 
# High freq. dielectric constant tensor:
#      x y z
#    x 1.688990 0.000000 -0.003020 
#    y 0.000000 1.698840 0.000000 
#    z -0.003020 0.000000 1.750750 
# 
# From -- ./inp_files/365168.got.cif
#   From: 2010.06.25/outbox.cif.g09.slc.cpg/sg12_183_cif.got.tgz:365168.got - 2010.06.28 00:19:55.
