data_PCOD8109790
_publ_section_title
;
Structure prediction by ZEFSAII (Michael W. Deem and Ramdas Pophale) SiO2 
 PCOD8109790
Probable space group: C 2/M
;
_chemical_formula_sum "Si O2"
_cell_formula_units_Z 56
_cell_length_a 26.954522
_cell_length_b 8.844669
_cell_length_c 19.868620
_cell_angle_alpha 90.000000
_cell_angle_beta 35.442845
_cell_angle_gamma 90.000000
_cell_volume 2746.799475
_symmetry_space_group_name_H-M "C 2/M"
_symmetry_group_IT_number 12
_symmetry_cell_setting 'monoclinic'
loop_
_space_group_symop_operation_xyz
x,y,z
-x,y,-z
-x,-y,-z
x,-y,z
1/2+x,1/2+y,z
1/2-x,1/2+y,-z
1/2-x,1/2-y,-z
1/2+x,1/2-y,z
loop_
_atom_site_type_symbol
_atom_site_label
_atom_site_fract_x
_atom_site_fract_y
_atom_site_fract_z
Si Si1 0.000640 0.678980 0.182039
Si Si2 0.193360 0.677909 0.620147
Si Si3 0.283912 0.822504 0.894815
Si Si4 0.933381 0.176124 0.520559
Si Si5 0.954111 0.175742 0.727720
Si Si6 0.143245 0.823164 0.939740
Si Si7 0.756052 0.679586 0.287033
O O1 0.008553 0.500000 0.171944
O O2 0.903856 0.735027 0.279397
O O3 0.035846 0.738360 0.213659
O O4 0.055700 0.745616 0.060010
O O5 0.198373 0.500000 0.605791
O O6 0.250000 0.750000 0.500000
O O7 0.229529 0.729080 0.652114
O O8 0.373184 0.743235 0.777094
O O9 0.218240 0.784071 0.908708
O O10 0.297078 0.000000 0.890270
O O11 0.250000 0.750000 0.000000
O O12 0.837458 0.242542 0.632514
O O13 0.000000 0.252644 0.500000
O O14 0.964057 0.202049 0.410075
O O15 0.928699 0.000000 0.542625
O O16 0.938584 0.000000 0.760559
O O17 0.169939 0.756570 0.838360
O O18 0.126795 0.000000 0.951296
O O19 0.762464 0.500000 0.271892
#
# Coordination Sequence:
#
# PCOD8109790 Si02
#       7
#     8   8   8   8   8   8   8
#     4  11  23  39  60  86 118 156 201 248 300 361
#     4  10  23  42  65  92 119 156 203 250 303 362
#     4  11  22  36  56  84 121 161 202 244 297 358
#     4   9  18  33  56  86 116 151 193 237 292 357
#     4  11  21  35  59  89 120 155 201 252 301 356
#     4  11  24  40  59  88 122 157 201 248 302 362
#     4  10  21  40  63  86 119 160 200 247 302 360
#
# _framework density 20.387364999999999
#
# number of rings (size 3 to 8) (size 9 to 14) (size 15 to 20)
#    0.000    1.571    1.429    3.429    0.000    6.286 
#    0.000    4.286    0.000    3.857    0.000    0.000 
#    0.000    0.000    0.000    0.000    0.000    0.000 
#
# Total GULP energy -347299.524885 kJ/mol
# GULP energy per Si atom -12403.554460 kJ/mol
# Density = 2.034096 g / cm^3
# Si number density = 20.387365 Si / 1000 Ang^3
#
#
#
# Elastic Constant Matrix: (Units=GPa)
#
#
# Indices 1 2 3 4 5 6 
#
# 1 105.0113 38.6666 71.0719 0.0013 -1.2619 -0.0019
# 2 38.6666 64.9191 52.4952 0.0060 -1.5290 -0.0055
# 3 71.0719 52.4952 167.5186 -0.0007 -5.2843 -0.0017
# 4 0.0013 0.0060 -0.0007 33.5619 -0.0002 1.8271
# 5 -1.2619 -1.5290 -5.2843 -0.0002 38.7765 0.0004
# 6 -0.0019 -0.0055 -0.0017 1.8271 0.0004 20.0991
#
#
#
# Elastic Compliance Matrix: (Units=1/GPa)
#
#
# Indices 1 2 3 4 5 6 
#
# 1 0.014432 -0.004881 -0.004605 0.000000 -0.000350 0.000000
# 2 -0.004881 0.022283 -0.004910 -0.000004 0.000051 0.000006
# 3 -0.004605 -0.004910 0.009492 0.000001 0.000950 -0.000001
# 4 0.000000 -0.000004 0.000001 0.029944 0.000000 -0.002722
# 5 -0.000350 0.000051 0.000950 0.000000 0.025909 0.000000
# 6 0.000000 0.000006 -0.000001 -0.002722 0.000000 0.050001
#
#
# Mechanical properties :
#
#
# Convention : Reuss Voigt Hill
#
# Bulk Modulus (GPa) = 57.42150 73.54627 65.48388
# Shear Modulus (GPa) = 26.78712 30.16852 28.47782
#
# Velocity S-wave (km/s) = 3.62872 3.85094 3.74148
# Velocity P-wave (km/s) = 6.76633 7.47835 7.13123
#
# Compressibility (1/GPa) = 0.01741508
#
# Stress axis : x y z
#
# Youngs Moduli (GPa) = 69.28978 44.87778 105.35451
#
# Poissons Ratio (x) = 0.21904 0.48511
# Poissons Ratio (y) = 0.33819 0.51733
# Poissons Ratio (z) = 0.31905 0.22037
#
# Static dielectric constant tensor:
#      x y z
#    x 2.921170 -0.000100 -0.085910 
#    y -0.000100 3.562480 0.000030 
#    z -0.085910 0.000030 3.916840 
# 
# 
# High freq. dielectric constant tensor:
#      x y z
#    x 1.799670 0.000000 -0.002200 
#    y 0.000000 1.781640 0.000000 
#    z -0.002200 0.000000 1.814460 
# 
# From -- ./inp_files/329538.got.cif
#   From: 2010.06.25/outbox.cif.g09.slc.cpg/sg12_165_cif.got.tgz:329538.got - 2010.06.28 00:19:55.
