data_PCOD8109455
_publ_section_title
;
Structure prediction by ZEFSAII (Michael W. Deem and Ramdas Pophale) SiO2 
 PCOD8109455
Probable space group: C 2/M
;
_chemical_formula_sum "Si O2"
_cell_formula_units_Z 56
_cell_length_a 14.650722
_cell_length_b 22.752110
_cell_length_c 8.534288
_cell_angle_alpha 90.000000
_cell_angle_beta 108.367198
_cell_angle_gamma 90.000000
_cell_volume 2699.852879
_symmetry_space_group_name_H-M "C 2/M"
_symmetry_group_IT_number 12
_symmetry_cell_setting 'monoclinic'
loop_
_space_group_symop_operation_xyz
x,y,z
-x,y,-z
-x,-y,-z
x,-y,z
1/2+x,1/2+y,z
1/2-x,1/2+y,-z
1/2-x,1/2-y,-z
1/2+x,1/2-y,z
loop_
_atom_site_type_symbol
_atom_site_label
_atom_site_fract_x
_atom_site_fract_y
_atom_site_fract_z
Si Si1 0.585857 0.334851 0.424396
Si Si2 0.782713 0.129076 0.951734
Si Si3 0.737016 0.153723 0.261450
Si Si4 0.077628 0.067039 0.165413
Si Si5 0.386281 0.932307 0.267021
Si Si6 0.106570 0.566396 0.371585
Si Si7 0.102727 0.236846 0.137224
O O1 0.500000 0.330894 0.500000
O O2 0.687814 0.327884 0.565229
O O3 0.578433 0.396147 0.325913
O O4 0.578797 0.280097 0.302902
O O5 0.825070 0.072225 0.883293
O O6 0.669442 0.118584 0.859615
O O7 0.832262 0.186491 0.906379
O O8 0.798694 0.129867 0.146876
O O9 0.669282 0.103050 0.286561
O O10 0.669407 0.206295 0.167064
O O11 0.057047 0.000000 0.201385
O O12 0.000000 0.092814 0.000000
O O13 0.355348 0.926471 0.431378
O O14 0.496368 0.913927 0.302954
O O15 0.370078 0.000000 0.201855
O O16 0.117640 0.500000 0.320999
O O17 0.000000 0.247445 0.000000
#
# Coordination Sequence:
#
# PCOD8109455 Si02
#       7
#     8   8   8   8   8   8   8
#     4  11  23  43  65  92 125 161 205 265 314 367
#     4  11  22  38  62  86 123 162 205 252 313 369
#     4  12  25  39  63  94 123 160 213 257 313 373
#     4  10  21  39  64  92 126 166 205 245 309 381
#     4   9  19  38  62  88 124 167 205 248 307 373
#     4   9  20  39  61  89 125 163 206 257 308 360
#     4  11  25  45  64  85 124 165 209 260 315 373
#
# _framework density 20.741869000000001
#
# number of rings (size 3 to 8) (size 9 to 14) (size 15 to 20)
#    0.000    1.571    0.000    7.286    2.000    3.143 
#    2.571    1.429    0.000    0.000    0.000    0.000 
#    0.000    0.000    0.000    0.000    0.000    0.000 
#
# Total GULP energy -347123.916896 kJ/mol
# GULP energy per Si atom -12397.282746 kJ/mol
# Density = 2.069466 g / cm^3
# Si number density = 20.741869 Si / 1000 Ang^3
#
#
#
# Elastic Constant Matrix: (Units=GPa)
#
#
# Indices 1 2 3 4 5 6 
#
# 1 103.6819 39.1021 55.3191 0.0000 -8.4193 0.0000
# 2 39.1021 56.9280 31.9295 0.0000 5.6258 0.0000
# 3 55.3191 31.9295 124.1779 0.0000 6.8817 0.0000
# 4 0.0000 0.0000 0.0000 23.7805 0.0000 6.2506
# 5 -8.4193 5.6258 6.8817 0.0000 52.7950 0.0000
# 6 0.0000 0.0000 0.0000 6.2506 0.0000 22.0070
#
#
#
# Elastic Compliance Matrix: (Units=1/GPa)
#
#
# Indices 1 2 3 4 5 6 
#
# 1 0.015908 -0.008449 -0.005142 0.000000 0.004107 0.000000
# 2 -0.008449 0.025134 -0.002494 0.000000 -0.003700 0.000000
# 3 -0.005142 -0.002494 0.011096 0.000000 -0.002001 0.000000
# 4 0.000000 0.000000 0.000000 0.045444 0.000000 -0.012907
# 5 0.004107 -0.003700 -0.002001 0.000000 0.020251 0.000000
# 6 0.000000 0.000000 0.000000 -0.012907 0.000000 0.049106
#
#
# Mechanical properties :
#
#
# Convention : Reuss Voigt Hill
#
# Bulk Modulus (GPa) = 50.07877 59.72105 54.89991
# Shear Modulus (GPa) = 24.29971 30.27899 27.28935
#
# Velocity S-wave (km/s) = 3.42647 3.82488 3.63114
# Velocity P-wave (km/s) = 6.31273 6.95423 6.64123
#
# Compressibility (1/GPa) = 0.01996854
#
# Stress axis : x y z
#
# Youngs Moduli (GPa) = 62.86031 39.78746 90.12470
#
# Poissons Ratio (x) = 0.33615 0.46343
# Poissons Ratio (y) = 0.53109 0.22474
# Poissons Ratio (z) = 0.32323 0.09922
#
# Static dielectric constant tensor:
#      x y z
#    x 3.891220 0.000000 0.087510 
#    y 0.000000 3.644210 0.000000 
#    z 0.087510 0.000000 3.890630 
# 
# 
# High freq. dielectric constant tensor:
#      x y z
#    x 1.826420 0.000000 0.005370 
#    y 0.000000 1.802120 0.000000 
#    z 0.005370 0.000000 1.818130 
# 
# From -- ./inp_files/65468.got.cif
#   From: 2010.06.25/outbox.cif.g09.slc.cpg/sg12_33_cif.got.tgz:65468.got - 2010.06.28 00:19:55.
