data_PCOD8109221
_publ_section_title
;
Structure prediction by ZEFSAII (Michael W. Deem and Ramdas Pophale) SiO2 
 PCOD8109221
Probable space group: C 2/M
;
_chemical_formula_sum "Si O2"
_cell_formula_units_Z 56
_cell_length_a 18.333335
_cell_length_b 19.989755
_cell_length_c 8.658424
_cell_angle_alpha 90.000000
_cell_angle_beta 55.922425
_cell_angle_gamma 90.000000
_cell_volume 2628.238738
_symmetry_space_group_name_H-M "C 2/M"
_symmetry_group_IT_number 12
_symmetry_cell_setting 'monoclinic'
loop_
_space_group_symop_operation_xyz
x,y,z
-x,y,-z
-x,-y,-z
x,-y,z
1/2+x,1/2+y,z
1/2-x,1/2+y,-z
1/2-x,1/2-y,-z
1/2+x,1/2-y,z
loop_
_atom_site_type_symbol
_atom_site_label
_atom_site_fract_x
_atom_site_fract_y
_atom_site_fract_z
Si Si1 0.582538 0.873996 0.808506
Si Si2 0.096443 0.871547 0.556674
Si Si3 0.760987 0.424540 0.551573
Si Si4 0.982583 0.268837 0.345604
Si Si5 0.095014 0.921591 0.219234
Si Si6 0.844747 0.286736 0.013036
Si Si7 0.756191 0.152085 0.125704
O O1 0.656390 0.926303 0.665417
O O2 0.548792 0.836490 0.697027
O O3 0.500000 0.907748 0.000000
O O4 0.628383 0.818645 0.858573
O O5 0.174158 0.895265 0.574649
O O6 0.085889 0.791959 0.590297
O O7 0.119354 0.885992 0.351551
O O8 0.006392 0.909753 0.707571
O O9 0.741770 0.500000 0.626370
O O10 0.786480 0.380338 0.671001
O O11 0.000000 0.287900 0.500000
O O12 0.074464 0.246357 0.159575
O O13 0.113188 0.000000 0.214073
O O14 0.157066 0.891000 0.014123
O O15 0.810861 0.346603 0.940048
O O16 0.772673 0.230699 0.138846
#
# Coordination Sequence:
#
# PCOD8109221 Si02
#       7
#     8   8   8   8   8   8   8
#     4  10  24  42  66  90 117 157 203 264 323 376
#     4  11  21  37  61  89 127 170 211 251 297 365
#     4  12  26  42  60  90 126 164 212 257 306 374
#     4  11  19  37  64  96 128 156 205 264 315 361
#     4  11  21  37  57  87 129 178 213 241 293 372
#     4  10  21  39  62  92 123 157 208 260 311 369
#     4  11  22  38  62  90 126 165 204 259 312 356
#
# _framework density 21.307044000000001
#
# number of rings (size 3 to 8) (size 9 to 14) (size 15 to 20)
#    0.000    1.143    2.857    4.714    0.000    5.429 
#    0.000    2.143    0.000    9.000    0.000    0.000 
#    0.000    0.000    0.000    0.000    0.000    0.000 
#
# Total GULP energy -347224.554159 kJ/mol
# GULP energy per Si atom -12400.876934 kJ/mol
# Density = 2.125855 g / cm^3
# Si number density = 21.307044 Si / 1000 Ang^3
#
#
#
# Elastic Constant Matrix: (Units=GPa)
#
#
# Indices 1 2 3 4 5 6 
#
# 1 96.0100 34.5250 33.1271 0.0000 8.3079 0.0000
# 2 34.5250 66.2189 34.5732 0.0000 1.1712 0.0000
# 3 33.1271 34.5732 110.4985 0.0000 -1.0290 0.0000
# 4 0.0000 0.0000 0.0000 152.1935 0.0000 101.1247
# 5 8.3079 1.1712 -1.0290 0.0000 30.0228 0.0000
# 6 0.0000 0.0000 0.0000 101.1247 0.0000 108.3125
#
#
#
# Elastic Compliance Matrix: (Units=1/GPa)
#
#
# Indices 1 2 3 4 5 6 
#
# 1 0.013619 -0.005842 -0.002289 0.000000 -0.003619 0.000000
# 2 -0.005842 0.020580 -0.004682 0.000000 0.000653 0.000000
# 3 -0.002289 -0.004682 0.011212 0.000000 0.001200 0.000000
# 4 0.000000 0.000000 0.000000 0.017307 0.000000 -0.016159
# 5 -0.003619 0.000653 0.001200 0.000000 0.034325 0.000000
# 6 0.000000 0.000000 0.000000 -0.016159 0.000000 0.024319
#
#
# Mechanical properties :
#
#
# Convention : Reuss Voigt Hill
#
# Bulk Modulus (GPa) = 50.53925 53.01978 51.77951
# Shear Modulus (GPa) = 32.55580 69.47257 51.01418
#
# Velocity S-wave (km/s) = 3.91312 5.71631 4.89841
# Velocity P-wave (km/s) = 6.64738 8.27684 7.50645
#
# Compressibility (1/GPa) = 0.01978660
#
# Stress axis : x y z
#
# Youngs Moduli (GPa) = 73.42594 48.59108 89.18914
#
# Poissons Ratio (x) = 0.28385 0.20415
# Poissons Ratio (y) = 0.42893 0.41756
# Poissons Ratio (z) = 0.16807 0.22749
#
# Static dielectric constant tensor:
#      x y z
#    x 4.033120 0.000000 -0.190270 
#    y 0.000000 3.579180 0.000000 
#    z -0.190270 0.000000 4.020480 
# 
# 
# High freq. dielectric constant tensor:
#      x y z
#    x 1.837050 0.000000 -0.002340 
#    y 0.000000 1.818460 0.000000 
#    z -0.002340 0.000000 1.844620 
# 
# From -- ./inp_files/77393.got.cif
#   From: 2010.06.25/outbox.cif.g09.slc.cpg/sg12_39_cif.got.tgz:77393.got - 2010.06.28 00:19:55.
