data_PCOD8109218
_publ_section_title
;
Structure prediction by ZEFSAII (Michael W. Deem and Ramdas Pophale) SiO2 
 PCOD8109218
Probable space group: C 2/M
;
_chemical_formula_sum "Si O2"
_cell_formula_units_Z 56
_cell_length_a 9.632954
_cell_length_b 16.539768
_cell_length_c 25.738024
_cell_angle_alpha 90.000000
_cell_angle_beta 43.545556
_cell_angle_gamma 90.000000
_cell_volume 2825.139483
_symmetry_space_group_name_H-M "C 2/M"
_symmetry_group_IT_number 12
_symmetry_cell_setting 'monoclinic'
loop_
_space_group_symop_operation_xyz
x,y,z
-x,y,-z
-x,-y,-z
x,-y,z
1/2+x,1/2+y,z
1/2-x,1/2+y,-z
1/2-x,1/2-y,-z
1/2+x,1/2-y,z
loop_
_atom_site_type_symbol
_atom_site_label
_atom_site_fract_x
_atom_site_fract_y
_atom_site_fract_z
Si Si1 0.172314 0.689198 0.681195
Si Si2 0.606468 0.905324 0.796993
Si Si3 0.921082 0.595493 0.671344
Si Si4 0.466846 0.210995 0.450687
Si Si5 0.325849 0.300367 0.810028
Si Si6 0.148411 0.091903 0.917737
Si Si7 0.928811 0.839133 0.164875
O O1 0.218794 0.649245 0.723895
O O2 0.085945 0.617089 0.669604
O O3 0.380656 0.715911 0.600224
O O4 0.023711 0.766657 0.726360
O O5 0.736151 0.885543 0.813269
O O6 0.375400 0.871873 0.859208
O O7 0.617544 0.000000 0.781632
O O8 0.907035 0.500000 0.666869
O O9 0.985013 0.636219 0.599990
O O10 0.710533 0.630460 0.749793
O O11 0.500000 0.178617 0.500000
O O12 0.250000 0.250000 0.500000
O O13 0.150553 0.235606 0.847891
O O14 0.365837 0.314589 0.860953
O O15 0.051779 0.093789 0.885671
O O16 0.174007 0.000000 0.928093
O O17 0.000000 0.134837 0.000000
#
# Coordination Sequence:
#
# PCOD8109218 Si02
#       7
#     8   8   8   8   8   8   8
#     4  11  20  41  66  86 120 165 207 245 305 374
#     4  11  22  38  63  95 125 159 209 262 302 358
#     4  11  22  38  64  93 118 154 208 257 297 359
#     4  12  25  42  64  86 122 165 200 245 318 377
#     4  11  20  37  63  91 120 158 210 260 295 361
#     4  10  21  39  62  91 130 170 202 248 317 372
#     4  11  20  37  65  88 125 160 211 248 305 361
#
# _framework density 19.822030000000002
#
# number of rings (size 3 to 8) (size 9 to 14) (size 15 to 20)
#    0.000    1.000    7.143    1.714    0.000    1.429 
#    0.000    5.714    0.000    2.571    0.000    0.000 
#    0.000    0.000    0.000    0.000    0.000    0.000 
#
# Total GULP energy -347032.419014 kJ/mol
# GULP energy per Si atom -12394.014965 kJ/mol
# Density = 1.977691 g / cm^3
# Si number density = 19.822030 Si / 1000 Ang^3
#
#
#
# Elastic Constant Matrix: (Units=GPa)
#
#
# Indices 1 2 3 4 5 6 
#
# 1 153.6406 32.3691 32.7356 0.0009 10.5541 -0.0003
# 2 32.3691 83.0455 19.0404 0.0007 -0.8438 -0.0004
# 3 32.7356 19.0404 72.3370 0.0031 16.7596 -0.0026
# 4 0.0009 0.0007 0.0031 19.0052 -0.0011 7.2511
# 5 10.5541 -0.8438 16.7596 -0.0011 21.2046 0.0007
# 6 -0.0003 -0.0004 -0.0026 7.2511 0.0007 35.1526
#
#
#
# Elastic Compliance Matrix: (Units=1/GPa)
#
#
# Indices 1 2 3 4 5 6 
#
# 1 0.007671 -0.002474 -0.002342 0.000000 -0.002066 0.000000
# 2 -0.002474 0.013880 -0.003608 0.000001 0.004635 0.000000
# 3 -0.002342 -0.003608 0.019093 -0.000005 -0.014069 0.000003
# 4 0.000000 0.000001 -0.000005 0.057112 0.000007 -0.011781
# 5 -0.002066 0.004635 -0.014069 0.000007 0.059492 -0.000004
# 6 0.000000 0.000000 0.000003 -0.011781 -0.000004 0.030878
#
#
# Mechanical properties :
#
#
# Convention : Reuss Voigt Hill
#
# Bulk Modulus (GPa) = 42.02178 53.03481 47.52830
# Shear Modulus (GPa) = 23.48470 30.06434 26.77452
#
# Velocity S-wave (km/s) = 3.44579 3.89873 3.67924
# Velocity P-wave (km/s) = 6.08908 6.86151 6.48680
#
# Compressibility (1/GPa) = 0.02379718
#
# Stress axis : x y z
#
# Youngs Moduli (GPa) = 130.36593 72.04516 52.37504
#
# Poissons Ratio (x) = 0.17824 0.12264
# Poissons Ratio (y) = 0.32252 0.18896
# Poissons Ratio (z) = 0.30526 0.25993
#
# Static dielectric constant tensor:
#      x y z
#    x 4.058010 0.000010 0.010500 
#    y 0.000010 3.520600 0.000000 
#    z 0.010500 0.000000 3.679430 
# 
# 
# High freq. dielectric constant tensor:
#      x y z
#    x 1.787100 0.000000 0.004790 
#    y 0.000000 1.764550 0.000000 
#    z 0.004790 0.000000 1.749600 
# 
# From -- ./inp_files/356646.got.cif
#   From: 2010.06.25/outbox.cif.g09.slc.cpg/sg12_179_cif.got.tgz:356646.got - 2010.06.28 00:19:55.
