data_PCOD8109066
_publ_section_title
;
Structure prediction by ZEFSAII (Michael W. Deem and Ramdas Pophale) SiO2 
 PCOD8109066
Probable space group: C 2/M
;
_chemical_formula_sum "Si O2"
_cell_formula_units_Z 64
_cell_length_a 32.233022
_cell_length_b 8.666339
_cell_length_c 19.817495
_cell_angle_alpha 90.000000
_cell_angle_beta 31.755065
_cell_angle_gamma 90.000000
_cell_volume 2913.465134
_symmetry_space_group_name_H-M "C 2/M"
_symmetry_group_IT_number 12
_symmetry_cell_setting 'monoclinic'
loop_
_space_group_symop_operation_xyz
x,y,z
-x,y,-z
-x,-y,-z
x,-y,z
1/2+x,1/2+y,z
1/2-x,1/2+y,-z
1/2-x,1/2-y,-z
1/2+x,1/2-y,z
loop_
_atom_site_type_symbol
_atom_site_label
_atom_site_fract_x
_atom_site_fract_y
_atom_site_fract_z
Si Si1 0.930500 0.821497 0.646128
Si Si2 0.285689 0.324121 0.516028
Si Si3 0.690134 0.181402 0.883171
Si Si4 0.264498 0.182442 0.905235
Si Si5 0.986150 0.328485 0.355442
Si Si6 0.698725 0.823305 0.370457
Si Si7 0.460933 0.823863 0.987016
Si Si8 0.439173 0.171824 0.280957
O O1 0.847948 0.731530 0.755841
O O2 0.000000 0.758126 0.500000
O O3 0.962356 0.798588 0.677899
O O4 0.913544 0.000000 0.654961
O O5 0.259178 0.500000 0.560576
O O6 0.250000 0.250000 0.500000
O O7 0.258135 0.232413 0.620634
O O8 0.379067 0.309950 0.377143
O O9 0.695550 0.259343 0.949819
O O10 0.771163 0.218018 0.732336
O O11 0.618548 0.250684 0.935407
O O12 0.677891 0.000000 0.911023
O O13 0.261450 0.000000 0.915388
O O14 0.250000 0.250000 0.000000
O O15 0.009010 0.500000 0.349955
O O16 0.894124 0.296845 0.495535
O O17 0.004808 0.314958 0.249451
O O18 0.721079 0.000000 0.325411
O O19 0.440654 0.000000 0.033870
O O20 0.500000 0.743772 0.000000
O O21 0.527060 0.810205 0.839306
O O22 0.399352 0.000000 0.343638
#
# Coordination Sequence:
#
# PCOD8109066 Si02
#       8
#     8   8   8   8   8   8   8   8
#     4  11  24  41  65  98 134 170 218 277 328 392
#     4  11  22  36  57  86 119 158 204 262 326 387
#     4  11  23  40  66  98 132 172 216 264 318 386
#     4  12  27  47  70  98 135 179 227 280 340 404
#     4   9  19  35  59  89 122 166 209 255 317 381
#     4  10  21  39  61  90 127 168 212 260 319 383
#     4   9  20  38  62  92 125 167 212 254 309 379
#     4   9  19  37  59  85 120 159 207 256 308 380
#
# _framework density 21.966968999999999
#
# number of rings (size 3 to 8) (size 9 to 14) (size 15 to 20)
#    0.000    1.750    0.000    4.875    3.500    5.500 
#    0.000    1.250    0.000    1.875    0.000    0.000 
#    0.000    0.000    0.000    0.000    0.000    0.000 
#
# Total GULP energy -396611.258816 kJ/mol
# GULP energy per Si atom -12394.101838 kJ/mol
# Density = 2.191697 g / cm^3
# Si number density = 21.966969 Si / 1000 Ang^3
#
#
#
# Elastic Constant Matrix: (Units=GPa)
#
#
# Indices 1 2 3 4 5 6 
#
# 1 163.5061 40.5695 40.7568 0.0044 16.9121 -0.0008
# 2 40.5695 89.9896 20.9222 0.0440 -2.0497 -0.0209
# 3 40.7568 20.9222 64.8483 0.0181 12.5107 -0.0099
# 4 0.0044 0.0440 0.0181 27.6952 -0.0093 1.4499
# 5 16.9121 -2.0497 12.5107 -0.0093 31.1595 0.0046
# 6 -0.0008 -0.0209 -0.0099 1.4499 0.0046 35.6984
#
#
#
# Elastic Compliance Matrix: (Units=1/GPa)
#
#
# Indices 1 2 3 4 5 6 
#
# 1 0.008030 -0.002874 -0.003514 0.000005 -0.003136 -0.000002
# 2 -0.002874 0.013231 -0.003177 -0.000018 0.003706 0.000007
# 3 -0.003514 -0.003177 0.019865 -0.000010 -0.006278 0.000005
# 4 0.000005 -0.000018 -0.000010 0.036184 0.000011 -0.001470
# 5 -0.003136 0.003706 -0.006278 0.000011 0.036559 -0.000005
# 6 -0.000002 0.000007 0.000005 -0.001470 -0.000005 0.028072
#
#
# Mechanical properties :
#
#
# Convention : Reuss Voigt Hill
#
# Bulk Modulus (GPa) = 45.46548 58.09346 51.77947
# Shear Modulus (GPa) = 29.69026 33.31700 31.50363
#
# Velocity S-wave (km/s) = 3.68038 3.89869 3.79111
# Velocity P-wave (km/s) = 6.22916 6.83883 6.54110
#
# Compressibility (1/GPa) = 0.02199471
#
# Stress axis : x y z
#
# Youngs Moduli (GPa) = 124.54066 75.57809 50.33869
#
# Poissons Ratio (x) = 0.21724 0.17690
# Poissons Ratio (y) = 0.35797 0.15994
# Poissons Ratio (z) = 0.43765 0.24014
#
# Static dielectric constant tensor:
#      x y z
#    x 4.286780 0.000070 0.152110 
#    y 0.000070 3.431740 -0.000010 
#    z 0.152110 -0.000010 3.876070 
# 
# 
# High freq. dielectric constant tensor:
#      x y z
#    x 1.882430 0.000000 0.014710 
#    y 0.000000 1.840480 0.000000 
#    z 0.014710 0.000000 1.855230 
# 
# From -- ./inp_files/295596.got.cif
#   From: 2010.06.25/outbox.cif.g09.slc.cpg/sg12_148_cif.got.tgz:295596.got - 2010.06.28 00:19:55.
