data_PCOD8109798
_publ_section_title
;
Structure prediction by ZEFSAII (Michael W. Deem and Ramdas Pophale) SiO2 
 PCOD8109798
Probable space group: C 2/M
;
_chemical_formula_sum "Si O2"
_cell_formula_units_Z 48
_cell_length_a 17.372143
_cell_length_b 14.008664
_cell_length_c 17.718644
_cell_angle_alpha 90.000000
_cell_angle_beta 33.222928
_cell_angle_gamma 90.000000
_cell_volume 2362.546327
_symmetry_space_group_name_H-M "C 2/M"
_symmetry_group_IT_number 12
_symmetry_cell_setting 'monoclinic'
loop_
_space_group_symop_operation_xyz
x,y,z
-x,y,-z
-x,-y,-z
x,-y,z
1/2+x,1/2+y,z
1/2-x,1/2+y,-z
1/2-x,1/2-y,-z
1/2+x,1/2-y,z
loop_
_atom_site_type_symbol
_atom_site_label
_atom_site_fract_x
_atom_site_fract_y
_atom_site_fract_z
Si Si1 0.150843 0.707095 0.400528
Si Si2 0.153085 0.204414 0.900630
Si Si3 0.856029 0.110715 0.340572
Si Si4 0.231126 0.897380 0.150531
Si Si5 0.080549 0.891401 0.543191
Si Si6 0.158100 0.159232 0.056362
O O1 0.244482 0.686678 0.251602
O O2 0.212951 0.648215 0.419886
O O3 0.142357 0.819449 0.429901
O O4 0.000000 0.666536 0.500000
O O5 0.155825 0.315662 0.924635
O O6 0.191748 0.136022 0.940678
O O7 0.000000 0.176309 0.000000
O O8 0.836276 0.122538 0.446610
O O9 0.988761 0.173211 0.202229
O O10 0.882366 0.000000 0.297937
O O11 0.205220 0.915758 0.081700
O O12 0.083448 0.866828 0.309629
O O13 0.283291 0.000000 0.139366
O O14 0.099181 0.000000 0.498189
O O15 0.250000 0.250000 0.000000
#
# Coordination Sequence:
#
# PCOD8109798 Si02
#       6
#     8   8   8   8   8   8
#     4  12  23  37  60  89 123 164 200 246 308 357
#     4  11  21  36  55  85 121 152 190 246 300 362
#     4  10  21  40  63  87 119 161 209 252 294 355
#     4   9  18  35  59  85 113 150 193 243 295 356
#     4   9  19  37  61  87 115 155 204 244 296 365
#     4   9  18  35  60  81 111 152 196 238 291 352
#
# _framework density 20.317062
#
# number of rings (size 3 to 8) (size 9 to 14) (size 15 to 20)
#    0.000    2.000    3.333    2.000    0.000    1.667 
#    0.000    2.500    0.000    0.000    0.000    0.000 
#    0.000    0.000    0.000    0.000    0.000    0.000 
#
# Total GULP energy -297360.938376 kJ/mol
# GULP energy per Si atom -12390.039099 kJ/mol
# Density = 2.027082 g / cm^3
# Si number density = 20.317062 Si / 1000 Ang^3
#
#
#
# Elastic Constant Matrix: (Units=GPa)
#
#
# Indices 1 2 3 4 5 6 
#
# 1 95.6625 7.5395 35.4058 0.0001 -7.0702 -0.0001
# 2 7.5395 39.9864 14.5905 0.0001 -13.0819 -0.0001
# 3 35.4058 14.5905 95.3944 0.0004 2.8329 -0.0003
# 4 0.0001 0.0001 0.0004 21.8610 -0.0002 -2.1132
# 5 -7.0702 -13.0819 2.8329 -0.0002 37.4056 0.0001
# 6 -0.0001 -0.0001 -0.0003 -2.1132 0.0001 21.9201
#
#
#
# Elastic Compliance Matrix: (Units=1/GPa)
#
#
# Indices 1 2 3 4 5 6 
#
# 1 0.012386 0.000308 -0.004728 0.000000 0.002807 0.000000
# 2 0.000308 0.030439 -0.005099 0.000000 0.011090 0.000000
# 3 -0.004728 -0.005099 0.013126 0.000000 -0.003671 0.000000
# 4 0.000000 0.000000 0.000000 0.046174 0.000000 0.004451
# 5 0.002807 0.011090 -0.003671 0.000000 0.031421 0.000000
# 6 0.000000 0.000000 0.000000 0.004451 0.000000 0.046049
#
#
# Mechanical properties :
#
#
# Convention : Reuss Voigt Hill
#
# Bulk Modulus (GPa) = 27.09000 38.45722 32.77361
# Shear Modulus (GPa) = 23.70353 27.80451 25.75402
#
# Velocity S-wave (km/s) = 3.41938 3.70338 3.56421
# Velocity P-wave (km/s) = 5.38071 6.10379 5.75362
#
# Compressibility (1/GPa) = 0.03691399
#
# Stress axis : x y z
#
# Youngs Moduli (GPa) = 80.73391 32.85227 76.18215
#
# Poissons Ratio (x) = -0.01012 0.36016
# Poissons Ratio (y) = -0.02486 0.38847
# Poissons Ratio (z) = 0.38168 0.16752
#
# Static dielectric constant tensor:
#      x y z
#    x 4.147000 0.000000 0.260170 
#    y 0.000000 3.491820 0.000000 
#    z 0.260170 0.000000 3.337600 
# 
# 
# High freq. dielectric constant tensor:
#      x y z
#    x 1.815740 0.000000 0.013930 
#    y 0.000000 1.769260 0.000000 
#    z 0.013930 0.000000 1.771790 
# 
# From -- ./inp_files/87751.got.cif
#   From: 2010.06.25/outbox.cif.g09.slc.cpg/sg12_44_cif.got.tgz:87751.got - 2010.06.28 00:19:55.
