data_PCOD8109377
_publ_section_title
;
Structure prediction by ZEFSAII (Michael W. Deem and Ramdas Pophale) SiO2 
 PCOD8109377
Probable space group: C 2/M
;
_chemical_formula_sum "Si O2"
_cell_formula_units_Z 44
_cell_length_a 17.114420
_cell_length_b 26.412739
_cell_length_c 5.833498
_cell_angle_alpha 90.000000
_cell_angle_beta 132.635429
_cell_angle_gamma 90.000000
_cell_volume 1939.959587
_symmetry_space_group_name_H-M "C 2/M"
_symmetry_group_IT_number 12
_symmetry_cell_setting 'monoclinic'
loop_
_space_group_symop_operation_xyz
x,y,z
-x,y,-z
-x,-y,-z
x,-y,z
1/2+x,1/2+y,z
1/2-x,1/2+y,-z
1/2-x,1/2-y,-z
1/2+x,1/2-y,z
loop_
_atom_site_type_symbol
_atom_site_label
_atom_site_fract_x
_atom_site_fract_y
_atom_site_fract_z
Si Si1 0.897777 0.782189 0.942138
Si Si2 0.283483 0.084346 0.452763
Si Si3 0.699746 0.820741 0.259023
Si Si4 0.154279 0.861778 0.821462
Si Si5 0.439666 0.000000 0.631240
Si Si6 0.907739 0.944056 0.635370
O O1 0.794849 0.799431 0.601027
O O2 0.889347 0.721698 0.968423
O O3 0.908874 0.813398 0.201151
O O4 0.000000 0.795439 0.000000
O O5 0.347936 0.131032 0.698159
O O6 0.367347 0.049611 0.488648
O O7 0.212097 0.055939 0.501155
O O8 0.195927 0.102082 0.100770
O O9 0.744017 0.838977 0.105024
O O10 0.079247 0.897345 0.515331
O O11 0.500000 0.000000 0.500000
O O12 0.500000 0.000000 0.000000
O O13 0.922746 0.000000 0.552229
O O14 0.000000 0.934202 0.000000
#
# Coordination Sequence:
#
# PCOD8109377 Si02
#       6
#     8   8   8   8   4   8
#     4  10  21  39  63  94 129 172 220 283 346 426
#     4  10  23  42  67  99 138 179 226 292 351 419
#     4   9  21  40  63  94 132 167 223 283 346 418
#     4  10  22  39  68  92 134 177 226 276 359 419
#     4  12  30  48  75 105 143 191 250 296 358 423
#     4  10  22  39  65  98 137 179 230 285 354 431
#
# _framework density 22.680883000000001
#
# number of rings (size 3 to 8) (size 9 to 14) (size 15 to 20)
#    0.000    2.000    0.909    0.545    6.364   10.182 
#    0.000    1.818    0.000    0.545    0.000    0.000 
#    0.000    0.000    0.000    0.000    0.000    0.000 
#
# Total GULP energy -272657.725304 kJ/mol
# GULP energy per Si atom -12393.532968 kJ/mol
# Density = 2.262926 g / cm^3
# Si number density = 22.680883 Si / 1000 Ang^3
#
#
#
# Elastic Constant Matrix: (Units=GPa)
#
#
# Indices 1 2 3 4 5 6 
#
# 1 125.3285 70.3386 23.6033 0.0000 -15.0494 0.0000
# 2 70.3386 195.3383 53.2652 0.0000 -10.3339 0.0000
# 3 23.6033 53.2652 64.2573 0.0000 -12.6413 0.0000
# 4 0.0000 0.0000 0.0000 29.5693 0.0000 -0.4499
# 5 -15.0494 -10.3339 -12.6413 0.0000 26.9620 0.0000
# 6 0.0000 0.0000 0.0000 -0.4499 0.0000 32.1313
#
#
#
# Elastic Compliance Matrix: (Units=1/GPa)
#
#
# Indices 1 2 3 4 5 6 
#
# 1 0.010511 -0.003534 -0.000048 0.000000 0.004490 0.000000
# 2 -0.003534 0.007803 -0.005475 0.000000 -0.001549 0.000000
# 3 -0.000048 -0.005475 0.021702 0.000000 0.008050 0.000000
# 4 0.000000 0.000000 0.000000 0.033826 0.000000 0.000474
# 5 0.004490 -0.001549 0.008050 0.000000 0.042776 0.000000
# 6 0.000000 0.000000 0.000000 0.000474 0.000000 0.031129
#
#
# Mechanical properties :
#
#
# Convention : Reuss Voigt Hill
#
# Bulk Modulus (GPa) = 45.65811 75.48202 60.57006
# Shear Modulus (GPa) = 28.87498 33.58030 31.22764
#
# Velocity S-wave (km/s) = 3.57192 3.85197 3.71459
# Velocity P-wave (km/s) = 6.09802 7.28943 6.72018
#
# Compressibility (1/GPa) = 0.02190191
#
# Stress axis : x y z
#
# Youngs Moduli (GPa) = 95.14133 128.15927 46.07915
#
# Poissons Ratio (x) = 0.45293 0.00221
# Poissons Ratio (y) = 0.33624 0.25226
# Poissons Ratio (z) = 0.00457 0.70161
#
# Static dielectric constant tensor:
#      x y z
#    x 4.314380 0.000000 -0.113380 
#    y 0.000000 4.666160 0.000000 
#    z -0.113380 0.000000 3.986020 
# 
# 
# High freq. dielectric constant tensor:
#      x y z
#    x 1.889970 0.000000 -0.015220 
#    y 0.000000 1.917220 0.000000 
#    z -0.015220 0.000000 1.873890 
# 
# From -- ./inp_files/17814.got.cif
#   From: 2010.06.25/outbox.cif.g09.slc.cpg/sg12_9_cif.got.tgz:17814.got - 2010.06.28 00:19:55.
