data_PCOD8109216
_publ_section_title
;
Structure prediction by ZEFSAII (Michael W. Deem and Ramdas Pophale) SiO2 
 PCOD8109216
Probable space group: C 2/M
;
_chemical_formula_sum "Si O2"
_cell_formula_units_Z 56
_cell_length_a 15.939340
_cell_length_b 8.884270
_cell_length_c 22.761450
_cell_angle_alpha 90.000000
_cell_angle_beta 122.544417
_cell_angle_gamma 90.000000
_cell_volume 2717.105683
_symmetry_space_group_name_H-M "C 2/M"
_symmetry_group_IT_number 12
_symmetry_cell_setting 'monoclinic'
loop_
_space_group_symop_operation_xyz
x,y,z
-x,y,-z
-x,-y,-z
x,-y,z
1/2+x,1/2+y,z
1/2-x,1/2+y,-z
1/2-x,1/2-y,-z
1/2+x,1/2-y,z
loop_
_atom_site_type_symbol
_atom_site_label
_atom_site_fract_x
_atom_site_fract_y
_atom_site_fract_z
Si Si1 0.212477 0.821545 0.836535
Si Si2 0.008554 0.671739 0.570473
Si Si3 0.440489 0.821229 0.921261
Si Si4 0.861021 0.672407 0.701559
Si Si5 0.950085 0.673427 0.154164
Si Si6 0.296996 0.173348 0.284631
Si Si7 0.835953 0.175916 0.570076
O O1 0.326660 0.764887 0.883771
O O2 0.150005 0.767536 0.869940
O O3 0.162806 0.741775 0.761196
O O4 0.204612 0.000000 0.827853
O O5 0.971297 0.500000 0.564782
O O6 0.942366 0.781678 0.584205
O O7 0.000000 0.722095 0.500000
O O8 0.121258 0.690063 0.633691
O O9 0.495927 0.760440 0.883676
O O10 0.440206 0.000000 0.919089
O O11 0.500000 0.759629 0.000000
O O12 0.834709 0.500000 0.677473
O O13 0.798226 0.728385 0.733598
O O14 0.831236 0.773071 0.635346
O O15 0.976291 0.689116 0.762322
O O16 0.920247 0.500000 0.132858
O O17 0.267004 0.000000 0.264503
O O18 0.750000 0.250000 0.500000
O O19 0.819081 0.000000 0.561906
#
# Coordination Sequence:
#
# PCOD8109216 Si02
#       7
#     8   8   8   8   8   8   8
#     4  11  22  38  61  92 124 163 211 261 310 371
#     4  10  22  40  59  82 115 154 199 251 308 371
#     4   9  19  39  64  89 124 169 211 255 315 380
#     4  11  22  39  62  88 121 160 204 253 308 370
#     4  10  21  39  62  91 125 165 207 256 316 375
#     4  11  22  37  61  90 121 160 202 253 312 368
#     4  12  25  40  59  85 117 157 203 254 309 367
#
# _framework density 20.610164999999999
#
# number of rings (size 3 to 8) (size 9 to 14) (size 15 to 20)
#    0.000    1.429    1.429    4.286    0.000    7.714 
#    0.000    0.000    0.000    3.000    0.000    0.000 
#    0.000    0.000    0.000    0.000    0.000    0.000 
#
# Total GULP energy -347319.351332 kJ/mol
# GULP energy per Si atom -12404.262548 kJ/mol
# Density = 2.056326 g / cm^3
# Si number density = 20.610165 Si / 1000 Ang^3
#
#
#
# Elastic Constant Matrix: (Units=GPa)
#
#
# Indices 1 2 3 4 5 6 
#
# 1 143.4420 46.1727 42.0279 0.0000 -2.7146 0.0000
# 2 46.1727 104.8118 32.9543 0.0000 0.8920 0.0000
# 3 42.0279 32.9543 104.4774 0.0000 -6.8350 0.0000
# 4 0.0000 0.0000 0.0000 19.3427 0.0000 -3.3303
# 5 -2.7146 0.8920 -6.8350 0.0000 26.1425 0.0000
# 6 0.0000 0.0000 0.0000 -3.3303 0.0000 35.0157
#
#
#
# Elastic Compliance Matrix: (Units=1/GPa)
#
#
# Indices 1 2 3 4 5 6 
#
# 1 0.008694 -0.003042 -0.002515 0.000000 0.000349 0.000000
# 2 -0.003042 0.011697 -0.002556 0.000000 -0.001383 0.000000
# 3 -0.002515 -0.002556 0.011576 0.000000 0.002853 0.000000
# 4 0.000000 0.000000 0.000000 0.052560 0.000000 0.004999
# 5 0.000349 -0.001383 0.002853 0.000000 0.039081 0.000000
# 6 0.000000 0.000000 0.000000 0.004999 0.000000 0.029034
#
#
# Mechanical properties :
#
#
# Convention : Reuss Voigt Hill
#
# Bulk Modulus (GPa) = 63.53156 66.11567 64.82361
# Shear Modulus (GPa) = 28.71666 31.53861 30.12764
#
# Velocity S-wave (km/s) = 3.73678 3.91608 3.82748
# Velocity P-wave (km/s) = 7.03635 7.25233 7.14516
#
# Compressibility (1/GPa) = 0.01574021
#
# Stress axis : x y z
#
# Youngs Moduli (GPa) = 115.01885 85.49530 86.38582
#
# Poissons Ratio (x) = 0.26010 0.21726
# Poissons Ratio (y) = 0.34992 0.22080
# Poissons Ratio (z) = 0.28927 0.21853
#
# Static dielectric constant tensor:
#      x y z
#    x 3.822740 0.000000 -0.054890 
#    y 0.000000 3.676290 0.000000 
#    z -0.054890 0.000000 3.760890 
# 
# 
# High freq. dielectric constant tensor:
#      x y z
#    x 1.816740 0.000000 -0.003250 
#    y 0.000000 1.792170 0.000000 
#    z -0.003250 0.000000 1.807260 
# 
# From -- ./inp_files/339074.got.cif
#   From: 2010.06.25/outbox.cif.g09.slc.cpg/sg12_170_cif.got.tgz:339074.got - 2010.06.28 00:19:55.
