data_PCOD8109482
_publ_section_title
;
Structure prediction by ZEFSAII (Michael W. Deem and Ramdas Pophale) SiO2 
 PCOD8109482
Probable space group: C 2/M
;
_chemical_formula_sum "Si O2"
_cell_formula_units_Z 56
_cell_length_a 30.915575
_cell_length_b 8.552334
_cell_length_c 11.619378
_cell_angle_alpha 90.000000
_cell_angle_beta 63.436949
_cell_angle_gamma 90.000000
_cell_volume 2747.877928
_symmetry_space_group_name_H-M "C 2/M"
_symmetry_group_IT_number 12
_symmetry_cell_setting 'monoclinic'
loop_
_space_group_symop_operation_xyz
x,y,z
-x,y,-z
-x,-y,-z
x,-y,z
1/2+x,1/2+y,z
1/2-x,1/2+y,-z
1/2-x,1/2-y,-z
1/2+x,1/2-y,z
loop_
_atom_site_type_symbol
_atom_site_label
_atom_site_fract_x
_atom_site_fract_y
_atom_site_fract_z
Si Si1 0.211147 0.818083 0.204621
Si Si2 0.394311 0.181518 0.073112
Si Si3 0.874008 0.318894 0.570172
Si Si4 0.954028 0.819705 0.631874
Si Si5 0.309651 0.317135 0.030812
Si Si6 0.589321 0.681871 0.705807
Si Si7 0.513845 0.822043 0.178885
O O1 0.181582 0.720788 0.335128
O O2 0.267319 0.772806 0.149047
O O3 0.204744 0.000000 0.237937
O O4 0.191298 0.771273 0.102235
O O5 0.361015 0.266297 0.019433
O O6 0.386276 0.261056 0.205645
O O7 0.380450 0.000000 0.095764
O O8 0.450369 0.203917 0.971175
O O9 0.885110 0.500000 0.577225
O O10 0.906181 0.215856 0.617469
O O11 0.885227 0.276999 0.425710
O O12 0.955806 0.712681 0.742296
O O13 0.000000 0.779026 0.500000
O O14 0.953454 0.000000 0.670467
O O15 0.301308 0.500000 0.057247
O O16 0.599371 0.500000 0.675261
O O17 0.531781 0.708551 0.776026
O O18 0.494856 0.000000 0.203753
#
# Coordination Sequence:
#
# PCOD8109482 Si02
#       7
#     8   8   8   8   8   8   8
#     4  10  21  39  65  94 125 157 194 242 297 355
#     4  11  24  41  61  87 119 157 202 248 298 352
#     4  12  24  39  61  88 122 160 200 245 300 357
#     4  11  22  36  57  86 120 156 196 243 293 349
#     4  10  21  39  64  94 124 155 196 244 296 351
#     4  12  25  41  60  84 118 160 204 248 297 354
#     4  11  23  39  61  88 119 158 202 248 298 354
#
# _framework density 20.379363000000001
#
# number of rings (size 3 to 8) (size 9 to 14) (size 15 to 20)
#    0.000    1.000    1.429    6.000    0.000    8.571 
#    0.000    0.714    0.000    0.000    0.000    0.000 
#    0.000    0.000    0.000    0.000    0.000    0.000 
#
# Total GULP energy -347429.695801 kJ/mol
# GULP energy per Si atom -12408.203421 kJ/mol
# Density = 2.033298 g / cm^3
# Si number density = 20.379363 Si / 1000 Ang^3
#
#
#
# Elastic Constant Matrix: (Units=GPa)
#
#
# Indices 1 2 3 4 5 6 
#
# 1 59.7029 15.2295 26.3866 0.0000 -4.0887 0.0000
# 2 15.2295 71.2680 31.4987 0.0000 -2.3212 0.0000
# 3 26.3866 31.4987 81.9961 0.0000 -11.7150 0.0000
# 4 0.0000 0.0000 0.0000 33.3172 0.0000 -1.0413
# 5 -4.0887 -2.3212 -11.7150 0.0000 28.5693 0.0000
# 6 0.0000 0.0000 0.0000 -1.0413 0.0000 36.3156
#
#
#
# Elastic Compliance Matrix: (Units=1/GPa)
#
#
# Indices 1 2 3 4 5 6 
#
# 1 0.019699 -0.001709 -0.005629 0.000000 0.000372 0.000000
# 2 -0.001709 0.017100 -0.006220 0.000000 -0.001406 0.000000
# 3 -0.005629 -0.006220 0.017218 0.000000 0.005749 0.000000
# 4 0.000000 0.000000 0.000000 0.030041 0.000000 0.000861
# 5 0.000372 -0.001406 0.005749 0.000000 0.037299 0.000000
# 6 0.000000 0.000000 0.000000 0.000861 0.000000 0.027561
#
#
# Mechanical properties :
#
#
# Convention : Reuss Voigt Hill
#
# Bulk Modulus (GPa) = 37.17461 39.91073 38.54267
# Shear Modulus (GPa) = 27.02667 28.96390 27.99529
#
# Velocity S-wave (km/s) = 3.64562 3.77402 3.71038
# Velocity P-wave (km/s) = 6.00014 6.21429 6.10815
#
# Compressibility (1/GPa) = 0.02690008
#
# Stress axis : x y z
#
# Youngs Moduli (GPa) = 50.76363 58.47956 58.07894
#
# Poissons Ratio (x) = 0.09997 0.32695
# Poissons Ratio (y) = 0.08678 0.36123
# Poissons Ratio (z) = 0.28577 0.36372
#
# Static dielectric constant tensor:
#      x y z
#    x 3.588440 0.000000 -0.058430 
#    y 0.000000 3.733180 0.000000 
#    z -0.058430 0.000000 3.819280 
# 
# 
# High freq. dielectric constant tensor:
#      x y z
#    x 1.784180 0.000000 -0.003690 
#    y 0.000000 1.809240 0.000000 
#    z -0.003690 0.000000 1.801170 
# 
# From -- ./inp_files/187168.got.cif
#   From: 2010.06.25/outbox.cif.g09.slc.cpg/sg12_94_cif.got.tgz:187168.got - 2010.06.28 00:19:55.
