data_PCOD8109564
_publ_section_title
;
Structure prediction by ZEFSAII (Michael W. Deem and Ramdas Pophale) SiO2 
 PCOD8109564
Probable space group: C 2/M
;
_chemical_formula_sum "Si O2"
_cell_formula_units_Z 48
_cell_length_a 29.141000
_cell_length_b 8.514208
_cell_length_c 14.906262
_cell_angle_alpha 90.000000
_cell_angle_beta 139.954806
_cell_angle_gamma 90.000000
_cell_volume 2379.539287
_symmetry_space_group_name_H-M "C 2/M"
_symmetry_group_IT_number 12
_symmetry_cell_setting 'monoclinic'
loop_
_space_group_symop_operation_xyz
x,y,z
-x,y,-z
-x,-y,-z
x,-y,z
1/2+x,1/2+y,z
1/2-x,1/2+y,-z
1/2-x,1/2-y,-z
1/2+x,1/2-y,z
loop_
_atom_site_type_symbol
_atom_site_label
_atom_site_fract_x
_atom_site_fract_y
_atom_site_fract_z
Si Si1 0.174473 0.680554 0.646844
Si Si2 0.586131 0.318032 0.362167
Si Si3 0.420785 0.315929 0.854588
Si Si4 0.327782 0.182366 0.867244
Si Si5 0.436644 0.182153 0.185156
Si Si6 0.077043 0.182534 0.650040
O O1 0.160144 0.500000 0.648400
O O2 0.144274 0.718335 0.503086
O O3 0.257999 0.713422 0.773688
O O4 0.135743 0.786992 0.662473
O O5 0.602820 0.500000 0.402486
O O6 0.592736 0.270967 0.268456
O O7 0.507233 0.285104 0.280045
O O8 0.410410 0.500000 0.857836
O O9 0.364273 0.217925 0.826954
O O10 0.500000 0.262047 0.000000
O O11 0.307186 0.000000 0.841559
O O12 0.380661 0.232694 0.025830
O O13 0.402585 0.219055 0.230946
O O14 0.456694 0.000000 0.206584
O O15 0.000000 0.239079 0.500000
O O16 0.076362 0.000000 0.673663
#
# Coordination Sequence:
#
# PCOD8109564 Si02
#       6
#     8   8   8   8   8   8
#     4  12  26  43  65  92 128 167 209 261 315 373
#     4  11  22  39  65  94 127 165 208 259 311 370
#     4  10  21  39  65  95 126 165 212 257 309 372
#     4  11  25  43  64  93 131 167 208 260 315 372
#     4  11  23  39  64  96 126 163 210 258 308 370
#     4  11  23  40  66  95 125 165 209 256 310 372
#
# _framework density 20.171972
#
# number of rings (size 3 to 8) (size 9 to 14) (size 15 to 20)
#    0.000    1.000    3.333    3.500    0.000    5.667 
#    0.000    0.000    0.000    0.000    0.000    0.000 
#    0.000    0.000    0.000    0.000    0.000    0.000 
#
# Total GULP energy -297813.232169 kJ/mol
# GULP energy per Si atom -12408.884674 kJ/mol
# Density = 2.012606 g / cm^3
# Si number density = 20.171972 Si / 1000 Ang^3
#
#
#
# Elastic Constant Matrix: (Units=GPa)
#
#
# Indices 1 2 3 4 5 6 
#
# 1 108.4063 11.6314 33.8787 0.0000 -8.7667 0.0000
# 2 11.6314 52.1308 23.0102 0.0000 -4.2218 0.0000
# 3 33.8787 23.0102 76.6902 0.0000 -5.8217 0.0000
# 4 0.0000 0.0000 0.0000 29.3818 0.0000 -1.1478
# 5 -8.7667 -4.2218 -5.8217 0.0000 38.1442 0.0000
# 6 0.0000 0.0000 0.0000 -1.1478 0.0000 34.9914
#
#
#
# Elastic Compliance Matrix: (Units=1/GPa)
#
#
# Indices 1 2 3 4 5 6 
#
# 1 0.010823 -0.000255 -0.004571 0.000000 0.001762 0.000000
# 2 -0.000255 0.022197 -0.006440 0.000000 0.001415 0.000000
# 3 -0.004571 -0.006440 0.017055 0.000000 0.000840 0.000000
# 4 0.000000 0.000000 0.000000 0.034078 0.000000 0.001118
# 5 0.001762 0.001415 0.000840 0.000000 0.026906 0.000000
# 6 0.000000 0.000000 0.000000 0.001118 0.000000 0.028615
#
#
# Mechanical properties :
#
#
# Convention : Reuss Voigt Hill
#
# Bulk Modulus (GPa) = 36.30674 41.58531 38.94602
# Shear Modulus (GPa) = 29.17398 31.75061 30.46229
#
# Velocity S-wave (km/s) = 3.80710 3.97167 3.89025
# Velocity P-wave (km/s) = 6.11253 6.45696 6.28710
#
# Compressibility (1/GPa) = 0.02754309
#
# Stress axis : x y z
#
# Youngs Moduli (GPa) = 92.39721 45.05214 58.63462
#
# Poissons Ratio (x) = 0.01147 0.26802
# Poissons Ratio (y) = 0.02352 0.37761
# Poissons Ratio (z) = 0.42235 0.29014
#
# Static dielectric constant tensor:
#      x y z
#    x 3.695500 0.000000 -0.181190 
#    y 0.000000 3.566970 0.000000 
#    z -0.181190 0.000000 3.771430 
# 
# 
# High freq. dielectric constant tensor:
#      x y z
#    x 1.793690 0.000000 -0.011000 
#    y 0.000000 1.792770 0.000000 
#    z -0.011000 0.000000 1.791320 
# 
# From -- ./inp_files/244733.got.cif
#   From: 2010.06.25/outbox.cif.g09.slc.cpg/sg12_123_cif.got.tgz:244733.got - 2010.06.28 00:19:55.
