data_PCOD8109681
_publ_section_title
;
Structure prediction by ZEFSAII (Michael W. Deem and Ramdas Pophale) SiO2 
 PCOD8109681
Probable space group: C 2/M
;
_chemical_formula_sum "Si O2"
_cell_formula_units_Z 44
_cell_length_a 19.834330
_cell_length_b 12.900003
_cell_length_c 8.346121
_cell_angle_alpha 90.000000
_cell_angle_beta 105.246425
_cell_angle_gamma 90.000000
_cell_volume 2060.302542
_symmetry_space_group_name_H-M "C 2/M"
_symmetry_group_IT_number 12
_symmetry_cell_setting 'monoclinic'
loop_
_space_group_symop_operation_xyz
x,y,z
-x,y,-z
-x,-y,-z
x,-y,z
1/2+x,1/2+y,z
1/2-x,1/2+y,-z
1/2-x,1/2-y,-z
1/2+x,1/2-y,z
loop_
_atom_site_type_symbol
_atom_site_label
_atom_site_fract_x
_atom_site_fract_y
_atom_site_fract_z
Si Si1 0.000000 0.810382 0.500000
Si Si2 0.286655 0.380702 0.228040
Si Si3 0.073316 0.500000 0.215378
Si Si4 0.599397 0.222225 0.816628
Si Si5 0.863022 0.698846 0.820248
Si Si6 0.366398 0.386814 0.588891
Si Si7 0.917701 0.500000 0.162696
O O1 0.030358 0.744451 0.668462
O O2 0.061796 0.879144 0.466224
O O3 0.293156 0.500000 0.169752
O O4 0.340361 0.305893 0.171172
O O5 0.210056 0.336287 0.146756
O O6 0.301777 0.375846 0.426768
O O7 0.111321 0.608206 0.286276
O O8 0.999732 0.500000 0.259237
O O9 0.079875 0.500000 0.027428
O O10 0.620399 0.102128 0.788793
O O11 0.583320 0.221556 0.998367
O O12 0.855589 0.803626 0.718474
O O13 0.365408 0.500000 0.669886
#
# Coordination Sequence:
#
# PCOD8109681 Si02
#       7
#     4   8   4   8   8   8   4
#     4  10  21  41  58  82 122 155 191 238 300 360
#     4  10  21  40  60  84 119 160 197 234 300 355
#     4   9  18  32  58  82 114 157 187 242 285 345
#     4  10  22  37  60  87 119 157 194 243 292 350
#     4  11  20  38  60  88 115 154 204 243 285 346
#     4  10  22  38  60  86 117 153 193 243 296 350
#     4   9  18  35  54  86 118 146 197 234 295 337
#
# _framework density 21.356086999999999
#
# number of rings (size 3 to 8) (size 9 to 14) (size 15 to 20)
#    0.000    2.000    0.909    2.455    0.000    4.000 
#    1.636    4.545    0.000    0.000    0.000    0.000 
#    0.000    0.000    0.000    0.000    0.000    0.000 
#
# Total GULP energy -272585.882335 kJ/mol
# GULP energy per Si atom -12390.267379 kJ/mol
# Density = 2.130748 g / cm^3
# Si number density = 21.356087 Si / 1000 Ang^3
#
#
#
# Elastic Constant Matrix: (Units=GPa)
#
#
# Indices 1 2 3 4 5 6 
#
# 1 68.2847 35.1377 7.6116 0.0000 7.7384 0.0000
# 2 35.1377 201.0715 46.0839 0.0000 -8.0815 0.0000
# 3 7.6116 46.0839 81.8564 0.0000 12.5237 0.0000
# 4 0.0000 0.0000 0.0000 24.7919 0.0000 -4.7695
# 5 7.7384 -8.0815 12.5237 0.0000 21.1539 0.0000
# 6 0.0000 0.0000 0.0000 -4.7695 0.0000 29.7835
#
#
#
# Elastic Compliance Matrix: (Units=1/GPa)
#
#
# Indices 1 2 3 4 5 6 
#
# 1 0.017428 -0.003846 0.001919 0.000000 -0.008981 0.000000
# 2 -0.003846 0.006975 -0.004610 0.000000 0.006801 0.000000
# 3 0.001919 -0.004610 0.016505 0.000000 -0.012235 0.000000
# 4 0.000000 0.000000 0.000000 0.041618 0.000000 0.006665
# 5 -0.008981 0.006801 -0.012235 0.000000 0.060399 0.000000
# 6 0.000000 0.000000 0.000000 0.006665 0.000000 0.034643
#
#
# Mechanical properties :
#
#
# Convention : Reuss Voigt Hill
#
# Bulk Modulus (GPa) = 35.92781 58.76432 47.34607
# Shear Modulus (GPa) = 25.00986 32.63781 28.82384
#
# Velocity S-wave (km/s) = 3.42583 3.91355 3.67778
# Velocity P-wave (km/s) = 5.70159 6.92801 6.34450
#
# Compressibility (1/GPa) = 0.02783359
#
# Stress axis : x y z
#
# Youngs Moduli (GPa) = 57.38027 143.36095 60.58672
#
# Poissons Ratio (x) = 0.55140 -0.11626
# Poissons Ratio (y) = 0.22070 0.27930
# Poissons Ratio (z) = -0.11010 0.66088
#
# Static dielectric constant tensor:
#      x y z
#    x 3.601930 0.000000 0.351790 
#    y 0.000000 4.237800 0.000000 
#    z 0.351790 0.000000 3.746750 
# 
# 
# High freq. dielectric constant tensor:
#      x y z
#    x 1.816170 0.000000 0.023970 
#    y 0.000000 1.860990 0.000000 
#    z 0.023970 0.000000 1.820500 
# 
# From -- ./inp_files/94607.got.cif
#   From: 2010.06.25/outbox.cif.g09.slc.cpg/sg12_48_cif.got.tgz:94607.got - 2010.06.28 00:19:55.
