data_PCOD8109430
_publ_section_title
;
Structure prediction by ZEFSAII (Michael W. Deem and Ramdas Pophale) SiO2 
 PCOD8109430
Probable space group: C 2/M
;
_chemical_formula_sum "Si O2"
_cell_formula_units_Z 40
_cell_length_a 28.904808
_cell_length_b 14.357139
_cell_length_c 8.263347
_cell_angle_alpha 90.000000
_cell_angle_beta 147.023295
_cell_angle_gamma 90.000000
_cell_volume 1866.511754
_symmetry_space_group_name_H-M "C 2/M"
_symmetry_group_IT_number 12
_symmetry_cell_setting 'monoclinic'
loop_
_space_group_symop_operation_xyz
x,y,z
-x,y,-z
-x,-y,-z
x,-y,z
1/2+x,1/2+y,z
1/2-x,1/2+y,-z
1/2-x,1/2-y,-z
1/2+x,1/2-y,z
loop_
_atom_site_type_symbol
_atom_site_label
_atom_site_fract_x
_atom_site_fract_y
_atom_site_fract_z
Si Si1 0.581840 0.100076 0.846230
Si Si2 0.199514 0.603065 0.898986
Si Si3 0.139136 0.796852 0.720487
Si Si4 0.160038 0.773180 0.160805
Si Si5 0.520303 0.393112 0.873778
O O1 0.500000 0.125946 0.500000
O O2 0.666426 0.093229 0.984585
O O3 0.567232 0.000000 0.891123
O O4 0.599129 0.183653 0.020949
O O5 0.186372 0.500000 0.775902
O O6 0.149127 0.691958 0.671968
O O7 0.299358 0.629955 0.191036
O O8 0.043380 0.832240 0.422776
O O9 0.166449 0.793052 0.988436
O O10 0.250000 0.750000 0.500000
O O11 0.116763 0.860939 0.121885
O O12 0.511333 0.500000 0.796589
O O13 0.500000 0.376566 0.000000
#
# Coordination Sequence:
#
# PCOD8109430 Si02
#       5
#     8   8   8   8   8
#     4   9  18  36  61  86 116 161 208 251 308 375
#     4   9  18  32  61  93 121 159 211 262 317 377
#     4  10  21  39  64  91 125 172 212 265 319 379
#     4  11  24  40  62  94 128 164 205 262 316 379
#     4  11  26  44  67  93 126 171 218 267 324 388
#
# _framework density 21.430349
#
# number of rings (size 3 to 8) (size 9 to 14) (size 15 to 20)
#    0.000    2.000    0.000    3.600    8.400    3.200 
#    0.000    0.000    0.000    1.200    0.000    0.000 
#    0.000    0.000    0.000    0.000    0.000    0.000 
#
# Total GULP energy -247780.783658 kJ/mol
# GULP energy per Si atom -12389.039183 kJ/mol
# Density = 2.138157 g / cm^3
# Si number density = 21.430349 Si / 1000 Ang^3
#
#
#
# Elastic Constant Matrix: (Units=GPa)
#
#
# Indices 1 2 3 4 5 6 
#
# 1 61.9171 32.5089 33.7289 0.0000 12.4190 0.0000
# 2 32.5089 175.5288 59.1931 0.0000 4.5227 0.0000
# 3 33.7289 59.1931 127.6839 0.0000 7.2455 0.0000
# 4 0.0000 0.0000 0.0000 12.6252 0.0000 4.7425
# 5 12.4190 4.5227 7.2455 0.0000 28.7491 0.0000
# 6 0.0000 0.0000 0.0000 4.7425 0.0000 27.6728
#
#
#
# Elastic Compliance Matrix: (Units=1/GPa)
#
#
# Indices 1 2 3 4 5 6 
#
# 1 0.021147 -0.002349 -0.004058 0.000000 -0.007743 0.000000
# 2 -0.002349 0.007016 -0.002665 0.000000 0.000583 0.000000
# 3 -0.004058 -0.002665 0.010161 0.000000 -0.000389 0.000000
# 4 0.000000 0.000000 0.000000 0.084657 0.000000 -0.014508
# 5 -0.007743 0.000583 -0.000389 0.000000 0.038135 0.000000
# 6 0.000000 0.000000 0.000000 -0.014508 0.000000 0.038623
#
#
# Mechanical properties :
#
#
# Convention : Reuss Voigt Hill
#
# Bulk Modulus (GPa) = 49.55170 68.44351 58.99760
# Shear Modulus (GPa) = 22.26085 29.78935 26.02510
#
# Velocity S-wave (km/s) = 3.22647 3.73239 3.48861
# Velocity P-wave (km/s) = 6.08708 7.11205 6.61943
#
# Compressibility (1/GPa) = 0.02018094
#
# Stress axis : x y z
#
# Youngs Moduli (GPa) = 47.28714 142.53578 98.41162
#
# Poissons Ratio (x) = 0.33476 0.39937
# Poissons Ratio (y) = 0.11106 0.26228
# Poissons Ratio (z) = 0.19190 0.37987
#
# Static dielectric constant tensor:
#      x y z
#    x 3.682500 0.000000 0.344180 
#    y 0.000000 4.701360 0.000000 
#    z 0.344180 0.000000 3.612230 
# 
# 
# High freq. dielectric constant tensor:
#      x y z
#    x 1.815340 0.000000 0.039220 
#    y 0.000000 1.870450 0.000000 
#    z 0.039220 0.000000 1.815730 
# 
# From -- ./inp_files/111852.got.cif
#   From: 2010.06.25/outbox.cif.g09.slc.cpg/sg12_56_cif.got.tgz:111852.got - 2010.06.28 00:19:55.
