data_PCOD8109246
_publ_section_title
;
Structure prediction by ZEFSAII (Michael W. Deem and Ramdas Pophale) SiO2 
 PCOD8109246
Probable space group: C 2/M
;
_chemical_formula_sum "Si O2"
_cell_formula_units_Z 56
_cell_length_a 30.761495
_cell_length_b 8.863165
_cell_length_c 12.165863
_cell_angle_alpha 90.000000
_cell_angle_beta 126.684927
_cell_angle_gamma 90.000000
_cell_volume 2659.972768
_symmetry_space_group_name_H-M "C 2/M"
_symmetry_group_IT_number 12
_symmetry_cell_setting 'monoclinic'
loop_
_space_group_symop_operation_xyz
x,y,z
-x,y,-z
-x,-y,-z
x,-y,z
1/2+x,1/2+y,z
1/2-x,1/2+y,-z
1/2-x,1/2-y,-z
1/2+x,1/2-y,z
loop_
_atom_site_type_symbol
_atom_site_label
_atom_site_fract_x
_atom_site_fract_y
_atom_site_fract_z
Si Si1 0.153790 0.322650 0.068999
Si Si2 0.395674 0.822747 0.778234
Si Si3 0.300382 0.333870 0.528746
Si Si4 0.389280 0.679220 0.381903
Si Si5 0.065315 0.323351 0.759103
Si Si6 0.040348 0.822844 0.302184
Si Si7 0.727087 0.664262 0.762150
O O1 0.162227 0.500000 0.103346
O O2 0.121785 0.258323 0.127841
O O3 0.214534 0.248987 0.144070
O O4 0.119705 0.286897 0.909456
O O5 0.349649 0.778412 0.622550
O O6 0.448677 0.746842 0.803062
O O7 0.405712 0.000000 0.798686
O O8 0.309903 0.500000 0.597693
O O9 0.250000 0.250000 0.500000
O O10 0.291047 0.361328 0.388455
O O11 0.390539 0.500000 0.364307
O O12 0.427981 0.760477 0.353128
O O13 0.412722 0.717754 0.538149
O O14 0.327128 0.742896 0.268761
O O15 0.053064 0.500000 0.736500
O O16 0.016290 0.241286 0.743520
O O17 0.035394 0.000000 0.280364
O O18 0.734944 0.500000 0.830510
#
# Coordination Sequence:
#
# PCOD8109246 Si02
#       7
#     8   8   8   8   8   8   8
#     4   9  20  38  59  85 121 162 194 229 291 359
#     4  11  21  36  61  90 120 154 195 243 295 353
#     4  11  19  32  55  87 122 158 194 239 296 351
#     4  10  21  39  63  87 114 152 194 242 302 355
#     4  11  24  41  60  84 116 156 203 248 287 343
#     4  11  23  41  63  88 117 152 195 246 304 356
#     4   9  17  34  59  85 116 155 191 227 287 357
#
# _framework density 21.052847
#
# number of rings (size 3 to 8) (size 9 to 14) (size 15 to 20)
#    0.000    1.714    2.857    2.143    0.000    4.000 
#    0.000    5.714    0.000    0.000    0.000    0.000 
#    0.000    0.000    0.000    0.000    0.000    0.000 
#
# Total GULP energy -346905.569677 kJ/mol
# GULP energy per Si atom -12389.484631 kJ/mol
# Density = 2.100493 g / cm^3
# Si number density = 21.052847 Si / 1000 Ang^3
#
#
#
# Elastic Constant Matrix: (Units=GPa)
#
#
# Indices 1 2 3 4 5 6 
#
# 1 90.2592 8.6873 -12.6451 0.0000 11.8049 0.0000
# 2 8.6873 45.8116 7.7318 0.0000 1.1834 0.0000
# 3 -12.6451 7.7318 40.4604 0.0000 6.1919 0.0000
# 4 0.0000 0.0000 0.0000 21.5784 0.0000 -0.5118
# 5 11.8049 1.1834 6.1919 0.0000 23.5815 0.0000
# 6 0.0000 0.0000 0.0000 -0.5118 0.0000 26.9509
#
#
#
# Elastic Compliance Matrix: (Units=1/GPa)
#
#
# Indices 1 2 3 4 5 6 
#
# 1 0.013300 -0.003331 0.006029 0.000000 -0.008074 0.000000
# 2 -0.003331 0.023390 -0.005820 0.000000 0.002022 0.000000
# 3 0.006029 -0.005820 0.029307 0.000000 -0.010421 0.000000
# 4 0.000000 0.000000 0.000000 0.046364 0.000000 0.000880
# 5 -0.008074 0.002022 -0.010421 0.000000 0.049083 0.000000
# 6 0.000000 0.000000 0.000000 0.000880 0.000000 0.037121
#
#
# Mechanical properties :
#
#
# Convention : Reuss Voigt Hill
#
# Bulk Modulus (GPa) = 16.73564 20.45321 18.59442
# Shear Modulus (GPa) = 22.24913 25.93929 24.09421
#
# Velocity S-wave (km/s) = 3.25441 3.51394 3.38666
# Velocity P-wave (km/s) = 4.69980 5.11859 4.91366
#
# Compressibility (1/GPa) = 0.05975274
#
# Stress axis : x y z
#
# Youngs Moduli (GPa) = 75.18523 42.75275 34.12173
#
# Poissons Ratio (x) = 0.14242 -0.20572
# Poissons Ratio (y) = 0.25045 0.19860
# Poissons Ratio (z) = -0.45329 0.24883
#
# Static dielectric constant tensor:
#      x y z
#    x 4.050700 0.000000 0.109930 
#    y 0.000000 3.934230 0.000000 
#    z 0.109930 0.000000 3.668240 
# 
# 
# High freq. dielectric constant tensor:
#      x y z
#    x 1.850490 0.000000 0.005490 
#    y 0.000000 1.794130 0.000000 
#    z 0.005490 0.000000 1.808330 
# 
# From -- ./inp_files/181068.got.cif
#   From: 2010.06.25/outbox.cif.g09.slc.cpg/sg12_91_cif.got.tgz:181068.got - 2010.06.28 00:19:55.
