data_PCOD8109265
_publ_section_title
;
Structure prediction by ZEFSAII (Michael W. Deem and Ramdas Pophale) SiO2 
 PCOD8109265
Probable space group: C 2/M
;
_chemical_formula_sum "Si O2"
_cell_formula_units_Z 56
_cell_length_a 14.179159
_cell_length_b 18.376503
_cell_length_c 12.132879
_cell_angle_alpha 90.000000
_cell_angle_beta 57.947457
_cell_angle_gamma 90.000000
_cell_volume 2679.467984
_symmetry_space_group_name_H-M "C 2/M"
_symmetry_group_IT_number 12
_symmetry_cell_setting 'monoclinic'
loop_
_space_group_symop_operation_xyz
x,y,z
-x,y,-z
-x,-y,-z
x,-y,z
1/2+x,1/2+y,z
1/2-x,1/2+y,-z
1/2-x,1/2-y,-z
1/2+x,1/2-y,z
loop_
_atom_site_type_symbol
_atom_site_label
_atom_site_fract_x
_atom_site_fract_y
_atom_site_fract_z
Si Si1 0.771558 0.704735 0.750307
Si Si2 0.327320 0.080771 0.868668
Si Si3 0.538804 0.275670 0.787032
Si Si4 0.964036 0.386629 0.143544
Si Si5 0.793792 0.082886 0.663448
Si Si6 0.645739 0.719250 0.501740
Si Si7 0.820441 0.839351 0.863846
O O1 0.811595 0.626622 0.767142
O O2 0.650379 0.691224 0.770758
O O3 0.862744 0.734187 0.605569
O O4 0.766308 0.763562 0.853085
O O5 0.457901 0.073811 0.815783
O O6 0.277956 0.000000 0.880841
O O7 0.269721 0.120873 0.006182
O O8 0.517589 0.199085 0.856350
O O9 0.543765 0.269815 0.649306
O O10 0.429812 0.325775 0.872197
O O11 0.838568 0.408669 0.245996
O O12 0.000000 0.412342 0.000000
O O13 0.839851 0.133797 0.536651
O O14 0.849235 0.107618 0.743957
O O15 0.827083 0.000000 0.616355
O O16 0.750000 0.750000 0.500000
#
# Coordination Sequence:
#
# PCOD8109265 Si02
#       7
#     8   8   8   8   8   8   8
#     4  10  21  39  63  88 124 158 204 249 299 358
#     4  12  25  40  58  92 130 162 198 248 314 370
#     4  11  22  39  66  95 115 156 219 247 297 357
#     4  12  22  37  68  95 122 154 199 265 309 363
#     4  11  22  39  62  95 125 154 198 257 317 356
#     4   9  19  41  63  91 119 161 204 252 295 364
#     4  11  22  38  62  89 124 160 200 254 298 366
#
# _framework density 20.89967
#
# number of rings (size 3 to 8) (size 9 to 14) (size 15 to 20)
#    0.000    1.143    7.143    1.286    2.000    2.857 
#    0.000    7.143    0.000    0.857    0.000    0.000 
#    0.000    0.000    0.000    0.000    0.000    0.000 
#
# Total GULP energy -347127.725919 kJ/mol
# GULP energy per Si atom -12397.418783 kJ/mol
# Density = 2.085210 g / cm^3
# Si number density = 20.899670 Si / 1000 Ang^3
#
#
#
# Elastic Constant Matrix: (Units=GPa)
#
#
# Indices 1 2 3 4 5 6 
#
# 1 99.6420 26.4672 2.9371 0.0000 13.9897 0.0000
# 2 26.4672 132.8139 20.8016 0.0000 22.8643 0.0000
# 3 2.9371 20.8016 49.1999 0.0000 13.7398 0.0000
# 4 0.0000 0.0000 0.0000 12.8832 0.0000 -5.0153
# 5 13.9897 22.8643 13.7398 0.0000 23.4251 0.0000
# 6 0.0000 0.0000 0.0000 -5.0153 0.0000 -10.8532
#
#
#
# Elastic Compliance Matrix: (Units=1/GPa)
#
#
# Indices 1 2 3 4 5 6 
#
# 1 0.011251 -0.001418 0.001696 0.000000 -0.006330 0.000000
# 2 -0.001418 0.009339 -0.001859 0.000000 -0.007178 0.000000
# 3 0.001696 -0.001859 0.024858 0.000000 -0.013778 0.000000
# 4 0.000000 0.000000 0.000000 0.065786 0.000000 -0.030400
# 5 -0.006330 -0.007178 -0.013778 0.000000 0.061557 0.000000
# 6 0.000000 0.000000 0.000000 -0.030400 0.000000 -0.078090
#
#
# Mechanical properties :
#
#
# Convention : Reuss Voigt Hill
#
# Bulk Modulus (GPa) = 23.64928 42.45194 33.05061
# Shear Modulus (GPa) = 44.65917 20.52099 32.59008
#
# Velocity S-wave (km/s) = 4.62761 3.13690 3.95316
# Velocity P-wave (km/s) = 6.31611 5.78589 6.05680
#
# Compressibility (1/GPa) = 0.04228459
#
# Stress axis : x y z
#
# Youngs Moduli (GPa) = 88.87845 107.08007 40.22873
#
# Poissons Ratio (x) = 0.15184 -0.06821
# Poissons Ratio (y) = 0.12603 0.07479
# Poissons Ratio (z) = -0.15070 0.19909
#
# Static dielectric constant tensor:
#      x y z
#    x 3.860300 0.000000 0.199880 
#    y 0.000000 3.805800 0.000000 
#    z 0.199880 0.000000 4.070480 
# 
# 
# High freq. dielectric constant tensor:
#      x y z
#    x 1.825670 0.000000 0.003520 
#    y 0.000000 1.801390 0.000000 
#    z 0.003520 0.000000 1.810320 
# 
# From -- ./inp_files/146026.got.cif
#   From: 2010.06.25/outbox.cif.g09.slc.cpg/sg12_74_cif.got.tgz:146026.got - 2010.06.28 00:19:55.
