data_PCOD8109671
_publ_section_title
;
Structure prediction by ZEFSAII (Michael W. Deem and Ramdas Pophale) SiO2 
 PCOD8109671
Probable space group: C 2/M
;
_chemical_formula_sum "Si O2"
_cell_formula_units_Z 64
_cell_length_a 18.045687
_cell_length_b 25.127280
_cell_length_c 15.060120
_cell_angle_alpha 90.000000
_cell_angle_beta 151.382898
_cell_angle_gamma 90.000000
_cell_volume 3270.702539
_symmetry_space_group_name_H-M "C 2/M"
_symmetry_group_IT_number 12
_symmetry_cell_setting 'monoclinic'
loop_
_space_group_symop_operation_xyz
x,y,z
-x,y,-z
-x,-y,-z
x,-y,z
1/2+x,1/2+y,z
1/2-x,1/2+y,-z
1/2-x,1/2-y,-z
1/2+x,1/2-y,z
loop_
_atom_site_type_symbol
_atom_site_label
_atom_site_fract_x
_atom_site_fract_y
_atom_site_fract_z
Si Si1 0.615937 0.320283 0.200865
Si Si2 0.587488 0.645874 0.682342
Si Si3 0.535115 0.141375 0.440177
Si Si4 0.131763 0.868375 0.396102
Si Si5 0.090624 0.438893 0.347080
Si Si6 0.596497 0.242626 0.780548
Si Si7 0.893812 0.287424 0.724283
Si Si8 0.069728 0.614868 0.976436
O O1 0.789009 0.339756 0.369338
O O2 0.548203 0.348380 0.218193
O O3 0.627379 0.256539 0.222212
O O4 0.500000 0.335933 0.000000
O O5 0.500000 0.637517 0.500000
O O6 0.498735 0.616798 0.669828
O O7 0.594545 0.708526 0.710678
O O8 0.746260 0.614895 0.832741
O O9 0.500000 0.117789 0.500000
O O10 0.513946 0.095435 0.345144
O O11 0.413159 0.188586 0.287859
O O12 0.233165 0.920725 0.484563
O O13 0.238178 0.820357 0.544873
O O14 0.089316 0.500000 0.374227
O O15 0.992678 0.430891 0.154331
O O16 0.446893 0.240701 0.688170
O O17 0.750000 0.250000 0.000000
O O18 0.026024 0.326915 0.895679
O O19 0.000000 0.603647 0.000000
#
# Coordination Sequence:
#
# PCOD8109671 Si02
#       8
#     8   8   8   8   8   8   8   8
#     4  11  22  33  55  84 118 165 196 233 291 350
#     4  12  23  35  58  90 125 165 194 233 298 357
#     4  11  24  39  58  89 124 155 205 255 295 355
#     4  10  21  40  59  82 118 153 200 253 292 356
#     4  10  22  45  69  84 107 152 201 256 318 361
#     4  12  21  35  58  89 128 167 207 244 282 349
#     4  11  19  37  55  80 126 167 200 236 284 345
#     4  11  23  40  60  90 123 156 200 245 296 364
#
# _framework density 19.567661999999999
#
# number of rings (size 3 to 8) (size 9 to 14) (size 15 to 20)
#    0.000    1.000    6.250    3.375    1.750    3.500 
#    0.000    0.625    0.000    7.500    0.000    0.000 
#    0.000    0.000    0.000    0.000    0.000    0.000 
#
# Total GULP energy -396766.596324 kJ/mol
# GULP energy per Si atom -12398.956135 kJ/mol
# Density = 1.952313 g / cm^3
# Si number density = 19.567662 Si / 1000 Ang^3
#
#
#
# Elastic Constant Matrix: (Units=GPa)
#
#
# Indices 1 2 3 4 5 6 
#
# 1 130.6877 20.1770 31.1748 0.0000 -9.4398 0.0000
# 2 20.1770 88.2692 21.8310 0.0000 -6.3181 0.0000
# 3 31.1748 21.8310 105.2319 0.0000 -16.8150 0.0000
# 4 0.0000 0.0000 0.0000 10.3469 0.0000 -0.5872
# 5 -9.4398 -6.3181 -16.8150 0.0000 36.2575 0.0000
# 6 0.0000 0.0000 0.0000 -0.5872 0.0000 10.4606
#
#
#
# Elastic Compliance Matrix: (Units=1/GPa)
#
#
# Indices 1 2 3 4 5 6 
#
# 1 0.008422 -0.001345 -0.002056 0.000000 0.001005 0.000000
# 2 -0.001345 0.012191 -0.001995 0.000000 0.000849 0.000000
# 3 -0.002056 -0.001995 0.011216 0.000000 0.004319 0.000000
# 4 0.000000 0.000000 0.000000 0.096956 0.000000 0.005442
# 5 0.001005 0.000849 0.004319 0.000000 0.029993 0.000000
# 6 0.000000 0.000000 0.000000 0.005442 0.000000 0.095902
#
#
# Mechanical properties :
#
#
# Convention : Reuss Voigt Hill
#
# Bulk Modulus (GPa) = 47.53306 52.28382 49.90844
# Shear Modulus (GPa) = 18.34978 28.14674 23.24826
#
# Velocity S-wave (km/s) = 3.06561 3.79678 3.45062
# Velocity P-wave (km/s) = 6.07248 6.78220 6.43713
#
# Compressibility (1/GPa) = 0.02103799
#
# Stress axis : x y z
#
# Youngs Moduli (GPa) = 118.73088 82.03065 89.16072
#
# Poissons Ratio (x) = 0.11032 0.18327
# Poissons Ratio (y) = 0.15968 0.17787
# Poissons Ratio (z) = 0.24405 0.16365
#
# Static dielectric constant tensor:
#      x y z
#    x 3.911160 0.000000 -0.210580 
#    y 0.000000 3.231510 0.000000 
#    z -0.210580 0.000000 3.773670 
# 
# 
# High freq. dielectric constant tensor:
#      x y z
#    x 1.771970 0.000000 -0.007190 
#    y 0.000000 1.719840 0.000000 
#    z -0.007190 0.000000 1.771110 
# 
# From -- ./inp_files/228155.got.cif
#   From: 2010.06.25/outbox.cif.g09.slc.cpg/sg12_115_cif.got.tgz:228155.got - 2010.06.28 00:19:55.
