data_PCOD8109716
_publ_section_title
;
Structure prediction by ZEFSAII (Michael W. Deem and Ramdas Pophale) SiO2 
 PCOD8109716
Probable space group: C 2/M
;
_chemical_formula_sum "Si O2"
_cell_formula_units_Z 56
_cell_length_a 16.858985
_cell_length_b 28.835568
_cell_length_c 9.158229
_cell_angle_alpha 90.000000
_cell_angle_beta 143.763654
_cell_angle_gamma 90.000000
_cell_volume 2631.753527
_symmetry_space_group_name_H-M "C 2/M"
_symmetry_group_IT_number 12
_symmetry_cell_setting 'monoclinic'
loop_
_space_group_symop_operation_xyz
x,y,z
-x,y,-z
-x,-y,-z
x,-y,z
1/2+x,1/2+y,z
1/2-x,1/2+y,-z
1/2-x,1/2-y,-z
1/2+x,1/2-y,z
loop_
_atom_site_type_symbol
_atom_site_label
_atom_site_fract_x
_atom_site_fract_y
_atom_site_fract_z
Si Si1 0.341558 0.500000 0.230258
Si Si2 0.284726 0.293856 0.956837
Si Si3 0.348060 0.000000 0.336039
Si Si4 0.305275 0.183179 0.473380
Si Si5 0.107215 0.577614 0.366119
Si Si6 0.420251 0.721012 0.678749
Si Si7 0.811757 0.575543 0.830257
Si Si8 0.643860 0.343139 0.669008
O O1 0.500000 0.500000 0.500000
O O2 0.292904 0.545081 0.239534
O O3 0.275037 0.500000 0.965799
O O4 0.422789 0.287185 0.073543
O O5 0.284493 0.336034 0.069764
O O6 0.250000 0.250000 0.000000
O O7 0.179693 0.307255 0.677013
O O8 0.500000 0.000000 0.500000
O O9 0.332771 0.046481 0.413501
O O10 0.358350 0.131786 0.576771
O O11 0.393775 0.224618 0.675748
O O12 0.155485 0.188457 0.316195
O O13 0.163710 0.557490 0.297295
O O14 0.946779 0.574617 0.125991
O O15 0.375365 0.705244 0.448249
O O16 0.741360 0.625589 0.715772
O O17 0.500000 0.365421 0.500000
#
# Coordination Sequence:
#
# PCOD8109716 Si02
#       8
#     4   8   4   8   8   8   8   8
#     4  12  27  49  79 107 140 185 223 288 365 428
#     4  11  23  37  58  89 127 180 226 288 347 401
#     4  12  25  51  71 111 146 176 235 302 356 413
#     4  11  23  40  63  94 131 175 239 279 348 416
#     4  11  25  43  75 102 137 186 230 293 350 426
#     4  10  22  42  59  88 135 181 227 290 340 412
#     4  11  23  46  70 104 137 181 232 279 358 433
#     4  10  21  40  61  89 134 177 219 280 345 413
#
# _framework density 21.278590000000001
#
# number of rings (size 3 to 8) (size 9 to 14) (size 15 to 20)
#    0.000    1.143    4.286    1.286    4.000    1.143 
#    2.571    1.429    0.000    0.000    0.000    0.000 
#    0.000    0.000    0.000    0.000    0.000    0.000 
#
# Total GULP energy -346936.854241 kJ/mol
# GULP energy per Si atom -12390.601937 kJ/mol
# Density = 2.123016 g / cm^3
# Si number density = 21.278590 Si / 1000 Ang^3
#
#
#
# Elastic Constant Matrix: (Units=GPa)
#
#
# Indices 1 2 3 4 5 6 
#
# 1 108.6949 38.3492 43.9949 0.0000 4.0645 0.0000
# 2 38.3492 115.2308 37.2974 0.0000 4.1587 0.0000
# 3 43.9949 37.2974 112.0914 0.0000 -12.0021 0.0000
# 4 0.0000 0.0000 0.0000 13.4159 0.0000 -3.7440
# 5 4.0645 4.1587 -12.0021 0.0000 31.1632 0.0000
# 6 0.0000 0.0000 0.0000 -3.7440 0.0000 32.7835
#
#
#
# Elastic Compliance Matrix: (Units=1/GPa)
#
#
# Indices 1 2 3 4 5 6 
#
# 1 0.011858 -0.002513 -0.004118 0.000000 -0.002797 0.000000
# 2 -0.002513 0.010473 -0.002726 0.000000 -0.002120 0.000000
# 3 -0.004118 -0.002726 0.012037 0.000000 0.005537 0.000000
# 4 0.000000 0.000000 0.000000 0.076992 0.000000 0.008793
# 5 -0.002797 -0.002120 0.005537 0.000000 0.034869 0.000000
# 6 0.000000 0.000000 0.000000 0.008793 0.000000 0.031507
#
#
# Mechanical properties :
#
#
# Convention : Reuss Voigt Hill
#
# Bulk Modulus (GPa) = 63.87105 63.92223 63.89664
# Shear Modulus (GPa) = 24.79335 29.89756 27.34546
#
# Velocity S-wave (km/s) = 3.41717 3.75247 3.58874
# Velocity P-wave (km/s) = 6.75657 6.99146 6.87502
#
# Compressibility (1/GPa) = 0.01565654
#
# Stress axis : x y z
#
# Youngs Moduli (GPa) = 84.33322 95.48213 83.07617
#
# Poissons Ratio (x) = 0.23991 0.34207
# Poissons Ratio (y) = 0.21190 0.22644
# Poissons Ratio (z) = 0.34724 0.26025
#
# Static dielectric constant tensor:
#      x y z
#    x 3.987260 0.000000 -0.114940 
#    y 0.000000 3.621450 0.000000 
#    z -0.114940 0.000000 3.936630 
# 
# 
# High freq. dielectric constant tensor:
#      x y z
#    x 1.851440 0.000000 -0.011130 
#    y 0.000000 1.828040 0.000000 
#    z -0.011130 0.000000 1.826210 
# 
# From -- ./inp_files/80156.got.cif
#   From: 2010.06.25/outbox.cif.g09.slc.cpg/sg12_41_cif.got.tgz:80156.got - 2010.06.28 00:19:55.
