data_PCOD8109492
_publ_section_title
;
Structure prediction by ZEFSAII (Michael W. Deem and Ramdas Pophale) SiO2 
 PCOD8109492
Probable space group: C 2/M
;
_chemical_formula_sum "Si O2"
_cell_formula_units_Z 56
_cell_length_a 29.039768
_cell_length_b 22.048271
_cell_length_c 11.445354
_cell_angle_alpha 90.000000
_cell_angle_beta 158.642806
_cell_angle_gamma 90.000000
_cell_volume 2668.789354
_symmetry_space_group_name_H-M "C 2/M"
_symmetry_group_IT_number 12
_symmetry_cell_setting 'monoclinic'
loop_
_space_group_symop_operation_xyz
x,y,z
-x,y,-z
-x,-y,-z
x,-y,z
1/2+x,1/2+y,z
1/2-x,1/2+y,-z
1/2-x,1/2-y,-z
1/2+x,1/2-y,z
loop_
_atom_site_type_symbol
_atom_site_label
_atom_site_fract_x
_atom_site_fract_y
_atom_site_fract_z
Si Si1 0.469419 0.626722 0.698655
Si Si2 0.447027 0.141423 0.247173
Si Si3 0.273577 0.571912 0.386956
Si Si4 0.733156 0.569599 0.360812
Si Si5 0.689109 0.866123 0.667891
Si Si6 0.585219 0.722172 0.815454
Si Si7 0.372498 0.569444 0.257525
O O1 0.393902 0.616195 0.641627
O O2 0.516050 0.693986 0.768777
O O3 0.360962 0.604466 0.352240
O O4 0.589807 0.582389 0.981549
O O5 0.500000 0.124181 0.500000
O O6 0.555343 0.148336 0.406516
O O7 0.381983 0.207304 0.091775
O O8 0.349151 0.089467 0.978559
O O9 0.304754 0.500000 0.443078
O O10 0.244053 0.586915 0.451430
O O11 0.764312 0.500000 0.410992
O O12 0.827183 0.610069 0.503508
O O13 0.778371 0.807385 0.884095
O O14 0.752271 0.919991 0.892294
O O15 0.500000 0.711998 0.500000
O O16 0.500000 0.595570 0.500000
O O17 0.386443 0.500000 0.320526
#
# Coordination Sequence:
#
# PCOD8109492 Si02
#       7
#     8   8   8   8   8   8   8
#     4  11  19  36  63  96 126 157 202 258 309 358
#     4  11  27  41  64  90 123 166 203 254 310 373
#     4  11  25  42  61  90 129 167 205 253 312 373
#     4  10  21  39  65  91 120 163 211 252 300 362
#     4  11  21  39  61  92 122 161 204 250 302 369
#     4  10  21  39  64  95 121 159 208 253 307 364
#     4  11  18  29  56  94 125 149 192 254 306 354
#
# _framework density 20.983298000000001
#
# number of rings (size 3 to 8) (size 9 to 14) (size 15 to 20)
#    0.000    1.286    4.286    3.000    2.000    4.286 
#    0.000    4.286    6.286    0.000    0.000    0.000 
#    0.000    0.000    0.000    0.000    0.000    0.000 
#
# Total GULP energy -347106.576740 kJ/mol
# GULP energy per Si atom -12396.663455 kJ/mol
# Density = 2.093554 g / cm^3
# Si number density = 20.983298 Si / 1000 Ang^3
#
#
#
# Elastic Constant Matrix: (Units=GPa)
#
#
# Indices 1 2 3 4 5 6 
#
# 1 113.3829 27.6138 24.0209 0.0000 0.4687 0.0000
# 2 27.6138 60.2563 8.8797 0.0000 -9.1799 0.0000
# 3 24.0209 8.8797 43.5194 0.0000 3.8698 0.0000
# 4 0.0000 0.0000 0.0000 16.6757 0.0000 -5.0820
# 5 0.4687 -9.1799 3.8698 0.0000 36.1502 0.0000
# 6 0.0000 0.0000 0.0000 -5.0820 0.0000 26.8519
#
#
#
# Elastic Compliance Matrix: (Units=1/GPa)
#
#
# Indices 1 2 3 4 5 6 
#
# 1 0.010970 -0.004384 -0.005097 0.000000 -0.000710 0.000000
# 2 -0.004384 0.019716 -0.002073 0.000000 0.005285 0.000000
# 3 -0.005097 -0.002073 0.026508 0.000000 -0.003298 0.000000
# 4 0.000000 0.000000 0.000000 0.063638 0.000000 0.012044
# 5 -0.000710 0.005285 -0.003298 0.000000 0.029367 0.000000
# 6 0.000000 0.000000 0.000000 0.012044 0.000000 0.039521
#
#
# Mechanical properties :
#
#
# Convention : Reuss Voigt Hill
#
# Bulk Modulus (GPa) = 29.33858 37.57640 33.45749
# Shear Modulus (GPa) = 22.30250 26.37852 24.34051
#
# Velocity S-wave (km/s) = 3.26370 3.54944 3.40956
# Velocity P-wave (km/s) = 5.31174 5.89446 5.61067
#
# Compressibility (1/GPa) = 0.03408482
#
# Stress axis : x y z
#
# Youngs Moduli (GPa) = 91.15502 50.72113 37.72444
#
# Poissons Ratio (x) = 0.22238 0.19230
# Poissons Ratio (y) = 0.39966 0.07819
# Poissons Ratio (z) = 0.46466 0.10513
#
# Static dielectric constant tensor:
#      x y z
#    x 4.216840 0.000000 -0.020100 
#    y 0.000000 3.712530 0.000000 
#    z -0.020100 0.000000 3.519980 
# 
# 
# High freq. dielectric constant tensor:
#      x y z
#    x 1.832480 0.000000 -0.000100 
#    y 0.000000 1.813260 0.000000 
#    z -0.000100 0.000000 1.798230 
# 
# From -- ./inp_files/190404.got.cif
#   From: 2010.06.25/outbox.cif.g09.slc.cpg/sg12_96_cif.got.tgz:190404.got - 2010.06.28 00:19:55.
