data_PCOD8109488
_publ_section_title
;
Structure prediction by ZEFSAII (Michael W. Deem and Ramdas Pophale) SiO2 
 PCOD8109488
Probable space group: C 2/M
;
_chemical_formula_sum "Si O2"
_cell_formula_units_Z 56
_cell_length_a 22.906085
_cell_length_b 13.589569
_cell_length_c 22.594541
_cell_angle_alpha 90.000000
_cell_angle_beta 23.408409
_cell_angle_gamma 90.000000
_cell_volume 2794.213569
_symmetry_space_group_name_H-M "C 2/M"
_symmetry_group_IT_number 12
_symmetry_cell_setting 'monoclinic'
loop_
_space_group_symop_operation_xyz
x,y,z
-x,y,-z
-x,-y,-z
x,-y,z
1/2+x,1/2+y,z
1/2-x,1/2+y,-z
1/2-x,1/2-y,-z
1/2+x,1/2-y,z
loop_
_atom_site_type_symbol
_atom_site_label
_atom_site_fract_x
_atom_site_fract_y
_atom_site_fract_z
Si Si1 0.569708 0.389997 0.092692
Si Si2 0.829686 0.778050 0.667627
Si Si3 0.616682 0.884437 0.781867
Si Si4 0.705092 0.730365 0.475623
Si Si5 0.303854 0.792719 0.080856
Si Si6 0.747697 0.888446 0.345426
Si Si7 0.559751 0.613900 0.237422
O O1 0.637513 0.500000 0.029850
O O2 0.422328 0.387675 0.191233
O O3 0.537271 0.355552 0.189960
O O4 0.685388 0.317071 0.955393
O O5 0.737529 0.861306 0.719160
O O6 0.791196 0.784559 0.771829
O O7 0.791154 0.669048 0.678779
O O8 0.000000 0.801996 0.500000
O O9 0.664302 0.831315 0.676800
O O10 0.603736 0.000000 0.783624
O O11 0.461351 0.840825 0.947436
O O12 0.750000 0.750000 0.500000
O O13 0.674406 0.832275 0.469337
O O14 0.554202 0.670423 0.614654
O O15 0.222842 0.860307 0.107753
O O16 0.686995 0.000000 0.398622
O O17 0.527663 0.500000 0.275757
#
# Coordination Sequence:
#
# PCOD8109488 Si02
#       7
#     8   8   8   8   8   8   8
#     4  10  21  39  64  94 127 165 210 256 312 375
#     4  11  25  43  63  88 123 166 210 266 320 373
#     4  11  24  40  61  91 125 164 214 264 312 371
#     4  11  20  38  63  93 125 166 208 253 306 372
#     4  12  22  41  65  92 127 168 213 259 315 374
#     4  10  21  40  63  92 126 161 206 260 315 370
#     4  11  23  39  63  95 133 169 205 255 316 378
#
# _framework density 20.041418
#
# number of rings (size 3 to 8) (size 9 to 14) (size 15 to 20)
#    0.000    1.143    4.286    3.429    0.000    3.429 
#    0.000    3.571    0.000    0.000    0.000    0.000 
#    0.000    0.000    0.000    0.000    0.000    0.000 
#
# Total GULP energy -347291.876973 kJ/mol
# GULP energy per Si atom -12403.281320 kJ/mol
# Density = 1.999580 g / cm^3
# Si number density = 20.041418 Si / 1000 Ang^3
#
#
#
# Elastic Constant Matrix: (Units=GPa)
#
#
# Indices 1 2 3 4 5 6 
#
# 1 70.8645 27.9831 35.5880 -0.0023 -1.6065 0.0003
# 2 27.9831 123.4498 38.0226 0.0009 11.3911 -0.0003
# 3 35.5880 38.0226 119.2575 0.0040 3.7780 0.0003
# 4 -0.0023 0.0009 0.0040 30.4445 0.0007 -2.1083
# 5 -1.6065 11.3911 3.7780 0.0007 34.7979 -0.0003
# 6 0.0003 -0.0003 0.0003 -2.1083 -0.0003 27.6637
#
#
#
# Elastic Compliance Matrix: (Units=1/GPa)
#
#
# Indices 1 2 3 4 5 6 
#
# 1 0.017476 -0.002813 -0.004388 0.000002 0.002204 0.000000
# 2 -0.002813 0.009684 -0.002151 0.000000 -0.003066 0.000000
# 3 -0.004388 -0.002151 0.010400 -0.000002 -0.000628 0.000000
# 4 0.000002 0.000000 -0.000002 0.033021 0.000000 0.002517
# 5 0.002204 -0.003066 -0.000628 0.000000 0.029911 0.000000
# 6 0.000000 0.000000 0.000000 0.002517 0.000000 0.036340
#
#
# Mechanical properties :
#
#
# Convention : Reuss Voigt Hill
#
# Bulk Modulus (GPa) = 53.03397 57.41769 55.22583
# Shear Modulus (GPa) = 30.89833 32.71309 31.80571
#
# Velocity S-wave (km/s) = 3.93074 4.04452 3.98804
# Velocity P-wave (km/s) = 6.86444 7.10793 6.98724
#
# Compressibility (1/GPa) = 0.01885584
#
# Stress axis : x y z
#
# Youngs Moduli (GPa) = 57.22152 103.26834 96.15178
#
# Poissons Ratio (x) = 0.29052 0.42191
# Poissons Ratio (y) = 0.16098 0.20679
# Poissons Ratio (z) = 0.25108 0.22210
#
# Static dielectric constant tensor:
#      x y z
#    x 3.671620 0.000000 0.016950 
#    y 0.000000 3.851830 0.000000 
#    z 0.016950 0.000000 3.625300 
# 
# 
# High freq. dielectric constant tensor:
#      x y z
#    x 1.788330 0.000000 -0.000690 
#    y 0.000000 1.789130 0.000000 
#    z -0.000690 0.000000 1.776030 
# 
# From -- ./inp_files/96488.got.cif
#   From: 2010.06.25/outbox.cif.g09.slc.cpg/sg12_49_cif.got.tgz:96488.got - 2010.06.28 00:19:55.
