data_PCOD8109043
_publ_section_title
;
Structure prediction by ZEFSAII (Michael W. Deem and Ramdas Pophale) SiO2 
 PCOD8109043
Probable space group: C 2/M
;
_chemical_formula_sum "Si O2"
_cell_formula_units_Z 48
_cell_length_a 16.485610
_cell_length_b 16.255971
_cell_length_c 16.109993
_cell_angle_alpha 90.000000
_cell_angle_beta 143.539847
_cell_angle_gamma 90.000000
_cell_volume 2565.620473
_symmetry_space_group_name_H-M "C 2/M"
_symmetry_group_IT_number 12
_symmetry_cell_setting 'monoclinic'
loop_
_space_group_symop_operation_xyz
x,y,z
-x,y,-z
-x,-y,-z
x,-y,z
1/2+x,1/2+y,z
1/2-x,1/2+y,-z
1/2-x,1/2-y,-z
1/2+x,1/2-y,z
loop_
_atom_site_type_symbol
_atom_site_label
_atom_site_fract_x
_atom_site_fract_y
_atom_site_fract_z
Si Si1 0.794941 0.500000 0.885283
Si Si2 0.120354 0.649122 0.346637
Si Si3 0.093488 0.500000 0.203262
Si Si4 0.678995 0.831271 0.843269
Si Si5 0.341469 0.644025 0.136598
Si Si6 0.646321 0.596959 0.153259
Si Si7 0.858596 0.164161 0.668860
O O1 0.816769 0.500000 0.805354
O O2 0.708555 0.580483 0.835895
O O3 0.934465 0.500000 0.051375
O O4 0.132142 0.581219 0.285564
O O5 0.135707 0.737471 0.315206
O O6 0.238032 0.634851 0.510197
O O7 0.977474 0.641836 0.277082
O O8 0.697281 0.733533 0.861793
O O9 0.732997 0.861566 0.799542
O O10 0.767032 0.873968 0.988153
O O11 0.502042 0.631553 0.256529
O O12 0.658509 0.500000 0.153951
O O13 0.667329 0.623093 0.264626
O O14 0.500000 0.628722 0.000000
#
# Coordination Sequence:
#
# PCOD8109043 Si02
#       7
#     4   8   4   8   8   8   8
#     4  11  24  37  65  96 122 151 208 259 296 356
#     4  10  23  43  64  88 124 163 200 245 311 363
#     4  11  24  39  63  96 121 158 200 257 305 351
#     4  10  21  39  61  88 122 161 200 247 301 355
#     4  10  21  39  62  89 118 163 200 246 306 351
#     4  11  24  36  61  95 122 154 206 254 296 351
#     4  10  23  43  64  88 123 165 200 247 303 366
#
# _framework density 18.708925000000001
#
# number of rings (size 3 to 8) (size 9 to 14) (size 15 to 20)
#    0.000    1.667    3.333    0.000    7.000    0.667 
#    0.000    2.500    0.000    0.000    0.000    0.000 
#    0.000    0.000    0.000    0.000    0.000    0.000 
#
# Total GULP energy -297747.982030 kJ/mol
# GULP energy per Si atom -12406.165918 kJ/mol
# Density = 1.866634 g / cm^3
# Si number density = 18.708925 Si / 1000 Ang^3
#
#
#
# Elastic Constant Matrix: (Units=GPa)
#
#
# Indices 1 2 3 4 5 6 
#
# 1 130.3831 69.2058 64.5325 0.0000 -2.6889 0.0000
# 2 69.2058 90.7914 46.1462 0.0000 -5.0079 0.0000
# 3 64.5325 46.1462 132.0205 -0.0001 11.8026 -0.0001
# 4 0.0000 0.0000 -0.0001 27.3678 -0.0001 -5.6964
# 5 -2.6889 -5.0079 11.8026 -0.0001 27.0238 -0.0001
# 6 0.0000 0.0000 -0.0001 -5.6964 -0.0001 32.0411
#
#
#
# Elastic Compliance Matrix: (Units=1/GPa)
#
#
# Indices 1 2 3 4 5 6 
#
# 1 0.014412 -0.008809 -0.004108 0.000000 0.001596 0.000000
# 2 -0.008809 0.019381 -0.002821 0.000000 0.003947 0.000000
# 3 -0.004108 -0.002821 0.011085 0.000000 -0.005773 0.000000
# 4 0.000000 0.000000 0.000000 0.037943 0.000000 0.006746
# 5 0.001596 0.003947 -0.005773 0.000000 0.040416 0.000000
# 6 0.000000 0.000000 0.000000 0.006746 0.000000 0.032409
#
#
# Mechanical properties :
#
#
# Convention : Reuss Voigt Hill
#
# Bulk Modulus (GPa) = 74.62500 79.21821 76.92160
# Shear Modulus (GPa) = 26.09742 28.84056 27.46899
#
# Velocity S-wave (km/s) = 3.73891 3.93050 3.83590
# Velocity P-wave (km/s) = 7.65593 7.93932 7.79891
#
# Compressibility (1/GPa) = 0.01340034
#
# Stress axis : x y z
#
# Youngs Moduli (GPa) = 69.38767 51.59738 90.21385
#
# Poissons Ratio (x) = 0.45454 0.37060
# Poissons Ratio (y) = 0.61127 0.25450
# Poissons Ratio (z) = 0.28504 0.14556
#
# Static dielectric constant tensor:
#      x y z
#    x 3.381280 0.000000 0.134360 
#    y 0.000000 3.497060 0.000000 
#    z 0.134360 0.000000 3.494020 
# 
# 
# High freq. dielectric constant tensor:
#      x y z
#    x 1.730840 0.000000 0.007830 
#    y 0.000000 1.734160 0.000000 
#    z 0.007830 0.000000 1.726330 
# 
# From -- ./inp_files/216531.got.cif
#   From: 2010.06.25/outbox.cif.g09.slc.cpg/sg12_109_cif.got.tgz:216531.got - 2010.06.28 00:19:55.
