data_PCOD8109624
_publ_section_title
;
Structure prediction by ZEFSAII (Michael W. Deem and Ramdas Pophale) SiO2 
 PCOD8109624
Probable space group: C 2/M
;
_chemical_formula_sum "Si O2"
_cell_formula_units_Z 56
_cell_length_a 12.251708
_cell_length_b 27.165477
_cell_length_c 8.909968
_cell_angle_alpha 90.000000
_cell_angle_beta 111.961456
_cell_angle_gamma 90.000000
_cell_volume 2750.260953
_symmetry_space_group_name_H-M "C 2/M"
_symmetry_group_IT_number 12
_symmetry_cell_setting 'monoclinic'
loop_
_space_group_symop_operation_xyz
x,y,z
-x,y,-z
-x,-y,-z
x,-y,z
1/2+x,1/2+y,z
1/2-x,1/2+y,-z
1/2-x,1/2-y,-z
1/2+x,1/2-y,z
loop_
_atom_site_type_symbol
_atom_site_label
_atom_site_fract_x
_atom_site_fract_y
_atom_site_fract_z
Si Si1 0.216611 0.889603 0.293234
Si Si2 0.553005 0.854451 0.187106
Si Si3 0.028383 0.115872 0.679995
Si Si4 0.781798 0.806268 0.187425
Si Si5 0.671283 0.805464 0.810121
Si Si6 0.598989 0.056455 0.425646
Si Si7 0.623834 0.554118 0.980508
O O1 0.290059 0.839770 0.308829
O O2 0.276612 0.926780 0.440764
O O3 0.088918 0.874743 0.286085
O O4 0.213449 0.914905 0.127767
O O5 0.676687 0.825955 0.238554
O O6 0.465329 0.816866 0.226736
O O7 0.566770 0.906953 0.274639
O O8 0.500000 0.868229 0.000000
O O9 0.098265 0.166743 0.705697
O O10 0.111041 0.076745 0.808095
O O11 0.000000 0.095374 0.500000
O O12 0.808644 0.749651 0.235664
O O13 0.752236 0.815138 0.997652
O O14 0.500000 0.060800 0.500000
O O15 0.610187 0.000000 0.373571
O O16 0.677805 0.500000 0.987766
O O17 0.500000 0.551495 0.000000
#
# Coordination Sequence:
#
# PCOD8109624 Si02
#       7
#     8   8   8   8   8   8   8
#     4  11  21  40  65  90 123 161 213 259 301 373
#     4  10  22  43  65  93 132 163 212 264 308 378
#     4  11  23  39  59  91 131 158 202 256 312 374
#     4  10  22  40  63  94 128 164 208 256 319 373
#     4  10  21  39  67  92 122 168 210 256 313 369
#     4  11  23  41  66  93 128 169 211 261 316 372
#     4   9  19  37  62  88 118 160 206 253 307 368
#
# _framework density 20.361705000000001
#
# number of rings (size 3 to 8) (size 9 to 14) (size 15 to 20)
#    0.000    1.714    2.857    1.286    2.000    1.143 
#    2.571    3.571    0.000    0.000    0.000    0.000 
#    0.000    0.000    0.000    0.000    0.000    0.000 
#
# Total GULP energy -347267.013369 kJ/mol
# GULP energy per Si atom -12402.393335 kJ/mol
# Density = 2.031536 g / cm^3
# Si number density = 20.361705 Si / 1000 Ang^3
#
#
#
# Elastic Constant Matrix: (Units=GPa)
#
#
# Indices 1 2 3 4 5 6 
#
# 1 113.1998 65.6905 31.6920 0.0000 5.2557 0.0000
# 2 65.6905 176.2093 60.5328 0.0000 -3.9227 0.0000
# 3 31.6920 60.5328 99.7470 0.0000 1.3043 0.0000
# 4 0.0000 0.0000 0.0000 29.8717 0.0000 0.7561
# 5 5.2557 -3.9227 1.3043 0.0000 28.6511 0.0000
# 6 0.0000 0.0000 0.0000 0.7561 0.0000 25.2612
#
#
#
# Elastic Compliance Matrix: (Units=1/GPa)
#
#
# Indices 1 2 3 4 5 6 
#
# 1 0.011599 -0.003952 -0.001253 0.000000 -0.002612 0.000000
# 2 -0.003952 0.008556 -0.003964 0.000000 0.002077 0.000000
# 3 -0.001253 -0.003964 0.012841 0.000000 -0.000897 0.000000
# 4 0.000000 0.000000 0.000000 0.033502 0.000000 -0.001003
# 5 -0.002612 0.002077 -0.000897 0.000000 0.035707 0.000000
# 6 0.000000 0.000000 0.000000 -0.001003 0.000000 0.039616
#
#
# Mechanical properties :
#
#
# Convention : Reuss Voigt Hill
#
# Bulk Modulus (GPa) = 68.21927 78.33187 73.27557
# Shear Modulus (GPa) = 30.29459 32.17283 31.23371
#
# Velocity S-wave (km/s) = 3.86141 3.97932 3.92081
# Velocity P-wave (km/s) = 7.31144 7.72444 7.52078
#
# Compressibility (1/GPa) = 0.01465861
#
# Stress axis : x y z
#
# Youngs Moduli (GPa) = 86.21205 116.87239 77.87654
#
# Poissons Ratio (x) = 0.46187 0.09757
# Poissons Ratio (y) = 0.34070 0.30871
# Poissons Ratio (z) = 0.10802 0.46329
#
# Static dielectric constant tensor:
#      x y z
#    x 3.654650 0.000000 0.064530 
#    y 0.000000 3.763190 0.000000 
#    z 0.064530 0.000000 3.662380 
# 
# 
# High freq. dielectric constant tensor:
#      x y z
#    x 1.793270 0.000000 0.006660 
#    y 0.000000 1.798260 0.000000 
#    z 0.006660 0.000000 1.791250 
# 
# From -- ./inp_files/53271.got.cif
#   From: 2010.06.25/outbox.cif.g09.slc.cpg/sg12_27_cif.got.tgz:53271.got - 2010.06.28 00:19:55.
