data_PCOD8109283
_publ_section_title
;
Structure prediction by ZEFSAII (Michael W. Deem and Ramdas Pophale) SiO2 
 PCOD8109283
Probable space group: C 2/M
;
_chemical_formula_sum "Si O2"
_cell_formula_units_Z 40
_cell_length_a 30.671937
_cell_length_b 8.740658
_cell_length_c 11.396650
_cell_angle_alpha 90.000000
_cell_angle_beta 139.107163
_cell_angle_gamma 90.000000
_cell_volume 2000.180867
_symmetry_space_group_name_H-M "C 2/M"
_symmetry_group_IT_number 12
_symmetry_cell_setting 'monoclinic'
loop_
_space_group_symop_operation_xyz
x,y,z
-x,y,-z
-x,-y,-z
x,-y,z
1/2+x,1/2+y,z
1/2-x,1/2+y,-z
1/2-x,1/2-y,-z
1/2+x,1/2-y,z
loop_
_atom_site_type_symbol
_atom_site_label
_atom_site_fract_x
_atom_site_fract_y
_atom_site_fract_z
Si Si1 0.863027 0.323902 0.496155
Si Si2 0.987237 0.319626 0.603328
Si Si3 0.230577 0.176637 0.081848
Si Si4 0.676817 0.679530 0.351711
Si Si5 0.880680 0.679206 0.994944
O O1 0.878959 0.500000 0.558473
O O2 0.790532 0.305501 0.294264
O O3 0.865193 0.228643 0.620268
O O4 0.918285 0.257221 0.518622
O O5 0.981553 0.500000 0.575405
O O6 0.000000 0.246231 0.500000
O O7 0.045807 0.276377 0.812193
O O8 0.168799 0.272784 0.002678
O O9 0.210781 0.000000 0.025074
O O10 0.250000 0.250000 0.000000
O O11 0.686349 0.500000 0.368451
O O12 0.750000 0.750000 0.500000
O O13 0.634334 0.729267 0.153317
O O14 0.873152 0.500000 0.954822
#
# Coordination Sequence:
#
# PCOD8109283 Si02
#       5
#     8   8   8   8   8
#     4  10  21  39  63  89 120 161 207 251 301 358
#     4   9  19  38  63  91 123 162 204 248 298 363
#     4  11  22  36  59  88 120 158 205 256 305 361
#     4  12  24  40  62  89 123 160 204 255 311 367
#     4  11  22  38  63  91 122 159 203 254 307 361
#
# _framework density 19.998192
#
# number of rings (size 3 to 8) (size 9 to 14) (size 15 to 20)
#    0.000    1.400    2.000    4.200    0.000    4.800 
#    0.000    6.000    0.000    4.200    0.000    0.000 
#    0.000    0.000    0.000    0.000    0.000    0.000 
#
# Total GULP energy -248077.923106 kJ/mol
# GULP energy per Si atom -12403.896155 kJ/mol
# Density = 1.995267 g / cm^3
# Si number density = 19.998192 Si / 1000 Ang^3
#
#
#
# Elastic Constant Matrix: (Units=GPa)
#
#
# Indices 1 2 3 4 5 6 
#
# 1 113.6569 30.6417 16.0669 0.0000 -8.4472 0.0000
# 2 30.6417 91.3219 34.3492 0.0000 -6.3366 0.0000
# 3 16.0669 34.3492 40.6703 0.0000 -5.2524 0.0000
# 4 0.0000 0.0000 0.0000 27.3046 0.0000 -5.1181
# 5 -8.4472 -6.3366 -5.2524 0.0000 43.9683 0.0000
# 6 0.0000 0.0000 0.0000 -5.1181 0.0000 33.5866
#
#
#
# Elastic Compliance Matrix: (Units=1/GPa)
#
#
# Indices 1 2 3 4 5 6 
#
# 1 0.009819 -0.002650 -0.001470 0.000000 0.001329 0.000000
# 2 -0.002650 0.016785 -0.013085 0.000000 0.000347 0.000000
# 3 -0.001470 -0.013085 0.036503 0.000000 0.002192 0.000000
# 4 0.000000 0.000000 0.000000 0.037701 0.000000 0.005745
# 5 0.001329 0.000347 0.002192 0.000000 0.023311 0.000000
# 6 0.000000 0.000000 0.000000 0.005745 0.000000 0.030649
#
#
# Mechanical properties :
#
#
# Convention : Reuss Voigt Hill
#
# Bulk Modulus (GPa) = 34.84441 45.30719 40.07580
# Shear Modulus (GPa) = 25.15825 31.94466 28.55145
#
# Velocity S-wave (km/s) = 3.55071 4.00106 3.78259
# Velocity P-wave (km/s) = 5.85420 6.63697 6.25784
#
# Compressibility (1/GPa) = 0.02869901
#
# Stress axis : x y z
#
# Youngs Moduli (GPa) = 101.84027 59.57708 27.39531
#
# Poissons Ratio (x) = 0.15786 0.04026
# Poissons Ratio (y) = 0.26985 0.35846
# Poissons Ratio (z) = 0.14966 0.77954
#
# Static dielectric constant tensor:
#      x y z
#    x 3.881030 0.000000 -0.016260 
#    y 0.000000 3.596700 0.000000 
#    z -0.016260 0.000000 3.757300 
# 
# 
# High freq. dielectric constant tensor:
#      x y z
#    x 1.797160 0.000000 -0.006010 
#    y 0.000000 1.764500 0.000000 
#    z -0.006010 0.000000 1.785550 
# 
# From -- ./inp_files/151672.got.cif
#   From: 2010.06.25/outbox.cif.g09.slc.cpg/sg12_76_cif.got.tgz:151672.got - 2010.06.28 00:19:55.
