data_PCOD8109544
_publ_section_title
;
Structure prediction by ZEFSAII (Michael W. Deem and Ramdas Pophale) SiO2 
 PCOD8109544
Probable space group: C 2/M
;
_chemical_formula_sum "Si O2"
_cell_formula_units_Z 44
_cell_length_a 8.454933
_cell_length_b 19.639149
_cell_length_c 16.361821
_cell_angle_alpha 90.000000
_cell_angle_beta 52.904345
_cell_angle_gamma 90.000000
_cell_volume 2167.034240
_symmetry_space_group_name_H-M "C 2/M"
_symmetry_group_IT_number 12
_symmetry_cell_setting 'monoclinic'
loop_
_space_group_symop_operation_xyz
x,y,z
-x,y,-z
-x,-y,-z
x,-y,z
1/2+x,1/2+y,z
1/2-x,1/2+y,-z
1/2-x,1/2-y,-z
1/2+x,1/2-y,z
loop_
_atom_site_type_symbol
_atom_site_label
_atom_site_fract_x
_atom_site_fract_y
_atom_site_fract_z
Si Si1 0.094767 0.925707 0.560131
Si Si2 0.245302 0.676675 0.275178
Si Si3 0.555455 0.075530 0.893631
Si Si4 0.187163 0.923742 0.891967
Si Si5 0.612912 0.676370 0.261107
Si Si6 0.000000 0.382403 0.500000
O O1 0.335879 0.924301 0.497491
O O2 0.000000 0.920525 0.500000
O O3 0.010929 0.859737 0.629792
O O4 0.028880 0.000000 0.616153
O O5 0.233480 0.619779 0.208942
O O6 0.477837 0.681112 0.223056
O O7 0.172310 0.748238 0.265544
O O8 0.114498 0.661289 0.395926
O O9 0.360883 0.071919 0.901664
O O10 0.697530 0.130597 0.811002
O O11 0.654507 0.000000 0.866821
O O12 0.500000 0.101893 0.000000
O O13 0.132540 0.000000 0.877144
O O14 0.000000 0.891969 0.000000
#
# Coordination Sequence:
#
# PCOD8109544 Si02
#       6
#     8   8   8   8   8   4
#     4  10  23  40  64  92 124 165 212 267 318 378
#     4  11  25  41  64  92 126 173 210 263 318 378
#     4  10  21  39  65  93 125 163 206 261 318 377
#     4  10  22  41  66  95 127 163 207 260 319 381
#     4  11  24  40  61  90 126 164 213 258 313 380
#     4  10  25  42  64  92 131 172 216 270 319 384
#
# _framework density 20.304248000000001
#
# number of rings (size 3 to 8) (size 9 to 14) (size 15 to 20)
#    0.000    1.636    0.000    3.000    6.364    8.000 
#    0.000    3.636    0.000    0.000    0.000    0.000 
#    0.000    0.000    0.000    0.000    0.000    0.000 
#
# Total GULP energy -272589.632075 kJ/mol
# GULP energy per Si atom -12390.437822 kJ/mol
# Density = 2.025803 g / cm^3
# Si number density = 20.304248 Si / 1000 Ang^3
#
#
#
# Elastic Constant Matrix: (Units=GPa)
#
#
# Indices 1 2 3 4 5 6 
#
# 1 129.7420 36.5608 28.8095 0.0000 2.0483 0.0000
# 2 36.5608 120.9363 46.0953 0.0000 2.2780 0.0000
# 3 28.8095 46.0953 104.7914 0.0000 -0.5181 0.0000
# 4 0.0000 0.0000 0.0000 30.4340 0.0000 -13.9209
# 5 2.0483 2.2780 -0.5181 0.0000 30.1100 0.0000
# 6 0.0000 0.0000 0.0000 -13.9209 0.0000 11.8951
#
#
#
# Elastic Compliance Matrix: (Units=1/GPa)
#
#
# Indices 1 2 3 4 5 6 
#
# 1 0.008616 -0.002033 -0.001477 0.000000 -0.000458 0.000000
# 2 -0.002033 0.010435 -0.004035 0.000000 -0.000721 0.000000
# 3 -0.001477 -0.004035 0.011726 0.000000 0.000607 0.000000
# 4 0.000000 0.000000 0.000000 0.070710 0.000000 0.082753
# 5 -0.000458 -0.000721 0.000607 0.000000 0.033308 0.000000
# 6 0.000000 0.000000 0.000000 0.082753 0.000000 0.180915
#
#
# Mechanical properties :
#
#
# Convention : Reuss Voigt Hill
#
# Bulk Modulus (GPa) = 63.74224 64.26674 64.00449
# Shear Modulus (GPa) = 14.87973 30.75476 22.81724
#
# Velocity S-wave (km/s) = 2.71004 3.89613 3.35590
# Velocity P-wave (km/s) = 6.42293 7.20835 6.82695
#
# Compressibility (1/GPa) = 0.01568818
#
# Stress axis : x y z
#
# Youngs Moduli (GPa) = 116.06779 95.83247 85.27732
#
# Poissons Ratio (x) = 0.19485 0.12591
# Poissons Ratio (y) = 0.23599 0.34406
# Poissons Ratio (z) = 0.17138 0.38665
#
# Static dielectric constant tensor:
#      x y z
#    x 4.138530 0.000000 -0.076730 
#    y 0.000000 3.732680 0.000000 
#    z -0.076730 0.000000 3.530140 
# 
# 
# High freq. dielectric constant tensor:
#      x y z
#    x 1.819840 0.000000 -0.002380 
#    y 0.000000 1.797160 0.000000 
#    z -0.002380 0.000000 1.783260 
# 
# From -- ./inp_files/195390.got.cif
#   From: 2010.06.25/outbox.cif.g09.slc.cpg/sg12_98_cif.got.tgz:195390.got - 2010.06.28 00:19:55.
