data_PCOD8109051
_publ_section_title
;
Structure prediction by ZEFSAII (Michael W. Deem and Ramdas Pophale) SiO2 
 PCOD8109051
Probable space group: C 2/M
;
_chemical_formula_sum "Si O2"
_cell_formula_units_Z 64
_cell_length_a 15.382969
_cell_length_b 9.043972
_cell_length_c 23.805941
_cell_angle_alpha 90.000000
_cell_angle_beta 90.092808
_cell_angle_gamma 90.000000
_cell_volume 3311.952939
_symmetry_space_group_name_H-M "C 2/M"
_symmetry_group_IT_number 12
_symmetry_cell_setting 'monoclinic'
loop_
_space_group_symop_operation_xyz
x,y,z
-x,y,-z
-x,-y,-z
x,-y,z
1/2+x,1/2+y,z
1/2-x,1/2+y,-z
1/2-x,1/2-y,-z
1/2+x,1/2-y,z
loop_
_atom_site_type_symbol
_atom_site_label
_atom_site_fract_x
_atom_site_fract_y
_atom_site_fract_z
Si Si1 0.651917 0.326408 0.358089
Si Si2 0.503643 0.325508 0.563004
Si Si3 0.664966 0.168353 0.758821
Si Si4 0.850497 0.330980 0.367582
Si Si5 0.751966 0.326414 0.059529
Si Si6 0.342243 0.174896 0.757139
Si Si7 0.091607 0.174328 0.135723
Si Si8 0.422114 0.170206 0.127158
O O1 0.645505 0.500000 0.344658
O O2 0.584743 0.275985 0.406011
O O3 0.749795 0.285916 0.377423
O O4 0.626145 0.237721 0.302381
O O5 0.500000 0.260793 0.500000
O O6 0.511503 0.500000 0.561820
O O7 0.589493 0.268415 0.593658
O O8 0.623460 0.196023 0.697544
O O9 0.743375 0.280117 0.769703
O O10 0.593078 0.193880 0.806231
O O11 0.702069 0.000000 0.762375
O O12 0.865912 0.500000 0.384770
O O13 0.749584 0.500000 0.049955
O O14 0.669220 0.274388 0.095352
O O15 0.837776 0.277472 0.092967
O O16 0.750000 0.250000 0.000000
O O17 0.403017 0.242459 0.805067
O O18 0.352127 0.000000 0.757084
O O19 0.001391 0.226633 0.107398
O O20 0.092469 0.000000 0.145629
O O21 0.444273 0.000000 0.114008
#
# Coordination Sequence:
#
# PCOD8109051 Si02
#       8
#     8   8   8   8   8   8   8   8
#     4   9  20  39  58  80 115 157 190 233 299 354
#     4  10  22  39  58  82 114 152 196 242 287 344
#     4   9  18  37  60  83 122 158 188 236 300 355
#     4   9  19  35  57  83 113 152 190 233 289 349
#     4  10  23  43  65  85 119 161 200 244 294 344
#     4  11  21  34  58  90 120 152 197 244 289 351
#     4  11  23  40  60  88 122 159 196 241 299 351
#     4  10  21  39  61  89 121 158 197 241 292 350
#
# _framework density 19.323947
#
# number of rings (size 3 to 8) (size 9 to 14) (size 15 to 20)
#    0.000    2.125    1.250    2.250    1.750    5.750 
#    0.000    2.500    0.000    0.000    0.000    0.000 
#    0.000    0.000    0.000    0.000    0.000    0.000 
#
# Total GULP energy -396871.398294 kJ/mol
# GULP energy per Si atom -12402.231197 kJ/mol
# Density = 1.927996 g / cm^3
# Si number density = 19.323947 Si / 1000 Ang^3
#
#
#
# Elastic Constant Matrix: (Units=GPa)
#
#
# Indices 1 2 3 4 5 6 
#
# 1 140.0408 48.3566 80.0939 0.0000 -1.2179 0.0000
# 2 48.3566 65.2157 49.7840 0.0000 -2.6866 0.0000
# 3 80.0939 49.7840 138.6030 0.0000 1.3712 0.0000
# 4 0.0000 0.0000 0.0000 29.5519 0.0000 6.0539
# 5 -1.2179 -2.6866 1.3712 0.0000 19.2157 0.0000
# 6 0.0000 0.0000 0.0000 6.0539 0.0000 34.7154
#
#
#
# Elastic Compliance Matrix: (Units=1/GPa)
#
#
# Indices 1 2 3 4 5 6 
#
# 1 0.011679 -0.004804 -0.005027 0.000000 0.000427 0.000000
# 2 -0.004804 0.023340 -0.005641 0.000000 0.003361 0.000000
# 3 -0.005027 -0.005641 0.012166 0.000000 -0.001975 0.000000
# 4 0.000000 0.000000 0.000000 0.035092 0.000000 -0.006120
# 5 0.000427 0.003361 -0.001975 0.000000 0.052679 0.000000
# 6 0.000000 0.000000 0.000000 -0.006120 0.000000 0.029873
#
#
# Mechanical properties :
#
#
# Convention : Reuss Voigt Hill
#
# Bulk Modulus (GPa) = 61.57520 77.81430 69.69475
# Shear Modulus (GPa) = 24.85260 27.73827 26.29543
#
# Velocity S-wave (km/s) = 3.59012 3.79282 3.69286
# Velocity P-wave (km/s) = 7.00851 7.71599 7.37074
#
# Compressibility (1/GPa) = 0.01624030
#
# Stress axis : x y z
#
# Youngs Moduli (GPa) = 85.62577 42.84433 82.19962
#
# Poissons Ratio (x) = 0.20584 0.41325
# Poissons Ratio (y) = 0.41137 0.46365
# Poissons Ratio (z) = 0.43047 0.24166
#
# Static dielectric constant tensor:
#      x y z
#    x 3.548990 0.000000 -0.079110 
#    y 0.000000 3.369810 0.000000 
#    z -0.079110 0.000000 3.617850 
# 
# 
# High freq. dielectric constant tensor:
#      x y z
#    x 1.756740 0.000000 -0.001400 
#    y 0.000000 1.741870 0.000000 
#    z -0.001400 0.000000 1.750700 
# 
# From -- ./inp_files/338809.got.cif
#   From: 2010.06.25/outbox.cif.g09.slc.cpg/sg12_170_cif.got.tgz:338809.got - 2010.06.28 00:19:55.
