data_PCOD8109072
_publ_section_title
;
Structure prediction by ZEFSAII (Michael W. Deem and Ramdas Pophale) SiO2 
 PCOD8109072
Probable space group: C 2/M
;
_chemical_formula_sum "Si O2"
_cell_formula_units_Z 40
_cell_length_a 9.576263
_cell_length_b 9.933327
_cell_length_c 21.052829
_cell_angle_alpha 90.000000
_cell_angle_beta 91.626416
_cell_angle_gamma 90.000000
_cell_volume 2001.825713
_symmetry_space_group_name_H-M "C 2/M"
_symmetry_group_IT_number 12
_symmetry_cell_setting 'monoclinic'
loop_
_space_group_symop_operation_xyz
x,y,z
-x,y,-z
-x,-y,-z
x,-y,z
1/2+x,1/2+y,z
1/2-x,1/2+y,-z
1/2-x,1/2-y,-z
1/2+x,1/2-y,z
loop_
_atom_site_type_symbol
_atom_site_label
_atom_site_fract_x
_atom_site_fract_y
_atom_site_fract_z
Si Si1 0.205013 0.155958 0.774966
Si Si2 0.909583 0.000000 0.935721
Si Si3 0.529865 0.760729 0.146106
Si Si4 0.914600 0.500000 0.063120
Si Si5 0.228078 0.655854 0.365213
Si Si6 0.555189 0.153659 0.570219
O O1 0.323888 0.181643 0.828397
O O2 0.251133 0.207795 0.706355
O O3 0.065377 0.233197 0.793603
O O4 0.169906 0.000000 0.771905
O O5 0.946584 0.128568 0.894577
O O6 0.749004 0.000000 0.954887
O O7 0.000000 0.000000 0.000000
O O8 0.450709 0.867857 0.102451
O O9 0.000000 0.500000 0.000000
O O10 0.272181 0.500000 0.374333
O O11 0.318989 0.745984 0.413574
O O12 0.066286 0.675867 0.379867
O O13 0.500000 0.189392 0.500000
O O14 0.610373 0.000000 0.573264
#
# Coordination Sequence:
#
# PCOD8109072 Si02
#       6
#     8   4   8   4   8   8
#     4  11  23  41  65  91 126 162 206 262 305 367
#     4  12  28  44  66  96 126 158 207 256 304 370
#     4  12  24  44  66  92 125 163 205 254 313 368
#     4  12  28  44  68  96 122 164 207 248 316 374
#     4  10  22  39  60  92 124 164 211 255 309 363
#     4  10  21  39  61  91 129 166 208 258 307 363
#
# _framework density 19.981760000000001
#
# number of rings (size 3 to 8) (size 9 to 14) (size 15 to 20)
#    0.000    1.000    4.000    2.400    2.800    2.800 
#    3.600    0.000    0.000    0.000    0.000    0.000 
#    0.000    0.000    0.000    0.000    0.000    0.000 
#
# Total GULP energy -248121.424555 kJ/mol
# GULP energy per Si atom -12406.071228 kJ/mol
# Density = 1.993628 g / cm^3
# Si number density = 19.981760 Si / 1000 Ang^3
#
#
#
# Elastic Constant Matrix: (Units=GPa)
#
#
# Indices 1 2 3 4 5 6 
#
# 1 75.6919 22.2002 6.1783 0.0000 0.9153 0.0000
# 2 22.2002 87.8324 21.4711 0.0000 5.0626 0.0000
# 3 6.1783 21.4711 91.7562 0.0000 -11.6069 0.0000
# 4 0.0000 0.0000 0.0000 37.5084 0.0000 6.2658
# 5 0.9153 5.0626 -11.6069 0.0000 39.9445 0.0000
# 6 0.0000 0.0000 0.0000 6.2658 0.0000 26.3079
#
#
#
# Elastic Compliance Matrix: (Units=1/GPa)
#
#
# Indices 1 2 3 4 5 6 
#
# 1 0.014271 -0.003586 -0.000110 0.000000 0.000096 0.000000
# 2 -0.003586 0.013211 -0.003168 0.000000 -0.002513 0.000000
# 3 -0.000110 -0.003168 0.012145 0.000000 0.003933 0.000000
# 4 0.000000 0.000000 0.000000 0.027765 0.000000 -0.006613
# 5 0.000096 -0.002513 0.003933 0.000000 0.026494 0.000000
# 6 0.000000 0.000000 0.000000 -0.006613 0.000000 0.039586
#
#
# Mechanical properties :
#
#
# Convention : Reuss Voigt Hill
#
# Bulk Modulus (GPa) = 38.61029 39.44222 39.02625
# Shear Modulus (GPa) = 32.08587 34.44755 33.26671
#
# Velocity S-wave (km/s) = 4.01154 4.15655 4.08469
# Velocity P-wave (km/s) = 6.38915 6.54354 6.46681
#
# Compressibility (1/GPa) = 0.02589983
#
# Stress axis : x y z
#
# Youngs Moduli (GPa) = 70.07247 75.69533 82.34109
#
# Poissons Ratio (x) = 0.27142 0.00904
# Poissons Ratio (y) = 0.25126 0.26084
# Poissons Ratio (z) = 0.00769 0.23979
#
# Static dielectric constant tensor:
#      x y z
#    x 3.541070 0.000000 -0.149680 
#    y 0.000000 3.722700 0.000000 
#    z -0.149680 0.000000 3.849780 
# 
# 
# High freq. dielectric constant tensor:
#      x y z
#    x 1.784860 0.000000 -0.009030 
#    y 0.000000 1.786690 0.000000 
#    z -0.009030 0.000000 1.795200 
# 
# From -- ./inp_files/331758.got.cif
#   From: 2010.06.25/outbox.cif.g09.slc.cpg/sg12_166_cif.got.tgz:331758.got - 2010.06.28 00:19:55.
