data_PCOD8109647
_publ_section_title
;
Structure prediction by ZEFSAII (Michael W. Deem and Ramdas Pophale) SiO2 
 PCOD8109647
Probable space group: C 2/M
;
_chemical_formula_sum "Si O2"
_cell_formula_units_Z 48
_cell_length_a 17.155515
_cell_length_b 14.177986
_cell_length_c 19.347925
_cell_angle_alpha 90.000000
_cell_angle_beta 30.365467
_cell_angle_gamma 90.000000
_cell_volume 2378.952297
_symmetry_space_group_name_H-M "C 2/M"
_symmetry_group_IT_number 12
_symmetry_cell_setting 'monoclinic'
loop_
_space_group_symop_operation_xyz
x,y,z
-x,y,-z
-x,-y,-z
x,-y,z
1/2+x,1/2+y,z
1/2-x,1/2+y,-z
1/2-x,1/2-y,-z
1/2+x,1/2-y,z
loop_
_atom_site_type_symbol
_atom_site_label
_atom_site_fract_x
_atom_site_fract_y
_atom_site_fract_z
Si Si1 0.975584 0.500000 0.165631
Si Si2 0.848461 0.500000 0.668598
Si Si3 0.535937 0.000000 0.661714
Si Si4 0.644265 0.302516 0.280728
Si Si5 0.146478 0.000000 0.340320
Si Si6 0.337783 0.810678 0.486103
Si Si7 0.312718 0.315528 0.256273
Si Si8 0.428858 0.812673 0.980993
O O1 0.001901 0.500000 0.228121
O O2 0.799828 0.500000 0.271328
O O3 0.059573 0.404272 0.076577
O O4 0.736699 0.410968 0.744556
O O5 0.000000 0.500000 0.500000
O O6 0.895945 0.500000 0.712972
O O7 0.636249 0.090931 0.570228
O O8 0.628155 0.413783 0.301458
O O9 0.490043 0.243339 0.392040
O O10 0.717768 0.270636 0.296930
O O11 0.751089 0.283512 0.131470
O O12 0.000000 0.000000 0.500000
O O13 0.250000 0.750000 0.500000
O O14 0.224092 0.828679 0.636134
O O15 0.491130 0.282676 0.110857
O O16 0.500000 0.843218 0.000000
#
# Coordination Sequence:
#
# PCOD8109647 Si02
#       8
#     4   4   4   8   4   8   8   8
#     4  12  22  42  62  97 138 166 206 262 339 381
#     4  12  20  42  68  90 127 174 222 265 317 380
#     4  12  26  40  62  96 129 173 206 264 339 367
#     4  11  23  40  65  97 129 168 215 260 325 382
#     4  12  23  35  66 101 132 160 215 277 316 385
#     4  12  25  41  65  95 130 165 214 277 325 380
#     4  11  20  40  66  94 121 169 219 261 312 383
#     4  10  21  39  68  96 128 169 211 259 323 396
#
# _framework density 20.176949
#
# number of rings (size 3 to 8) (size 9 to 14) (size 15 to 20)
#    0.000    0.667    6.667    3.250    2.333    0.000 
#    0.000    7.917    0.000    0.000    0.000    0.000 
#    0.000    0.000    0.000    0.000    0.000    0.000 
#
# Total GULP energy -297444.184533 kJ/mol
# GULP energy per Si atom -12393.507689 kJ/mol
# Density = 2.013102 g / cm^3
# Si number density = 20.176949 Si / 1000 Ang^3
#
#
#
# Elastic Constant Matrix: (Units=GPa)
#
#
# Indices 1 2 3 4 5 6 
#
# 1 61.1829 17.4535 31.9408 -0.0071 28.4949 0.0025
# 2 17.4535 135.4774 31.1031 -0.0101 14.8780 0.0035
# 3 31.9408 31.1031 108.3595 -0.0083 19.7340 0.0061
# 4 -0.0071 -0.0101 -0.0083 117.9627 0.0070 13.6900
# 5 28.4949 14.8780 19.7340 0.0070 34.0313 -0.0040
# 6 0.0025 0.0035 0.0061 13.6900 -0.0040 36.9368
#
#
#
# Elastic Compliance Matrix: (Units=1/GPa)
#
#
# Indices 1 2 3 4 5 6 
#
# 1 0.028690 -0.000329 -0.004488 0.000003 -0.021277 -0.000005
# 2 -0.000329 0.008084 -0.001822 0.000001 -0.002202 -0.000001
# 3 -0.004488 -0.001822 0.011455 0.000001 -0.002088 -0.000002
# 4 0.000003 0.000001 0.000001 0.008858 -0.000006 -0.003283
# 5 -0.021277 -0.002202 -0.002088 -0.000006 0.049373 0.000009
# 6 -0.000005 -0.000001 -0.000002 -0.003283 0.000009 0.028290
#
#
# Mechanical properties :
#
#
# Convention : Reuss Voigt Hill
#
# Bulk Modulus (GPa) = 28.61200 51.77940 40.19570
# Shear Modulus (GPa) = 31.31276 52.75434 42.03355
#
# Velocity S-wave (km/s) = 3.94370 5.11885 4.56921
# Velocity P-wave (km/s) = 5.91171 7.78814 6.91388
#
# Compressibility (1/GPa) = 0.03495037
#
# Stress axis : x y z
#
# Youngs Moduli (GPa) = 34.85490 123.70284 87.30054
#
# Poissons Ratio (x) = 0.04074 0.39177
# Poissons Ratio (y) = 0.01148 0.15909
# Poissons Ratio (z) = 0.15642 0.22543
#
# Static dielectric constant tensor:
#      x y z
#    x 3.430930 0.000000 0.091740 
#    y 0.000000 3.910610 0.000010 
#    z 0.091740 0.000010 3.964770 
# 
# 
# High freq. dielectric constant tensor:
#      x y z
#    x 1.765790 0.000000 0.010630 
#    y 0.000000 1.807450 0.000000 
#    z 0.010630 0.000000 1.792670 
# 
# From -- ./inp_files/278080.got.cif
#   From: 2010.06.25/outbox.cif.g09.slc.cpg/sg12_140_cif.got.tgz:278080.got - 2010.06.28 00:19:55.
