data_PCOD8109904
_publ_section_title
;
Structure prediction by ZEFSAII (Michael W. Deem and Ramdas Pophale) SiO2 
 PCOD8109904
Probable space group: C 2/M
;
_chemical_formula_sum "Si O2"
_cell_formula_units_Z 48
_cell_length_a 26.274010
_cell_length_b 13.553438
_cell_length_c 10.318867
_cell_angle_alpha 90.000000
_cell_angle_beta 143.696244
_cell_angle_gamma 90.000000
_cell_volume 2175.594631
_symmetry_space_group_name_H-M "C 2/M"
_symmetry_group_IT_number 12
_symmetry_cell_setting 'monoclinic'
loop_
_space_group_symop_operation_xyz
x,y,z
-x,y,-z
-x,-y,-z
x,-y,z
1/2+x,1/2+y,z
1/2-x,1/2+y,-z
1/2-x,1/2-y,-z
1/2+x,1/2-y,z
loop_
_atom_site_type_symbol
_atom_site_label
_atom_site_fract_x
_atom_site_fract_y
_atom_site_fract_z
Si Si1 0.125524 0.608886 0.402537
Si Si2 0.096919 0.196179 0.205570
Si Si3 0.698404 0.388223 0.652811
Si Si4 0.698462 0.303505 0.151770
Si Si5 0.896695 0.814604 0.298718
Si Si6 0.585971 0.105448 0.596778
O O1 0.124843 0.500000 0.337183
O O2 0.099334 0.686881 0.240557
O O3 0.217665 0.630858 0.656008
O O4 0.060908 0.615210 0.392742
O O5 0.145091 0.134013 0.413568
O O6 0.139962 0.181259 0.156407
O O7 0.000000 0.157725 0.000000
O O8 0.734038 0.500000 0.718730
O O9 0.777915 0.311964 0.822040
O O10 0.635727 0.380453 0.648595
O O11 0.646267 0.348255 0.923440
O O12 0.861882 0.702423 0.253097
O O13 0.000000 0.820936 0.500000
O O14 0.500000 0.102714 0.500000
O O15 0.635905 0.000000 0.721206
#
# Coordination Sequence:
#
# PCOD8109904 Si02
#       6
#     8   8   8   8   8   8
#     4  10  21  40  64  92 125 161 205 255 312 370
#     4  11  24  43  65  92 124 165 207 255 310 370
#     4  11  24  43  64  91 127 167 211 253 302 367
#     4  11  24  40  64  93 124 163 209 253 314 365
#     4  11  22  41  65  92 127 164 206 260 308 362
#     4   9  18  33  60  92 125 160 197 247 311 369
#
# _framework density 22.062933000000001
#
# number of rings (size 3 to 8) (size 9 to 14) (size 15 to 20)
#    0.000    1.500    3.333    3.500    2.333    5.000 
#    0.000    1.667    0.000    0.000    0.000    0.000 
#    0.000    0.000    0.000    0.000    0.000    0.000 
#
# Total GULP energy -297490.915677 kJ/mol
# GULP energy per Si atom -12395.454820 kJ/mol
# Density = 2.201272 g / cm^3
# Si number density = 22.062933 Si / 1000 Ang^3
#
#
#
# Elastic Constant Matrix: (Units=GPa)
#
#
# Indices 1 2 3 4 5 6 
#
# 1 127.5278 9.2023 29.2211 0.0000 -22.0616 0.0000
# 2 9.2023 85.2665 -11.4920 0.0000 -8.7366 0.0000
# 3 29.2211 -11.4920 76.9607 0.0000 -8.1971 0.0000
# 4 0.0000 0.0000 0.0000 11.2249 0.0000 1.2602
# 5 -22.0616 -8.7366 -8.1971 0.0000 36.4447 0.0000
# 6 0.0000 0.0000 0.0000 1.2602 0.0000 18.7607
#
#
#
# Elastic Compliance Matrix: (Units=1/GPa)
#
#
# Indices 1 2 3 4 5 6 
#
# 1 0.009479 -0.000969 -0.003235 0.000000 0.004778 0.000000
# 2 -0.000969 0.012481 0.002549 0.000000 0.002979 0.000000
# 3 -0.003235 0.002549 0.014814 0.000000 0.001985 0.000000
# 4 0.000000 0.000000 0.000000 0.089765 0.000000 -0.006030
# 5 0.004778 0.002979 0.001985 0.000000 0.031492 0.000000
# 6 0.000000 0.000000 0.000000 -0.006030 0.000000 0.053708
#
#
# Mechanical properties :
#
#
# Convention : Reuss Voigt Hill
#
# Bulk Modulus (GPa) = 29.88308 38.17976 34.03142
# Shear Modulus (GPa) = 22.10389 30.80763 26.45576
#
# Velocity S-wave (km/s) = 3.16865 3.74083 3.46657
# Velocity P-wave (km/s) = 5.19239 6.00008 5.61079
#
# Compressibility (1/GPa) = 0.03346376
#
# Stress axis : x y z
#
# Youngs Moduli (GPa) = 105.49371 80.11984 67.50385
#
# Poissons Ratio (x) = 0.07767 0.21838
# Poissons Ratio (y) = 0.10227 -0.17207
# Poissons Ratio (z) = 0.34127 -0.20423
#
# Static dielectric constant tensor:
#      x y z
#    x 4.045060 0.000000 -0.137720 
#    y 0.000000 4.598520 0.000000 
#    z -0.137720 0.000000 3.681600 
# 
# 
# High freq. dielectric constant tensor:
#      x y z
#    x 1.884690 0.000000 -0.017730 
#    y 0.000000 1.865020 0.000000 
#    z -0.017730 0.000000 1.845470 
# 
# From -- ./inp_files/105030.got.cif
#   From: 2010.06.25/outbox.cif.g09.slc.cpg/sg12_53_cif.got.tgz:105030.got - 2010.06.28 00:19:55.
