data_PCOD8109372
_publ_section_title
;
Structure prediction by ZEFSAII (Michael W. Deem and Ramdas Pophale) SiO2 
 PCOD8109372
Probable space group: C 2/M
;
_chemical_formula_sum "Si O2"
_cell_formula_units_Z 40
_cell_length_a 29.409506
_cell_length_b 13.528737
_cell_length_c 5.297348
_cell_angle_alpha 90.000000
_cell_angle_beta 115.108804
_cell_angle_gamma 90.000000
_cell_volume 1908.506626
_symmetry_space_group_name_H-M "C 2/M"
_symmetry_group_IT_number 12
_symmetry_cell_setting 'monoclinic'
loop_
_space_group_symop_operation_xyz
x,y,z
-x,y,-z
-x,-y,-z
x,-y,z
1/2+x,1/2+y,z
1/2-x,1/2+y,-z
1/2-x,1/2-y,-z
1/2+x,1/2-y,z
loop_
_atom_site_type_symbol
_atom_site_label
_atom_site_fract_x
_atom_site_fract_y
_atom_site_fract_z
Si Si1 0.709709 0.217170 0.707923
Si Si2 0.100774 0.691993 0.464062
Si Si3 0.467199 0.500000 0.170982
Si Si4 0.398605 0.687806 0.052251
Si Si5 0.033226 0.500000 0.326798
Si Si6 0.297513 0.384943 0.668557
O O1 0.658726 0.162737 0.673921
O O2 0.690067 0.320344 0.546814
O O3 0.739993 0.140618 0.602897
O O4 0.750000 0.250000 0.000000
O O5 0.081579 0.764556 0.640658
O O6 0.068028 0.595088 0.402492
O O7 0.096567 0.736738 0.172346
O O8 0.500000 0.500000 0.500000
O O9 0.432869 0.595522 0.073258
O O10 0.500000 0.500000 0.000000
O O11 0.340999 0.650080 0.966598
O O12 0.000000 0.500000 0.500000
O O13 0.000000 0.500000 0.000000
O O14 0.301805 0.500000 0.615386
#
# Coordination Sequence:
#
# PCOD8109372 Si02
#       6
#     8   8   4   8   4   8
#     4  10  21  40  61 100 134 170 219 267 335 402
#     4  11  25  44  71  98 134 175 223 285 332 401
#     4  12  26  42  65  99 128 164 222 272 326 401
#     4  11  23  44  67  97 136 173 214 270 341 399
#     4  12  28  50  71  99 130 180 244 288 343 400
#     4  10  21  39  63  93 137 176 211 262 329 411
#
# _framework density 20.958794999999999
#
# number of rings (size 3 to 8) (size 9 to 14) (size 15 to 20)
#    0.000    1.200    3.000    2.400    1.400    5.600 
#    1.800    0.000    0.000    0.000    0.000    0.000 
#    0.000    0.000    0.000    0.000    0.000    0.000 
#
# Total GULP energy -247839.336953 kJ/mol
# GULP energy per Si atom -12391.966848 kJ/mol
# Density = 2.091109 g / cm^3
# Si number density = 20.958795 Si / 1000 Ang^3
#
#
#
# Elastic Constant Matrix: (Units=GPa)
#
#
# Indices 1 2 3 4 5 6 
#
# 1 138.5911 71.9422 44.7853 0.0000 5.0851 0.0000
# 2 71.9422 144.6014 35.7729 0.0000 13.2367 0.0000
# 3 44.7853 35.7729 104.2531 0.0000 1.6140 0.0000
# 4 0.0000 0.0000 0.0000 30.2246 0.0000 9.7219
# 5 5.0851 13.2367 1.6140 0.0000 40.1300 0.0000
# 6 0.0000 0.0000 0.0000 9.7219 0.0000 38.1732
#
#
#
# Elastic Compliance Matrix: (Units=1/GPa)
#
#
# Indices 1 2 3 4 5 6 
#
# 1 0.010511 -0.004521 -0.002969 0.000000 0.000279 0.000000
# 2 -0.004521 0.009738 -0.001359 0.000000 -0.002584 0.000000
# 3 -0.002969 -0.001359 0.011328 0.000000 0.000369 0.000000
# 4 0.000000 0.000000 0.000000 0.036038 0.000000 -0.009178
# 5 0.000279 -0.002584 0.000369 0.000000 0.025721 0.000000
# 6 0.000000 0.000000 0.000000 -0.009178 0.000000 0.028534
#
#
# Mechanical properties :
#
#
# Convention : Reuss Voigt Hill
#
# Bulk Modulus (GPa) = 72.04746 76.93849 74.49297
# Shear Modulus (GPa) = 34.67573 37.36859 36.02216
#
# Velocity S-wave (km/s) = 4.07193 4.22709 4.15023
# Velocity P-wave (km/s) = 7.52050 7.78546 7.65413
#
# Compressibility (1/GPa) = 0.01387974
#
# Stress axis : x y z
#
# Youngs Moduli (GPa) = 95.13685 102.69552 88.27706
#
# Poissons Ratio (x) = 0.46425 0.26205
# Poissons Ratio (y) = 0.43008 0.11999
# Poissons Ratio (z) = 0.28242 0.13959
#
# Static dielectric constant tensor:
#      x y z
#    x 3.427830 0.000000 -0.577720 
#    y 0.000000 3.787120 0.000000 
#    z -0.577720 0.000000 3.500770 
# 
# 
# High freq. dielectric constant tensor:
#      x y z
#    x 1.836780 0.000000 0.008920 
#    y 0.000000 1.817450 0.000000 
#    z 0.008920 0.000000 1.827050 
# 
# From -- ./inp_files/24400.got.cif
#   From: 2010.06.25/outbox.cif.g09.slc.cpg/sg12_13_cif.got.tgz:24400.got - 2010.06.28 00:19:55.
