data_PCOD8109208
_publ_section_title
;
Structure prediction by ZEFSAII (Michael W. Deem and Ramdas Pophale) SiO2 
 PCOD8109208
Probable space group: C 2/M
;
_chemical_formula_sum "Si O2"
_cell_formula_units_Z 64
_cell_length_a 19.758044
_cell_length_b 31.168346
_cell_length_c 13.198249
_cell_angle_alpha 90.000000
_cell_angle_beta 156.390900
_cell_angle_gamma 90.000000
_cell_volume 3255.147354
_symmetry_space_group_name_H-M "C 2/M"
_symmetry_group_IT_number 12
_symmetry_cell_setting 'monoclinic'
loop_
_space_group_symop_operation_xyz
x,y,z
-x,y,-z
-x,-y,-z
x,-y,z
1/2+x,1/2+y,z
1/2-x,1/2+y,-z
1/2-x,1/2-y,-z
1/2+x,1/2-y,z
loop_
_atom_site_type_symbol
_atom_site_label
_atom_site_fract_x
_atom_site_fract_y
_atom_site_fract_z
Si Si1 0.367888 0.190409 0.618611
Si Si2 0.485933 0.451489 0.204149
Si Si3 0.155169 0.690063 0.649695
Si Si4 0.172681 0.590081 0.694146
Si Si5 0.159287 0.950206 0.646921
Si Si6 0.487379 0.898081 0.101589
Si Si7 0.011547 0.222351 0.134354
Si Si8 0.267172 0.951385 0.437307
O O1 0.373002 0.200316 0.506549
O O2 0.461663 0.145830 0.771492
O O3 0.172152 0.192899 0.390442
O O4 0.469191 0.227953 0.812551
O O5 0.425710 0.500000 0.140642
O O6 0.607579 0.437248 0.461999
O O7 0.577870 0.447573 0.221430
O O8 0.320072 0.422471 0.974001
O O9 0.156418 0.640223 0.671452
O O10 0.000000 0.711107 0.500000
O O11 0.333817 0.707341 0.938125
O O12 0.213353 0.575891 0.636528
O O13 0.000000 0.569149 0.500000
O O14 0.000000 0.943308 0.500000
O O15 0.222471 0.000000 0.738514
O O16 0.302185 0.916174 0.877222
O O17 0.613248 0.935192 0.308862
O O18 0.500000 0.890217 0.000000
O O19 0.000000 0.216383 0.000000
O O20 0.314329 0.000000 0.475828
#
# Coordination Sequence:
#
# PCOD8109208 Si02
#       8
#     8   8   8   8   8   8   8   8
#     4  10  21  39  62  91 118 157 201 245 304 363
#     4  10  22  39  57  82 115 155 202 248 299 354
#     4  10  22  38  59  89 123 158 196 244 304 363
#     4  11  24  39  59  88 121 157 204 251 302 359
#     4  10  23  40  58  82 119 163 202 248 304 362
#     4  12  23  38  62  90 118 155 204 254 303 362
#     4   9  20  39  63  89 122 154 195 247 300 368
#     4  11  23  38  59  87 118 156 200 253 302 353
#
# _framework density 19.661168
#
# number of rings (size 3 to 8) (size 9 to 14) (size 15 to 20)
#    0.000    1.625    2.500    1.500    3.500    4.000 
#    0.000    0.625    0.000    0.000    0.000    0.000 
#    0.000    0.000    0.000    0.000    0.000    0.000 
#
# Total GULP energy -396728.853709 kJ/mol
# GULP energy per Si atom -12397.776678 kJ/mol
# Density = 1.961642 g / cm^3
# Si number density = 19.661168 Si / 1000 Ang^3
#
#
#
# Elastic Constant Matrix: (Units=GPa)
#
#
# Indices 1 2 3 4 5 6 
#
# 1 52.4566 12.5684 94.1043 0.0000 26.9547 0.0007
# 2 12.5684 73.2641 64.9051 0.0000 14.6089 0.0000
# 3 94.1043 64.9051 -181.7176 -0.0006 -32.7905 -0.0001
# 4 0.0000 0.0000 -0.0006 41.5209 -0.0002 -2.4101
# 5 26.9547 14.6089 -32.7905 -0.0002 21.8833 0.0003
# 6 0.0007 0.0000 -0.0001 -2.4101 0.0003 18.4521
#
#
#
# Elastic Compliance Matrix: (Units=1/GPa)
#
#
# Indices 1 2 3 4 5 6 
#
# 1 0.013086 -0.006144 0.005314 0.000000 -0.004055 0.000000
# 2 -0.006144 0.013286 0.001416 0.000000 0.000820 0.000000
# 3 0.005314 0.001416 -0.000704 0.000000 -0.008545 0.000000
# 4 0.000000 0.000000 0.000000 0.024268 0.000000 0.003170
# 5 -0.004055 0.000820 -0.008545 0.000000 0.037340 -0.000001
# 6 0.000000 0.000000 0.000000 0.003170 -0.000001 0.054608
#
#
# Mechanical properties :
#
#
# Convention : Reuss Voigt Hill
#
# Bulk Modulus (GPa) = 37.25913 31.90651 34.58282
# Shear Modulus (GPa) = 33.40901 1.19961 17.30431
#
# Velocity S-wave (km/s) = 4.12665 0.78196 2.96991
# Velocity P-wave (km/s) = 6.45736 4.13264 5.42108
#
# Compressibility (1/GPa) = 0.02683906
#
# Stress axis : x y z
#
# Youngs Moduli (GPa) = 76.41705 75.26912 -1421.12215
#
# Poissons Ratio (x) = 0.46246 7.55171
# Poissons Ratio (y) = 0.46951 2.01177
# Poissons Ratio (z) = -0.40607 -0.10655
#
# Static dielectric constant tensor:
#      x y z
#    x 3.694370 0.000000 0.126600 
#    y 0.000000 3.456110 0.000000 
#    z 0.126600 0.000000 3.965940 
# 
# 
# High freq. dielectric constant tensor:
#      x y z
#    x 1.763300 0.000000 -0.000350 
#    y 0.000000 1.755360 0.000000 
#    z -0.000350 0.000000 1.779900 
# 
# From -- ./inp_files/236004.got.cif
#   From: 2010.06.25/outbox.cif.g09.slc.cpg/sg12_119_cif.got.tgz:236004.got - 2010.06.28 00:19:55.
