data_PCOD8109970
_publ_section_title
;
Structure prediction by ZEFSAII (Michael W. Deem and Ramdas Pophale) SiO2 
 PCOD8109970
Probable space group: C 2/M
;
_chemical_formula_sum "Si O2"
_cell_formula_units_Z 52
_cell_length_a 13.893919
_cell_length_b 18.654800
_cell_length_c 16.048728
_cell_angle_alpha 90.000000
_cell_angle_beta 36.560385
_cell_angle_gamma 90.000000
_cell_volume 2477.772638
_symmetry_space_group_name_H-M "C 2/M"
_symmetry_group_IT_number 12
_symmetry_cell_setting 'monoclinic'
loop_
_space_group_symop_operation_xyz
x,y,z
-x,y,-z
-x,-y,-z
x,-y,z
1/2+x,1/2+y,z
1/2-x,1/2+y,-z
1/2-x,1/2-y,-z
1/2+x,1/2-y,z
loop_
_atom_site_type_symbol
_atom_site_label
_atom_site_fract_x
_atom_site_fract_y
_atom_site_fract_z
Si Si1 0.173423 0.786182 0.866649
Si Si2 0.247794 0.854014 0.113342
Si Si3 0.391311 0.344906 0.407093
Si Si4 0.727040 0.000000 0.810790
Si Si5 0.602372 0.855631 0.160622
Si Si6 0.905423 0.000000 0.441622
Si Si7 0.926026 0.500000 0.249479
Si Si8 0.300248 0.240385 0.337672
O O1 0.138212 0.710489 0.936929
O O2 0.312052 0.835469 0.812149
O O3 0.230979 0.770858 0.732321
O O4 0.000000 0.826285 0.000000
O O5 0.299337 0.929309 0.116329
O O6 0.075998 0.824619 0.263790
O O7 0.258185 0.861539 0.006354
O O8 0.376805 0.430158 0.404708
O O9 0.281086 0.307468 0.413855
O O10 0.333374 0.318703 0.539810
O O11 0.577956 0.000000 0.848533
O O12 0.912725 0.000000 0.646333
O O13 0.476978 0.794453 0.221001
O O14 0.509348 0.931127 0.232927
O O15 0.767471 0.000000 0.606499
#
# Coordination Sequence:
#
# PCOD8109970 Si02
#       8
#     8   8   8   4   8   4   4   8
#     4  12  24  40  67  96 129 177 221 268 325 388
#     4  11  22  40  62  95 135 165 211 262 329 396
#     4  10  22  41  63  94 133 171 207 270 330 384
#     4  10  24  38  63 103 130 172 210 265 347 395
#     4  12  24  43  67  97 130 174 218 274 327 384
#     4  10  21  40  65  92 136 172 206 264 344 399
#     4  12  24  42  65  95 136 168 220 277 325 389
#     4  11  22  41  65  96 131 167 224 272 319 387
#
# _framework density 20.986591000000001
#
# number of rings (size 3 to 8) (size 9 to 14) (size 15 to 20)
#    0.000    0.923    4.615    3.000    0.000    1.231 
#    0.000    1.154    0.000    0.923    0.000    0.000 
#    0.000    0.000    0.000    0.000    0.000    0.000 
#
# Total GULP energy -322275.775865 kJ/mol
# GULP energy per Si atom -12395.222149 kJ/mol
# Density = 2.093882 g / cm^3
# Si number density = 20.986591 Si / 1000 Ang^3
#
#
#
# Elastic Constant Matrix: (Units=GPa)
#
#
# Indices 1 2 3 4 5 6 
#
# 1 125.3724 65.6448 48.3694 0.0000 10.7586 0.0007
# 2 65.6448 133.7468 21.2058 0.0003 7.5999 0.0002
# 3 48.3694 21.2058 119.8128 -0.0047 0.4585 0.0014
# 4 0.0000 0.0003 -0.0047 24.4663 0.0015 1.8428
# 5 10.7586 7.5999 0.4585 0.0015 34.6442 -0.0007
# 6 0.0007 0.0002 0.0014 1.8428 -0.0007 14.5993
#
#
#
# Elastic Compliance Matrix: (Units=1/GPa)
#
#
# Indices 1 2 3 4 5 6 
#
# 1 0.012621 -0.005387 -0.004132 -0.000001 -0.002683 0.000000
# 2 -0.005387 0.010090 0.000391 0.000000 -0.000546 0.000000
# 3 -0.004132 0.000391 0.009941 0.000002 0.001066 -0.000001
# 4 -0.000001 0.000000 0.000002 0.041265 -0.000002 -0.005209
# 5 -0.002683 -0.000546 0.001066 -0.000002 0.029804 0.000002
# 6 0.000000 0.000000 -0.000001 -0.005209 0.000002 0.069154
#
#
# Mechanical properties :
#
#
# Convention : Reuss Voigt Hill
#
# Bulk Modulus (GPa) = 69.45933 72.15247 70.80590
# Shear Modulus (GPa) = 25.51955 30.98944 28.25449
#
# Velocity S-wave (km/s) = 3.49089 3.84686 3.67319
# Velocity P-wave (km/s) = 7.02974 7.36112 7.19734
#
# Compressibility (1/GPa) = 0.01439691
#
# Stress axis : x y z
#
# Youngs Moduli (GPa) = 79.23224 99.10918 100.59372
#
# Poissons Ratio (x) = 0.53391 0.41560
# Poissons Ratio (y) = 0.42683 -0.03934
# Poissons Ratio (z) = 0.32735 -0.03876
#
# Static dielectric constant tensor:
#      x y z
#    x 3.554060 -0.000010 -0.100540 
#    y -0.000010 3.825480 0.000010 
#    z -0.100540 0.000010 3.979610 
# 
# 
# High freq. dielectric constant tensor:
#      x y z
#    x 1.796480 0.000000 -0.012150 
#    y 0.000000 1.819630 0.000000 
#    z -0.012150 0.000000 1.841950 
# 
# From -- ./inp_files/216737.got.cif
#   From: 2010.06.25/outbox.cif.g09.slc.cpg/sg12_109_cif.got.tgz:216737.got - 2010.06.28 00:19:55.
