data_PCOD8109268
_publ_section_title
;
Structure prediction by ZEFSAII (Michael W. Deem and Ramdas Pophale) SiO2 
 PCOD8109268
Probable space group: C 2/M
;
_chemical_formula_sum "Si O2"
_cell_formula_units_Z 44
_cell_length_a 15.894807
_cell_length_b 25.976800
_cell_length_c 5.222689
_cell_angle_alpha 90.000000
_cell_angle_beta 116.854605
_cell_angle_gamma 90.000000
_cell_volume 1923.870053
_symmetry_space_group_name_H-M "C 2/M"
_symmetry_group_IT_number 12
_symmetry_cell_setting 'monoclinic'
loop_
_space_group_symop_operation_xyz
x,y,z
-x,y,-z
-x,-y,-z
x,-y,z
1/2+x,1/2+y,z
1/2-x,1/2+y,-z
1/2-x,1/2-y,-z
1/2+x,1/2-y,z
loop_
_atom_site_type_symbol
_atom_site_label
_atom_site_fract_x
_atom_site_fract_y
_atom_site_fract_z
Si Si1 0.441598 0.057605 0.177284
Si Si2 0.101017 0.786080 0.224687
Si Si3 0.562209 0.500000 0.333470
Si Si4 0.295535 0.141751 0.862525
Si Si5 0.198699 0.704900 0.653552
Si Si6 0.402455 0.610729 0.517050
O O1 0.500000 0.080860 0.500000
O O2 0.409453 0.000000 0.208011
O O3 0.500000 0.057846 0.000000
O O4 0.349207 0.088998 0.980534
O O5 0.132097 0.754873 0.523303
O O6 0.191237 0.777283 0.160570
O O7 0.087058 0.847155 0.245088
O O8 0.000000 0.762843 0.000000
O O9 0.500000 0.500000 0.500000
O O10 0.621644 0.553383 0.407328
O O11 0.500000 0.500000 0.000000
O O12 0.310553 0.165207 0.599608
O O13 0.186255 0.128744 0.774438
O O14 0.335730 0.180494 0.130392
O O15 0.500000 0.610265 0.500000
#
# Coordination Sequence:
#
# PCOD8109268 Si02
#       6
#     8   8   4   8   8   8
#     4  10  22  41  64  89 122 163 210 262 317 378
#     4  10  21  39  63  88 128 171 212 254 321 375
#     4  10  22  40  60  90 126 158 206 256 294 362
#     4  11  23  41  65  92 129 162 209 263 320 369
#     4  10  24  40  60  95 124 162 212 263 304 379
#     4  10  22  39  66  94 129 169 208 257 314 382
#
# _framework density 22.870569
#
# number of rings (size 3 to 8) (size 9 to 14) (size 15 to 20)
#    0.000    1.818    0.000    2.727    1.273   14.545 
#    0.000    0.000    2.000    0.000    0.000    0.000 
#    0.000    0.000    0.000    0.000    0.000    0.000 
#
# Total GULP energy -272586.753854 kJ/mol
# GULP energy per Si atom -12390.306993 kJ/mol
# Density = 2.281851 g / cm^3
# Si number density = 22.870569 Si / 1000 Ang^3
#
#
#
# Elastic Constant Matrix: (Units=GPa)
#
#
# Indices 1 2 3 4 5 6 
#
# 1 61.4841 23.7709 32.2692 0.0000 23.7177 0.0000
# 2 23.7709 127.2361 35.9568 0.0000 18.5552 0.0000
# 3 32.2692 35.9568 117.2230 0.0000 3.3733 0.0000
# 4 0.0000 0.0000 0.0000 40.4311 0.0000 3.3283
# 5 23.7177 18.5552 3.3733 0.0000 39.7474 0.0000
# 6 0.0000 0.0000 0.0000 3.3283 0.0000 48.4199
#
#
#
# Elastic Compliance Matrix: (Units=1/GPa)
#
#
# Indices 1 2 3 4 5 6 
#
# 1 0.025400 -0.000891 -0.006310 0.000000 -0.014205 0.000000
# 2 -0.000891 0.009251 -0.002490 0.000000 -0.003576 0.000000
# 3 -0.006310 -0.002490 0.010916 0.000000 0.004001 0.000000
# 4 0.000000 0.000000 0.000000 0.024874 0.000000 -0.001710
# 5 -0.014205 -0.003576 0.004001 0.000000 0.034965 0.000000
# 6 0.000000 0.000000 0.000000 -0.001710 0.000000 0.020770
#
#
# Mechanical properties :
#
#
# Convention : Reuss Voigt Hill
#
# Bulk Modulus (GPa) = 38.18719 54.43745 46.31232
# Shear Modulus (GPa) = 32.40724 39.98277 36.19500
#
# Velocity S-wave (km/s) = 3.76837 4.18571 3.98251
# Velocity P-wave (km/s) = 5.97223 6.87126 6.43746
#
# Compressibility (1/GPa) = 0.02618679
#
# Stress axis : x y z
#
# Youngs Moduli (GPa) = 39.36960 108.09885 91.60587
#
# Poissons Ratio (x) = 0.09627 0.57806
# Poissons Ratio (y) = 0.03506 0.22806
# Poissons Ratio (z) = 0.24843 0.26912
#
# Static dielectric constant tensor:
#      x y z
#    x 3.731660 0.000000 0.225170 
#    y 0.000000 4.924710 0.000000 
#    z 0.225170 0.000000 4.138530 
# 
# 
# High freq. dielectric constant tensor:
#      x y z
#    x 1.876190 0.000000 0.009710 
#    y 0.000000 1.921680 0.000000 
#    z 0.009710 0.000000 1.908030 
# 
# From -- ./inp_files/16998.got.cif
#   From: 2010.06.25/outbox.cif.g09.slc.cpg/sg12_9_cif.got.tgz:16998.got - 2010.06.28 00:19:55.
