data_PCOD8109525
_publ_section_title
;
Structure prediction by ZEFSAII (Michael W. Deem and Ramdas Pophale) SiO2 
 PCOD8109525
Probable space group: C 2/M
;
_chemical_formula_sum "Si O2"
_cell_formula_units_Z 64
_cell_length_a 25.132762
_cell_length_b 14.225919
_cell_length_c 12.370954
_cell_angle_alpha 90.000000
_cell_angle_beta 42.925232
_cell_angle_gamma 90.000000
_cell_volume 3012.302148
_symmetry_space_group_name_H-M "C 2/M"
_symmetry_group_IT_number 12
_symmetry_cell_setting 'monoclinic'
loop_
_space_group_symop_operation_xyz
x,y,z
-x,y,-z
-x,-y,-z
x,-y,z
1/2+x,1/2+y,z
1/2-x,1/2+y,-z
1/2-x,1/2-y,-z
1/2+x,1/2-y,z
loop_
_atom_site_type_symbol
_atom_site_label
_atom_site_fract_x
_atom_site_fract_y
_atom_site_fract_z
Si Si1 0.137031 0.110933 0.533443
Si Si2 0.090321 0.290065 0.029661
Si Si3 0.312959 0.109675 0.296159
Si Si4 0.581540 0.889849 0.433993
Si Si5 0.592034 0.604090 0.366603
Si Si6 0.990421 0.106330 0.887183
Si Si7 0.934230 0.390862 0.298230
Si Si8 0.160442 0.730574 0.148610
O O1 0.222961 0.141222 0.446057
O O2 0.120864 0.149438 0.436884
O O3 0.070345 0.147624 0.714809
O O4 0.129587 0.000000 0.541168
O O5 0.080257 0.176939 0.036458
O O6 0.124071 0.317426 0.096439
O O7 0.006866 0.338884 0.134700
O O8 0.150424 0.326648 0.851445
O O9 0.356709 0.128170 0.343944
O O10 0.319001 0.000000 0.253461
O O11 0.500000 0.861308 0.500000
O O12 0.581859 0.853177 0.556888
O O13 0.649691 0.838764 0.266252
O O14 0.597601 0.000000 0.404580
O O15 0.500000 0.598739 0.500000
O O16 0.627893 0.500000 0.296696
O O17 0.619471 0.669438 0.228571
O O18 0.971070 0.000000 0.874361
O O19 0.000000 0.104812 0.000000
O O20 0.956530 0.500000 0.268864
O O21 0.250000 0.750000 0.000000
#
# Coordination Sequence:
#
# PCOD8109525 Si02
#       8
#     8   8   8   8   8   8   8   8
#     4   9  19  38  63  90 121 157 202 259 312 359
#     4  12  23  39  61  92 124 162 207 253 304 364
#     4  10  21  39  65  97 127 156 198 255 319 370
#     4  10  21  41  66  90 119 163 209 250 308 373
#     4  10  21  39  65  91 117 160 215 259 299 353
#     4  10  22  41  62  86 120 163 208 249 295 358
#     4  10  21  39  66  95 124 159 204 254 306 377
#     4  12  26  40  59  90 129 162 201 253 313 365
#
# _framework density 21.246207999999999
#
# number of rings (size 3 to 8) (size 9 to 14) (size 15 to 20)
#    0.000    1.625    1.250    3.375    1.750    3.500 
#    2.250    1.250    0.000    0.000    0.000    0.000 
#    0.000    0.000    0.000    0.000    0.000    0.000 
#
# Total GULP energy -396903.467794 kJ/mol
# GULP energy per Si atom -12403.233369 kJ/mol
# Density = 2.119785 g / cm^3
# Si number density = 21.246208 Si / 1000 Ang^3
#
#
#
# Elastic Constant Matrix: (Units=GPa)
#
#
# Indices 1 2 3 4 5 6 
#
# 1 109.0796 15.2646 33.4819 0.0000 6.6907 0.0000
# 2 15.2646 68.3400 40.4623 0.0000 -0.2446 0.0000
# 3 33.4819 40.4623 119.6170 0.0000 3.5155 0.0000
# 4 0.0000 0.0000 0.0000 30.9946 0.0000 6.4008
# 5 6.6907 -0.2446 3.5155 0.0000 37.2421 0.0000
# 6 0.0000 0.0000 0.0000 6.4008 0.0000 20.1801
#
#
#
# Elastic Compliance Matrix: (Units=1/GPa)
#
#
# Indices 1 2 3 4 5 6 
#
# 1 0.010151 -0.000773 -0.002533 0.000000 -0.001590 0.000000
# 2 -0.000773 0.018375 -0.006023 0.000000 0.000828 0.000000
# 3 -0.002533 -0.006023 0.011125 0.000000 -0.000635 0.000000
# 4 0.000000 0.000000 0.000000 0.034525 0.000000 -0.010951
# 5 -0.001590 0.000828 -0.000635 0.000000 0.027202 0.000000
# 6 0.000000 0.000000 0.000000 -0.010951 0.000000 0.053027
#
#
# Mechanical properties :
#
#
# Convention : Reuss Voigt Hill
#
# Bulk Modulus (GPa) = 47.63873 52.82823 50.23348
# Shear Modulus (GPa) = 27.76821 31.53854 29.65338
#
# Velocity S-wave (km/s) = 3.61913 3.85701 3.73996
# Velocity P-wave (km/s) = 6.31942 6.68985 6.50727
#
# Compressibility (1/GPa) = 0.02099132
#
# Stress axis : x y z
#
# Youngs Moduli (GPa) = 98.51397 54.42260 89.88600
#
# Poissons Ratio (x) = 0.04208 0.22768
# Poissons Ratio (y) = 0.07618 0.54142
# Poissons Ratio (z) = 0.24954 0.32781
#
# Static dielectric constant tensor:
#      x y z
#    x 3.898900 0.000000 0.119780 
#    y 0.000000 4.117570 0.000000 
#    z 0.119780 0.000000 3.857160 
# 
# 
# High freq. dielectric constant tensor:
#      x y z
#    x 1.831550 0.000000 0.010640 
#    y 0.000000 1.838720 0.000000 
#    z 0.010640 0.000000 1.829940 
# 
# From -- ./inp_files/183772.got.cif
#   From: 2010.06.25/outbox.cif.g09.slc.cpg/sg12_92_cif.got.tgz:183772.got - 2010.06.28 00:19:55.
