data_PCOD8109795
_publ_section_title
;
Structure prediction by ZEFSAII (Michael W. Deem and Ramdas Pophale) SiO2 
 PCOD8109795
Probable space group: C 2/M
;
_chemical_formula_sum "Si O2"
_cell_formula_units_Z 52
_cell_length_a 8.539956
_cell_length_b 26.227305
_cell_length_c 11.708834
_cell_angle_alpha 90.000000
_cell_angle_beta 85.072762
_cell_angle_gamma 90.000000
_cell_volume 2612.853586
_symmetry_space_group_name_H-M "C 2/M"
_symmetry_group_IT_number 12
_symmetry_cell_setting 'monoclinic'
loop_
_space_group_symop_operation_xyz
x,y,z
-x,y,-z
-x,-y,-z
x,-y,z
1/2+x,1/2+y,z
1/2-x,1/2+y,-z
1/2-x,1/2-y,-z
1/2+x,1/2-y,z
loop_
_atom_site_type_symbol
_atom_site_label
_atom_site_fract_x
_atom_site_fract_y
_atom_site_fract_z
Si Si1 0.518465 0.419100 0.372118
Si Si2 0.572233 0.810067 0.872407
Si Si3 0.044609 0.500000 0.153548
Si Si4 0.214354 0.418561 0.812136
Si Si5 0.866891 0.000000 0.225383
Si Si6 0.690073 0.238480 0.246713
Si Si7 0.818886 0.000000 0.971373
Si Si8 0.050073 0.803951 0.620024
O O1 0.500000 0.443602 0.500000
O O2 0.699510 0.417410 0.317295
O O3 0.422893 0.450092 0.284960
O O4 0.437821 0.364410 0.381176
O O5 0.673161 0.861252 0.850435
O O6 0.423180 0.806015 0.795323
O O7 0.684491 0.760583 0.852070
O O8 0.500000 0.808611 0.000000
O O9 0.180187 0.500000 0.240510
O O10 0.946977 0.449298 0.185150
O O11 0.133915 0.500000 0.024422
O O12 0.330685 0.448100 0.894521
O O13 0.927103 0.000000 0.084164
O O14 0.585145 0.287037 0.285186
O O15 0.780212 0.217033 0.352238
O O16 0.000000 0.782191 0.500000
#
# Coordination Sequence:
#
# PCOD8109795 Si02
#       8
#     8   8   4   8   4   8   4   8
#     4  11  24  41  60  85 124 160 196 244 304 352
#     4  11  22  37  61  89 124 160 194 246 305 359
#     4   9  21  37  61  89 115 143 198 239 291 353
#     4  11  20  39  63  87 118 160 195 241 301 355
#     4  10  23  40  63  90 122 150 198 248 297 356
#     4  10  22  39  60  89 122 157 201 249 298 354
#     4   9  21  38  63  91 117 149 199 247 289 357
#     4  10  21  40  63  87 118 157 207 248 294 348
#
# _framework density 19.901612
#
# number of rings (size 3 to 8) (size 9 to 14) (size 15 to 20)
#    0.462    1.231    1.538    3.923    2.154    1.231 
#    0.000    1.538    0.000    0.000    0.000    0.000 
#    0.000    0.000    0.000    0.000    0.000    0.000 
#
# Total GULP energy -322258.541443 kJ/mol
# GULP energy per Si atom -12394.559286 kJ/mol
# Density = 1.985632 g / cm^3
# Si number density = 19.901612 Si / 1000 Ang^3
#
#
#
# Elastic Constant Matrix: (Units=GPa)
#
#
# Indices 1 2 3 4 5 6 
#
# 1 94.2609 33.0135 52.3345 0.0000 10.1126 0.0000
# 2 33.0135 96.6265 38.4532 0.0000 10.8056 0.0000
# 3 52.3345 38.4532 133.3364 0.0000 0.3725 0.0000
# 4 0.0000 0.0000 0.0000 35.1705 0.0000 -1.4502
# 5 10.1126 10.8056 0.3725 0.0000 38.7663 0.0000
# 6 0.0000 0.0000 0.0000 -1.4502 0.0000 16.2138
#
#
#
# Elastic Compliance Matrix: (Units=1/GPa)
#
#
# Indices 1 2 3 4 5 6 
#
# 1 0.014626 -0.002687 -0.004957 0.000000 -0.003019 0.000000
# 2 -0.002687 0.012602 -0.002572 0.000000 -0.002787 0.000000
# 3 -0.004957 -0.002572 0.010182 0.000000 0.001912 0.000000
# 4 0.000000 0.000000 0.000000 0.028538 0.000000 0.002553
# 5 -0.003019 -0.002787 0.001912 0.000000 0.027342 0.000000
# 6 0.000000 0.000000 0.000000 0.002553 0.000000 0.061904
#
#
# Mechanical properties :
#
#
# Convention : Reuss Voigt Hill
#
# Bulk Modulus (GPa) = 58.89993 63.53623 61.21808
# Shear Modulus (GPa) = 27.58064 31.39163 29.48613
#
# Velocity S-wave (km/s) = 3.72674 3.97588 3.85333
# Velocity P-wave (km/s) = 6.94103 7.28501 7.11510
#
# Compressibility (1/GPa) = 0.01697795
#
# Stress axis : x y z
#
# Youngs Moduli (GPa) = 68.37071 79.35028 98.21176
#
# Poissons Ratio (x) = 0.21319 0.48688
# Poissons Ratio (y) = 0.18369 0.25261
# Poissons Ratio (z) = 0.33895 0.20410
#
# Static dielectric constant tensor:
#      x y z
#    x 3.887480 0.000000 -0.049900 
#    y 0.000000 3.506510 0.000000 
#    z -0.049900 0.000000 3.803750 
# 
# 
# High freq. dielectric constant tensor:
#      x y z
#    x 1.793360 0.000000 -0.010550 
#    y 0.000000 1.771690 0.000000 
#    z -0.010550 0.000000 1.775390 
# 
# From -- ./inp_files/123727.got.cif
#   From: 2010.06.25/outbox.cif.g09.slc.cpg/sg12_62_cif.got.tgz:123727.got - 2010.06.28 00:19:55.
