data_PCOD8109094
_publ_section_title
;
Structure prediction by ZEFSAII (Michael W. Deem and Ramdas Pophale) SiO2 
 PCOD8109094
Probable space group: C 2/M
;
_chemical_formula_sum "Si O2"
_cell_formula_units_Z 56
_cell_length_a 20.172698
_cell_length_b 8.908710
_cell_length_c 17.363726
_cell_angle_alpha 90.000000
_cell_angle_beta 71.645588
_cell_angle_gamma 90.000000
_cell_volume 2961.733632
_symmetry_space_group_name_H-M "C 2/M"
_symmetry_group_IT_number 12
_symmetry_cell_setting 'monoclinic'
loop_
_space_group_symop_operation_xyz
x,y,z
-x,y,-z
-x,-y,-z
x,-y,z
1/2+x,1/2+y,z
1/2-x,1/2+y,-z
1/2-x,1/2-y,-z
1/2+x,1/2-y,z
loop_
_atom_site_type_symbol
_atom_site_label
_atom_site_fract_x
_atom_site_fract_y
_atom_site_fract_z
Si Si1 0.843321 0.827855 0.175085
Si Si2 0.304215 0.677964 0.760081
Si Si3 0.903162 0.674017 0.843063
Si Si4 0.094094 0.822805 0.406914
Si Si5 0.940784 0.325504 0.259998
Si Si6 0.941900 0.822472 0.414977
Si Si7 0.073476 0.828007 0.006948
O O1 0.774190 0.734104 0.215112
O O2 0.904986 0.764828 0.204871
O O3 0.829608 0.000000 0.201951
O O4 0.866058 0.811938 0.078365
O O5 0.304372 0.500000 0.762608
O O6 0.342590 0.736682 0.821909
O O7 0.343398 0.739802 0.668963
O O8 0.883855 0.500000 0.847487
O O9 0.904193 0.724907 0.930762
O O10 0.976854 0.706950 0.775458
O O11 0.104394 0.777575 0.492966
O O12 0.020358 0.763483 0.401791
O O13 0.090755 0.000000 0.403036
O O14 0.922759 0.500000 0.258019
O O15 0.912082 0.265334 0.352169
O O16 0.939274 0.000000 0.399872
O O17 0.065066 0.000000 0.037746
O O18 0.000000 0.769521 0.000000
#
# Coordination Sequence:
#
# PCOD8109094 Si02
#       7
#     8   8   8   8   8   8   8
#     4  11  24  41  61  84 115 152 191 237 290 344
#     4  11  22  39  61  86 119 155 191 232 286 344
#     4  11  23  37  59  88 119 151 190 236 284 340
#     4   8  16  31  56  86 114 148 189 235 282 334
#     4  11  22  36  56  88 120 150 190 236 285 340
#     4   9  16  32  58  86 113 146 193 238 281 331
#     4  10  21  39  62  86 111 146 194 241 287 338
#
# _framework density 18.907845999999999
#
# number of rings (size 3 to 8) (size 9 to 14) (size 15 to 20)
#    0.000    1.857    2.857    2.571    0.000    3.143 
#    0.000    3.571    0.000    0.000    0.000    0.000 
#    0.000    0.000    0.000    0.000    0.000    0.000 
#
# Total GULP energy -347244.130584 kJ/mol
# GULP energy per Si atom -12401.576092 kJ/mol
# Density = 1.886481 g / cm^3
# Si number density = 18.907846 Si / 1000 Ang^3
#
#
#
# Elastic Constant Matrix: (Units=GPa)
#
#
# Indices 1 2 3 4 5 6 
#
# 1 40.0771 24.5994 12.8546 0.0000 -4.8276 0.0000
# 2 24.5994 74.6311 37.6200 0.0000 4.6857 0.0000
# 3 12.8546 37.6200 101.8884 0.0000 4.0761 0.0000
# 4 0.0000 0.0000 0.0000 22.4692 0.0000 -0.6184
# 5 -4.8276 4.6857 4.0761 0.0000 30.3072 0.0000
# 6 0.0000 0.0000 0.0000 -0.6184 0.0000 29.8498
#
#
#
# Elastic Compliance Matrix: (Units=1/GPa)
#
#
# Indices 1 2 3 4 5 6 
#
# 1 0.032671 -0.011043 -0.000323 0.000000 0.006955 0.000000
# 2 -0.011043 0.020287 -0.005934 0.000000 -0.004098 0.000000
# 3 -0.000323 -0.005934 0.012077 0.000000 -0.000758 0.000000
# 4 0.000000 0.000000 0.000000 0.044531 0.000000 0.000923
# 5 0.006955 -0.004098 -0.000758 0.000000 0.034839 0.000000
# 6 0.000000 0.000000 0.000000 0.000923 0.000000 0.033520
#
#
# Mechanical properties :
#
#
# Convention : Reuss Voigt Hill
#
# Bulk Modulus (GPa) = 32.85492 40.74940 36.80216
# Shear Modulus (GPa) = 22.45486 25.96010 24.20748
#
# Velocity S-wave (km/s) = 3.44989 3.70939 3.58199
# Velocity P-wave (km/s) = 5.76915 6.32017 6.05093
#
# Compressibility (1/GPa) = 0.03043684
#
# Stress axis : x y z
#
# Youngs Moduli (GPa) = 30.60782 49.29181 82.80521
#
# Poissons Ratio (x) = 0.54432 0.02673
# Poissons Ratio (y) = 0.33800 0.49133
# Poissons Ratio (z) = 0.00988 0.29247
#
# Static dielectric constant tensor:
#      x y z
#    x 3.261150 0.000000 -0.063570 
#    y 0.000000 3.337910 0.000000 
#    z -0.063570 0.000000 3.735570 
# 
# 
# High freq. dielectric constant tensor:
#      x y z
#    x 1.715960 0.000000 0.005380 
#    y 0.000000 1.726680 0.000000 
#    z 0.005380 0.000000 1.749030 
# 
# From -- ./inp_files/275324.got.cif
#   From: 2010.06.25/outbox.cif.g09.slc.cpg/sg12_138_cif.got.tgz:275324.got - 2010.06.28 00:19:55.
