data_PCOD8109397
_publ_section_title
;
Structure prediction by ZEFSAII (Michael W. Deem and Ramdas Pophale) SiO2 
 PCOD8109397
Probable space group: C 2/M
;
_chemical_formula_sum "Si O2"
_cell_formula_units_Z 64
_cell_length_a 18.412908
_cell_length_b 33.436949
_cell_length_c 11.750823
_cell_angle_alpha 90.000000
_cell_angle_beta 27.017938
_cell_angle_gamma 90.000000
_cell_volume 3286.478715
_symmetry_space_group_name_H-M "C 2/M"
_symmetry_group_IT_number 12
_symmetry_cell_setting 'monoclinic'
loop_
_space_group_symop_operation_xyz
x,y,z
-x,y,-z
-x,-y,-z
x,-y,z
1/2+x,1/2+y,z
1/2-x,1/2+y,-z
1/2-x,1/2-y,-z
1/2+x,1/2-y,z
loop_
_atom_site_type_symbol
_atom_site_label
_atom_site_fract_x
_atom_site_fract_y
_atom_site_fract_z
Si Si1 0.609197 0.730466 0.625165
Si Si2 0.401029 0.607735 0.857159
Si Si3 0.040403 0.301160 0.571636
Si Si4 0.629676 0.873158 0.079134
Si Si5 0.710157 0.348609 0.368717
Si Si6 0.888942 0.587977 0.258470
Si Si7 0.563872 0.453068 0.785104
Si Si8 0.886588 0.172382 0.063345
O O1 0.750000 0.750000 0.500000
O O2 0.507075 0.762738 0.696360
O O3 0.684117 0.697237 0.437352
O O4 0.480643 0.710810 0.887138
O O5 0.547862 0.626281 0.582447
O O6 0.447586 0.566577 0.853807
O O7 0.344695 0.639903 0.028021
O O8 0.257329 0.599872 0.969676
O O9 0.000000 0.288486 0.500000
O O10 0.934568 0.339493 0.747162
O O11 0.223176 0.312038 0.343529
O O12 0.495986 0.903697 0.220282
O O13 0.705457 0.848909 0.869696
O O14 0.817924 0.369757 0.315049
O O15 0.747227 0.559383 0.501167
O O16 0.000000 0.569529 0.000000
O O17 0.550713 0.500000 0.786800
O O18 0.500000 0.440684 0.000000
O O19 0.000000 0.151575 0.000000
#
# Coordination Sequence:
#
# PCOD8109397 Si02
#       8
#     8   8   8   8   8   8   8   8
#     4  11  23  38  58  78 112 156 201 260 301 356
#     4  10  21  39  64  86 118 155 195 242 292 362
#     4  12  26  38  54  85 118 148 200 254 312 349
#     4  11  22  37  61  86 117 153 201 249 295 350
#     4   9  21  40  60  83 112 159 207 245 294 352
#     4   9  20  39  64  92 119 157 201 243 291 357
#     4  10  22  40  66  96 124 156 195 239 294 362
#     4  11  23  40  58  82 110 156 205 242 297 360
#
# _framework density 19.473728999999999
#
# number of rings (size 3 to 8) (size 9 to 14) (size 15 to 20)
#    0.000    1.625    2.500    1.500    7.000    2.750 
#    0.000    0.625    0.000   11.250    0.000    0.000 
#    0.000    0.000    0.000    0.000    0.000    0.000 
#
# Total GULP energy -396798.404610 kJ/mol
# GULP energy per Si atom -12399.950144 kJ/mol
# Density = 1.942941 g / cm^3
# Si number density = 19.473729 Si / 1000 Ang^3
#
#
#
# Elastic Constant Matrix: (Units=GPa)
#
#
# Indices 1 2 3 4 5 6 
#
# 1 132.6009 38.0772 34.6100 0.0022 -24.8478 0.0008
# 2 38.0772 85.2205 36.5976 -0.0003 -7.6168 -0.0003
# 3 34.6100 36.5976 100.1749 -0.0012 -3.2386 -0.0007
# 4 0.0022 -0.0003 -0.0012 7.2556 -0.0010 -8.5266
# 5 -24.8478 -7.6168 -3.2386 -0.0010 32.6938 -0.0002
# 6 0.0008 -0.0003 -0.0007 -8.5266 -0.0002 16.9848
#
#
#
# Elastic Compliance Matrix: (Units=1/GPa)
#
#
# Indices 1 2 3 4 5 6 
#
# 1 0.010281 -0.003022 -0.002225 -0.000008 0.006889 -0.000005
# 2 -0.003022 0.015057 -0.004432 0.000003 0.000772 0.000002
# 3 -0.002225 -0.004432 0.012322 0.000007 -0.001503 0.000004
# 4 -0.000008 0.000003 0.000007 0.336115 0.000007 0.168734
# 5 0.006889 0.000772 -0.001503 0.000007 0.035854 0.000003
# 6 -0.000005 0.000002 0.000004 0.168734 0.000003 0.143583
#
#
# Mechanical properties :
#
#
# Convention : Reuss Voigt Hill
#
# Bulk Modulus (GPa) = 54.64081 59.61844 57.12963
# Shear Modulus (GPa) = 8.64050 25.30094 16.97072
#
# Velocity S-wave (km/s) = 2.10871 3.60840 2.95527
# Velocity P-wave (km/s) = 5.83511 6.93123 6.40666
#
# Compressibility (1/GPa) = 0.01830134
#
# Stress axis : x y z
#
# Youngs Moduli (GPa) = 97.26625 66.41519 81.15705
#
# Poissons Ratio (x) = 0.20073 0.18059
# Poissons Ratio (y) = 0.29397 0.35966
# Poissons Ratio (z) = 0.21643 0.29433
#
# Static dielectric constant tensor:
#      x y z
#    x 3.633570 0.000010 -0.025940 
#    y 0.000010 3.269090 0.000030 
#    z -0.025940 0.000030 3.722390 
# 
# 
# High freq. dielectric constant tensor:
#      x y z
#    x 1.766940 0.000000 0.001000 
#    y 0.000000 1.730470 0.000000 
#    z 0.001000 0.000000 1.772510 
# 
# From -- ./inp_files/161202.got.cif
#   From: 2010.06.25/outbox.cif.g09.slc.cpg/sg12_81_cif.got.tgz:161202.got - 2010.06.28 00:19:55.
