data_PCOD8109394
_publ_section_title
;
Structure prediction by ZEFSAII (Michael W. Deem and Ramdas Pophale) SiO2 
 PCOD8109394
Probable space group: C 2/M
;
_chemical_formula_sum "Si O2"
_cell_formula_units_Z 44
_cell_length_a 9.203855
_cell_length_b 24.479798
_cell_length_c 12.444399
_cell_angle_alpha 90.000000
_cell_angle_beta 53.395335
_cell_angle_gamma 90.000000
_cell_volume 2250.826810
_symmetry_space_group_name_H-M "C 2/M"
_symmetry_group_IT_number 12
_symmetry_cell_setting 'monoclinic'
loop_
_space_group_symop_operation_xyz
x,y,z
-x,y,-z
-x,-y,-z
x,-y,z
1/2+x,1/2+y,z
1/2-x,1/2+y,-z
1/2-x,1/2-y,-z
1/2+x,1/2-y,z
loop_
_atom_site_type_symbol
_atom_site_label
_atom_site_fract_x
_atom_site_fract_y
_atom_site_fract_z
Si Si1 0.123697 0.288028 0.126730
Si Si2 0.901183 0.559905 0.707310
Si Si3 0.012695 0.897786 0.872023
Si Si4 0.180275 0.794956 0.733508
Si Si5 0.000000 0.350633 0.500000
Si Si6 0.881725 0.408241 0.952508
O O1 0.213619 0.299005 0.201151
O O2 0.098803 0.343426 0.071922
O O3 0.923542 0.262118 0.235809
O O4 0.250000 0.250000 0.000000
O O5 0.966023 0.500000 0.638403
O O6 0.685475 0.563309 0.778792
O O7 0.943304 0.562852 0.815513
O O8 0.005703 0.609024 0.601038
O O9 0.030654 0.842706 0.794397
O O10 0.823379 0.926400 0.925608
O O11 0.000000 0.877870 0.000000
O O12 0.326934 0.809799 0.576351
O O13 0.000000 0.428802 0.000000
#
# Coordination Sequence:
#
# PCOD8109394 Si02
#       6
#     8   8   8   8   4   8
#     4  12  20  34  58  87 117 157 188 229 296 348
#     4  10  21  39  64  83 108 155 201 245 294 336
#     4   9  16  34  53  81 118 143 191 241 280 339
#     4  11  21  34  55  84 119 155 194 234 274 345
#     4  10  21  42  58  82 118 152 205 244 268 338
#     4  11  21  34  56  91 124 147 185 243 300 355
#
# _framework density 19.548370999999999
#
# number of rings (size 3 to 8) (size 9 to 14) (size 15 to 20)
#    0.000    1.455    7.273    1.909    0.000    4.364 
#    0.000    0.000    0.000    4.364    0.000    6.364 
#    0.000    0.000    0.000    0.000    0.000    0.000 
#
# Total GULP energy -272650.749111 kJ/mol
# GULP energy per Si atom -12393.215869 kJ/mol
# Density = 1.950388 g / cm^3
# Si number density = 19.548371 Si / 1000 Ang^3
#
#
#
# Elastic Constant Matrix: (Units=GPa)
#
#
# Indices 1 2 3 4 5 6 
#
# 1 102.1170 2.1995 33.7676 0.0000 2.3797 0.0000
# 2 2.1995 76.0615 20.5371 0.0000 -8.8165 0.0000
# 3 33.7676 20.5371 102.3173 0.0000 -14.7205 0.0000
# 4 0.0000 0.0000 0.0000 15.7019 0.0000 -0.4790
# 5 2.3797 -8.8165 -14.7205 0.0000 24.2342 0.0000
# 6 0.0000 0.0000 0.0000 -0.4790 0.0000 12.6135
#
#
#
# Elastic Compliance Matrix: (Units=1/GPa)
#
#
# Indices 1 2 3 4 5 6 
#
# 1 0.011299 0.000427 -0.004330 0.000000 -0.003585 0.000000
# 2 0.000427 0.014224 -0.002474 0.000000 0.003630 0.000000
# 3 -0.004330 -0.002474 0.012745 0.000000 0.007267 0.000000
# 4 0.000000 0.000000 0.000000 0.063760 0.000000 0.002421
# 5 -0.003585 0.003630 0.007267 0.000000 0.047351 0.000000
# 6 0.000000 0.000000 0.000000 0.002421 0.000000 0.079372
#
#
# Mechanical properties :
#
#
# Convention : Reuss Voigt Hill
#
# Bulk Modulus (GPa) = 39.19541 43.72270 41.45905
# Shear Modulus (GPa) = 19.99933 25.44271 22.72102
#
# Velocity S-wave (km/s) = 3.20201 3.61158 3.41295
# Velocity P-wave (km/s) = 5.81073 6.30923 6.06510
#
# Compressibility (1/GPa) = 0.02551319
#
# Stress axis : x y z
#
# Youngs Moduli (GPa) = 88.50347 70.30578 78.46426
#
# Poissons Ratio (x) = -0.03002 0.33978
# Poissons Ratio (y) = -0.03779 0.19409
# Poissons Ratio (z) = 0.38326 0.17391
#
# Static dielectric constant tensor:
#      x y z
#    x 3.577420 0.000000 -0.288180 
#    y 0.000000 3.620490 0.000000 
#    z -0.288180 0.000000 3.906360 
# 
# 
# High freq. dielectric constant tensor:
#      x y z
#    x 1.732510 0.000000 -0.010540 
#    y 0.000000 1.761010 0.000000 
#    z -0.010540 0.000000 1.755770 
# 
# From -- ./inp_files/124055.got.cif
#   From: 2010.06.25/outbox.cif.g09.slc.cpg/sg12_63_cif.got.tgz:124055.got - 2010.06.28 00:19:55.
