data_PCOD8109231
_publ_section_title
;
Structure prediction by ZEFSAII (Michael W. Deem and Ramdas Pophale) SiO2 
 PCOD8109231
Probable space group: C 2/M
;
_chemical_formula_sum "Si O2"
_cell_formula_units_Z 64
_cell_length_a 9.455127
_cell_length_b 28.481269
_cell_length_c 14.427441
_cell_angle_alpha 90.000000
_cell_angle_beta 131.124489
_cell_angle_gamma 90.000000
_cell_volume 2926.670313
_symmetry_space_group_name_H-M "C 2/M"
_symmetry_group_IT_number 12
_symmetry_cell_setting 'monoclinic'
loop_
_space_group_symop_operation_xyz
x,y,z
-x,y,-z
-x,-y,-z
x,-y,z
1/2+x,1/2+y,z
1/2-x,1/2+y,-z
1/2-x,1/2-y,-z
1/2+x,1/2-y,z
loop_
_atom_site_type_symbol
_atom_site_label
_atom_site_fract_x
_atom_site_fract_y
_atom_site_fract_z
Si Si1 0.874711 0.846847 0.854858
Si Si2 0.964506 0.133913 0.253764
Si Si3 0.828377 0.050225 0.856893
Si Si4 0.195090 0.446211 0.131692
Si Si5 0.503970 0.795749 0.329891
Si Si6 0.586639 0.051494 0.289745
Si Si7 0.147004 0.383368 0.488756
Si Si8 0.859080 0.797915 0.360395
O O1 0.831062 0.900883 0.802145
O O2 0.684988 0.818711 0.793415
O O3 0.982670 0.830059 0.808372
O O4 0.000000 0.842865 0.000000
O O5 0.850977 0.089761 0.161154
O O6 0.837563 0.163151 0.271055
O O7 0.145876 0.113489 0.382753
O O8 0.634259 0.051873 0.830499
O O9 0.833646 0.000000 0.802031
O O10 0.000000 0.050366 0.000000
O O11 0.250705 0.500000 0.132002
O O12 0.192287 0.437190 0.240448
O O13 0.000000 0.433100 0.000000
O O14 0.594391 0.829324 0.446319
O O15 0.651842 0.787149 0.310584
O O16 0.455823 0.747811 0.359607
O O17 0.641565 0.088961 0.390272
O O18 0.646371 0.000000 0.352296
O O19 0.000000 0.404664 0.500000
O O20 0.000000 0.817365 0.500000
#
# Coordination Sequence:
#
# PCOD8109231 Si02
#       8
#     8   8   8   8   8   8   8   8
#     4  11  25  44  68  98 138 181 226 284 342 400
#     4  12  26  42  69 106 132 178 230 275 343 407
#     4   9  18  33  61  93 127 173 227 271 322 389
#     4  10  25  45  68  97 138 187 237 283 327 398
#     4  12  24  45  70 101 137 174 225 283 344 408
#     4  10  21  39  62  93 135 181 222 274 341 393
#     4  12  23  41  66  99 141 174 221 285 343 410
#     4  12  26  43  73 103 134 175 223 279 341 416
#
# _framework density 21.867854000000001
#
# number of rings (size 3 to 8) (size 9 to 14) (size 15 to 20)
#    0.000    1.000    3.750    2.250    3.500    1.250 
#    0.000    4.375    0.000    0.000    0.000    0.000 
#    0.000    0.000    0.000    0.000    0.000    0.000 
#
# Total GULP energy -396680.499630 kJ/mol
# GULP energy per Si atom -12396.265613 kJ/mol
# Density = 2.181808 g / cm^3
# Si number density = 21.867854 Si / 1000 Ang^3
#
#
#
# Elastic Constant Matrix: (Units=GPa)
#
#
# Indices 1 2 3 4 5 6 
#
# 1 133.7268 24.9345 38.3200 0.0000 5.1303 0.0000
# 2 24.9345 85.3709 31.9709 0.0000 5.2424 0.0000
# 3 38.3200 31.9709 104.6635 0.0000 10.0383 0.0000
# 4 0.0000 0.0000 0.0000 21.5013 0.0000 -7.4419
# 5 5.1303 5.2424 10.0383 0.0000 34.0839 0.0000
# 6 0.0000 0.0000 0.0000 -7.4419 0.0000 16.1992
#
#
#
# Elastic Compliance Matrix: (Units=1/GPa)
#
#
# Indices 1 2 3 4 5 6 
#
# 1 0.008522 -0.001483 -0.002640 0.000000 -0.000277 0.000000
# 2 -0.001483 0.013510 -0.003505 0.000000 -0.000822 0.000000
# 3 -0.002640 -0.003505 0.011836 0.000000 -0.002549 0.000000
# 4 0.000000 0.000000 0.000000 0.055302 0.000000 0.025406
# 5 -0.000277 -0.000822 -0.002549 0.000000 0.030258 0.000000
# 6 0.000000 0.000000 0.000000 0.025406 0.000000 0.073403
#
#
# Mechanical properties :
#
#
# Convention : Reuss Voigt Hill
#
# Bulk Modulus (GPa) = 53.73168 57.13467 55.43317
# Shear Modulus (GPa) = 23.33266 29.59259 26.46263
#
# Velocity S-wave (km/s) = 3.27002 3.68264 3.48245
# Velocity P-wave (km/s) = 6.23552 6.65330 6.44780
#
# Compressibility (1/GPa) = 0.01861099
#
# Stress axis : x y z
#
# Youngs Moduli (GPa) = 117.34711 74.02018 84.48593
#
# Poissons Ratio (x) = 0.10978 0.22308
# Poissons Ratio (y) = 0.17404 0.29611
# Poissons Ratio (z) = 0.30985 0.25943
#
# Static dielectric constant tensor:
#      x y z
#    x 4.147740 0.000000 0.048010 
#    y 0.000000 4.187450 0.000000 
#    z 0.048010 0.000000 3.797130 
# 
# 
# High freq. dielectric constant tensor:
#      x y z
#    x 1.873340 0.000000 0.006500 
#    y 0.000000 1.859700 0.000000 
#    z 0.006500 0.000000 1.846410 
# 
# From -- ./inp_files/201241.got.cif
#   From: 2010.06.25/outbox.cif.g09.slc.cpg/sg12_101_cif.got.tgz:201241.got - 2010.06.28 00:19:55.
