data_PCOD8109353
_publ_section_title
;
Structure prediction by ZEFSAII (Michael W. Deem and Ramdas Pophale) SiO2 
 PCOD8109353
Probable space group: C 2/M
;
_chemical_formula_sum "Si O2"
_cell_formula_units_Z 64
_cell_length_a 16.449672
_cell_length_b 19.404567
_cell_length_c 13.113180
_cell_angle_alpha 90.000000
_cell_angle_beta 44.182536
_cell_angle_gamma 90.000000
_cell_volume 2917.216733
_symmetry_space_group_name_H-M "C 2/M"
_symmetry_group_IT_number 12
_symmetry_cell_setting 'monoclinic'
loop_
_space_group_symop_operation_xyz
x,y,z
-x,y,-z
-x,-y,-z
x,-y,z
1/2+x,1/2+y,z
1/2-x,1/2+y,-z
1/2-x,1/2-y,-z
1/2+x,1/2-y,z
loop_
_atom_site_type_symbol
_atom_site_label
_atom_site_fract_x
_atom_site_fract_y
_atom_site_fract_z
Si Si1 0.384377 0.577818 0.325830
Si Si2 0.351750 0.237832 0.688811
Si Si3 0.316007 0.188111 0.496434
Si Si4 0.946482 0.120223 0.647661
Si Si5 0.107733 0.773139 0.966817
Si Si6 0.605701 0.574801 0.002311
Si Si7 0.729638 0.924574 0.952129
Si Si8 0.938070 0.316399 0.810944
O O1 0.344656 0.500000 0.387341
O O2 0.269410 0.623397 0.412616
O O3 0.462420 0.608860 0.344884
O O4 0.466616 0.578125 0.151731
O O5 0.368169 0.207776 0.560598
O O6 0.442761 0.298122 0.629922
O O7 0.374545 0.181864 0.758173
O O8 0.220410 0.266096 0.821852
O O9 0.250000 0.250000 0.500000
O O10 0.425042 0.167912 0.326490
O O11 0.814767 0.093373 0.781568
O O12 0.000000 0.082999 0.500000
O O13 0.131048 0.854336 0.919923
O O14 0.084454 0.756374 0.108035
O O15 0.000000 0.744010 0.000000
O O16 0.629717 0.500000 0.924745
O O17 0.683432 0.576468 0.031794
O O18 0.675281 0.000000 0.984043
O O19 0.620139 0.874139 0.064689
#
# Coordination Sequence:
#
# PCOD8109353 Si02
#       8
#     8   8   8   8   8   8   8   8
#     4  10  22  41  64  92 134 176 219 276 340 399
#     4  12  23  40  65 100 130 172 225 278 330 401
#     4  12  25  43  65  97 135 175 224 283 341 411
#     4  11  21  38  68 100 133 171 228 287 336 394
#     4  12  23  37  63  96 133 170 210 269 339 391
#     4   9  18  36  60  88 123 164 209 261 320 388
#     4  10  21  39  63  92 126 170 219 273 330 388
#     4  12  23  42  65  90 131 173 226 273 324 398
#
# _framework density 21.938721000000001
#
# number of rings (size 3 to 8) (size 9 to 14) (size 15 to 20)
#    0.000    1.000    2.500    7.875    0.000    1.750 
#    0.000    1.250    0.000    1.875    0.000    0.000 
#    0.000    0.000    0.000    0.000    0.000    0.000 
#
# Total GULP energy -396568.246702 kJ/mol
# GULP energy per Si atom -12392.757709 kJ/mol
# Density = 2.188879 g / cm^3
# Si number density = 21.938721 Si / 1000 Ang^3
#
#
#
# Elastic Constant Matrix: (Units=GPa)
#
#
# Indices 1 2 3 4 5 6 
#
# 1 60.5756 33.7354 12.3634 0.0000 -0.3590 -0.0001
# 2 33.7354 126.3955 27.0618 0.0000 -6.3760 0.0000
# 3 12.3634 27.0618 113.1416 0.0000 -15.5416 0.0000
# 4 0.0000 0.0000 0.0000 22.4580 0.0000 -10.2443
# 5 -0.3590 -6.3760 -15.5416 0.0000 34.8774 0.0001
# 6 -0.0001 0.0000 0.0000 -10.2443 0.0001 19.9522
#
#
#
# Elastic Compliance Matrix: (Units=1/GPa)
#
#
# Indices 1 2 3 4 5 6 
#
# 1 0.019531 -0.005039 -0.001095 0.000000 -0.001208 0.000000
# 2 -0.005039 0.009654 -0.001622 0.000000 0.000990 0.000000
# 3 -0.001095 -0.001622 0.009911 0.000000 0.004108 0.000000
# 4 0.000000 0.000000 0.000000 0.058146 0.000000 0.029855
# 5 -0.001208 0.000990 0.004108 0.000000 0.030671 0.000000
# 6 0.000000 0.000000 0.000000 0.029855 0.000000 0.065448
#
#
# Mechanical properties :
#
#
# Convention : Reuss Voigt Hill
#
# Bulk Modulus (GPa) = 42.40477 49.60376 46.00426
# Shear Modulus (GPa) = 23.06963 30.58766 26.82864
#
# Velocity S-wave (km/s) = 3.24628 3.73799 3.50078
# Velocity P-wave (km/s) = 5.78116 6.42568 6.11192
#
# Compressibility (1/GPa) = 0.02358226
#
# Stress axis : x y z
#
# Youngs Moduli (GPa) = 51.20034 103.58371 100.90297
#
# Poissons Ratio (x) = 0.52201 0.11047
# Poissons Ratio (y) = 0.25802 0.16371
# Poissons Ratio (z) = 0.05606 0.16806
#
# Static dielectric constant tensor:
#      x y z
#    x 3.863880 0.000000 -0.013370 
#    y 0.000000 4.098720 0.000000 
#    z -0.013370 0.000000 4.166830 
# 
# 
# High freq. dielectric constant tensor:
#      x y z
#    x 1.857980 0.000000 -0.002330 
#    y 0.000000 1.852310 0.000000 
#    z -0.002330 0.000000 1.867630 
# 
# From -- ./inp_files/226833.got.cif
#   From: 2010.06.25/outbox.cif.g09.slc.cpg/sg12_114_cif.got.tgz:226833.got - 2010.06.28 00:19:55.
