data_PCOD8109961
_publ_section_title
;
Structure prediction by ZEFSAII (Michael W. Deem and Ramdas Pophale) SiO2 
 PCOD8109961
Probable space group: C 2/M
;
_chemical_formula_sum "Si O2"
_cell_formula_units_Z 48
_cell_length_a 13.871651
_cell_length_b 20.664604
_cell_length_c 11.579789
_cell_angle_alpha 90.000000
_cell_angle_beta 142.866465
_cell_angle_gamma 90.000000
_cell_volume 2003.820739
_symmetry_space_group_name_H-M "C 2/M"
_symmetry_group_IT_number 12
_symmetry_cell_setting 'monoclinic'
loop_
_space_group_symop_operation_xyz
x,y,z
-x,y,-z
-x,-y,-z
x,-y,z
1/2+x,1/2+y,z
1/2-x,1/2+y,-z
1/2-x,1/2-y,-z
1/2+x,1/2-y,z
loop_
_atom_site_type_symbol
_atom_site_label
_atom_site_fract_x
_atom_site_fract_y
_atom_site_fract_z
Si Si1 0.209110 0.877517 0.557933
Si Si2 0.757241 0.121360 0.777738
Si Si3 0.469027 0.870190 0.245035
Si Si4 0.885565 0.260507 0.488793
Si Si5 0.330599 0.926868 0.899285
Si Si6 0.518255 0.572155 0.180336
O O1 0.367968 0.904138 0.643631
O O2 0.210653 0.799385 0.547964
O O3 0.202779 0.899507 0.685302
O O4 0.055239 0.907539 0.347328
O O5 0.594842 0.101235 0.692406
O O6 0.735171 0.188848 0.688028
O O7 0.817027 0.070871 0.737942
O O8 0.896050 0.124228 0.008525
O O9 0.507670 0.794844 0.308973
O O10 0.334321 0.881552 0.017422
O O11 0.000000 0.230730 0.500000
O O12 0.285997 0.000000 0.893180
O O13 0.500000 0.923809 0.000000
O O14 0.444611 0.500000 0.109165
#
# Coordination Sequence:
#
# PCOD8109961 Si02
#       6
#     8   8   8   8   8   8
#     4  11  22  40  67  93 129 165 209 261 318 370
#     4  10  22  42  63  90 127 164 212 257 315 372
#     4  10  21  40  65  92 122 165 213 263 306 373
#     4  10  22  41  65  97 128 162 211 261 318 379
#     4   9  20  38  59  89 124 162 208 254 307 368
#     4  11  24  42  65  93 130 169 209 257 318 378
#
# _framework density 23.954239000000001
#
# number of rings (size 3 to 8) (size 9 to 14) (size 15 to 20)
#    0.000    1.833    1.667    2.000    0.000    4.667 
#    6.000    4.167    0.000    3.000    0.000    0.000 
#    0.000    0.000    0.000    0.000    0.000    0.000 
#
# Total GULP energy -297315.241538 kJ/mol
# GULP energy per Si atom -12388.135064 kJ/mol
# Density = 2.389972 g / cm^3
# Si number density = 23.954239 Si / 1000 Ang^3
#
#
#
# Elastic Constant Matrix: (Units=GPa)
#
#
# Indices 1 2 3 4 5 6 
#
# 1 68.8542 26.0240 18.9452 0.0000 -17.8160 0.0000
# 2 26.0240 123.9823 77.0038 0.0000 -15.2807 0.0000
# 3 18.9452 77.0038 172.7193 0.0000 -50.3610 0.0000
# 4 0.0000 0.0000 0.0000 32.8368 0.0000 -4.9174
# 5 -17.8160 -15.2807 -50.3610 0.0000 35.7497 0.0000
# 6 0.0000 0.0000 0.0000 -4.9174 0.0000 12.8181
#
#
#
# Elastic Compliance Matrix: (Units=1/GPa)
#
#
# Indices 1 2 3 4 5 6 
#
# 1 0.018459 -0.004606 0.003627 0.000000 0.012340 0.000000
# 2 -0.004606 0.012616 -0.007155 0.000000 -0.006983 0.000000
# 3 0.003627 -0.007155 0.013945 0.000000 0.018394 0.000000
# 4 0.000000 0.000000 0.000000 0.032310 0.000000 0.012395
# 5 0.012340 -0.006983 0.018394 0.000000 0.057049 0.000000
# 6 0.000000 0.000000 0.000000 0.012395 0.000000 0.082770
#
#
# Mechanical properties :
#
#
# Convention : Reuss Voigt Hill
#
# Bulk Modulus (GPa) = 34.78177 67.72243 51.25210
# Shear Modulus (GPa) = 20.57591 32.51977 26.54784
#
# Velocity S-wave (km/s) = 2.93399 3.68853 3.33269
# Velocity P-wave (km/s) = 5.10190 6.81713 6.02091
#
# Compressibility (1/GPa) = 0.02875070
#
# Stress axis : x y z
#
# Youngs Moduli (GPa) = 54.17298 79.26402 71.70885
#
# Poissons Ratio (x) = 0.36512 -0.26008
# Poissons Ratio (y) = 0.24954 0.51311
# Poissons Ratio (z) = -0.19648 0.56717
#
# Static dielectric constant tensor:
#      x y z
#    x 4.568350 0.000000 -0.271600 
#    y 0.000000 3.868340 0.000000 
#    z -0.271600 0.000000 4.567070 
# 
# 
# High freq. dielectric constant tensor:
#      x y z
#    x 1.968070 0.000000 -0.017510 
#    y 0.000000 1.906030 0.000000 
#    z -0.017510 0.000000 1.951000 
# 
# From -- ./inp_files/148013.got.cif
#   From: 2010.06.25/outbox.cif.g09.slc.cpg/sg12_75_cif.got.tgz:148013.got - 2010.06.28 00:19:55.
