data_PCOD8109612
_publ_section_title
;
Structure prediction by ZEFSAII (Michael W. Deem and Ramdas Pophale) SiO2 
 PCOD8109612
Probable space group: C 2/M
;
_chemical_formula_sum "Si O2"
_cell_formula_units_Z 64
_cell_length_a 19.355015
_cell_length_b 8.523350
_cell_length_c 29.698073
_cell_angle_alpha 90.000000
_cell_angle_beta 141.858097
_cell_angle_gamma 90.000000
_cell_volume 3025.849270
_symmetry_space_group_name_H-M "C 2/M"
_symmetry_group_IT_number 12
_symmetry_cell_setting 'monoclinic'
loop_
_space_group_symop_operation_xyz
x,y,z
-x,y,-z
-x,-y,-z
x,-y,z
1/2+x,1/2+y,z
1/2-x,1/2+y,-z
1/2-x,1/2-y,-z
1/2+x,1/2-y,z
loop_
_atom_site_type_symbol
_atom_site_label
_atom_site_fract_x
_atom_site_fract_y
_atom_site_fract_z
Si Si1 0.955112 0.318324 0.377632
Si Si2 0.810961 0.817505 0.487819
Si Si3 0.195150 0.684531 0.107678
Si Si4 0.342395 0.185844 0.013521
Si Si5 0.155808 0.821620 0.336073
Si Si6 0.569955 0.680100 0.730575
Si Si7 0.918562 0.815956 0.868586
Si Si8 0.273506 0.181784 0.717727
O O1 0.932616 0.500000 0.375587
O O2 0.858130 0.217703 0.351348
O O3 0.071595 0.268531 0.459732
O O4 0.958787 0.289055 0.326211
O O5 0.750000 0.750000 0.500000
O O6 0.735738 0.792350 0.405337
O O7 0.832979 0.000000 0.507082
O O8 0.174562 0.500000 0.101000
O O9 0.186821 0.740955 0.051988
O O10 0.316555 0.735577 0.187658
O O11 0.099990 0.769923 0.088647
O O12 0.348006 0.000000 0.020421
O O13 0.250000 0.250000 0.000000
O O14 0.461786 0.258134 0.087968
O O15 0.027138 0.797425 0.282878
O O16 0.162788 0.781148 0.287290
O O17 0.193719 0.000000 0.364414
O O18 0.578895 0.500000 0.718531
O O19 0.820920 0.730510 0.790584
O O20 0.908337 0.000000 0.856307
O O21 0.294322 0.000000 0.719533
#
# Coordination Sequence:
#
# PCOD8109612 Si02
#       8
#     8   8   8   8   8   8   8   8
#     4  12  24  41  67  98 130 169 220 272 326 391
#     4  12  24  41  65  95 131 174 221 271 328 388
#     4  10  22  42  68  97 131 173 218 266 325 387
#     4  11  25  44  67  99 136 175 217 267 326 387
#     4  11  24  42  66  98 134 171 217 272 333 394
#     4  10  21  39  66  96 130 170 214 267 328 388
#     4  12  25  43  68  97 131 173 221 270 322 386
#     4  12  26  45  67  96 134 173 217 270 332 393
#
# _framework density 21.151085999999999
#
# number of rings (size 3 to 8) (size 9 to 14) (size 15 to 20)
#    0.000    0.750    2.500    5.625    1.750    3.500 
#    0.000    2.500    0.000    0.000    0.000    0.000 
#    0.000    0.000    0.000    0.000    0.000    0.000 
#
# Total GULP energy -397084.120035 kJ/mol
# GULP energy per Si atom -12408.878751 kJ/mol
# Density = 2.110295 g / cm^3
# Si number density = 21.151086 Si / 1000 Ang^3
#
#
#
# Elastic Constant Matrix: (Units=GPa)
#
#
# Indices 1 2 3 4 5 6 
#
# 1 124.5418 29.8562 23.5419 0.0000 10.6840 0.0000
# 2 29.8562 82.4183 21.7325 0.0000 7.5318 0.0003
# 3 23.5419 21.7325 80.0804 0.0000 13.6064 0.0000
# 4 0.0000 0.0000 0.0000 30.3075 0.0000 1.1905
# 5 10.6840 7.5318 13.6064 0.0000 38.3311 0.0000
# 6 0.0000 0.0003 0.0000 1.1905 0.0000 37.4657
#
#
#
# Elastic Compliance Matrix: (Units=1/GPa)
#
#
# Indices 1 2 3 4 5 6 
#
# 1 0.009126 -0.002728 -0.001704 0.000000 -0.001403 0.000000
# 2 -0.002728 0.013954 -0.002818 0.000000 -0.000981 0.000000
# 3 -0.001704 -0.002818 0.014450 0.000000 -0.004101 0.000000
# 4 0.000000 0.000000 0.000000 0.033036 0.000000 -0.001050
# 5 -0.001403 -0.000981 -0.004101 0.000000 0.028128 0.000000
# 6 0.000000 0.000000 0.000000 -0.001050 0.000000 0.026724
#
#
# Mechanical properties :
#
#
# Convention : Reuss Voigt Hill
#
# Bulk Modulus (GPa) = 43.42359 48.58909 46.00634
# Shear Modulus (GPa) = 33.87614 35.34818 34.61216
#
# Velocity S-wave (km/s) = 4.00637 4.09249 4.04966
# Velocity P-wave (km/s) = 6.47890 6.73451 6.60794
#
# Compressibility (1/GPa) = 0.02302896
#
# Stress axis : x y z
#
# Youngs Moduli (GPa) = 109.57766 71.66218 69.20445
#
# Poissons Ratio (x) = 0.19552 0.11793
# Poissons Ratio (y) = 0.29897 0.19503
# Poissons Ratio (z) = 0.18673 0.20196
#
# Static dielectric constant tensor:
#      x y z
#    x 3.798600 0.000000 0.090150 
#    y 0.000000 3.812500 0.000000 
#    z 0.090150 0.000000 3.913670 
# 
# 
# High freq. dielectric constant tensor:
#      x y z
#    x 1.837500 0.000000 0.009060 
#    y 0.000000 1.832550 0.000000 
#    z 0.009060 0.000000 1.835000 
# 
# From -- ./inp_files/378311.got.cif
#   From: 2010.06.25/outbox.cif.g09.slc.cpg/sg12_190_cif.got.tgz:378311.got - 2010.06.28 00:19:55.
