data_PCOD8109016
_publ_section_title
;
Structure prediction by ZEFSAII (Michael W. Deem and Ramdas Pophale) SiO2 
 PCOD8109016
Probable space group: C 2/M
;
_chemical_formula_sum "Si O2"
_cell_formula_units_Z 64
_cell_length_a 15.367124
_cell_length_b 8.716650
_cell_length_c 33.007371
_cell_angle_alpha 90.000000
_cell_angle_beta 133.492381
_cell_angle_gamma 90.000000
_cell_volume 3207.525678
_symmetry_space_group_name_H-M "C 2/M"
_symmetry_group_IT_number 12
_symmetry_cell_setting 'monoclinic'
loop_
_space_group_symop_operation_xyz
x,y,z
-x,y,-z
-x,-y,-z
x,-y,z
1/2+x,1/2+y,z
1/2-x,1/2+y,-z
1/2-x,1/2-y,-z
1/2+x,1/2-y,z
loop_
_atom_site_type_symbol
_atom_site_label
_atom_site_fract_x
_atom_site_fract_y
_atom_site_fract_z
Si Si1 0.841893 0.319532 0.060825
Si Si2 0.564598 0.677932 0.641455
Si Si3 0.198330 0.681628 0.862149
Si Si4 0.905089 0.822536 0.870328
Si Si5 0.601092 0.318734 0.562095
Si Si6 0.647670 0.675859 0.370826
Si Si7 0.287719 0.676956 0.747171
Si Si8 0.535643 0.180190 0.257921
O O1 0.825747 0.500000 0.055538
O O2 0.812130 0.250868 0.095817
O O3 0.976692 0.279432 0.091453
O O4 0.750000 0.250000 0.000000
O O5 0.602891 0.500000 0.656467
O O6 0.577863 0.742375 0.600075
O O7 0.427156 0.699129 0.611721
O O8 0.648694 0.778407 0.697877
O O9 0.185272 0.500000 0.859425
O O10 0.325216 0.729288 0.883241
O O11 0.089275 0.744874 0.799935
O O12 0.825877 0.792357 0.805344
O O13 0.942821 0.000000 0.885822
O O14 0.500000 0.248432 0.500000
O O15 0.592393 0.500000 0.559234
O O16 0.731247 0.272462 0.587600
O O17 0.683111 0.500000 0.375249
O O18 0.562530 0.729348 0.307272
O O19 0.308445 0.500000 0.741810
O O20 0.361101 0.788486 0.741507
O O21 0.531053 0.000000 0.265957
#
# Coordination Sequence:
#
# PCOD8109016 Si02
#       8
#     8   8   8   8   8   8   8   8
#     4  11  23  41  61  84 114 152 197 241 288 338
#     4  10  22  39  59  85 121 158 191 238 294 349
#     4   9  20  38  61  85 115 155 193 229 282 351
#     4  10  21  39  61  87 117 151 191 236 285 341
#     4  10  22  41  62  83 112 157 204 242 288 347
#     4  11  23  38  58  89 121 152 194 243 296 343
#     4  11  21  34  59  92 122 151 191 239 289 349
#     4  11  20  36  61  87 119 158 194 232 290 354
#
# _framework density 19.953074999999998
#
# number of rings (size 3 to 8) (size 9 to 14) (size 15 to 20)
#    0.000    1.625    2.500    2.250    0.000    3.750 
#    0.000    5.000    0.000    0.000    0.000    0.000 
#    0.000    0.000    0.000    0.000    0.000    0.000 
#
# Total GULP energy -396904.452903 kJ/mol
# GULP energy per Si atom -12403.264153 kJ/mol
# Density = 1.990766 g / cm^3
# Si number density = 19.953075 Si / 1000 Ang^3
#
#
#
# Elastic Constant Matrix: (Units=GPa)
#
#
# Indices 1 2 3 4 5 6 
#
# 1 128.5142 13.2722 51.6881 0.0000 7.1911 0.0000
# 2 13.2722 20.7617 21.1580 0.0000 1.3772 0.0000
# 3 51.6881 21.1580 137.0784 0.0000 15.5782 0.0000
# 4 0.0000 0.0000 0.0000 25.3648 0.0000 4.6883
# 5 7.1911 1.3772 15.5782 0.0000 16.4511 0.0000
# 6 0.0000 0.0000 0.0000 4.6883 0.0000 30.5897
#
#
#
# Elastic Compliance Matrix: (Units=1/GPa)
#
#
# Indices 1 2 3 4 5 6 
#
# 1 0.009325 -0.002883 -0.002953 0.000000 -0.001038 0.000000
# 2 -0.002883 0.058283 -0.008402 0.000000 0.004337 0.000000
# 3 -0.002953 -0.008402 0.010622 0.000000 -0.008064 0.000000
# 4 0.000000 0.000000 0.000000 0.040574 0.000000 -0.006219
# 5 -0.001038 0.004337 -0.008064 0.000000 0.068513 0.000000
# 6 0.000000 0.000000 0.000000 -0.006219 0.000000 0.033644
#
#
# Mechanical properties :
#
#
# Convention : Reuss Voigt Hill
#
# Bulk Modulus (GPa) = 20.09874 50.95454 35.52664
# Shear Modulus (GPa) = 18.79554 27.83020 23.31287
#
# Velocity S-wave (km/s) = 3.07251 3.73873 3.42187
# Velocity P-wave (km/s) = 4.76256 6.65057 5.78412
#
# Compressibility (1/GPa) = 0.04975436
#
# Stress axis : x y z
#
# Youngs Moduli (GPa) = 107.24097 17.15768 94.14508
#
# Poissons Ratio (x) = 0.04946 0.27803
# Poissons Ratio (y) = 0.30913 0.79099
# Poissons Ratio (z) = 0.31670 0.14416
#
# Static dielectric constant tensor:
#      x y z
#    x 4.461310 0.000000 -0.085020 
#    y 0.000000 3.512430 0.000000 
#    z -0.085020 0.000000 3.765500 
# 
# 
# High freq. dielectric constant tensor:
#      x y z
#    x 1.790910 0.000000 -0.000130 
#    y 0.000000 1.763080 0.000000 
#    z -0.000130 0.000000 1.777510 
# 
# From -- ./inp_files/375658.got.cif
#   From: 2010.06.25/outbox.cif.g09.slc.cpg/sg12_188_cif.got.tgz:375658.got - 2010.06.28 00:19:55.
