data_PCOD8109586
_publ_section_title
;
Structure prediction by ZEFSAII (Michael W. Deem and Ramdas Pophale) SiO2 
 PCOD8109586
Probable space group: C 2/M
;
_chemical_formula_sum "Si O2"
_cell_formula_units_Z 56
_cell_length_a 14.166678
_cell_length_b 13.350152
_cell_length_c 20.982669
_cell_angle_alpha 90.000000
_cell_angle_beta 39.250543
_cell_angle_gamma 90.000000
_cell_volume 2510.854186
_symmetry_space_group_name_H-M "C 2/M"
_symmetry_group_IT_number 12
_symmetry_cell_setting 'monoclinic'
loop_
_space_group_symop_operation_xyz
x,y,z
-x,y,-z
-x,-y,-z
x,-y,z
1/2+x,1/2+y,z
1/2-x,1/2+y,-z
1/2-x,1/2-y,-z
1/2+x,1/2-y,z
loop_
_atom_site_type_symbol
_atom_site_label
_atom_site_fract_x
_atom_site_fract_y
_atom_site_fract_z
Si Si1 0.782708 0.885612 0.438692
Si Si2 0.170725 0.384817 0.899351
Si Si3 0.468718 0.392455 0.943612
Si Si4 0.142935 0.716566 0.394917
Si Si5 0.663639 0.202303 0.132095
Si Si6 0.890725 0.711444 0.192279
Si Si7 0.018041 0.302333 0.649593
O O1 0.693759 0.869206 0.418280
O O2 0.927913 0.813661 0.369138
O O3 0.668818 0.865875 0.557349
O O4 0.839232 0.000000 0.411587
O O5 0.199675 0.500000 0.902349
O O6 0.285372 0.316935 0.879628
O O7 0.187209 0.367127 0.814894
O O8 0.000000 0.350082 0.000000
O O9 0.481249 0.500000 0.901554
O O10 0.298717 0.357507 0.031443
O O11 0.500000 0.406637 0.000000
O O12 0.594756 0.320259 0.848496
O O13 0.285769 0.787503 0.310024
O O14 0.000000 0.774316 0.500000
O O15 0.095702 0.679473 0.349429
O O16 0.556083 0.187724 0.128176
O O17 0.576543 0.159777 0.239781
#
# Coordination Sequence:
#
# PCOD8109586 Si02
#       7
#     8   8   8   8   8   8   8
#     4  10  22  41  65  96 124 164 221 266 315 381
#     4  11  24  43  67  94 125 168 218 262 312 380
#     4  11  23  40  63  93 129 168 212 259 321 387
#     4  10  21  39  66  91 125 166 212 262 319 370
#     4  12  22  41  67  92 130 171 209 261 324 381
#     4  12  22  42  65  93 132 170 208 266 324 379
#     4  10  21  39  66  89 129 167 205 268 325 369
#
# _framework density 22.303166999999998
#
# number of rings (size 3 to 8) (size 9 to 14) (size 15 to 20)
#    0.000    1.143    5.714    0.429    0.000    5.429 
#    0.000    1.429    0.000   11.143    0.000    0.000 
#    0.000    0.000    0.000    0.000    0.000    0.000 
#
# Total GULP energy -346866.686248 kJ/mol
# GULP energy per Si atom -12388.095937 kJ/mol
# Density = 2.225240 g / cm^3
# Si number density = 22.303167 Si / 1000 Ang^3
#
#
#
# Elastic Constant Matrix: (Units=GPa)
#
#
# Indices 1 2 3 4 5 6 
#
# 1 71.3143 17.3394 -16.6910 0.0000 -5.8168 0.0000
# 2 17.3394 71.3148 1.2181 0.0000 1.3109 0.0000
# 3 -16.6910 1.2181 95.7859 -0.0001 -4.2563 0.0001
# 4 0.0000 0.0000 -0.0001 13.7658 0.0001 -1.0937
# 5 -5.8168 1.3109 -4.2563 0.0001 34.8379 -0.0001
# 6 0.0000 0.0000 0.0001 -1.0937 -0.0001 19.7446
#
#
#
# Elastic Compliance Matrix: (Units=1/GPa)
#
#
# Indices 1 2 3 4 5 6 
#
# 1 0.015946 -0.003986 0.002970 0.000000 0.003175 0.000000
# 2 -0.003986 0.015032 -0.000946 0.000000 -0.001347 0.000000
# 3 0.002970 -0.000946 0.011053 0.000000 0.001882 0.000000
# 4 0.000000 0.000000 0.000000 0.072965 0.000000 0.004042
# 5 0.003175 -0.001347 0.001882 0.000000 0.029515 0.000000
# 6 0.000000 0.000000 0.000000 0.004042 0.000000 0.050871
#
#
# Mechanical properties :
#
#
# Convention : Reuss Voigt Hill
#
# Bulk Modulus (GPa) = 26.24066 26.90531 26.57298
# Shear Modulus (GPa) = 23.58401 29.43955 26.51178
#
# Velocity S-wave (km/s) = 3.25534 3.63708 3.45149
# Velocity P-wave (km/s) = 5.09123 5.45229 5.27485
#
# Compressibility (1/GPa) = 0.03810880
#
# Stress axis : x y z
#
# Youngs Moduli (GPa) = 62.71225 66.52289 90.47146
#
# Poissons Ratio (x) = 0.26517 -0.26874
# Poissons Ratio (y) = 0.24998 0.08555
# Poissons Ratio (z) = -0.18628 0.06290
#
# Static dielectric constant tensor:
#      x y z
#    x 4.121820 0.000000 0.144490 
#    y 0.000000 4.132430 0.000000 
#    z 0.144490 0.000000 4.390520 
# 
# 
# High freq. dielectric constant tensor:
#      x y z
#    x 1.890440 0.000000 -0.004820 
#    y 0.000000 1.826230 0.000000 
#    z -0.004820 0.000000 1.899100 
# 
# From -- ./inp_files/310759.got.cif
#   From: 2010.06.25/outbox.cif.g09.slc.cpg/sg12_156_cif.got.tgz:310759.got - 2010.06.28 00:19:55.
