data_PCOD8109736
_publ_section_title
;
Structure prediction by ZEFSAII (Michael W. Deem and Ramdas Pophale) SiO2 
 PCOD8109736
Probable space group: C 2/M
;
_chemical_formula_sum "Si O2"
_cell_formula_units_Z 48
_cell_length_a 15.770455
_cell_length_b 8.859747
_cell_length_c 28.753923
_cell_angle_alpha 90.000000
_cell_angle_beta 144.324415
_cell_angle_gamma 90.000000
_cell_volume 2343.022851
_symmetry_space_group_name_H-M "C 2/M"
_symmetry_group_IT_number 12
_symmetry_cell_setting 'monoclinic'
loop_
_space_group_symop_operation_xyz
x,y,z
-x,y,-z
-x,-y,-z
x,-y,z
1/2+x,1/2+y,z
1/2-x,1/2+y,-z
1/2-x,1/2-y,-z
1/2+x,1/2-y,z
loop_
_atom_site_type_symbol
_atom_site_label
_atom_site_fract_x
_atom_site_fract_y
_atom_site_fract_z
Si Si1 0.376816 0.321922 0.190453
Si Si2 0.882258 0.821459 0.086064
Si Si3 0.836852 0.322609 0.497202
Si Si4 0.683492 0.326674 0.175023
Si Si5 0.166648 0.672505 0.664557
Si Si6 0.669970 0.177102 0.340364
O O1 0.395939 0.500000 0.202580
O O2 0.375141 0.266777 0.136331
O O3 0.228117 0.271081 0.149803
O O4 0.509079 0.242006 0.276506
O O5 0.031373 0.766825 0.128262
O O6 0.869885 0.000000 0.078582
O O7 0.750000 0.750000 0.000000
O O8 0.810614 0.500000 0.485353
O O9 0.750000 0.250000 0.500000
O O10 0.785325 0.253721 0.425927
O O11 0.004447 0.281430 0.579027
O O12 0.668655 0.500000 0.152759
O O13 0.808866 0.307470 0.269664
O O14 0.201867 0.500000 0.665472
O O15 0.278303 0.783035 0.688449
O O16 0.666781 0.000000 0.347969
#
# Coordination Sequence:
#
# PCOD8109736 Si02
#       6
#     8   8   8   8   8   8
#     4  11  23  42  66  94 127 166 211 261 315 374
#     4  10  23  43  67  93 129 166 203 257 317 380
#     4  11  23  38  59  87 122 165 211 262 315 368
#     4  10  21  41  66  94 128 166 209 259 316 375
#     4  10  21  40  62  85 121 164 209 259 315 368
#     4  12  24  38  60  89 123 165 212 261 311 372
#
# _framework density 20.486356000000001
#
# number of rings (size 3 to 8) (size 9 to 14) (size 15 to 20)
#    0.000    1.333    1.667    4.000    0.000    8.000 
#    0.000    3.333    0.000    0.000    0.000    0.000 
#    0.000    0.000    0.000    0.000    0.000    0.000 
#
# Total GULP energy -297719.606792 kJ/mol
# GULP energy per Si atom -12404.983616 kJ/mol
# Density = 2.043973 g / cm^3
# Si number density = 20.486356 Si / 1000 Ang^3
#
#
#
# Elastic Constant Matrix: (Units=GPa)
#
#
# Indices 1 2 3 4 5 6 
#
# 1 151.1910 47.8475 50.4036 0.0000 7.4839 0.0000
# 2 47.8475 73.8803 38.1761 0.0000 7.7213 0.0000
# 3 50.4036 38.1761 125.4311 0.0000 12.0823 0.0000
# 4 0.0000 0.0000 0.0000 33.7905 0.0000 -0.5043
# 5 7.4839 7.7213 12.0823 0.0000 21.6310 0.0000
# 6 0.0000 0.0000 0.0000 -0.5043 0.0000 41.0512
#
#
#
# Elastic Compliance Matrix: (Units=1/GPa)
#
#
# Indices 1 2 3 4 5 6 
#
# 1 0.008776 -0.004567 -0.002115 0.000000 -0.000225 0.000000
# 2 -0.004567 0.018647 -0.003542 0.000000 -0.003098 0.000000
# 3 -0.002115 -0.003542 0.010260 0.000000 -0.003735 0.000000
# 4 0.000000 0.000000 0.000000 0.029600 0.000000 0.000364
# 5 -0.000225 -0.003098 -0.003735 0.000000 0.049500 0.000000
# 6 0.000000 0.000000 0.000000 0.000364 0.000000 0.024364
#
#
# Mechanical properties :
#
#
# Convention : Reuss Voigt Hill
#
# Bulk Modulus (GPa) = 58.01976 69.26187 63.64081
# Shear Modulus (GPa) = 29.87948 33.56621 31.72285
#
# Velocity S-wave (km/s) = 3.82318 4.05219 3.93935
# Velocity P-wave (km/s) = 6.91893 7.46832 7.19887
#
# Compressibility (1/GPa) = 0.01723551
#
# Stress axis : x y z
#
# Youngs Moduli (GPa) = 113.95152 53.62752 97.46557
#
# Poissons Ratio (x) = 0.24493 0.20611
# Poissons Ratio (y) = 0.52044 0.34520
# Poissons Ratio (z) = 0.24098 0.18993
#
# Static dielectric constant tensor:
#      x y z
#    x 3.762720 0.000000 -0.099090 
#    y 0.000000 3.618920 0.000000 
#    z -0.099090 0.000000 3.407170 
# 
# 
# High freq. dielectric constant tensor:
#      x y z
#    x 1.814160 0.000000 0.001640 
#    y 0.000000 1.794280 0.000000 
#    z 0.001640 0.000000 1.802220 
# 
# From -- ./inp_files/360210.got.cif
#   From: 2010.06.25/outbox.cif.g09.slc.cpg/sg12_181_cif.got.tgz:360210.got - 2010.06.28 00:19:55.
