data_PCOD8109772
_publ_section_title
;
Structure prediction by ZEFSAII (Michael W. Deem and Ramdas Pophale) SiO2 
 PCOD8109772
Probable space group: C 2/M
;
_chemical_formula_sum "Si O2"
_cell_formula_units_Z 24
_cell_length_a 17.881277
_cell_length_b 7.812991
_cell_length_c 17.948969
_cell_angle_alpha 90.000000
_cell_angle_beta 31.049592
_cell_angle_gamma 90.000000
_cell_volume 1293.360788
_symmetry_space_group_name_H-M "C 2/M"
_symmetry_group_IT_number 12
_symmetry_cell_setting 'monoclinic'
loop_
_space_group_symop_operation_xyz
x,y,z
-x,y,-z
-x,-y,-z
x,-y,z
1/2+x,1/2+y,z
1/2-x,1/2+y,-z
1/2-x,1/2-y,-z
1/2+x,1/2-y,z
loop_
_atom_site_type_symbol
_atom_site_label
_atom_site_fract_x
_atom_site_fract_y
_atom_site_fract_z
Si Si1 0.872136 0.193777 0.952451
Si Si2 0.143644 0.500000 0.921835
Si Si3 0.168855 0.686951 0.642609
Si Si4 0.665658 0.500000 0.380371
O O1 0.856093 0.325098 0.032926
O O2 0.843452 0.000000 0.004559
O O3 0.750000 0.250000 0.000000
O O4 0.033264 0.193769 0.778771
O O5 0.273899 0.500000 0.753966
O O6 0.000000 0.500000 0.000000
O O7 0.101911 0.500000 0.682247
O O8 0.250000 0.750000 0.500000
O O9 0.282867 0.667402 0.615117
O O10 0.500000 0.500000 0.500000
#
# Coordination Sequence:
#
# PCOD8109772 Si02
#       4
#     8   4   8   4
#     4  12  24  41  69  98 131 178 223 272 333 395
#     4  12  22  48  64  98 142 164 226 280 327 398
#     4  10  21  40  62  94 132 170 220 264 322 396
#     4  10  24  42  66  94 136 176 206 285 335 374
#
# _framework density 18.556308999999999
#
# number of rings (size 3 to 8) (size 9 to 14) (size 15 to 20)
#    1.000    0.000    6.667    1.000    4.667    0.667 
#    0.000    0.000    0.000    5.000    0.000    0.000 
#    0.000    0.000    0.000    0.000    0.000    0.000 
#
# Total GULP energy -148662.845516 kJ/mol
# GULP energy per Si atom -12388.570460 kJ/mol
# Density = 1.851407 g / cm^3
# Si number density = 18.556309 Si / 1000 Ang^3
#
#
#
# Elastic Constant Matrix: (Units=GPa)
#
#
# Indices 1 2 3 4 5 6 
#
# 1 152.0342 61.9913 79.3232 0.0000 -8.9651 0.0000
# 2 61.9913 150.9033 39.1752 -0.0001 9.9660 0.0001
# 3 79.3232 39.1752 154.9268 -0.0001 5.8922 0.0001
# 4 0.0000 -0.0001 -0.0001 31.2865 0.0000 8.1301
# 5 -8.9651 9.9660 5.8922 0.0000 46.9510 0.0000
# 6 0.0000 0.0001 0.0001 8.1301 0.0000 39.7864
#
#
#
# Elastic Compliance Matrix: (Units=1/GPa)
#
#
# Indices 1 2 3 4 5 6 
#
# 1 0.010593 -0.003350 -0.004703 0.000000 0.003324 0.000000
# 2 -0.003350 0.008230 -0.000276 0.000000 -0.002352 0.000000
# 3 -0.004703 -0.000276 0.009007 0.000000 -0.001970 0.000000
# 4 0.000000 0.000000 0.000000 0.033755 0.000000 -0.006898
# 5 0.003324 -0.002352 -0.001970 0.000000 0.022680 0.000000
# 6 0.000000 0.000000 0.000000 -0.006898 0.000000 0.026544
#
#
# Mechanical properties :
#
#
# Convention : Reuss Voigt Hill
#
# Bulk Modulus (GPa) = 89.51311 90.98265 90.24788
# Shear Modulus (GPa) = 38.11177 42.09643 40.10410
#
# Velocity S-wave (km/s) = 4.53685 4.76813 4.65393
# Velocity P-wave (km/s) = 8.70560 8.91349 8.81016
#
# Compressibility (1/GPa) = 0.01117155
#
# Stress axis : x y z
#
# Youngs Moduli (GPa) = 94.39822 121.50450 111.01933
#
# Poissons Ratio (x) = 0.40709 0.52214
# Poissons Ratio (y) = 0.31627 0.03067
# Poissons Ratio (z) = 0.44397 0.03356
#
# Static dielectric constant tensor:
#      x y z
#    x 3.487820 0.000000 0.016130 
#    y 0.000000 3.386200 0.000000 
#    z 0.016130 0.000000 2.965570 
# 
# 
# High freq. dielectric constant tensor:
#      x y z
#    x 1.724170 0.000000 -0.001580 
#    y 0.000000 1.715910 0.000000 
#    z -0.001580 0.000000 1.730730 
# 
# From -- ./inp_files/273482.got.cif
#   From: 2010.06.25/outbox.cif.g09.slc.cpg/sg12_137_cif.got.tgz:273482.got - 2010.06.28 00:19:55.
