data_PCOD8109526
_publ_section_title
;
Structure prediction by ZEFSAII (Michael W. Deem and Ramdas Pophale) SiO2 
 PCOD8109526
Probable space group: C 2/M
;
_chemical_formula_sum "Si O2"
_cell_formula_units_Z 48
_cell_length_a 21.535755
_cell_length_b 12.815281
_cell_length_c 11.968490
_cell_angle_alpha 90.000000
_cell_angle_beta 134.625131
_cell_angle_gamma 90.000000
_cell_volume 2350.907525
_symmetry_space_group_name_H-M "C 2/M"
_symmetry_group_IT_number 12
_symmetry_cell_setting 'monoclinic'
loop_
_space_group_symop_operation_xyz
x,y,z
-x,y,-z
-x,-y,-z
x,-y,z
1/2+x,1/2+y,z
1/2-x,1/2+y,-z
1/2-x,1/2-y,-z
1/2+x,1/2-y,z
loop_
_atom_site_type_symbol
_atom_site_label
_atom_site_fract_x
_atom_site_fract_y
_atom_site_fract_z
Si Si1 0.440956 0.883914 0.101412
Si Si2 0.340432 0.787426 0.157714
Si Si3 0.893057 0.266897 0.622726
Si Si4 0.597118 0.705534 0.119587
Si Si5 0.986669 0.117611 0.352637
Si Si6 0.222441 0.621496 0.694580
O O1 0.371885 0.878846 0.115142
O O2 0.533507 0.854959 0.271938
O O3 0.443309 0.000000 0.055916
O O4 0.414333 0.811415 0.964445
O O5 0.403302 0.688267 0.222484
O O6 0.333250 0.831433 0.273523
O O7 0.250000 0.750000 0.000000
O O8 0.865809 0.228724 0.710865
O O9 0.810251 0.317782 0.456779
O O10 0.928515 0.166992 0.599035
O O11 0.672622 0.636034 0.157069
O O12 0.500000 0.650749 0.000000
O O13 0.000000 0.113478 0.500000
O O14 0.972183 0.000000 0.287629
O O15 0.201455 0.500000 0.657611
#
# Coordination Sequence:
#
# PCOD8109526 Si02
#       6
#     8   8   8   8   8   8
#     4  10  21  39  65  91 120 163 203 244 302 360
#     4  11  22  41  59  92 130 155 201 254 300 360
#     4  10  22  41  63  92 127 155 203 254 300 361
#     4  10  23  43  61  87 125 162 204 255 296 363
#     4  10  21  40  67  91 122 161 199 249 307 361
#     4  12  24  40  63  91 123 162 202 253 314 362
#
# _framework density 20.417648
#
# number of rings (size 3 to 8) (size 9 to 14) (size 15 to 20)
#    0.000    1.500    3.333    1.500    0.000    6.000 
#    0.000    3.333    0.000    0.000    0.000    0.000 
#    0.000    0.000    0.000    0.000    0.000    0.000 
#
# Total GULP energy -297553.327844 kJ/mol
# GULP energy per Si atom -12398.055327 kJ/mol
# Density = 2.037118 g / cm^3
# Si number density = 20.417648 Si / 1000 Ang^3
#
#
#
# Elastic Constant Matrix: (Units=GPa)
#
#
# Indices 1 2 3 4 5 6 
#
# 1 97.4885 29.9306 25.3111 0.0000 0.4165 0.0000
# 2 29.9306 124.2331 30.1244 0.0000 6.6677 0.0000
# 3 25.3111 30.1244 81.5444 0.0000 -3.4186 0.0000
# 4 0.0000 0.0000 0.0000 14.3723 0.0000 0.4483
# 5 0.4165 6.6677 -3.4186 0.0000 40.3184 0.0000
# 6 0.0000 0.0000 0.0000 0.4483 0.0000 8.5607
#
#
#
# Elastic Compliance Matrix: (Units=1/GPa)
#
#
# Indices 1 2 3 4 5 6 
#
# 1 0.011643 -0.002118 -0.002832 0.000000 -0.000010 0.000000
# 2 -0.002118 0.009351 -0.002871 0.000000 -0.001768 0.000000
# 3 -0.002832 -0.002871 0.014275 0.000000 0.001714 0.000000
# 4 0.000000 0.000000 0.000000 0.069692 0.000000 -0.003649
# 5 -0.000010 -0.001768 0.001714 0.000000 0.025240 0.000000
# 6 0.000000 0.000000 0.000000 -0.003649 0.000000 0.117005
#
#
# Mechanical properties :
#
#
# Convention : Reuss Voigt Hill
#
# Bulk Modulus (GPa) = 50.95098 52.66649 51.80874
# Shear Modulus (GPa) = 18.56045 27.17693 22.86869
#
# Velocity S-wave (km/s) = 3.01830 3.65231 3.35034
# Velocity P-wave (km/s) = 6.09552 6.60579 6.35578
#
# Compressibility (1/GPa) = 0.01962671
#
# Stress axis : x y z
#
# Youngs Moduli (GPa) = 85.88731 106.94383 70.05329
#
# Poissons Ratio (x) = 0.22649 0.19839
# Poissons Ratio (y) = 0.18190 0.20113
# Poissons Ratio (z) = 0.24324 0.30705
#
# Static dielectric constant tensor:
#      x y z
#    x 4.552160 0.000000 -0.001140 
#    y 0.000000 3.612420 0.000000 
#    z -0.001140 0.000000 3.623680 
# 
# 
# High freq. dielectric constant tensor:
#      x y z
#    x 1.814040 0.000000 -0.006910 
#    y 0.000000 1.783540 0.000000 
#    z -0.006910 0.000000 1.800860 
# 
# From -- ./inp_files/165197.got.cif
#   From: 2010.06.25/outbox.cif.g09.slc.cpg/sg12_83_cif.got.tgz:165197.got - 2010.06.28 00:19:55.
