data_PCOD8109236
_publ_section_title
;
Structure prediction by ZEFSAII (Michael W. Deem and Ramdas Pophale) SiO2 
 PCOD8109236
Probable space group: C 2/M
;
_chemical_formula_sum "Si O2"
_cell_formula_units_Z 56
_cell_length_a 7.825106
_cell_length_b 22.776478
_cell_length_c 13.030160
_cell_angle_alpha 90.000000
_cell_angle_beta 71.842662
_cell_angle_gamma 90.000000
_cell_volume 2206.701351
_symmetry_space_group_name_H-M "C 2/M"
_symmetry_group_IT_number 12
_symmetry_cell_setting 'monoclinic'
loop_
_space_group_symop_operation_xyz
x,y,z
-x,y,-z
-x,-y,-z
x,-y,z
1/2+x,1/2+y,z
1/2-x,1/2+y,-z
1/2-x,1/2-y,-z
1/2+x,1/2-y,z
loop_
_atom_site_type_symbol
_atom_site_label
_atom_site_fract_x
_atom_site_fract_y
_atom_site_fract_z
Si Si1 0.079112 0.832554 0.155378
Si Si2 0.792977 0.932164 0.572467
Si Si3 0.840517 0.311386 0.453625
Si Si4 0.863399 0.644802 0.941867
Si Si5 0.565345 0.435302 0.699004
Si Si6 0.913043 0.565885 0.742724
Si Si7 0.386309 0.225341 0.217757
O O1 0.195646 0.796586 0.215721
O O2 0.053498 0.897031 0.203542
O O3 0.891724 0.796191 0.197735
O O4 0.170031 0.838989 0.026882
O O5 0.783616 0.870653 0.509076
O O6 0.010023 0.930624 0.405348
O O7 0.621890 0.921242 0.679547
O O8 0.767249 0.000000 0.528921
O O9 0.750000 0.250000 0.500000
O O10 0.917832 0.300451 0.325240
O O11 0.000000 0.323643 0.500000
O O12 0.835026 0.601647 0.852663
O O13 0.952762 0.704437 0.885815
O O14 0.000000 0.616134 0.000000
O O15 0.522104 0.500000 0.746712
O O16 0.780461 0.422182 0.668529
O O17 0.892849 0.500000 0.783249
#
# Coordination Sequence:
#
# PCOD8109236 Si02
#       7
#     8   8   8   8   8   8   8
#     4  11  23  39  66  94 136 187 227 283 349 410
#     4  10  21  46  75 102 140 185 233 298 359 421
#     4  12  26  45  72 106 139 183 237 292 367 427
#     4  10  21  39  62  97 141 184 236 278 347 420
#     4  10  22  41  68 101 140 186 235 285 350 416
#     4  10  21  39  70 103 138 188 236 285 354 417
#     4  11  23  43  62  95 136 180 229 288 348 415
#
# _framework density 25.377244999999998
#
# number of rings (size 3 to 8) (size 9 to 14) (size 15 to 20)
#    0.000    1.429    2.857    2.143    2.000    2.857 
#    0.000    1.429    0.000    1.286    0.000    0.000 
#    0.000    0.000    0.000    0.000    0.000    0.000 
#
# Total GULP energy -346893.565923 kJ/mol
# GULP energy per Si atom -12389.055926 kJ/mol
# Density = 2.531949 g / cm^3
# Si number density = 25.377245 Si / 1000 Ang^3
#
#
#
# Elastic Constant Matrix: (Units=GPa)
#
#
# Indices 1 2 3 4 5 6 
#
# 1 142.3912 57.7054 28.2624 0.0000 2.7689 0.0000
# 2 57.7054 196.7762 51.4957 0.0000 -2.9860 0.0000
# 3 28.2624 51.4957 99.8136 0.0000 1.9754 0.0000
# 4 0.0000 0.0000 0.0000 39.2099 0.0000 -1.4326
# 5 2.7689 -2.9860 1.9754 0.0000 29.3331 0.0000
# 6 0.0000 0.0000 0.0000 -1.4326 0.0000 40.7995
#
#
#
# Elastic Compliance Matrix: (Units=1/GPa)
#
#
# Indices 1 2 3 4 5 6 
#
# 1 0.008123 -0.002079 -0.001210 0.000000 -0.000897 0.000000
# 2 -0.002079 0.006426 -0.002747 0.000000 0.001035 0.000000
# 3 -0.001210 -0.002747 0.011798 0.000000 -0.000960 0.000000
# 4 0.000000 0.000000 0.000000 0.025537 0.000000 0.000897
# 5 -0.000897 0.001035 -0.000960 0.000000 0.034346 0.000000
# 6 0.000000 0.000000 0.000000 0.000897 0.000000 0.024542
#
#
# Mechanical properties :
#
#
# Convention : Reuss Voigt Hill
#
# Bulk Modulus (GPa) = 70.05333 79.32312 74.68823
# Shear Modulus (GPa) = 39.18462 41.96968 40.57715
#
# Velocity S-wave (km/s) = 3.93375 4.07114 4.00304
# Velocity P-wave (km/s) = 6.94962 7.30920 7.13168
#
# Compressibility (1/GPa) = 0.01427484
#
# Stress axis : x y z
#
# Youngs Moduli (GPa) = 123.10654 155.61075 84.76364
#
# Poissons Ratio (x) = 0.32354 0.10253
# Poissons Ratio (y) = 0.25596 0.23286
# Poissons Ratio (z) = 0.14891 0.42750
#
# Static dielectric constant tensor:
#      x y z
#    x 4.895520 0.000000 0.174310 
#    y 0.000000 5.059890 0.000000 
#    z 0.174310 0.000000 4.540190 
# 
# 
# High freq. dielectric constant tensor:
#      x y z
#    x 2.024420 0.000000 -0.003910 
#    y 0.000000 2.037860 0.000000 
#    z -0.003910 0.000000 2.009010 
# 
# From -- ./inp_files/198807.got.cif
#   From: 2010.06.25/outbox.cif.g09.slc.cpg/sg12_100_cif.got.tgz:198807.got - 2010.06.28 00:19:55.
