data_PCOD8109791
_publ_section_title
;
Structure prediction by ZEFSAII (Michael W. Deem and Ramdas Pophale) SiO2 
 PCOD8109791
Probable space group: C 2/M
;
_chemical_formula_sum "Si O2"
_cell_formula_units_Z 56
_cell_length_a 12.218710
_cell_length_b 28.787365
_cell_length_c 9.153725
_cell_angle_alpha 90.000000
_cell_angle_beta 53.171376
_cell_angle_gamma 90.000000
_cell_volume 2577.208650
_symmetry_space_group_name_H-M "C 2/M"
_symmetry_group_IT_number 12
_symmetry_cell_setting 'monoclinic'
loop_
_space_group_symop_operation_xyz
x,y,z
-x,y,-z
-x,-y,-z
x,-y,z
1/2+x,1/2+y,z
1/2-x,1/2+y,-z
1/2-x,1/2-y,-z
1/2+x,1/2-y,z
loop_
_atom_site_type_symbol
_atom_site_label
_atom_site_fract_x
_atom_site_fract_y
_atom_site_fract_z
Si Si1 0.731658 0.198577 0.577111
Si Si2 0.832997 0.809315 0.813117
Si Si3 0.762873 0.101487 0.439595
Si Si4 0.052124 0.445990 0.802420
Si Si5 0.545695 0.770890 0.119323
Si Si6 0.051054 0.104253 0.115593
Si Si7 0.799150 0.446883 0.797053
O O1 0.750000 0.250000 0.500000
O O2 0.825901 0.190987 0.643940
O O3 0.769204 0.157907 0.433632
O O4 0.570693 0.192573 0.740576
O O5 0.944539 0.771171 0.773229
O O6 0.878986 0.858486 0.836247
O O7 0.687061 0.798441 0.001859
O O8 0.687375 0.082253 0.644698
O O9 0.682903 0.084911 0.359893
O O10 0.919451 0.083019 0.305716
O O11 0.092417 0.500000 0.781180
O O12 0.931332 0.436941 0.786657
O O13 0.000000 0.427070 0.000000
O O14 0.500000 0.749380 0.000000
O O15 0.161608 0.063984 0.998086
O O16 0.000000 0.125205 0.000000
O O17 0.792675 0.500000 0.750804
#
# Coordination Sequence:
#
# PCOD8109791 Si02
#       7
#     8   8   8   8   8   8   8
#     4  11  25  41  57  92 134 174 226 277 328 385
#     4  10  21  40  63  86 127 169 216 277 335 384
#     4  11  24  40  67  97 132 178 222 271 327 402
#     4  10  23  44  70 102 136 169 215 280 340 403
#     4   9  20  38  63  87 116 170 222 272 326 389
#     4  10  23  40  64  98 128 170 217 272 327 404
#     4  10  23  45  71  99 132 172 219 277 339 403
#
# _framework density 21.728936000000001
#
# number of rings (size 3 to 8) (size 9 to 14) (size 15 to 20)
#    0.000    1.857    0.000    2.143    4.000   12.857 
#    2.571    0.000    0.000    2.571    0.000    0.000 
#    0.000    0.000    0.000    0.000    0.000    0.000 
#
# Total GULP energy -347235.567848 kJ/mol
# GULP energy per Si atom -12401.270280 kJ/mol
# Density = 2.167948 g / cm^3
# Si number density = 21.728936 Si / 1000 Ang^3
#
#
#
# Elastic Constant Matrix: (Units=GPa)
#
#
# Indices 1 2 3 4 5 6 
#
# 1 103.8959 43.4891 40.8098 0.0000 8.0731 0.0000
# 2 43.4891 94.3637 49.7080 0.0000 13.7472 0.0000
# 3 40.8098 49.7080 129.4890 0.0000 -2.7202 0.0000
# 4 0.0000 0.0000 0.0000 35.5527 0.0000 7.0544
# 5 8.0731 13.7472 -2.7202 0.0000 36.6805 0.0000
# 6 0.0000 0.0000 0.0000 7.0544 0.0000 32.4323
#
#
#
# Elastic Compliance Matrix: (Units=1/GPa)
#
#
# Indices 1 2 3 4 5 6 
#
# 1 0.012439 -0.004346 -0.002279 0.000000 -0.001278 0.000000
# 2 -0.004346 0.015947 -0.004865 0.000000 -0.005381 0.000000
# 3 -0.002279 -0.004865 0.010373 0.000000 0.003094 0.000000
# 4 0.000000 0.000000 0.000000 0.029396 0.000000 -0.006394
# 5 -0.001278 -0.005381 0.003094 0.000000 0.029790 0.000000
# 6 0.000000 0.000000 0.000000 -0.006394 0.000000 0.032224
#
#
# Mechanical properties :
#
#
# Convention : Reuss Voigt Hill
#
# Bulk Modulus (GPa) = 63.37360 66.19583 64.78472
# Shear Modulus (GPa) = 31.56410 33.84921 32.70666
#
# Velocity S-wave (km/s) = 3.81547 3.95117 3.88392
# Velocity P-wave (km/s) = 6.97419 7.16563 7.07055
#
# Compressibility (1/GPa) = 0.01577944
#
# Stress axis : x y z
#
# Youngs Moduli (GPa) = 80.39546 62.70822 96.40076
#
# Poissons Ratio (x) = 0.27253 0.21966
# Poissons Ratio (y) = 0.34940 0.46899
# Poissons Ratio (z) = 0.18319 0.30508
#
# Static dielectric constant tensor:
#      x y z
#    x 4.087460 0.000000 -0.185180 
#    y 0.000000 3.711500 0.000000 
#    z -0.185180 0.000000 4.127480 
# 
# 
# High freq. dielectric constant tensor:
#      x y z
#    x 1.864490 0.000000 -0.011840 
#    y 0.000000 1.837110 0.000000 
#    z -0.011840 0.000000 1.861640 
# 
# From -- ./inp_files/54602.got.cif
#   From: 2010.06.25/outbox.cif.g09.slc.cpg/sg12_28_cif.got.tgz:54602.got - 2010.06.28 00:19:55.
