data_PCOD8109509
_publ_section_title
;
Structure prediction by ZEFSAII (Michael W. Deem and Ramdas Pophale) SiO2 
 PCOD8109509
Probable space group: C 2/M
;
_chemical_formula_sum "Si O2"
_cell_formula_units_Z 40
_cell_length_a 9.601967
_cell_length_b 14.634664
_cell_length_c 26.740454
_cell_angle_alpha 90.000000
_cell_angle_beta 150.601363
_cell_angle_gamma 90.000000
_cell_volume 1844.547139
_symmetry_space_group_name_H-M "C 2/M"
_symmetry_group_IT_number 12
_symmetry_cell_setting 'monoclinic'
loop_
_space_group_symop_operation_xyz
x,y,z
-x,y,-z
-x,-y,-z
x,-y,z
1/2+x,1/2+y,z
1/2-x,1/2+y,-z
1/2-x,1/2-y,-z
1/2+x,1/2-y,z
loop_
_atom_site_type_symbol
_atom_site_label
_atom_site_fract_x
_atom_site_fract_y
_atom_site_fract_z
Si Si1 0.585108 0.108453 0.223765
Si Si2 0.297911 0.263910 0.072461
Si Si3 0.181212 0.392280 0.752541
Si Si4 0.289154 0.598458 0.572976
Si Si5 0.252751 0.664262 0.462305
O O1 0.390665 0.167310 0.126055
O O2 0.500074 0.128628 0.254384
O O3 0.911403 0.143710 0.317014
O O4 0.552653 0.000000 0.201880
O O5 0.514032 0.345860 0.149251
O O6 0.250000 0.250000 0.000000
O O7 0.000000 0.297836 0.000000
O O8 0.220431 0.500000 0.757131
O O9 0.036663 0.347598 0.658649
O O10 0.275892 0.500000 0.595379
O O11 0.292604 0.581819 0.513968
O O12 0.000000 0.653542 0.500000
O O13 0.500000 0.666227 0.500000
O O14 0.250000 0.750000 0.500000
#
# Coordination Sequence:
#
# PCOD8109509 Si02
#       5
#     8   8   8   8   8
#     4  10  22  44  73 103 136 183 234 283 347 427
#     4  12  26  46  71 100 136 177 231 299 363 414
#     4  11  25  44  71 103 138 184 239 288 343 416
#     4  10  21  39  64  97 137 174 217 273 334 406
#     4  12  24  39  65 100 140 184 227 272 340 414
#
# _framework density 21.68554
#
# number of rings (size 3 to 8) (size 9 to 14) (size 15 to 20)
#    0.000    1.000    4.000    2.400    0.000    4.000 
#    0.000    2.000    0.000    0.000    0.000    0.000 
#    0.000    0.000    0.000    0.000    0.000    0.000 
#
# Total GULP energy -247785.979985 kJ/mol
# GULP energy per Si atom -12389.298999 kJ/mol
# Density = 2.163618 g / cm^3
# Si number density = 21.685540 Si / 1000 Ang^3
#
#
#
# Elastic Constant Matrix: (Units=GPa)
#
#
# Indices 1 2 3 4 5 6 
#
# 1 137.7789 39.2899 69.5836 -0.0004 11.7645 0.0000
# 2 39.2899 101.4370 56.1978 -0.0002 -1.5053 0.0001
# 3 69.5836 56.1978 176.7162 0.0005 10.2402 0.0000
# 4 -0.0004 -0.0002 0.0005 32.3913 -0.0003 -6.7694
# 5 11.7645 -1.5053 10.2402 -0.0003 57.9365 0.0001
# 6 0.0000 0.0001 0.0000 -6.7694 0.0001 25.4004
#
#
#
# Elastic Compliance Matrix: (Units=1/GPa)
#
#
# Indices 1 2 3 4 5 6 
#
# 1 0.009476 -0.002029 -0.003002 0.000000 -0.001446 0.000000
# 2 -0.002029 0.012458 -0.003239 0.000000 0.001308 0.000000
# 3 -0.003002 -0.003239 0.007922 0.000000 -0.000875 0.000000
# 4 0.000000 0.000000 0.000000 0.032693 0.000000 0.008713
# 5 -0.001446 0.001308 -0.000875 0.000000 0.017743 0.000000
# 6 0.000000 0.000000 0.000000 0.008713 0.000000 0.041691
#
#
# Mechanical properties :
#
#
# Convention : Reuss Voigt Hill
#
# Bulk Modulus (GPa) = 75.09622 82.89720 78.99671
# Shear Modulus (GPa) = 34.97444 39.86970 37.42207
#
# Velocity S-wave (km/s) = 4.02032 4.29247 4.15862
# Velocity P-wave (km/s) = 7.50037 7.92950 7.71792
#
# Compressibility (1/GPa) = 0.01331625
#
# Stress axis : x y z
#
# Youngs Moduli (GPa) = 105.52593 80.27101 126.23562
#
# Poissons Ratio (x) = 0.16283 0.37902
# Poissons Ratio (y) = 0.21406 0.40885
# Poissons Ratio (z) = 0.31684 0.25998
#
# Static dielectric constant tensor:
#      x y z
#    x 4.309650 0.000000 0.016550 
#    y 0.000000 4.262970 0.000000 
#    z 0.016550 0.000000 4.042730 
# 
# 
# High freq. dielectric constant tensor:
#      x y z
#    x 1.861040 0.000000 0.006220 
#    y 0.000000 1.859810 0.000000 
#    z 0.006220 0.000000 1.859400 
# 
# From -- ./inp_files/356616.got.cif
#   From: 2010.06.25/outbox.cif.g09.slc.cpg/sg12_179_cif.got.tgz:356616.got - 2010.06.28 00:19:55.
