data_PCOD8109541
_publ_section_title
;
Structure prediction by ZEFSAII (Michael W. Deem and Ramdas Pophale) SiO2 
 PCOD8109541
Probable space group: C 2/M
;
_chemical_formula_sum "Si O2"
_cell_formula_units_Z 64
_cell_length_a 31.726008
_cell_length_b 10.678945
_cell_length_c 16.610256
_cell_angle_alpha 90.000000
_cell_angle_beta 145.744033
_cell_angle_gamma 90.000000
_cell_volume 3167.702714
_symmetry_space_group_name_H-M "C 2/M"
_symmetry_group_IT_number 12
_symmetry_cell_setting 'monoclinic'
loop_
_space_group_symop_operation_xyz
x,y,z
-x,y,-z
-x,-y,-z
x,-y,z
1/2+x,1/2+y,z
1/2-x,1/2+y,-z
1/2-x,1/2-y,-z
1/2+x,1/2-y,z
loop_
_atom_site_type_symbol
_atom_site_label
_atom_site_fract_x
_atom_site_fract_y
_atom_site_fract_z
Si Si1 0.336745 0.144125 0.416929
Si Si2 0.573236 0.358652 0.169167
Si Si3 0.557179 0.858767 0.274007
Si Si4 0.738067 0.138427 0.045371
Si Si5 0.385716 0.293065 0.355044
Si Si6 0.093174 0.725034 0.909008
Si Si7 0.468066 0.361176 0.336526
Si Si8 0.826770 0.145281 0.820247
O O1 0.395586 0.191941 0.575570
O O2 0.366107 0.166473 0.372330
O O3 0.255582 0.207893 0.302841
O O4 0.325568 0.000000 0.412480
O O5 0.579277 0.500000 0.217014
O O6 0.570843 0.246867 0.229034
O O7 0.644374 0.332085 0.224559
O O8 0.500000 0.352623 0.000000
O O9 0.470487 0.871862 0.163569
O O10 0.581279 0.000000 0.283682
O O11 0.807730 0.134919 0.217186
O O12 0.734013 0.000000 0.997411
O O13 0.750000 0.250000 0.000000
O O14 0.661741 0.156899 0.973854
O O15 0.426089 0.267124 0.332951
O O16 0.443012 0.366866 0.504491
O O17 0.051740 0.822855 0.784701
O O18 0.118268 0.795130 0.028337
O O19 0.435294 0.500000 0.300145
O O20 0.824572 0.000000 0.838482
#
# Coordination Sequence:
#
# PCOD8109541 Si02
#       8
#     8   8   8   8   8   8   8   8
#     4  10  22  41  63  89 126 167 206 251 308 373
#     4  10  21  40  66  97 126 157 204 257 308 367
#     4  11  24  43  64  91 129 166 202 250 314 376
#     4  12  26  42  62  90 127 166 209 262 313 366
#     4  11  21  41  60  87 120 164 210 255 308 357
#     4  12  22  39  62  92 124 162 208 257 306 367
#     4  11  23  38  60  89 124 163 210 261 309 359
#     4  10  21  39  65  93 123 161 206 254 307 373
#
# _framework density 20.203916
#
# number of rings (size 3 to 8) (size 9 to 14) (size 15 to 20)
#    0.000    1.125    5.000    2.250    0.000    2.250 
#    0.000    1.250    0.000    0.000    0.000    0.000 
#    0.000    0.000    0.000    0.000    0.000    0.000 
#
# Total GULP energy -396522.890613 kJ/mol
# GULP energy per Si atom -12391.340332 kJ/mol
# Density = 2.015793 g / cm^3
# Si number density = 20.203916 Si / 1000 Ang^3
#
#
#
# Elastic Constant Matrix: (Units=GPa)
#
#
# Indices 1 2 3 4 5 6 
#
# 1 98.4840 49.2989 44.6575 0.0000 2.8798 0.0000
# 2 49.2989 103.3901 45.6858 0.0000 -12.4082 0.0000
# 3 44.6575 45.6858 124.5984 0.0000 9.1827 0.0000
# 4 0.0000 0.0000 0.0000 23.4097 0.0000 -3.4760
# 5 2.8798 -12.4082 9.1827 0.0000 32.4504 0.0000
# 6 0.0000 0.0000 0.0000 -3.4760 0.0000 27.4609
#
#
#
# Elastic Compliance Matrix: (Units=1/GPa)
#
#
# Indices 1 2 3 4 5 6 
#
# 1 0.014516 -0.006027 -0.002786 0.000000 -0.002804 0.000000
# 2 -0.006027 0.015192 -0.003960 0.000000 0.007464 0.000000
# 3 -0.002786 -0.003960 0.010795 0.000000 -0.004322 0.000000
# 4 0.000000 0.000000 0.000000 0.043536 0.000000 0.005511
# 5 -0.002804 0.007464 -0.004322 0.000000 0.035142 0.000000
# 6 0.000000 0.000000 0.000000 0.005511 0.000000 0.037113
#
#
# Mechanical properties :
#
#
# Convention : Reuss Voigt Hill
#
# Bulk Modulus (GPa) = 66.86292 67.30634 67.08463
# Shear Modulus (GPa) = 26.76280 29.11955 27.94118
#
# Velocity S-wave (km/s) = 3.64350 3.80054 3.72285
# Velocity P-wave (km/s) = 7.13204 7.25566 7.19412
#
# Compressibility (1/GPa) = 0.01495597
#
# Stress axis : x y z
#
# Youngs Moduli (GPa) = 68.88750 65.82518 92.63590
#
# Poissons Ratio (x) = 0.39674 0.25810
# Poissons Ratio (y) = 0.41520 0.36685
# Poissons Ratio (z) = 0.19194 0.26068
#
# Static dielectric constant tensor:
#      x y z
#    x 3.742850 0.000000 0.271770 
#    y 0.000000 3.485730 0.000000 
#    z 0.271770 0.000000 4.117890 
# 
# 
# High freq. dielectric constant tensor:
#      x y z
#    x 1.788230 0.000000 0.015390 
#    y 0.000000 1.769310 0.000000 
#    z 0.015390 0.000000 1.803730 
# 
# From -- ./inp_files/250884.got.cif
#   From: 2010.06.25/outbox.cif.g09.slc.cpg/sg12_126_cif.got.tgz:250884.got - 2010.06.28 00:19:55.
