data_PCOD8109524
_publ_section_title
;
Structure prediction by ZEFSAII (Michael W. Deem and Ramdas Pophale) SiO2 
 PCOD8109524
Probable space group: C 2/M
;
_chemical_formula_sum "Si O2"
_cell_formula_units_Z 36
_cell_length_a 14.747797
_cell_length_b 15.734249
_cell_length_c 15.641039
_cell_angle_alpha 90.000000
_cell_angle_beta 151.039616
_cell_angle_gamma 90.000000
_cell_volume 1757.388697
_symmetry_space_group_name_H-M "C 2/M"
_symmetry_group_IT_number 12
_symmetry_cell_setting 'monoclinic'
loop_
_space_group_symop_operation_xyz
x,y,z
-x,y,-z
-x,-y,-z
x,-y,z
1/2+x,1/2+y,z
1/2-x,1/2+y,-z
1/2-x,1/2-y,-z
1/2+x,1/2-y,z
loop_
_atom_site_type_symbol
_atom_site_label
_atom_site_fract_x
_atom_site_fract_y
_atom_site_fract_z
Si Si1 0.818620 0.244631 0.652302
Si Si2 0.701061 0.903560 0.143717
Si Si3 0.969858 0.901995 0.073510
Si Si4 0.000000 0.191679 0.500000
Si Si5 0.670329 0.156407 0.937086
O O1 0.750000 0.250000 0.500000
O O2 0.636172 0.248256 0.559716
O O3 0.920650 0.157677 0.767753
O O4 0.946971 0.330271 0.762877
O O5 0.876829 0.864366 0.335733
O O6 0.689275 0.000000 0.164112
O O7 0.500000 0.858728 0.000000
O O8 0.743694 0.896154 0.078600
O O9 0.035289 0.000000 0.136939
O O10 0.748253 0.892443 0.916496
O O11 0.000000 0.871694 0.000000
O O12 0.750000 0.250000 0.000000
#
# Coordination Sequence:
#
# PCOD8109524 Si02
#       5
#     8   8   8   4   8
#     4  11  25  40  65 101 131 174 222 270 332 396
#     4  11  23  41  63  96 133 171 214 267 328 389
#     4  10  23  43  68  95 128 174 223 275 332 390
#     4  12  23  40  69  98 134 172 218 274 323 398
#     4  10  21  39  65  90 129 171 216 265 320 387
#
# _framework density 20.484939000000001
#
# number of rings (size 3 to 8) (size 9 to 14) (size 15 to 20)
#    0.000    1.333    2.222    3.667    9.333    0.000 
#    0.000    3.889    0.000    0.000    0.000    0.000 
#    0.000    0.000    0.000    0.000    0.000    0.000 
#
# Total GULP energy -223007.219548 kJ/mol
# GULP energy per Si atom -12389.289975 kJ/mol
# Density = 2.043831 g / cm^3
# Si number density = 20.484939 Si / 1000 Ang^3
#
#
#
# Elastic Constant Matrix: (Units=GPa)
#
#
# Indices 1 2 3 4 5 6 
#
# 1 165.1396 30.7221 48.1460 0.0723 3.0472 -0.0350
# 2 30.7221 81.2875 38.1634 0.0557 -3.3916 -0.0234
# 3 48.1460 38.1634 115.7488 0.2207 -3.3562 -0.0939
# 4 0.0723 0.0557 0.2207 142.2844 0.1233 -51.4009
# 5 3.0472 -3.3916 -3.3562 0.1233 44.8295 -0.0593
# 6 -0.0350 -0.0234 -0.0939 -51.4009 -0.0593 54.7756
#
#
#
# Elastic Compliance Matrix: (Units=1/GPa)
#
#
# Indices 1 2 3 4 5 6 
#
# 1 0.007074 -0.001555 -0.002453 0.000002 -0.000782 0.000000
# 2 -0.001555 0.014922 -0.004246 0.000001 0.000917 0.000000
# 3 -0.002453 -0.004246 0.011079 -0.000014 0.000675 0.000004
# 4 0.000002 0.000001 -0.000014 0.010633 -0.000017 0.009978
# 5 -0.000782 0.000917 0.000675 -0.000017 0.022480 0.000009
# 6 0.000000 0.000000 0.000004 0.009978 0.000009 0.027619
#
#
# Mechanical properties :
#
#
# Convention : Reuss Voigt Hill
#
# Bulk Modulus (GPa) = 60.35992 66.24876 63.30434
# Shear Modulus (GPa) = 43.16419 64.72086 53.94252
#
# Velocity S-wave (km/s) = 4.59532 5.62698 5.13711
# Velocity P-wave (km/s) = 7.59509 8.63873 8.13367
#
# Compressibility (1/GPa) = 0.01656729
#
# Stress axis : x y z
#
# Youngs Moduli (GPa) = 141.35847 67.01721 90.25884
#
# Poissons Ratio (x) = 0.10420 0.22137
# Poissons Ratio (y) = 0.21979 0.38328
# Poissons Ratio (z) = 0.34669 0.28458
#
# Static dielectric constant tensor:
#      x y z
#    x 4.354030 -0.000130 0.396020 
#    y -0.000130 3.557870 0.000140 
#    z 0.396020 0.000140 3.677570 
# 
# 
# High freq. dielectric constant tensor:
#      x y z
#    x 1.832100 0.000000 0.007370 
#    y 0.000000 1.785070 0.000000 
#    z 0.007370 0.000000 1.789430 
# 
# From -- ./inp_files/216575.got.cif
#   From: 2010.06.25/outbox.cif.g09.slc.cpg/sg12_109_cif.got.tgz:216575.got - 2010.06.28 00:19:55.
