data_PCOD8109629
_publ_section_title
;
Structure prediction by ZEFSAII (Michael W. Deem and Ramdas Pophale) SiO2 
 PCOD8109629
Probable space group: C 2/M
;
_chemical_formula_sum "Si O2"
_cell_formula_units_Z 44
_cell_length_a 23.380744
_cell_length_b 15.894561
_cell_length_c 15.550188
_cell_angle_alpha 90.000000
_cell_angle_beta 20.803131
_cell_angle_gamma 90.000000
_cell_volume 2052.410212
_symmetry_space_group_name_H-M "C 2/M"
_symmetry_group_IT_number 12
_symmetry_cell_setting 'monoclinic'
loop_
_space_group_symop_operation_xyz
x,y,z
-x,y,-z
-x,-y,-z
x,-y,z
1/2+x,1/2+y,z
1/2-x,1/2+y,-z
1/2-x,1/2-y,-z
1/2+x,1/2-y,z
loop_
_atom_site_type_symbol
_atom_site_label
_atom_site_fract_x
_atom_site_fract_y
_atom_site_fract_z
Si Si1 0.147034 0.899963 0.568643
Si Si2 0.961325 0.597742 0.224926
Si Si3 0.500000 0.778127 0.500000
Si Si4 0.601899 0.361463 0.936912
Si Si5 0.044102 0.405653 0.576408
Si Si6 0.251634 0.187000 0.256664
O O1 0.309142 0.866019 0.386972
O O2 0.137528 0.851641 0.490909
O O3 0.994531 0.872393 0.839018
O O4 0.148508 0.000000 0.551580
O O5 0.932567 0.500000 0.275652
O O6 0.968225 0.635157 0.311323
O O7 0.127710 0.614037 0.942476
O O8 0.447263 0.840788 0.651754
O O9 0.645228 0.718360 0.325587
O O10 0.500000 0.398644 0.000000
O O11 0.768132 0.411768 0.713850
O O12 0.640163 0.264271 0.862758
O O13 0.969927 0.500000 0.673521
#
# Coordination Sequence:
#
# PCOD8109629 Si02
#       6
#     8   8   4   8   8   8
#     4  11  23  41  66  97 132 164 200 253 322 387
#     4  10  21  39  67  94 125 161 202 256 319 382
#     4  10  25  44  59  84 122 174 212 264 293 362
#     4  11  22  36  65  99 131 158 199 259 319 375
#     4  10  21  40  64  92 124 164 208 254 310 372
#     4  11  25  41  62  89 130 167 214 255 308 366
#
# _framework density 21.438207999999999
#
# number of rings (size 3 to 8) (size 9 to 14) (size 15 to 20)
#    0.000    1.455    1.818    3.000    5.091    4.364 
#    3.273    1.818    0.000    0.000    0.000    0.000 
#    0.000    0.000    0.000    0.000    0.000    0.000 
#
# Total GULP energy -272802.583950 kJ/mol
# GULP energy per Si atom -12400.117452 kJ/mol
# Density = 2.138941 g / cm^3
# Si number density = 21.438208 Si / 1000 Ang^3
#
#
#
# Elastic Constant Matrix: (Units=GPa)
#
#
# Indices 1 2 3 4 5 6 
#
# 1 106.9249 30.3392 24.4643 0.0015 10.8392 0.0009
# 2 30.3392 72.5045 20.4268 0.0027 10.2308 0.0000
# 3 24.4643 20.4268 101.3074 0.0054 30.0650 0.0006
# 4 0.0015 0.0027 0.0054 22.5653 -0.0012 2.0124
# 5 10.8392 10.2308 30.0650 -0.0012 32.8335 -0.0005
# 6 0.0009 0.0000 0.0006 2.0124 -0.0005 29.5031
#
#
#
# Elastic Compliance Matrix: (Units=1/GPa)
#
#
# Indices 1 2 3 4 5 6 
#
# 1 0.010940 -0.004007 -0.001555 0.000000 -0.000939 0.000000
# 2 -0.004007 0.016248 -0.001646 -0.000001 -0.002233 0.000000
# 3 -0.001555 -0.001646 0.014107 -0.000004 -0.011892 0.000000
# 4 0.000000 -0.000001 -0.000004 0.044587 0.000005 -0.003041
# 5 -0.000939 -0.002233 -0.011892 0.000005 0.042351 0.000001
# 6 0.000000 0.000000 0.000000 -0.003041 0.000001 0.034102
#
#
# Mechanical properties :
#
#
# Convention : Reuss Voigt Hill
#
# Bulk Modulus (GPa) = 37.20375 47.91082 42.55728
# Shear Modulus (GPa) = 26.92332 30.68083 28.80207
#
# Velocity S-wave (km/s) = 3.54765 3.78713 3.66934
# Velocity P-wave (km/s) = 5.84574 6.44360 6.15194
#
# Compressibility (1/GPa) = 0.02687901
#
# Stress axis : x y z
#
# Youngs Moduli (GPa) = 91.40404 61.54672 70.88445
#
# Poissons Ratio (x) = 0.24664 0.11025
# Poissons Ratio (y) = 0.36628 0.11666
# Poissons Ratio (z) = 0.14216 0.10129
#
# Static dielectric constant tensor:
#      x y z
#    x 3.998760 0.000000 0.136560 
#    y 0.000000 3.803510 0.000000 
#    z 0.136560 0.000000 3.677070 
# 
# 
# High freq. dielectric constant tensor:
#      x y z
#    x 1.840390 0.000000 0.012540 
#    y 0.000000 1.844680 0.000000 
#    z 0.012540 0.000000 1.828140 
# 
# From -- ./inp_files/241377.got.cif
#   From: 2010.06.25/outbox.cif.g09.slc.cpg/sg12_121_cif.got.tgz:241377.got - 2010.06.28 00:19:55.
