data_PCOD8109489
_publ_section_title
;
Structure prediction by ZEFSAII (Michael W. Deem and Ramdas Pophale) SiO2 
 PCOD8109489
Probable space group: C 2/M
;
_chemical_formula_sum "Si O2"
_cell_formula_units_Z 48
_cell_length_a 14.993339
_cell_length_b 8.511034
_cell_length_c 26.646974
_cell_angle_alpha 90.000000
_cell_angle_beta 136.105016
_cell_angle_gamma 90.000000
_cell_volume 2357.621340
_symmetry_space_group_name_H-M "C 2/M"
_symmetry_group_IT_number 12
_symmetry_cell_setting 'monoclinic'
loop_
_space_group_symop_operation_xyz
x,y,z
-x,y,-z
-x,-y,-z
x,-y,z
1/2+x,1/2+y,z
1/2-x,1/2+y,-z
1/2-x,1/2-y,-z
1/2+x,1/2-y,z
loop_
_atom_site_type_symbol
_atom_site_label
_atom_site_fract_x
_atom_site_fract_y
_atom_site_fract_z
Si Si1 0.545233 0.318655 0.927037
Si Si2 0.727629 0.818117 0.167895
Si Si3 0.900788 0.315228 0.322462
Si Si4 0.207627 0.681809 0.909171
Si Si5 0.633822 0.318415 0.582560
Si Si6 0.679745 0.314329 0.422675
O O1 0.504159 0.500000 0.913330
O O2 0.423720 0.212967 0.890772
O O3 0.598019 0.281403 0.892895
O O4 0.652951 0.275887 0.011779
O O5 0.790826 0.766695 0.245470
O O6 0.794540 0.722374 0.150188
O O7 0.751914 0.000000 0.167692
O O8 0.892203 0.500000 0.311773
O O9 0.875966 0.271867 0.369586
O O10 0.038710 0.255977 0.360413
O O11 0.175479 0.500000 0.904362
O O12 0.500000 0.300813 0.500000
O O13 0.668904 0.500000 0.605642
O O14 0.744738 0.234762 0.596209
O O15 0.670571 0.500000 0.423890
O O16 0.750000 0.250000 0.500000
#
# Coordination Sequence:
#
# PCOD8109489 Si02
#       6
#     8   8   8   8   8   8
#     4  10  21  39  64  94 127 165 211 259 310 368
#     4  12  25  41  62  90 128 168 210 258 313 374
#     4  12  26  44  65  92 126 165 210 259 315 374
#     4  10  21  39  64  94 127 165 211 260 309 367
#     4  11  23  41  67  95 125 159 202 255 308 368
#     4  12  24  41  66  95 125 160 204 253 308 368
#
# _framework density 20.359501999999999
#
# number of rings (size 3 to 8) (size 9 to 14) (size 15 to 20)
#    0.000    0.833    1.667    6.500    0.000    6.000 
#    0.000    6.667    0.000    0.000    0.000    0.000 
#    0.000    0.000    0.000    0.000    0.000    0.000 
#
# Total GULP energy -297798.539853 kJ/mol
# GULP energy per Si atom -12408.272494 kJ/mol
# Density = 2.031316 g / cm^3
# Si number density = 20.359502 Si / 1000 Ang^3
#
#
#
# Elastic Constant Matrix: (Units=GPa)
#
#
# Indices 1 2 3 4 5 6 
#
# 1 120.3037 30.7987 18.3269 0.0000 2.1720 0.0000
# 2 30.7987 94.1394 25.2553 0.0000 21.0570 0.0000
# 3 18.3269 25.2553 48.6899 0.0000 -10.2981 0.0000
# 4 0.0000 0.0000 0.0000 31.8798 0.0000 0.8643
# 5 2.1720 21.0570 -10.2981 0.0000 20.7537 0.0000
# 6 0.0000 0.0000 0.0000 0.8643 0.0000 38.6799
#
#
#
# Elastic Compliance Matrix: (Units=1/GPa)
#
#
# Indices 1 2 3 4 5 6 
#
# 1 0.009282 -0.002708 -0.001915 0.000000 0.000826 0.000000
# 2 -0.002708 0.023766 -0.018265 0.000000 -0.032893 0.000000
# 3 -0.001915 -0.018265 0.038763 0.000000 0.037967 0.000000
# 4 0.000000 0.000000 0.000000 0.031387 0.000000 -0.000701
# 5 0.000826 -0.032893 0.037967 0.000000 0.100311 0.000000
# 6 0.000000 0.000000 0.000000 -0.000701 0.000000 0.025869
#
#
# Mechanical properties :
#
#
# Convention : Reuss Voigt Hill
#
# Bulk Modulus (GPa) = 38.40828 45.76607 42.08718
# Shear Modulus (GPa) = 17.61605 30.84616 24.23111
#
# Velocity S-wave (km/s) = 2.94470 3.89662 3.45362
# Velocity P-wave (km/s) = 5.51976 6.54008 6.05146
#
# Compressibility (1/GPa) = 0.02603605
#
# Stress axis : x y z
#
# Youngs Moduli (GPa) = 107.73194 42.07666 25.79783
#
# Poissons Ratio (x) = 0.11394 0.04939
# Poissons Ratio (y) = 0.29173 0.47120
# Poissons Ratio (z) = 0.20625 0.76854
#
# Static dielectric constant tensor:
#      x y z
#    x 3.835960 0.000000 0.000980 
#    y 0.000000 3.838440 0.000000 
#    z 0.000980 0.000000 3.663230 
# 
# 
# High freq. dielectric constant tensor:
#      x y z
#    x 1.811310 0.000000 -0.002640 
#    y 0.000000 1.813580 0.000000 
#    z -0.002640 0.000000 1.792000 
# 
# From -- ./inp_files/267593.got.cif
#   From: 2010.06.25/outbox.cif.g09.slc.cpg/sg12_134_cif.got.tgz:267593.got - 2010.06.28 00:19:55.
