data_PCOD8109562
_publ_section_title
;
Structure prediction by ZEFSAII (Michael W. Deem and Ramdas Pophale) SiO2 
 PCOD8109562
Probable space group: C 2/M
;
_chemical_formula_sum "Si O2"
_cell_formula_units_Z 56
_cell_length_a 29.126631
_cell_length_b 8.581723
_cell_length_c 11.055643
_cell_angle_alpha 90.000000
_cell_angle_beta 69.570690
_cell_angle_gamma 90.000000
_cell_volume 2589.621767
_symmetry_space_group_name_H-M "C 2/M"
_symmetry_group_IT_number 12
_symmetry_cell_setting 'monoclinic'
loop_
_space_group_symop_operation_xyz
x,y,z
-x,y,-z
-x,-y,-z
x,-y,z
1/2+x,1/2+y,z
1/2-x,1/2+y,-z
1/2-x,1/2-y,-z
1/2+x,1/2-y,z
loop_
_atom_site_type_symbol
_atom_site_label
_atom_site_fract_x
_atom_site_fract_y
_atom_site_fract_z
Si Si1 0.972221 0.315662 0.401538
Si Si2 0.223804 0.820622 0.860179
Si Si3 0.133127 0.821269 0.526254
Si Si4 0.825905 0.177281 0.767789
Si Si5 0.976789 0.684693 0.895244
Si Si6 0.292204 0.818300 0.379269
Si Si7 0.368809 0.820398 0.935705
O O1 0.965037 0.500000 0.402303
O O2 0.920878 0.230191 0.458229
O O3 0.000000 0.268292 0.500000
O O4 0.998046 0.255599 0.252798
O O5 0.270623 0.720504 0.859286
O O6 0.207608 0.778531 0.741708
O O7 0.238815 0.000000 0.856061
O O8 0.176055 0.786819 0.982705
O O9 0.169313 0.799245 0.379489
O O10 0.154533 0.710015 0.610605
O O11 0.132978 0.000000 0.569890
O O12 0.866884 0.289672 0.792821
O O13 0.836528 0.000000 0.795252
O O14 0.980504 0.500000 0.892739
O O15 0.920033 0.737246 0.944774
O O16 0.000000 0.751584 0.000000
O O17 0.250000 0.750000 0.500000
O O18 0.283836 0.000000 0.361322
O O19 0.359842 0.000000 0.977060
#
# Coordination Sequence:
#
# PCOD8109562 Si02
#       7
#     8   8   8   8   8   8   8
#     4  10  21  39  65  95 125 163 216 271 325 388
#     4  12  25  41  63  92 129 167 211 257 313 380
#     4  11  24  40  63  94 128 167 211 261 319 380
#     4  11  23  41  63  90 128 168 210 256 314 381
#     4   9  20  39  62  90 123 164 212 265 323 386
#     4  12  24  41  64  92 127 167 210 258 314 376
#     4  11  23  40  65  92 124 164 213 264 318 377
#
# _framework density 21.624780000000001
#
# number of rings (size 3 to 8) (size 9 to 14) (size 15 to 20)
#    0.000    1.143    1.429    5.143    2.000    3.143 
#    0.000    1.429    0.000    2.143    0.000    0.000 
#    0.000    0.000    0.000    0.000    0.000    0.000 
#
# Total GULP energy -347190.721848 kJ/mol
# GULP energy per Si atom -12399.668637 kJ/mol
# Density = 2.157556 g / cm^3
# Si number density = 21.624780 Si / 1000 Ang^3
#
#
#
# Elastic Constant Matrix: (Units=GPa)
#
#
# Indices 1 2 3 4 5 6 
#
# 1 145.0918 20.1920 36.3847 0.0000 4.4066 0.0000
# 2 20.1920 61.3438 17.0897 0.0000 -5.4082 0.0000
# 3 36.3847 17.0897 86.3882 0.0000 4.7615 0.0000
# 4 0.0000 0.0000 0.0000 27.4499 0.0000 0.3211
# 5 4.4066 -5.4082 4.7615 0.0000 38.2070 0.0000
# 6 0.0000 0.0000 0.0000 0.3211 0.0000 31.9976
#
#
#
# Elastic Compliance Matrix: (Units=1/GPa)
#
#
# Indices 1 2 3 4 5 6 
#
# 1 0.007908 -0.001862 -0.002917 0.000000 -0.000812 0.000000
# 2 -0.001862 0.018013 -0.002952 0.000000 0.003132 0.000000
# 3 -0.002917 -0.002952 0.013486 0.000000 -0.001762 0.000000
# 4 0.000000 0.000000 0.000000 0.036434 0.000000 -0.000366
# 5 -0.000812 0.003132 -0.001762 0.000000 0.026930 0.000000
# 6 0.000000 0.000000 0.000000 -0.000366 0.000000 0.031256
#
#
# Mechanical properties :
#
#
# Convention : Reuss Voigt Hill
#
# Bulk Modulus (GPa) = 41.76443 48.90628 45.33536
# Shear Modulus (GPa) = 31.75219 34.14139 32.94679
#
# Velocity S-wave (km/s) = 3.83603 3.97773 3.90752
# Velocity P-wave (km/s) = 6.24302 6.61524 6.43182
#
# Compressibility (1/GPa) = 0.02394382
#
# Stress axis : x y z
#
# Youngs Moduli (GPa) = 126.46171 55.51581 74.15372
#
# Poissons Ratio (x) = 0.10335 0.21634
# Poissons Ratio (y) = 0.23543 0.21890
# Poissons Ratio (z) = 0.36894 0.16388
#
# Static dielectric constant tensor:
#      x y z
#    x 4.174680 0.000000 0.353230 
#    y 0.000000 3.696040 0.000000 
#    z 0.353230 0.000000 4.233910 
# 
# 
# High freq. dielectric constant tensor:
#      x y z
#    x 1.865550 0.000000 0.011610 
#    y 0.000000 1.833260 0.000000 
#    z 0.011610 0.000000 1.856910 
# 
# From -- ./inp_files/187196.got.cif
#   From: 2010.06.25/outbox.cif.g09.slc.cpg/sg12_94_cif.got.tgz:187196.got - 2010.06.28 00:19:55.
