data_PCOD8109922
_publ_section_title
;
Structure prediction by ZEFSAII (Michael W. Deem and Ramdas Pophale) SiO2 
 PCOD8109922
Probable space group: C 2/M
;
_chemical_formula_sum "Si O2"
_cell_formula_units_Z 56
_cell_length_a 15.290266
_cell_length_b 22.183978
_cell_length_c 9.268786
_cell_angle_alpha 90.000000
_cell_angle_beta 120.488680
_cell_angle_gamma 90.000000
_cell_volume 2709.244756
_symmetry_space_group_name_H-M "C 2/M"
_symmetry_group_IT_number 12
_symmetry_cell_setting 'monoclinic'
loop_
_space_group_symop_operation_xyz
x,y,z
-x,y,-z
-x,-y,-z
x,-y,z
1/2+x,1/2+y,z
1/2-x,1/2+y,-z
1/2-x,1/2-y,-z
1/2+x,1/2-y,z
loop_
_atom_site_type_symbol
_atom_site_label
_atom_site_fract_x
_atom_site_fract_y
_atom_site_fract_z
Si Si1 0.751171 0.069809 0.036744
Si Si2 0.806102 0.069477 0.761211
Si Si3 0.098664 0.859930 0.667515
Si Si4 0.969050 0.167174 0.815737
Si Si5 0.855983 0.245910 0.511592
Si Si6 0.025677 0.431918 0.856178
Si Si7 0.405500 0.880189 0.515108
O O1 0.807403 0.095063 0.228049
O O2 0.739181 0.000000 0.060005
O O3 0.810707 0.081531 0.936671
O O4 0.637715 0.097153 0.925780
O O5 0.888463 0.111931 0.751455
O O6 0.694719 0.082511 0.606443
O O7 0.834199 0.000000 0.751093
O O8 0.139036 0.801240 0.616791
O O9 0.000000 0.887055 0.500000
O O10 0.068172 0.849355 0.807844
O O11 0.927910 0.225962 0.701303
O O12 0.000000 0.187527 0.000000
O O13 0.750000 0.250000 0.500000
O O14 0.887442 0.309644 0.472148
O O15 0.022553 0.500000 0.791560
O O16 0.938543 0.392278 0.706933
O O17 0.000000 0.430993 0.000000
O O18 0.500000 0.903669 0.500000
#
# Coordination Sequence:
#
# PCOD8109922 Si02
#       7
#     8   8   8   8   8   8   8
#     4  10  21  40  64  97 133 165 213 269 324 390
#     4  11  23  39  67 101 129 169 218 266 324 394
#     4  10  23  42  66  92 132 167 215 269 321 382
#     4  11  22  43  65  94 129 167 214 267 321 383
#     4  11  25  45  65  91 129 170 220 274 324 383
#     4  10  23  39  61  95 133 165 205 266 326 387
#     4  12  23  42  66  92 127 174 217 264 324 383
#
# _framework density 20.669968000000001
#
# number of rings (size 3 to 8) (size 9 to 14) (size 15 to 20)
#    0.000    1.286    4.286    1.714    2.000    2.286 
#    0.000    5.000    0.000    0.000    0.000    0.000 
#    0.000    0.000    0.000    0.000    0.000    0.000 
#
# Total GULP energy -347075.537815 kJ/mol
# GULP energy per Si atom -12395.554922 kJ/mol
# Density = 2.062292 g / cm^3
# Si number density = 20.669968 Si / 1000 Ang^3
#
#
#
# Elastic Constant Matrix: (Units=GPa)
#
#
# Indices 1 2 3 4 5 6 
#
# 1 95.3767 15.1811 16.8438 0.0000 -8.2819 0.0000
# 2 15.1811 64.0836 33.8287 0.0000 1.7665 0.0000
# 3 16.8438 33.8287 118.8042 0.0000 1.6898 0.0000
# 4 0.0000 0.0000 0.0000 30.0239 0.0000 4.1325
# 5 -8.2819 1.7665 1.6898 0.0000 33.1101 0.0000
# 6 0.0000 0.0000 0.0000 4.1325 0.0000 22.4594
#
#
#
# Elastic Compliance Matrix: (Units=1/GPa)
#
#
# Indices 1 2 3 4 5 6 
#
# 1 0.011276 -0.002221 -0.001009 0.000000 0.002991 0.000000
# 2 -0.002221 0.018819 -0.005025 0.000000 -0.001303 0.000000
# 3 -0.001009 -0.005025 0.009998 0.000000 -0.000494 0.000000
# 4 0.000000 0.000000 0.000000 0.034172 0.000000 -0.006288
# 5 0.002991 -0.001303 -0.000494 0.000000 0.031045 0.000000
# 6 0.000000 0.000000 0.000000 -0.006288 0.000000 0.045682
#
#
# Mechanical properties :
#
#
# Convention : Reuss Voigt Hill
#
# Bulk Modulus (GPa) = 42.40283 45.55242 43.97762
# Shear Modulus (GPa) = 28.51205 31.27939 29.89572
#
# Velocity S-wave (km/s) = 3.71805 3.89431 3.80720
# Velocity P-wave (km/s) = 6.24425 6.50436 6.37563
#
# Compressibility (1/GPa) = 0.02358333
#
# Stress axis : x y z
#
# Youngs Moduli (GPa) = 88.68307 53.13647 100.01819
#
# Poissons Ratio (x) = 0.11802 0.10090
# Poissons Ratio (y) = 0.19698 0.50262
# Poissons Ratio (z) = 0.08946 0.26703
#
# Static dielectric constant tensor:
#      x y z
#    x 3.929220 0.000000 0.053540 
#    y 0.000000 3.427380 0.000000 
#    z 0.053540 0.000000 3.787840 
# 
# 
# High freq. dielectric constant tensor:
#      x y z
#    x 1.821200 0.000000 0.002250 
#    y 0.000000 1.791990 0.000000 
#    z 0.002250 0.000000 1.817630 
# 
# From -- ./inp_files/65943.got.cif
#   From: 2010.06.25/outbox.cif.g09.slc.cpg/sg12_33_cif.got.tgz:65943.got - 2010.06.28 00:19:55.
