data_PCOD8109540
_publ_section_title
;
Structure prediction by ZEFSAII (Michael W. Deem and Ramdas Pophale) SiO2 
 PCOD8109540
Probable space group: C 2/M
;
_chemical_formula_sum "Si O2"
_cell_formula_units_Z 48
_cell_length_a 29.659547
_cell_length_b 8.250396
_cell_length_c 9.505087
_cell_angle_alpha 90.000000
_cell_angle_beta 99.420454
_cell_angle_gamma 90.000000
_cell_volume 2294.555496
_symmetry_space_group_name_H-M "C 2/M"
_symmetry_group_IT_number 12
_symmetry_cell_setting 'monoclinic'
loop_
_space_group_symop_operation_xyz
x,y,z
-x,y,-z
-x,-y,-z
x,-y,z
1/2+x,1/2+y,z
1/2-x,1/2+y,-z
1/2-x,1/2-y,-z
1/2+x,1/2-y,z
loop_
_atom_site_type_symbol
_atom_site_label
_atom_site_fract_x
_atom_site_fract_y
_atom_site_fract_z
Si Si1 0.542089 0.189799 0.930131
Si Si2 0.786315 0.813851 0.411592
Si Si3 0.230500 0.808099 0.135054
Si Si4 0.957623 0.692848 0.387390
Si Si5 0.379195 0.186484 0.549785
Si Si6 0.373094 0.687525 0.855635
O O1 0.541781 0.264971 0.771544
O O2 0.534057 0.000000 0.912913
O O3 0.500000 0.265212 0.000000
O O4 0.590554 0.219841 0.029189
O O5 0.750000 0.750000 0.500000
O O6 0.764645 0.791846 0.249535
O O7 0.830356 0.703116 0.452886
O O8 0.799269 0.000000 0.447896
O O9 0.178077 0.751769 0.132371
O O10 0.235030 0.000000 0.161637
O O11 0.250000 0.750000 0.000000
O O12 0.957505 0.500000 0.378190
O O13 0.913776 0.756039 0.450709
O O14 0.000000 0.757455 0.500000
O O15 0.383294 0.284461 0.696823
O O16 0.389753 0.000000 0.591069
O O17 0.377993 0.500000 0.893690
#
# Coordination Sequence:
#
# PCOD8109540 Si02
#       6
#     8   8   8   8   8   8
#     4  10  21  39  65  93 122 161 205 253 310 373
#     4  12  24  41  64  92 126 166 212 258 311 372
#     4  11  25  43  63  90 126 168 212 261 313 371
#     4   9  19  37  62  94 124 153 199 254 303 363
#     4  11  22  38  64  93 123 163 209 258 311 367
#     4  11  24  41  61  89 125 164 205 255 314 372
#
# _framework density 20.919084000000002
#
# number of rings (size 3 to 8) (size 9 to 14) (size 15 to 20)
#    0.000    1.333    1.667    4.000    2.333    5.000 
#    0.000    0.833    0.000    3.500    0.000    0.000 
#    0.000    0.000    0.000    0.000    0.000    0.000 
#
# Total GULP energy -297598.122463 kJ/mol
# GULP energy per Si atom -12399.921769 kJ/mol
# Density = 2.087147 g / cm^3
# Si number density = 20.919084 Si / 1000 Ang^3
#
#
#
# Elastic Constant Matrix: (Units=GPa)
#
#
# Indices 1 2 3 4 5 6 
#
# 1 151.0503 1.9865 83.4908 0.0000 -6.0470 0.0000
# 2 1.9865 34.7734 2.7153 0.0000 -7.0029 0.0000
# 3 83.4908 2.7153 185.6708 0.0000 -10.6419 0.0000
# 4 0.0000 0.0000 0.0000 26.3804 0.0000 4.0248
# 5 -6.0470 -7.0029 -10.6419 0.0000 45.6707 0.0000
# 6 0.0000 0.0000 0.0000 4.0248 0.0000 25.8466
#
#
#
# Elastic Compliance Matrix: (Units=1/GPa)
#
#
# Indices 1 2 3 4 5 6 
#
# 1 0.008814 -0.000150 -0.003948 0.000000 0.000224 0.000000
# 2 -0.000150 0.029682 -0.000108 0.000000 0.004506 0.000000
# 3 -0.003948 -0.000108 0.007228 0.000000 0.001145 0.000000
# 4 0.000000 0.000000 0.000000 0.038829 0.000000 -0.006046
# 5 0.000224 0.004506 0.001145 0.000000 0.022883 0.000000
# 6 0.000000 0.000000 0.000000 -0.006046 0.000000 0.039631
#
#
# Mechanical properties :
#
#
# Convention : Reuss Voigt Hill
#
# Bulk Modulus (GPa) = 26.80172 60.87551 43.83862
# Shear Modulus (GPa) = 29.77637 38.46634 34.12135
#
# Velocity S-wave (km/s) = 3.77690 4.29279 4.04308
# Velocity P-wave (km/s) = 5.64445 7.33038 6.54195
#
# Compressibility (1/GPa) = 0.03731104
#
# Stress axis : x y z
#
# Youngs Moduli (GPa) = 113.46179 33.69027 138.34210
#
# Poissons Ratio (x) = 0.00506 0.54620
# Poissons Ratio (y) = 0.01703 0.01499
# Poissons Ratio (z) = 0.44797 0.00365
#
# Static dielectric constant tensor:
#      x y z
#    x 2.412780 0.000000 -1.832360 
#    y 0.000000 3.502380 0.000000 
#    z -1.832360 0.000000 2.041370 
# 
# 
# High freq. dielectric constant tensor:
#      x y z
#    x 1.833550 0.000000 -0.001940 
#    y 0.000000 1.797870 0.000000 
#    z -0.001940 0.000000 1.836690 
# 
# From -- ./inp_files/108752.got.cif
#   From: 2010.06.25/outbox.cif.g09.slc.cpg/sg12_55_cif.got.tgz:108752.got - 2010.06.28 00:19:55.
