data_PCOD8109886
_publ_section_title
;
Structure prediction by ZEFSAII (Michael W. Deem and Ramdas Pophale) SiO2 
 PCOD8109886
Probable space group: C 2/M
;
_chemical_formula_sum "Si O2"
_cell_formula_units_Z 32
_cell_length_a 23.798706
_cell_length_b 11.479470
_cell_length_c 7.430304
_cell_angle_alpha 90.000000
_cell_angle_beta 127.867052
_cell_angle_gamma 90.000000
_cell_volume 1602.504845
_symmetry_space_group_name_H-M "C 2/M"
_symmetry_group_IT_number 12
_symmetry_cell_setting 'monoclinic'
loop_
_space_group_symop_operation_xyz
x,y,z
-x,y,-z
-x,-y,-z
x,-y,z
1/2+x,1/2+y,z
1/2-x,1/2+y,-z
1/2-x,1/2-y,-z
1/2+x,1/2-y,z
loop_
_atom_site_type_symbol
_atom_site_label
_atom_site_fract_x
_atom_site_fract_y
_atom_site_fract_z
Si Si1 0.333206 0.259253 0.638915
Si Si2 0.894764 0.000000 0.682125
Si Si3 0.075516 0.363713 0.460070
Si Si4 0.573119 0.248983 0.827107
Si Si5 0.962617 0.000000 0.202507
O O1 0.250000 0.250000 0.500000
O O2 0.346795 0.385322 0.578764
O O3 0.361237 0.162546 0.554516
O O4 0.370381 0.236043 0.902951
O O5 0.951128 0.000000 0.628926
O O6 0.937124 0.000000 0.949767
O O7 0.059670 0.500000 0.432526
O O8 0.099307 0.323314 0.706149
O O9 0.003742 0.297446 0.256543
O O10 0.565624 0.384417 0.753499
#
# Coordination Sequence:
#
# PCOD8109886 Si02
#       5
#     8   4   8   8   4
#     4  11  24  40  63  88 124 163 197 245 307 359
#     4   9  18  37  58  93 116 146 203 248 290 365
#     4  11  24  40  62  91 122 159 208 250 291 359
#     4  10  21  40  64  91 120 153 203 256 299 353
#     4   9  16  34  67  88 115 145 194 260 301 340
#
# _framework density 19.968738999999999
#
# number of rings (size 3 to 8) (size 9 to 14) (size 15 to 20)
#    0.000    1.750    2.500    2.250    1.750    7.000 
#    0.000    0.000    0.000    0.000    0.000    0.000 
#    0.000    0.000    0.000    0.000    0.000    0.000 
#
# Total GULP energy -198398.120182 kJ/mol
# GULP energy per Si atom -12399.882511 kJ/mol
# Density = 1.992329 g / cm^3
# Si number density = 19.968739 Si / 1000 Ang^3
#
#
#
# Elastic Constant Matrix: (Units=GPa)
#
#
# Indices 1 2 3 4 5 6 
#
# 1 101.0302 29.8863 62.5910 0.0000 14.7956 0.0000
# 2 29.8863 145.4898 29.2397 0.0000 2.5810 0.0000
# 3 62.5910 29.2397 99.2588 0.0000 2.6374 0.0000
# 4 0.0000 0.0000 0.0000 22.7335 0.0000 -5.8628
# 5 14.7956 2.5810 2.6374 0.0000 25.9238 0.0000
# 6 0.0000 0.0000 0.0000 -5.8628 0.0000 24.0566
#
#
#
# Elastic Compliance Matrix: (Units=1/GPa)
#
#
# Indices 1 2 3 4 5 6 
#
# 1 0.018491 -0.001424 -0.010994 0.000000 -0.009293 0.000000
# 2 -0.001424 0.007422 -0.001294 0.000000 0.000205 0.000000
# 3 -0.010994 -0.001294 0.017265 0.000000 0.004647 0.000000
# 4 0.000000 0.000000 0.000000 0.046938 0.000000 0.011439
# 5 -0.009293 0.000205 0.004647 0.000000 0.043385 0.000000
# 6 0.000000 0.000000 0.000000 0.011439 0.000000 0.044356
#
#
# Mechanical properties :
#
#
# Convention : Reuss Voigt Hill
#
# Bulk Modulus (GPa) = 63.47297 65.46809 64.47053
# Shear Modulus (GPa) = 23.74918 29.48024 26.61471
#
# Velocity S-wave (km/s) = 3.45239 3.84646 3.65474
# Velocity P-wave (km/s) = 6.90993 7.25145 7.08275
#
# Compressibility (1/GPa) = 0.01575474
#
# Stress axis : x y z
#
# Youngs Moduli (GPa) = 54.07957 134.72972 57.92100
#
# Poissons Ratio (x) = 0.19187 0.63677
# Poissons Ratio (y) = 0.07701 0.07494
# Poissons Ratio (z) = 0.59454 0.17433
#
# Static dielectric constant tensor:
#      x y z
#    x 3.492410 0.000000 -0.110490 
#    y 0.000000 3.951060 0.000000 
#    z -0.110490 0.000000 3.426800 
# 
# 
# High freq. dielectric constant tensor:
#      x y z
#    x 1.770650 0.000000 -0.015340 
#    y 0.000000 1.795670 0.000000 
#    z -0.015340 0.000000 1.764570 
# 
# From -- ./inp_files/70473.got.cif
#   From: 2010.06.25/outbox.cif.g09.slc.cpg/sg12_36_cif.got.tgz:70473.got - 2010.06.28 00:19:55.
