data_PCOD8109701
_publ_section_title
;
Structure prediction by ZEFSAII (Michael W. Deem and Ramdas Pophale) SiO2 
 PCOD8109701
Probable space group: C 2/M
;
_chemical_formula_sum "Si O2"
_cell_formula_units_Z 64
_cell_length_a 19.477309
_cell_length_b 8.982831
_cell_length_c 30.984264
_cell_angle_alpha 90.000000
_cell_angle_beta 142.074159
_cell_angle_gamma 90.000000
_cell_volume 3331.999370
_symmetry_space_group_name_H-M "C 2/M"
_symmetry_group_IT_number 12
_symmetry_cell_setting 'monoclinic'
loop_
_space_group_symop_operation_xyz
x,y,z
-x,y,-z
-x,-y,-z
x,-y,z
1/2+x,1/2+y,z
1/2-x,1/2+y,-z
1/2-x,1/2-y,-z
1/2+x,1/2-y,z
loop_
_atom_site_type_symbol
_atom_site_label
_atom_site_fract_x
_atom_site_fract_y
_atom_site_fract_z
Si Si1 0.259864 0.830926 0.460267
Si Si2 0.470753 0.669753 0.535208
Si Si3 0.011481 0.830806 0.307457
Si Si4 0.012295 0.830271 0.959319
Si Si5 0.618029 0.822980 0.680121
Si Si6 0.967943 0.823798 0.189187
Si Si7 0.259506 0.169080 0.049291
Si Si8 0.624923 0.322945 0.189741
O O1 0.250000 0.750000 0.500000
O O2 0.351217 0.747346 0.477390
O O3 0.142993 0.821321 0.378718
O O4 0.298697 0.000000 0.486896
O O5 0.500000 0.677519 0.500000
O O6 0.462667 0.500000 0.547903
O O7 0.561043 0.752999 0.609654
O O8 0.944514 0.727735 0.307482
O O9 0.997733 0.772751 0.252087
O O10 0.968674 0.000000 0.292195
O O11 0.936899 0.756725 0.883765
O O12 0.970941 0.000000 0.942952
O O13 0.141643 0.820631 0.013624
O O14 0.000000 0.749980 0.000000
O O15 0.746786 0.768743 0.745484
O O16 0.610073 0.000000 0.672694
O O17 0.848552 0.751680 0.122634
O O18 0.059910 0.764789 0.200263
O O19 0.957221 0.000000 0.179682
O O20 0.297052 0.000000 0.060398
O O21 0.250000 0.250000 0.000000
O O22 0.618394 0.500000 0.185583
#
# Coordination Sequence:
#
# PCOD8109701 Si02
#       8
#     8   8   8   8   8   8   8   8
#     4  11  22  39  65  91 118 156 203 251 300 362
#     4  11  25  43  62  87 123 162 200 250 309 359
#     4  10  23  40  61  86 122 161 192 241 305 359
#     4   9  18  33  56  83 113 150 191 238 288 338
#     4  11  23  38  63  90 118 155 202 251 292 356
#     4  10  21  40  61  84 117 157 197 240 294 353
#     4  11  21  36  61  87 115 151 195 247 296 350
#     4   9  19  36  57  83 115 154 197 240 288 347
#
# _framework density 19.207687
#
# number of rings (size 3 to 8) (size 9 to 14) (size 15 to 20)
#    0.000    1.750    2.500    1.500    3.500    2.000 
#    0.000    1.250    0.000    1.500    0.000    0.000 
#    0.000    0.000    0.000    0.000    0.000    0.000 
#
# Total GULP energy -396762.956726 kJ/mol
# GULP energy per Si atom -12398.842398 kJ/mol
# Density = 1.916397 g / cm^3
# Si number density = 19.207687 Si / 1000 Ang^3
#
#
#
# Elastic Constant Matrix: (Units=GPa)
#
#
# Indices 1 2 3 4 5 6 
#
# 1 106.1616 43.4794 61.8240 0.0000 -11.5769 0.0000
# 2 43.4794 73.0401 42.7452 0.0000 -4.0762 0.0001
# 3 61.8240 42.7452 141.4797 0.0000 -11.7902 0.0000
# 4 0.0000 0.0000 0.0000 27.0072 0.0000 5.7226
# 5 -11.5769 -4.0762 -11.7902 0.0000 39.9952 0.0000
# 6 0.0000 0.0001 0.0000 5.7226 0.0000 21.0101
#
#
#
# Elastic Compliance Matrix: (Units=1/GPa)
#
#
# Indices 1 2 3 4 5 6 
#
# 1 0.014722 -0.006052 -0.004409 0.000000 0.002345 0.000000
# 2 -0.006052 0.019122 -0.003195 0.000000 -0.000745 0.000000
# 3 -0.004409 -0.003195 0.010074 0.000000 0.001368 0.000000
# 4 0.000000 0.000000 0.000000 0.039295 0.000000 -0.010703
# 5 0.002345 -0.000745 0.001368 0.000000 0.026009 0.000000
# 6 0.000000 0.000000 0.000000 -0.010703 0.000000 0.050511
#
#
# Mechanical properties :
#
#
# Convention : Reuss Voigt Hill
#
# Bulk Modulus (GPa) = 60.22081 68.53094 64.37587
# Shear Modulus (GPa) = 25.96314 29.11137 27.53725
#
# Velocity S-wave (km/s) = 3.68054 3.89731 3.79048
# Velocity P-wave (km/s) = 7.03437 7.48387 7.26260
#
# Compressibility (1/GPa) = 0.01660556
#
# Stress axis : x y z
#
# Youngs Moduli (GPa) = 67.92651 52.29580 99.26503
#
# Poissons Ratio (x) = 0.31651 0.43767
# Poissons Ratio (y) = 0.41112 0.31711
# Poissons Ratio (z) = 0.29950 0.16706
#
# Static dielectric constant tensor:
#      x y z
#    x 3.566360 0.000000 -0.070420 
#    y 0.000000 3.384470 0.000000 
#    z -0.070420 0.000000 3.619130 
# 
# 
# High freq. dielectric constant tensor:
#      x y z
#    x 1.759700 0.000000 -0.002310 
#    y 0.000000 1.726830 0.000000 
#    z -0.002310 0.000000 1.763360 
# 
# From -- ./inp_files/378508.got.cif
#   From: 2010.06.25/outbox.cif.g09.slc.cpg/sg12_190_cif.got.tgz:378508.got - 2010.06.28 00:19:55.
