data_PCOD8109062
_publ_section_title
;
Structure prediction by ZEFSAII (Michael W. Deem and Ramdas Pophale) SiO2 
 PCOD8109062
Probable space group: C 2/M
;
_chemical_formula_sum "Si O2"
_cell_formula_units_Z 36
_cell_length_a 20.712411
_cell_length_b 9.883592
_cell_length_c 13.990528
_cell_angle_alpha 90.000000
_cell_angle_beta 39.945975
_cell_angle_gamma 90.000000
_cell_volume 1838.901947
_symmetry_space_group_name_H-M "C 2/M"
_symmetry_group_IT_number 12
_symmetry_cell_setting 'monoclinic'
loop_
_space_group_symop_operation_xyz
x,y,z
-x,y,-z
-x,-y,-z
x,-y,z
1/2+x,1/2+y,z
1/2-x,1/2+y,-z
1/2-x,1/2-y,-z
1/2+x,1/2-y,z
loop_
_atom_site_type_symbol
_atom_site_label
_atom_site_fract_x
_atom_site_fract_y
_atom_site_fract_z
Si Si1 0.086037 0.000000 0.484741
Si Si2 0.933489 0.500000 0.842231
Si Si3 0.476690 0.500000 0.816041
Si Si4 0.442060 0.240641 0.969885
Si Si5 0.203286 0.000000 0.102343
Si Si6 0.295499 0.723098 0.749088
Si Si7 0.594777 0.000000 0.330948
O O1 0.154555 0.863304 0.395313
O O2 0.000000 0.000000 0.500000
O O3 0.041603 0.000000 0.643630
O O4 0.966527 0.629130 0.863552
O O5 0.971587 0.500000 0.691718
O O6 0.817099 0.500000 0.943693
O O7 0.493083 0.373111 0.866569
O O8 0.359029 0.500000 0.923941
O O9 0.500000 0.203532 0.000000
O O10 0.323883 0.241717 0.129822
O O11 0.177724 0.135567 0.188456
O O12 0.340317 0.868898 0.717432
O O13 0.500000 0.000000 0.500000
#
# Coordination Sequence:
#
# PCOD8109062 Si02
#       7
#     4   4   4   8   4   8   4
#     4  11  22  40  62  93 129 162 191 240 326 391
#     4  10  22  37  61  91 120 155 199 251 312 353
#     4  12  22  37  67  92 121 156 211 252 304 360
#     4  11  24  42  65  87 119 165 215 254 285 352
#     4   9  18  36  62  89 114 155 194 247 307 378
#     4  10  21  39  61  89 128 156 195 249 311 363
#     4  12  24  33  59  96 132 147 188 256 319 365
#
# _framework density 19.576899999999998
#
# number of rings (size 3 to 8) (size 9 to 14) (size 15 to 20)
#    0.000    1.333    2.222    5.333    3.111    3.556 
#    0.000    1.111    4.889    0.000    0.000    0.000 
#    0.000    0.000    0.000    0.000    0.000    0.000 
#
# Total GULP energy -223006.720845 kJ/mol
# GULP energy per Si atom -12389.262269 kJ/mol
# Density = 1.953234 g / cm^3
# Si number density = 19.576900 Si / 1000 Ang^3
#
#
#
# Elastic Constant Matrix: (Units=GPa)
#
#
# Indices 1 2 3 4 5 6 
#
# 1 114.1592 46.2392 49.1644 0.0000 8.5541 0.0000
# 2 46.2392 164.8697 49.5569 0.0000 2.3998 0.0000
# 3 49.1644 49.5569 107.9954 0.0000 15.0330 0.0000
# 4 0.0000 0.0000 0.0000 -5.7075 0.0000 -10.9773
# 5 8.5541 2.3998 15.0330 0.0000 23.2144 0.0000
# 6 0.0000 0.0000 0.0000 -10.9773 0.0000 35.6539
#
#
#
# Elastic Compliance Matrix: (Units=1/GPa)
#
#
# Indices 1 2 3 4 5 6 
#
# 1 0.011423 -0.001945 -0.004121 0.000000 -0.001339 0.000000
# 2 -0.001945 0.007415 -0.002759 0.000000 0.001737 0.000000
# 3 -0.004121 -0.002759 0.013354 0.000000 -0.006844 0.000000
# 4 0.000000 0.000000 0.000000 -0.110044 0.000000 -0.033881
# 5 -0.001339 0.001737 -0.006844 0.000000 0.047823 0.000000
# 6 0.000000 0.000000 0.000000 -0.033881 0.000000 0.017616
#
#
# Mechanical properties :
#
#
# Convention : Reuss Voigt Hill
#
# Bulk Modulus (GPa) = 68.76713 75.21613 71.99163
# Shear Modulus (GPa) = 495.82287 26.76974 261.29631
#
# Velocity S-wave (km/s) = 15.93170 3.70187 11.56553
# Velocity P-wave (km/s) = 19.32947 7.53499 14.66977
#
# Compressibility (1/GPa) = 0.01454183
#
# Stress axis : x y z
#
# Youngs Moduli (GPa) = 87.54402 134.86291 74.88204
#
# Poissons Ratio (x) = 0.26237 0.30859
# Poissons Ratio (y) = 0.17031 0.20658
# Poissons Ratio (z) = 0.36077 0.37204
#
# Static dielectric constant tensor:
#      x y z
#    x 3.705430 0.000000 0.072480 
#    y 0.000000 3.698930 0.000000 
#    z 0.072480 0.000000 4.046250 
# 
# 
# High freq. dielectric constant tensor:
#      x y z
#    x 1.741210 0.000000 0.006640 
#    y 0.000000 1.782460 0.000000 
#    z 0.006640 0.000000 1.768870 
# 
# From -- ./inp_files/230828.got.cif
#   From: 2010.06.25/outbox.cif.g09.slc.cpg/sg12_116_cif.got.tgz:230828.got - 2010.06.28 00:19:55.
