data_PCOD8109086
_publ_section_title
;
Structure prediction by ZEFSAII (Michael W. Deem and Ramdas Pophale) SiO2 
 PCOD8109086
Probable space group: C 2/M
;
_chemical_formula_sum "Si O2"
_cell_formula_units_Z 32
_cell_length_a 15.191736
_cell_length_b 9.502223
_cell_length_c 21.597248
_cell_angle_alpha 90.000000
_cell_angle_beta 30.520689
_cell_angle_gamma 90.000000
_cell_volume 1583.310276
_symmetry_space_group_name_H-M "C 2/M"
_symmetry_group_IT_number 12
_symmetry_cell_setting 'monoclinic'
loop_
_space_group_symop_operation_xyz
x,y,z
-x,y,-z
-x,-y,-z
x,-y,z
1/2+x,1/2+y,z
1/2-x,1/2+y,-z
1/2-x,1/2-y,-z
1/2+x,1/2-y,z
loop_
_atom_site_type_symbol
_atom_site_label
_atom_site_fract_x
_atom_site_fract_y
_atom_site_fract_z
Si Si1 0.077186 0.159333 0.603280
Si Si2 0.778436 0.341621 0.756547
Si Si3 0.344421 0.250926 0.845466
Si Si4 0.981196 0.652406 0.887546
O O1 0.250000 0.250000 0.500000
O O2 0.942746 0.241828 0.639004
O O3 0.991767 0.151819 0.723758
O O4 0.113749 0.000000 0.557690
O O5 0.804852 0.500000 0.715301
O O6 0.760437 0.346915 0.842446
O O7 0.606361 0.278937 0.830180
O O8 0.435511 0.158035 0.842791
O O9 0.194334 0.344801 0.966238
O O10 0.068814 0.500000 0.847366
#
# Coordination Sequence:
#
# PCOD8109086 Si02
#       4
#     8   8   8   8
#     4  10  21  39  62  85 114 155 197 240 290 343
#     4  10  22  38  58  87 120 156 193 238 290 347
#     4   9  23  37  60  85 122 155 192 238 291 346
#     4  11  21  37  61  90 120 154 194 238 292 349
#
# _framework density 20.210822
#
# number of rings (size 3 to 8) (size 9 to 14) (size 15 to 20)
#    1.500    0.500    0.000    3.750    0.000    8.000 
#    0.000    1.250    0.000    6.000    0.000    0.000 
#    0.000    0.000    0.000    0.000    0.000    0.000 
#
# Total GULP energy -198220.628366 kJ/mol
# GULP energy per Si atom -12388.789273 kJ/mol
# Density = 2.016482 g / cm^3
# Si number density = 20.210822 Si / 1000 Ang^3
#
#
#
# Elastic Constant Matrix: (Units=GPa)
#
#
# Indices 1 2 3 4 5 6 
#
# 1 86.7586 40.3463 19.3406 -0.0002 -23.5351 -0.0001
# 2 40.3463 185.8668 36.0170 0.0000 -24.2215 0.0000
# 3 19.3406 36.0170 66.8655 0.0004 -29.5942 -0.0002
# 4 -0.0002 0.0000 0.0004 15.9737 0.0000 -15.0658
# 5 -23.5351 -24.2215 -29.5942 0.0000 19.3567 -0.0001
# 6 -0.0001 0.0000 -0.0002 -15.0658 -0.0001 22.5430
#
#
#
# Elastic Compliance Matrix: (Units=1/GPa)
#
#
# Indices 1 2 3 4 5 6 
#
# 1 0.022384 -0.001456 0.017162 0.000001 0.051634 0.000001
# 2 -0.001456 0.006525 -0.000814 0.000000 0.005150 0.000000
# 3 0.017162 -0.000814 0.059429 -0.000001 0.110708 0.000001
# 4 0.000001 0.000000 -0.000001 0.169346 0.000000 0.113176
# 5 0.051634 0.005150 0.110708 0.000000 0.290146 0.000003
# 6 0.000001 0.000000 0.000001 0.113176 0.000003 0.119997
#
#
# Mechanical properties :
#
#
# Convention : Reuss Voigt Hill
#
# Bulk Modulus (GPa) = 8.46582 58.98876 33.72729
# Shear Modulus (GPa) = 7.38099 27.82713 17.60406
#
# Velocity S-wave (km/s) = 1.91309 3.71461 2.95451
# Velocity P-wave (km/s) = 3.01293 6.90274 5.32567
#
# Compressibility (1/GPa) = 0.11812204
#
# Stress axis : x y z
#
# Youngs Moduli (GPa) = 44.67459 153.25329 16.82693
#
# Poissons Ratio (x) = 0.22313 -0.28879
# Poissons Ratio (y) = 0.06504 0.01370
# Poissons Ratio (z) = -0.76673 0.12481
#
# Static dielectric constant tensor:
#      x y z
#    x 3.491400 0.000000 -0.077430 
#    y 0.000000 3.503290 0.000000 
#    z -0.077430 0.000000 3.447950 
# 
# 
# High freq. dielectric constant tensor:
#      x y z
#    x 1.775800 0.000000 -0.015400 
#    y 0.000000 1.790940 0.000000 
#    z -0.015400 0.000000 1.769580 
# 
# From -- ./inp_files/150883.got.cif
#   From: 2010.06.25/outbox.cif.g09.slc.cpg/sg12_76_cif.got.tgz:150883.got - 2010.06.28 00:19:55.
