data_PCOD8109912
_publ_section_title
;
Structure prediction by ZEFSAII (Michael W. Deem and Ramdas Pophale) SiO2 
 PCOD8109912
Probable space group: C 2/M
;
_chemical_formula_sum "Si O2"
_cell_formula_units_Z 36
_cell_length_a 8.842570
_cell_length_b 14.458118
_cell_length_c 19.388827
_cell_angle_alpha 90.000000
_cell_angle_beta 139.314526
_cell_angle_gamma 90.000000
_cell_volume 1615.946217
_symmetry_space_group_name_H-M "C 2/M"
_symmetry_group_IT_number 12
_symmetry_cell_setting 'monoclinic'
loop_
_space_group_symop_operation_xyz
x,y,z
-x,y,-z
-x,-y,-z
x,-y,z
1/2+x,1/2+y,z
1/2-x,1/2+y,-z
1/2-x,1/2-y,-z
1/2+x,1/2-y,z
loop_
_atom_site_type_symbol
_atom_site_label
_atom_site_fract_x
_atom_site_fract_y
_atom_site_fract_z
Si Si1 0.043148 0.179067 0.935378
Si Si2 0.229122 0.500000 0.395691
Si Si3 0.801862 0.196601 0.264173
Si Si4 0.783354 0.500000 0.979048
Si Si5 0.663096 0.000000 0.212337
Si Si6 0.231838 0.698155 0.394750
O O1 0.116256 0.089256 0.915742
O O2 0.812934 0.226076 0.824414
O O3 0.250000 0.250000 0.000000
O O4 0.000000 0.152572 0.000000
O O5 0.500000 0.500000 0.500000
O O6 0.160740 0.500000 0.292825
O O7 0.148193 0.598652 0.399317
O O8 0.675728 0.195113 0.293999
O O9 0.072351 0.221646 0.371257
O O10 0.788641 0.093220 0.226843
O O11 0.000000 0.500000 0.000000
O O12 0.898099 0.500000 0.094728
O O13 0.500000 0.721271 0.500000
#
# Coordination Sequence:
#
# PCOD8109912 Si02
#       6
#     8   4   8   4   4   8
#     4  12  25  43  65  97 131 175 221 266 321 392
#     4   8  18  37  62  87 119 160 206 255 317 375
#     4  11  23  39  65  90 127 166 214 257 323 385
#     4  12  27  44  67  93 136 172 219 275 328 386
#     4  10  22  39  62  87 130 169 205 257 332 374
#     4  10  21  40  64  93 124 163 210 266 320 383
#
# _framework density 22.277968999999999
#
# number of rings (size 3 to 8) (size 9 to 14) (size 15 to 20)
#    0.000    1.333    2.222    3.000    6.222    0.889 
#    0.000    1.667    0.000    0.000    0.000    0.000 
#    0.000    0.000    0.000    0.000    0.000    0.000 
#
# Total GULP energy -223036.150108 kJ/mol
# GULP energy per Si atom -12390.897228 kJ/mol
# Density = 2.222726 g / cm^3
# Si number density = 22.277969 Si / 1000 Ang^3
#
#
#
# Elastic Constant Matrix: (Units=GPa)
#
#
# Indices 1 2 3 4 5 6 
#
# 1 74.2654 37.2103 -2.9099 0.0001 7.7164 0.0000
# 2 37.2103 190.2761 31.6401 0.0000 32.2455 0.0000
# 3 -2.9099 31.6401 78.8901 0.0002 13.4666 0.0001
# 4 0.0001 0.0000 0.0002 31.9380 0.0001 4.9657
# 5 7.7164 32.2455 13.4666 0.0001 38.3886 0.0001
# 6 0.0000 0.0000 0.0001 4.9657 0.0001 26.5344
#
#
#
# Elastic Compliance Matrix: (Units=1/GPa)
#
#
# Indices 1 2 3 4 5 6 
#
# 1 0.015225 -0.003117 0.002007 0.000000 -0.001146 0.000000
# 2 -0.003117 0.006983 -0.002150 0.000000 -0.004484 0.000000
# 3 0.002007 -0.002150 0.014225 0.000000 -0.003588 0.000000
# 4 0.000000 0.000000 0.000000 0.032249 0.000000 -0.006035
# 5 -0.001146 -0.004484 -0.003588 0.000000 0.031305 0.000000
# 6 0.000000 0.000000 0.000000 -0.006035 0.000000 0.038816
#
#
# Mechanical properties :
#
#
# Convention : Reuss Voigt Hill
#
# Bulk Modulus (GPa) = 33.43045 52.81249 43.12147
# Shear Modulus (GPa) = 32.19739 37.87161 35.03450
#
# Velocity S-wave (km/s) = 3.80578 4.12753 3.96991
# Velocity P-wave (km/s) = 5.86094 6.81711 6.35702
#
# Compressibility (1/GPa) = 0.02991284
#
# Stress axis : x y z
#
# Youngs Moduli (GPa) = 65.68289 143.21500 70.30097
#
# Poissons Ratio (x) = 0.44638 -0.14112
# Poissons Ratio (y) = 0.20472 0.15114
# Poissons Ratio (z) = -0.13185 0.30790
#
# Static dielectric constant tensor:
#      x y z
#    x 3.699260 0.000000 -0.128180 
#    y 0.000000 4.920700 0.000000 
#    z -0.128180 0.000000 4.214260 
# 
# 
# High freq. dielectric constant tensor:
#      x y z
#    x 1.837240 0.000000 -0.005220 
#    y 0.000000 1.897070 0.000000 
#    z -0.005220 0.000000 1.889100 
# 
# From -- ./inp_files/194027.got.cif
#   From: 2010.06.25/outbox.cif.g09.slc.cpg/sg12_98_cif.got.tgz:194027.got - 2010.06.28 00:19:55.
