data_PCOD8109090
_publ_section_title
;
Structure prediction by ZEFSAII (Michael W. Deem and Ramdas Pophale) SiO2 
 PCOD8109090
Probable space group: C 2/M
;
_chemical_formula_sum "Si O2"
_cell_formula_units_Z 56
_cell_length_a 9.413153
_cell_length_b 27.135327
_cell_length_c 12.179659
_cell_angle_alpha 90.000000
_cell_angle_beta 57.705821
_cell_angle_gamma 90.000000
_cell_volume 2629.810505
_symmetry_space_group_name_H-M "C 2/M"
_symmetry_group_IT_number 12
_symmetry_cell_setting 'monoclinic'
loop_
_space_group_symop_operation_xyz
x,y,z
-x,y,-z
-x,-y,-z
x,-y,z
1/2+x,1/2+y,z
1/2-x,1/2+y,-z
1/2-x,1/2-y,-z
1/2+x,1/2-y,z
loop_
_atom_site_type_symbol
_atom_site_label
_atom_site_fract_x
_atom_site_fract_y
_atom_site_fract_z
Si Si1 0.642190 0.896423 0.526471
Si Si2 0.013210 0.128949 0.121150
Si Si3 0.784069 0.806765 0.351647
Si Si4 0.669362 0.057769 0.741218
Si Si5 0.976761 0.945758 0.320748
Si Si6 0.597292 0.711219 0.356856
Si Si7 0.171827 0.647757 0.883831
O O1 0.500000 0.914429 0.500000
O O2 0.682938 0.838510 0.486187
O O3 0.586209 0.912753 0.672214
O O4 0.814014 0.924779 0.443459
O O5 0.192028 0.154601 0.074534
O O6 0.845855 0.159255 0.224892
O O7 0.022613 0.079918 0.188252
O O8 0.000000 0.115967 0.000000
O O9 0.660856 0.765300 0.359419
O O10 0.953094 0.781662 0.326190
O O11 0.624532 0.091560 0.866282
O O12 0.872461 0.057553 0.652966
O O13 0.605568 0.000000 0.776293
O O14 0.936201 0.000000 0.300274
O O15 0.500000 0.686239 0.500000
O O16 0.749741 0.676355 0.254218
O O17 0.000000 0.672543 0.000000
#
# Coordination Sequence:
#
# PCOD8109090 Si02
#       7
#     8   8   8   8   8   8   8
#     4  11  22  36  56  89 125 156 196 255 313 358
#     4   9  20  38  57  82 119 158 199 253 310 361
#     4  10  23  39  60  88 118 154 201 254 304 362
#     4  10  21  39  62  85 118 164 205 245 298 363
#     4   9  19  36  58  85 117 160 210 251 297 362
#     4  11  22  40  64  89 119 157 202 249 304 363
#     4  10  23  40  61  90 122 161 206 252 302 361
#
# _framework density 21.294308999999998
#
# number of rings (size 3 to 8) (size 9 to 14) (size 15 to 20)
#    0.000    2.000    0.000    3.429    0.000    8.000 
#    0.000    2.857    0.000    0.000    0.000    0.000 
#    0.000    0.000    0.000    0.000    0.000    0.000 
#
# Total GULP energy -346875.272362 kJ/mol
# GULP energy per Si atom -12388.402584 kJ/mol
# Density = 2.124584 g / cm^3
# Si number density = 21.294309 Si / 1000 Ang^3
#
#
#
# Elastic Constant Matrix: (Units=GPa)
#
#
# Indices 1 2 3 4 5 6 
#
# 1 105.3263 30.6333 54.8313 0.0000 2.0587 0.0000
# 2 30.6333 112.7977 21.8803 0.0000 5.9952 0.0000
# 3 54.8313 21.8803 103.8051 0.0000 -6.2844 0.0000
# 4 0.0000 0.0000 0.0000 4.3327 0.0000 -0.6775
# 5 2.0587 5.9952 -6.2844 0.0000 41.5159 0.0000
# 6 0.0000 0.0000 0.0000 -0.6775 0.0000 33.2052
#
#
#
# Elastic Compliance Matrix: (Units=1/GPa)
#
#
# Indices 1 2 3 4 5 6 
#
# 1 0.013776 -0.002335 -0.006868 0.000000 -0.001386 0.000000
# 2 -0.002335 0.009752 -0.000909 0.000000 -0.001430 0.000000
# 3 -0.006868 -0.000909 0.013606 0.000000 0.002531 0.000000
# 4 0.000000 0.000000 0.000000 0.231544 0.000000 0.004724
# 5 -0.001386 -0.001430 0.002531 0.000000 0.024746 0.000000
# 6 0.000000 0.000000 0.000000 0.004724 0.000000 0.030212
#
#
# Mechanical properties :
#
#
# Convention : Reuss Voigt Hill
#
# Bulk Modulus (GPa) = 59.13767 59.62431 59.38099
# Shear Modulus (GPa) = 14.30628 30.11637 22.21132
#
# Velocity S-wave (km/s) = 2.59479 3.76479 3.23315
# Velocity P-wave (km/s) = 6.06705 6.85267 6.47179
#
# Compressibility (1/GPa) = 0.01690969
#
# Stress axis : x y z
#
# Youngs Moduli (GPa) = 72.58901 102.54415 73.49600
#
# Poissons Ratio (x) = 0.23948 0.50480
# Poissons Ratio (y) = 0.16952 0.06677
# Poissons Ratio (z) = 0.49857 0.09317
#
# Static dielectric constant tensor:
#      x y z
#    x 3.889450 0.000000 -0.083650 
#    y 0.000000 3.964590 0.000000 
#    z -0.083650 0.000000 3.694660 
# 
# 
# High freq. dielectric constant tensor:
#      x y z
#    x 1.840410 0.000000 -0.002360 
#    y 0.000000 1.829000 0.000000 
#    z -0.002360 0.000000 1.817620 
# 
# From -- ./inp_files/125573.got.cif
#   From: 2010.06.25/outbox.cif.g09.slc.cpg/sg12_63_cif.got.tgz:125573.got - 2010.06.28 00:19:55.
