data_PCOD8109036
_publ_section_title
;
Structure prediction by ZEFSAII (Michael W. Deem and Ramdas Pophale) SiO2 
 PCOD8109036
Probable space group: C 2/M
;
_chemical_formula_sum "Si O2"
_cell_formula_units_Z 44
_cell_length_a 16.327759
_cell_length_b 16.895219
_cell_length_c 12.866502
_cell_angle_alpha 90.000000
_cell_angle_beta 40.816928
_cell_angle_gamma 90.000000
_cell_volume 2320.023213
_symmetry_space_group_name_H-M "C 2/M"
_symmetry_group_IT_number 12
_symmetry_cell_setting 'monoclinic'
loop_
_space_group_symop_operation_xyz
x,y,z
-x,y,-z
-x,-y,-z
x,-y,z
1/2+x,1/2+y,z
1/2-x,1/2+y,-z
1/2-x,1/2-y,-z
1/2+x,1/2-y,z
loop_
_atom_site_type_symbol
_atom_site_label
_atom_site_fract_x
_atom_site_fract_y
_atom_site_fract_z
Si Si1 0.768071 0.217923 0.782178
Si Si2 0.345490 0.216665 0.325325
Si Si3 0.500404 0.908064 0.293000
Si Si4 0.723729 0.410042 0.050190
Si Si5 0.552341 0.666634 0.057539
Si Si6 0.500000 0.176842 0.500000
O O1 0.724352 0.188493 0.711592
O O2 0.796837 0.144194 0.829258
O O3 0.892103 0.268974 0.650261
O O4 0.659576 0.269097 0.937300
O O5 0.250000 0.250000 0.500000
O O6 0.418292 0.138263 0.288511
O O7 0.437987 0.289928 0.221995
O O8 0.455324 0.879799 0.449947
O O9 0.469302 0.000000 0.310984
O O10 0.646876 0.890089 0.133157
O O11 0.723239 0.500000 0.090232
O O12 0.609261 0.399840 0.078581
O O13 0.500000 0.628748 0.000000
#
# Coordination Sequence:
#
# PCOD8109036 Si02
#       6
#     8   8   8   8   8   4
#     4  11  22  37  65  89 118 159 210 250 298 368
#     4  11  22  39  62  91 118 160 210 248 301 361
#     4  11  23  39  62  92 124 155 200 260 311 355
#     4  11  23  40  62  91 124 161 202 252 315 367
#     4  10  21  39  61  88 119 159 211 249 294 365
#     4  12  21  38  65  90 116 162 210 254 295 360
#
# _framework density 18.965326999999998
#
# number of rings (size 3 to 8) (size 9 to 14) (size 15 to 20)
#    0.000    1.091    5.455    1.909    0.000    1.091 
#    0.000    3.182    0.000    0.000    0.000    0.000 
#    0.000    0.000    0.000    0.000    0.000    0.000 
#
# Total GULP energy -272831.950053 kJ/mol
# GULP energy per Si atom -12401.452275 kJ/mol
# Density = 1.892216 g / cm^3
# Si number density = 18.965327 Si / 1000 Ang^3
#
#
#
# Elastic Constant Matrix: (Units=GPa)
#
#
# Indices 1 2 3 4 5 6 
#
# 1 117.3036 45.2930 28.0551 0.0000 10.9793 0.0000
# 2 45.2930 85.3134 37.9623 0.0000 6.4039 0.0000
# 3 28.0551 37.9623 107.7846 0.0000 -0.8709 0.0000
# 4 0.0000 0.0000 0.0000 27.1801 0.0000 0.6263
# 5 10.9793 6.4039 -0.8709 0.0000 32.8122 0.0000
# 6 0.0000 0.0000 0.0000 0.6263 0.0000 23.6607
#
#
#
# Elastic Compliance Matrix: (Units=1/GPa)
#
#
# Indices 1 2 3 4 5 6 
#
# 1 0.011034 -0.005178 -0.001070 0.000000 -0.002710 0.000000
# 2 -0.005178 0.016601 -0.004512 0.000000 -0.001627 0.000000
# 3 -0.001070 -0.004512 0.011158 0.000000 0.001535 0.000000
# 4 0.000000 0.000000 0.000000 0.036814 0.000000 -0.000975
# 5 -0.002710 -0.001627 0.001535 0.000000 0.031741 0.000000
# 6 0.000000 0.000000 0.000000 -0.000975 0.000000 0.042290
#
#
# Mechanical properties :
#
#
# Convention : Reuss Voigt Hill
#
# Bulk Modulus (GPa) = 57.89937 59.22472 58.56205
# Shear Modulus (GPa) = 28.26199 30.00333 29.13266
#
# Velocity S-wave (km/s) = 3.86449 3.98176 3.92356
# Velocity P-wave (km/s) = 7.10688 7.24120 7.17435
#
# Compressibility (1/GPa) = 0.01727134
#
# Stress axis : x y z
#
# Youngs Moduli (GPa) = 90.62989 60.23883 89.62280
#
# Poissons Ratio (x) = 0.31194 0.09590
# Poissons Ratio (y) = 0.46931 0.40439
# Poissons Ratio (z) = 0.09698 0.27180
#
# Static dielectric constant tensor:
#      x y z
#    x 3.522210 0.000000 0.200320 
#    y 0.000000 3.275460 0.000000 
#    z 0.200320 0.000000 3.440850 
# 
# 
# High freq. dielectric constant tensor:
#      x y z
#    x 1.752120 0.000000 0.003470 
#    y 0.000000 1.720800 0.000000 
#    z 0.003470 0.000000 1.745660 
# 
# From -- ./inp_files/145348.got.cif
#   From: 2010.06.25/outbox.cif.g09.slc.cpg/sg12_73_cif.got.tgz:145348.got - 2010.06.28 00:19:55.
