data_PCOD8109493
_publ_section_title
;
Structure prediction by ZEFSAII (Michael W. Deem and Ramdas Pophale) SiO2 
 PCOD8109493
Probable space group: C 2/M
;
_chemical_formula_sum "Si O2"
_cell_formula_units_Z 56
_cell_length_a 29.868134
_cell_length_b 8.984908
_cell_length_c 12.536137
_cell_angle_alpha 90.000000
_cell_angle_beta 52.202691
_cell_angle_gamma 90.000000
_cell_volume 2658.358667
_symmetry_space_group_name_H-M "C 2/M"
_symmetry_group_IT_number 12
_symmetry_cell_setting 'monoclinic'
loop_
_space_group_symop_operation_xyz
x,y,z
-x,y,-z
-x,-y,-z
x,-y,z
1/2+x,1/2+y,z
1/2-x,1/2+y,-z
1/2-x,1/2-y,-z
1/2+x,1/2-y,z
loop_
_atom_site_type_symbol
_atom_site_label
_atom_site_fract_x
_atom_site_fract_y
_atom_site_fract_z
Si Si1 0.131870 0.168455 0.810331
Si Si2 0.889083 0.832345 0.771332
Si Si3 0.933101 0.674220 0.276925
Si Si4 0.207116 0.327781 0.986482
Si Si5 0.249205 0.170997 0.723994
Si Si6 0.130336 0.826582 0.444318
Si Si7 0.953961 0.166537 0.880229
O O1 0.107875 0.283264 0.759893
O O2 0.200914 0.183215 0.702879
O O3 0.115769 0.000000 0.800963
O O4 0.103334 0.203244 0.968370
O O5 0.853225 0.698494 0.872860
O O6 0.895195 0.797699 0.636820
O O7 0.944975 0.824147 0.764074
O O8 0.862674 0.000000 0.822184
O O9 0.928948 0.500000 0.302205
O O10 0.915244 0.756802 0.410756
O O11 0.997371 0.719395 0.155338
O O12 0.220655 0.500000 0.951973
O O13 0.250000 0.250000 0.000000
O O14 0.212291 0.245293 0.868836
O O15 0.308075 0.255875 0.620973
O O16 0.264232 0.000000 0.727530
O O17 0.136849 0.000000 0.457948
O O18 0.974651 0.000000 0.878011
#
# Coordination Sequence:
#
# PCOD8109493 Si02
#       7
#     8   8   8   8   8   8   8
#     4  10  22  42  69  95 123 162 207 259 318 379
#     4  10  21  39  64  95 125 160 207 258 313 375
#     4  12  27  44  62  88 126 168 215 266 311 366
#     4  12  22  33  56  90 130 169 205 253 309 369
#     4  11  22  39  64  96 129 161 204 259 316 376
#     4  11  24  42  65  92 127 171 212 251 309 380
#     4  10  21  42  69  95 124 160 206 260 320 377
#
# _framework density 21.065629999999999
#
# number of rings (size 3 to 8) (size 9 to 14) (size 15 to 20)
#    0.000    1.143    2.857    3.857    0.000    5.714 
#    0.000    2.857    0.000    0.000    0.000    0.000 
#    0.000    0.000    0.000    0.000    0.000    0.000 
#
# Total GULP energy -346968.332385 kJ/mol
# GULP energy per Si atom -12391.726157 kJ/mol
# Density = 2.101768 g / cm^3
# Si number density = 21.065630 Si / 1000 Ang^3
#
#
#
# Elastic Constant Matrix: (Units=GPa)
#
#
# Indices 1 2 3 4 5 6 
#
# 1 72.6363 30.4584 4.0048 0.0000 10.1955 0.0000
# 2 30.4584 109.9812 18.6076 0.0000 5.7027 0.0000
# 3 4.0048 18.6076 58.8471 0.0000 8.4748 0.0000
# 4 0.0000 0.0000 0.0000 34.1900 0.0000 -4.0798
# 5 10.1955 5.7027 8.4748 0.0000 25.1506 0.0000
# 6 0.0000 0.0000 0.0000 -4.0798 0.0000 29.3700
#
#
#
# Elastic Compliance Matrix: (Units=1/GPa)
#
#
# Indices 1 2 3 4 5 6 
#
# 1 0.016407 -0.004426 0.001152 0.000000 -0.006036 0.000000
# 2 -0.004426 0.010836 -0.003184 0.000000 0.000410 0.000000
# 3 0.001152 -0.003184 0.018797 0.000000 -0.006079 0.000000
# 4 0.000000 0.000000 0.000000 0.029741 0.000000 0.004131
# 5 -0.006036 0.000410 -0.006079 0.000000 0.044163 0.000000
# 6 0.000000 0.000000 0.000000 0.004131 0.000000 0.034622
#
#
# Mechanical properties :
#
#
# Convention : Reuss Voigt Hill
#
# Bulk Modulus (GPa) = 30.18968 38.62291 34.40630
# Shear Modulus (GPa) = 28.00772 30.30169 29.15471
#
# Velocity S-wave (km/s) = 3.65025 3.79679 3.72424
# Velocity P-wave (km/s) = 5.66817 6.13150 5.90438
#
# Compressibility (1/GPa) = 0.03312390
#
# Stress axis : x y z
#
# Youngs Moduli (GPa) = 60.95081 92.28875 53.19987
#
# Poissons Ratio (x) = 0.40844 -0.06129
# Poissons Ratio (y) = 0.26975 0.16939
# Poissons Ratio (z) = -0.07022 0.29386
#
# Static dielectric constant tensor:
#      x y z
#    x 3.858930 0.000000 0.087540 
#    y 0.000000 3.595510 0.000000 
#    z 0.087540 0.000000 3.720940 
# 
# 
# High freq. dielectric constant tensor:
#      x y z
#    x 1.834890 0.000000 0.006890 
#    y 0.000000 1.825470 0.000000 
#    z 0.006890 0.000000 1.811060 
# 
# From -- ./inp_files/187158.got.cif
#   From: 2010.06.25/outbox.cif.g09.slc.cpg/sg12_94_cif.got.tgz:187158.got - 2010.06.28 00:19:55.
