data_PCOD8109359
_publ_section_title
;
Structure prediction by ZEFSAII (Michael W. Deem and Ramdas Pophale) SiO2 
 PCOD8109359
Probable space group: C 2/M
;
_chemical_formula_sum "Si O2"
_cell_formula_units_Z 48
_cell_length_a 12.847627
_cell_length_b 21.650185
_cell_length_c 9.048598
_cell_angle_alpha 90.000000
_cell_angle_beta 112.100359
_cell_angle_gamma 90.000000
_cell_volume 2331.973252
_symmetry_space_group_name_H-M "C 2/M"
_symmetry_group_IT_number 12
_symmetry_cell_setting 'monoclinic'
loop_
_space_group_symop_operation_xyz
x,y,z
-x,y,-z
-x,-y,-z
x,-y,z
1/2+x,1/2+y,z
1/2-x,1/2+y,-z
1/2-x,1/2-y,-z
1/2+x,1/2-y,z
loop_
_atom_site_type_symbol
_atom_site_label
_atom_site_fract_x
_atom_site_fract_y
_atom_site_fract_z
Si Si1 0.856029 0.793456 0.057558
Si Si2 0.168915 0.000000 0.164170
Si Si3 0.482216 0.824179 0.150151
Si Si4 0.560527 0.500000 0.785833
Si Si5 0.706220 0.819656 0.458325
Si Si6 0.110613 0.125369 0.642279
Si Si7 0.725417 0.871229 0.783193
O O1 0.962927 0.748967 0.108367
O O2 0.858691 0.829335 0.210853
O O3 0.750000 0.750000 0.000000
O O4 0.840992 0.840470 0.910967
O O5 0.249094 0.057821 0.233197
O O6 0.070077 0.000000 0.234625
O O7 0.129427 0.000000 0.973760
O O8 0.589914 0.826155 0.310757
O O9 0.377436 0.861666 0.159899
O O10 0.500000 0.856124 0.000000
O O11 0.592405 0.557426 0.699208
O O12 0.750000 0.750000 0.500000
O O13 0.790746 0.867747 0.424935
O O14 0.684934 0.840789 0.612087
O O15 0.000000 0.148324 0.500000
#
# Coordination Sequence:
#
# PCOD8109359 Si02
#       7
#     8   4   8   4   8   8   8
#     4  10  21  39  63  92 131 174 218 271 332 400
#     4  11  24  46  71  97 130 177 227 285 335 396
#     4  11  23  40  65  96 134 174 222 274 336 403
#     4  11  25  44  69  98 131 175 231 282 336 397
#     4  12  24  41  67 103 138 178 218 278 338 407
#     4  12  24  42  66  98 136 174 224 280 338 399
#     4  11  23  44  67  95 134 176 225 274 338 401
#
# _framework density 20.583425999999999
#
# number of rings (size 3 to 8) (size 9 to 14) (size 15 to 20)
#    0.000    0.833    1.667    7.750    0.000    2.000 
#    0.000    2.917    0.000    0.000    0.000    0.000 
#    0.000    0.000    0.000    0.000    0.000    0.000 
#
# Total GULP energy -297509.519370 kJ/mol
# GULP energy per Si atom -12396.229974 kJ/mol
# Density = 2.053658 g / cm^3
# Si number density = 20.583426 Si / 1000 Ang^3
#
#
#
# Elastic Constant Matrix: (Units=GPa)
#
#
# Indices 1 2 3 4 5 6 
#
# 1 118.0018 53.0997 46.2658 0.0000 -10.9095 0.0000
# 2 53.0997 129.1137 40.8515 0.0000 -5.4757 0.0000
# 3 46.2658 40.8515 150.5284 0.0000 0.9203 0.0000
# 4 0.0000 0.0000 0.0000 18.3579 0.0000 21.3610
# 5 -10.9095 -5.4757 0.9203 0.0000 46.3981 0.0000
# 6 0.0000 0.0000 0.0000 21.3610 0.0000 -1.0889
#
#
#
# Elastic Compliance Matrix: (Units=1/GPa)
#
#
# Indices 1 2 3 4 5 6 
#
# 1 0.011362 -0.003793 -0.002477 0.000000 0.002273 0.000000
# 2 -0.003793 0.009790 -0.001493 0.000000 0.000293 0.000000
# 3 -0.002477 -0.001493 0.007815 0.000000 -0.000914 0.000000
# 4 0.000000 0.000000 0.000000 0.002286 0.000000 0.044849
# 5 0.002273 0.000293 -0.000914 0.000000 0.022140 0.000000
# 6 0.000000 0.000000 0.000000 0.044849 0.000000 -0.038544
#
#
# Mechanical properties :
#
#
# Convention : Reuss Voigt Hill
#
# Bulk Modulus (GPa) = 74.39205 75.34199 74.86702
# Shear Modulus (GPa) = 143.44953 29.89521 86.67237
#
# Velocity S-wave (km/s) = 8.35722 3.81516 6.49610
# Velocity P-wave (km/s) = 11.37296 7.48932 9.62897
#
# Compressibility (1/GPa) = 0.01344230
#
# Stress axis : x y z
#
# Youngs Moduli (GPa) = 88.00880 102.14759 127.95456
#
# Poissons Ratio (x) = 0.38743 0.31693
# Poissons Ratio (y) = 0.33381 0.19102
# Poissons Ratio (z) = 0.21799 0.15249
#
# Static dielectric constant tensor:
#      x y z
#    x 3.957890 0.000000 0.216070 
#    y 0.000000 4.039520 0.000000 
#    z 0.216070 0.000000 4.380990 
# 
# 
# High freq. dielectric constant tensor:
#      x y z
#    x 1.805780 0.000000 -0.003300 
#    y 0.000000 1.797180 0.000000 
#    z -0.003300 0.000000 1.834290 
# 
# From -- ./inp_files/51504.got.cif
#   From: 2010.06.25/outbox.cif.g09.slc.cpg/sg12_26_cif.got.tgz:51504.got - 2010.06.28 00:19:55.
