data_PCOD8109059
_publ_section_title
;
Structure prediction by ZEFSAII (Michael W. Deem and Ramdas Pophale) SiO2 
 PCOD8109059
Probable space group: C 2/M
;
_chemical_formula_sum "Si O2"
_cell_formula_units_Z 56
_cell_length_a 28.985355
_cell_length_b 9.000817
_cell_length_c 11.004368
_cell_angle_alpha 90.000000
_cell_angle_beta 111.508398
_cell_angle_gamma 90.000000
_cell_volume 2671.028261
_symmetry_space_group_name_H-M "C 2/M"
_symmetry_group_IT_number 12
_symmetry_cell_setting 'monoclinic'
loop_
_space_group_symop_operation_xyz
x,y,z
-x,y,-z
-x,-y,-z
x,-y,z
1/2+x,1/2+y,z
1/2-x,1/2+y,-z
1/2-x,1/2-y,-z
1/2+x,1/2-y,z
loop_
_atom_site_type_symbol
_atom_site_label
_atom_site_fract_x
_atom_site_fract_y
_atom_site_fract_z
Si Si1 0.130109 0.329489 0.969804
Si Si2 0.318142 0.830624 0.731402
Si Si3 0.222138 0.331361 0.662659
Si Si4 0.025652 0.824766 0.400368
Si Si5 0.121353 0.666148 0.424996
Si Si6 0.972461 0.174695 0.099212
Si Si7 0.705270 0.325808 0.888005
O O1 0.122214 0.500000 0.924550
O O2 0.169992 0.313252 0.115572
O O3 0.078586 0.260417 0.959199
O O4 0.152281 0.239496 0.878061
O O5 0.273946 0.718693 0.651341
O O6 0.369283 0.792586 0.707643
O O7 0.302192 0.000000 0.685092
O O8 0.227563 0.500000 0.718306
O O9 0.177175 0.320562 0.526912
O O10 0.210441 0.210057 0.752742
O O11 0.082897 0.774352 0.453850
O O12 0.000000 0.761812 0.500000
O O13 0.000432 0.769567 0.249596
O O14 0.024573 0.000000 0.404630
O O15 0.100104 0.500000 0.420885
O O16 0.962716 0.000000 0.098703
O O17 0.000000 0.215050 0.000000
O O18 0.706654 0.500000 0.913001
O O19 0.750000 0.250000 0.000000
#
# Coordination Sequence:
#
# PCOD8109059 Si02
#       7
#     8   8   8   8   8   8   8
#     4  11  23  38  62  93 124 160 204 251 309 369
#     4  10  21  39  61  89 126 163 200 248 302 362
#     4  11  23  38  60  91 125 161 206 249 299 367
#     4  10  23  42  62  88 120 159 209 260 316 375
#     4  10  23  41  62  90 122 159 206 253 303 366
#     4  10  22  41  64  91 123 161 209 261 313 372
#     4  12  24  40  61  87 123 163 205 252 305 363
#
# _framework density 20.965710000000001
#
# number of rings (size 3 to 8) (size 9 to 14) (size 15 to 20)
#    0.000    1.429    1.429    3.429    2.000    3.429 
#    0.000    0.000    0.000    0.000    0.000    0.000 
#    0.000    0.000    0.000    0.000    0.000    0.000 
#
# Total GULP energy -347166.818381 kJ/mol
# GULP energy per Si atom -12398.814942 kJ/mol
# Density = 2.091799 g / cm^3
# Si number density = 20.965710 Si / 1000 Ang^3
#
#
#
# Elastic Constant Matrix: (Units=GPa)
#
#
# Indices 1 2 3 4 5 6 
#
# 1 140.9645 58.1546 31.5212 0.0000 -10.1847 0.0000
# 2 58.1546 73.8089 22.4313 0.0000 2.0253 0.0000
# 3 31.5212 22.4313 76.8791 0.0000 -12.1016 0.0000
# 4 0.0000 0.0000 0.0000 23.7709 0.0000 1.6269
# 5 -10.1847 2.0253 -12.1016 0.0000 34.4310 0.0000
# 6 0.0000 0.0000 0.0000 1.6269 0.0000 41.5252
#
#
#
# Elastic Compliance Matrix: (Units=1/GPa)
#
#
# Indices 1 2 3 4 5 6 
#
# 1 0.011145 -0.008378 -0.001618 0.000000 0.003221 0.000000
# 2 -0.008378 0.021377 -0.003589 0.000000 -0.004997 0.000000
# 3 -0.001618 -0.003589 0.015535 0.000000 0.005193 0.000000
# 4 0.000000 0.000000 0.000000 0.042181 0.000000 -0.001653
# 5 0.003221 -0.004997 0.005193 0.000000 0.032115 0.000000
# 6 0.000000 0.000000 0.000000 -0.001653 0.000000 0.024146
#
#
# Mechanical properties :
#
#
# Convention : Reuss Voigt Hill
#
# Bulk Modulus (GPa) = 47.87456 57.31852 52.59654
# Shear Modulus (GPa) = 27.68057 31.91514 29.79786
#
# Velocity S-wave (km/s) = 3.63751 3.90584 3.77406
# Velocity P-wave (km/s) = 6.36602 6.90936 6.64325
#
# Compressibility (1/GPa) = 0.02088792
#
# Stress axis : x y z
#
# Youngs Moduli (GPa) = 89.72918 46.77910 64.36904
#
# Poissons Ratio (x) = 0.39189 0.10416
# Poissons Ratio (y) = 0.75171 0.23102
# Poissons Ratio (z) = 0.14519 0.16789
#
# Static dielectric constant tensor:
#      x y z
#    x 3.868500 0.000000 -0.331690 
#    y 0.000000 7.527190 0.000000 
#    z -0.331690 0.000000 4.438200 
# 
# 
# High freq. dielectric constant tensor:
#      x y z
#    x 1.832470 0.000000 -0.012470 
#    y 0.000000 1.816120 0.000000 
#    z -0.012470 0.000000 1.821970 
# 
# From -- ./inp_files/180650.got.cif
#   From: 2010.06.25/outbox.cif.g09.slc.cpg/sg12_91_cif.got.tgz:180650.got - 2010.06.28 00:19:55.
