data_PCOD8109069
_publ_section_title
;
Structure prediction by ZEFSAII (Michael W. Deem and Ramdas Pophale) SiO2 
 PCOD8109069
Probable space group: C 2/M
;
_chemical_formula_sum "Si O2"
_cell_formula_units_Z 48
_cell_length_a 14.132000
_cell_length_b 12.316880
_cell_length_c 26.327487
_cell_angle_alpha 90.000000
_cell_angle_beta 31.036451
_cell_angle_gamma 90.000000
_cell_volume 2362.721760
_symmetry_space_group_name_H-M "C 2/M"
_symmetry_group_IT_number 12
_symmetry_cell_setting 'monoclinic'
loop_
_space_group_symop_operation_xyz
x,y,z
-x,y,-z
-x,-y,-z
x,-y,z
1/2+x,1/2+y,z
1/2-x,1/2+y,-z
1/2-x,1/2-y,-z
1/2+x,1/2-y,z
loop_
_atom_site_type_symbol
_atom_site_label
_atom_site_fract_x
_atom_site_fract_y
_atom_site_fract_z
Si Si1 0.473691 0.000000 0.931789
Si Si2 0.244109 0.371841 0.189700
Si Si3 0.665538 0.716269 0.457692
Si Si4 0.300793 0.500000 0.858124
Si Si5 0.068587 0.620615 0.588209
Si Si6 0.036761 0.732022 0.105247
Si Si7 0.496326 0.275686 0.765158
O O1 0.620989 0.000000 0.907790
O O2 0.507241 0.105780 0.882489
O O3 0.268648 0.000000 0.051113
O O4 0.275633 0.500000 0.164934
O O5 0.435725 0.310291 0.111112
O O6 0.147604 0.317655 0.185268
O O7 0.117617 0.350088 0.296820
O O8 0.500000 0.665134 0.500000
O O9 0.760145 0.628764 0.451211
O O10 0.581725 0.807613 0.532382
O O11 0.814176 0.768287 0.351999
O O12 0.418821 0.394943 0.790402
O O13 0.062730 0.500000 0.569916
O O14 0.964159 0.762047 0.193927
O O15 0.250000 0.750000 0.000000
#
# Coordination Sequence:
#
# PCOD8109069 Si02
#       7
#     4   8   8   4   8   8   8
#     4  11  24  44  66  86 125 165 213 259 307 361
#     4  10  23  43  63  90 126 165 203 251 309 367
#     4  10  21  39  61  91 123 156 201 248 302 363
#     4  11  22  44  65  89 123 165 208 260 306 358
#     4   9  20  40  63  87 122 160 199 247 302 363
#     4  12  25  41  63  92 124 161 207 257 311 366
#     4  11  24  41  64  91 125 163 206 253 307 370
#
# _framework density 20.315553000000001
#
# number of rings (size 3 to 8) (size 9 to 14) (size 15 to 20)
#    0.000    1.500    3.333    1.000    4.667    1.333 
#    0.000    0.833    0.000    0.000    0.000    0.000 
#    0.000    0.000    0.000    0.000    0.000    0.000 
#
# Total GULP energy -297610.340941 kJ/mol
# GULP energy per Si atom -12400.430873 kJ/mol
# Density = 2.026931 g / cm^3
# Si number density = 20.315553 Si / 1000 Ang^3
#
#
#
# Elastic Constant Matrix: (Units=GPa)
#
#
# Indices 1 2 3 4 5 6 
#
# 1 77.7369 19.1938 7.6490 0.0002 -15.5574 0.0000
# 2 19.1938 116.5706 14.5598 -0.0004 -11.4779 -0.0001
# 3 7.6490 14.5598 56.7164 0.0006 -9.9181 -0.0001
# 4 0.0002 -0.0004 0.0006 25.7790 0.0001 2.6154
# 5 -15.5574 -11.4779 -9.9181 0.0001 36.3024 0.0000
# 6 0.0000 -0.0001 -0.0001 2.6154 0.0000 28.0937
#
#
#
# Elastic Compliance Matrix: (Units=1/GPa)
#
#
# Indices 1 2 3 4 5 6 
#
# 1 0.014452 -0.001773 -0.000535 0.000000 0.005487 0.000000
# 2 -0.001773 0.009265 -0.001848 0.000000 0.001665 0.000000
# 3 -0.000535 -0.001848 0.018941 -0.000001 0.004361 0.000000
# 4 0.000000 0.000000 -0.000001 0.039161 0.000000 -0.003646
# 5 0.005487 0.001665 0.004361 0.000000 0.031616 0.000000
# 6 0.000000 0.000000 0.000000 -0.003646 0.000000 0.035935
#
#
# Mechanical properties :
#
#
# Convention : Reuss Voigt Hill
#
# Bulk Modulus (GPa) = 29.11425 37.09212 33.10319
# Shear Modulus (GPa) = 29.56313 32.00978 30.78646
#
# Velocity S-wave (km/s) = 3.81884 3.97373 3.89705
# Velocity P-wave (km/s) = 5.81437 6.27309 6.04808
#
# Compressibility (1/GPa) = 0.03434744
#
# Stress axis : x y z
#
# Youngs Moduli (GPa) = 69.19327 107.93153 52.79597
#
# Poissons Ratio (x) = 0.19132 0.02822
# Poissons Ratio (y) = 0.12265 0.09758
# Poissons Ratio (z) = 0.03699 0.19949
#
# Static dielectric constant tensor:
#      x y z
#    x 4.317840 -0.000010 0.531940 
#    y -0.000010 3.538270 -0.000010 
#    z 0.531940 -0.000010 4.238480 
# 
# 
# High freq. dielectric constant tensor:
#      x y z
#    x 1.800320 0.000000 -0.003840 
#    y 0.000000 1.793440 0.000000 
#    z -0.003840 0.000000 1.796310 
# 
# From -- ./inp_files/250765.got.cif
#   From: 2010.06.25/outbox.cif.g09.slc.cpg/sg12_126_cif.got.tgz:250765.got - 2010.06.28 00:19:55.
