data_PCOD8109478
_publ_section_title
;
Structure prediction by ZEFSAII (Michael W. Deem and Ramdas Pophale) SiO2 
 PCOD8109478
Probable space group: C 2/M
;
_chemical_formula_sum "Si O2"
_cell_formula_units_Z 64
_cell_length_a 28.814079
_cell_length_b 8.728419
_cell_length_c 18.979946
_cell_angle_alpha 90.000000
_cell_angle_beta 139.758589
_cell_angle_gamma 90.000000
_cell_volume 3083.715085
_symmetry_space_group_name_H-M "C 2/M"
_symmetry_group_IT_number 12
_symmetry_cell_setting 'monoclinic'
loop_
_space_group_symop_operation_xyz
x,y,z
-x,y,-z
-x,-y,-z
x,-y,z
1/2+x,1/2+y,z
1/2-x,1/2+y,-z
1/2-x,1/2-y,-z
1/2+x,1/2-y,z
loop_
_atom_site_type_symbol
_atom_site_label
_atom_site_fract_x
_atom_site_fract_y
_atom_site_fract_z
Si Si1 0.571786 0.679606 0.621856
Si Si2 0.419151 0.819817 0.829136
Si Si3 0.852740 0.175005 0.879085
Si Si4 0.323039 0.679355 0.611053
Si Si5 0.957589 0.174823 0.121205
Si Si6 0.297648 0.320524 0.327990
Si Si7 0.378026 0.825621 0.545449
Si Si8 0.039755 0.674570 0.725450
O O1 0.500000 0.743091 0.500000
O O2 0.563585 0.500000 0.624022
O O3 0.642302 0.722928 0.659600
O O4 0.584444 0.755152 0.712873
O O5 0.416688 0.742152 0.903366
O O6 0.344268 0.766250 0.707141
O O7 0.483905 0.769242 0.854583
O O8 0.422090 0.000000 0.842822
O O9 0.779990 0.272173 0.790092
O O10 0.837051 0.000000 0.839551
O O11 0.881786 0.186483 0.992473
O O12 0.317415 0.500000 0.618781
O O13 0.250000 0.750000 0.500000
O O14 0.381377 0.718137 0.618447
O O15 0.944582 0.237758 0.184090
O O16 0.984707 0.000000 0.156591
O O17 0.297956 0.500000 0.345093
O O18 0.316688 0.231149 0.421438
O O19 0.457012 0.812499 0.604400
O O20 0.359810 0.000000 0.546448
O O21 0.062889 0.500000 0.764388
#
# Coordination Sequence:
#
# PCOD8109478 Si02
#       8
#     8   8   8   8   8   8   8   8
#     4  10  21  39  64  93 127 163 204 250 307 374
#     4  12  24  40  63  92 124 161 209 259 307 366
#     4  11  25  44  64  90 124 165 210 259 312 367
#     4  12  24  38  57  83 122 166 206 253 306 368
#     4  11  24  43  67  91 123 166 211 258 310 366
#     4  11  23  40  64  93 125 166 208 255 311 372
#     4  11  22  37  58  88 125 161 199 250 308 369
#     4  11  23  38  63  95 126 158 201 254 307 364
#
# _framework density 20.754189
#
# number of rings (size 3 to 8) (size 9 to 14) (size 15 to 20)
#    0.000    0.875    2.500    5.250    0.000    5.750 
#    0.000    0.625    0.000    0.000    0.000    0.000 
#    0.000    0.000    0.000    0.000    0.000    0.000 
#
# Total GULP energy -396919.662194 kJ/mol
# GULP energy per Si atom -12403.739444 kJ/mol
# Density = 2.070695 g / cm^3
# Si number density = 20.754189 Si / 1000 Ang^3
#
#
#
# Elastic Constant Matrix: (Units=GPa)
#
#
# Indices 1 2 3 4 5 6 
#
# 1 72.5679 25.1153 18.0320 0.0000 -15.3146 0.0000
# 2 25.1153 95.1865 27.5039 0.0000 -10.4549 0.0000
# 3 18.0320 27.5039 87.7976 0.0000 -17.1050 0.0000
# 4 0.0000 0.0000 0.0000 30.4451 0.0000 -0.7717
# 5 -15.3146 -10.4549 -17.1050 0.0000 31.1619 0.0000
# 6 0.0000 0.0000 0.0000 -0.7717 0.0000 34.9649
#
#
#
# Elastic Compliance Matrix: (Units=1/GPa)
#
#
# Indices 1 2 3 4 5 6 
#
# 1 0.016566 -0.003348 -0.001104 0.000000 0.006412 0.000000
# 2 -0.003348 0.012354 -0.003018 0.000000 0.000843 0.000000
# 3 -0.001104 -0.003018 0.013727 0.000000 0.005979 0.000000
# 4 0.000000 0.000000 0.000000 0.032864 0.000000 0.000725
# 5 0.006412 0.000843 0.005979 0.000000 0.038807 0.000000
# 6 0.000000 0.000000 0.000000 0.000725 0.000000 0.028616
#
#
# Mechanical properties :
#
#
# Convention : Reuss Voigt Hill
#
# Bulk Modulus (GPa) = 36.09268 44.09493 40.09380
# Shear Modulus (GPa) = 29.92027 31.64111 30.78069
#
# Velocity S-wave (km/s) = 3.80103 3.90880 3.85529
# Velocity P-wave (km/s) = 6.05739 6.45477 6.25924
#
# Compressibility (1/GPa) = 0.02770645
#
# Stress axis : x y z
#
# Youngs Moduli (GPa) = 60.36282 80.94766 72.84845
#
# Poissons Ratio (x) = 0.27099 0.08046
# Poissons Ratio (y) = 0.20208 0.21987
# Poissons Ratio (z) = 0.06667 0.24432
#
# Static dielectric constant tensor:
#      x y z
#    x 3.820330 0.000000 -0.110000 
#    y 0.000000 3.866700 0.000000 
#    z -0.110000 0.000000 3.811510 
# 
# 
# High freq. dielectric constant tensor:
#      x y z
#    x 1.807000 0.000000 -0.008790 
#    y 0.000000 1.822850 0.000000 
#    z -0.008790 0.000000 1.814840 
# 
# From -- ./inp_files/295727.got.cif
#   From: 2010.06.25/outbox.cif.g09.slc.cpg/sg12_148_cif.got.tgz:295727.got - 2010.06.28 00:19:55.
