data_PCOD8109243
_publ_section_title
;
Structure prediction by ZEFSAII (Michael W. Deem and Ramdas Pophale) SiO2 
 PCOD8109243
Probable space group: C 2/M
;
_chemical_formula_sum "Si O2"
_cell_formula_units_Z 64
_cell_length_a 9.080808
_cell_length_b 14.161388
_cell_length_c 26.464126
_cell_angle_alpha 90.000000
_cell_angle_beta 117.863263
_cell_angle_gamma 90.000000
_cell_volume 3008.654388
_symmetry_space_group_name_H-M "C 2/M"
_symmetry_group_IT_number 12
_symmetry_cell_setting 'monoclinic'
loop_
_space_group_symop_operation_xyz
x,y,z
-x,y,-z
-x,-y,-z
x,-y,z
1/2+x,1/2+y,z
1/2-x,1/2+y,-z
1/2-x,1/2-y,-z
1/2+x,1/2-y,z
loop_
_atom_site_type_symbol
_atom_site_label
_atom_site_fract_x
_atom_site_fract_y
_atom_site_fract_z
Si Si1 0.051877 0.710147 0.196607
Si Si2 0.497388 0.611493 0.873677
Si Si3 0.761458 0.727490 0.354982
Si Si4 0.283659 0.110996 0.091737
Si Si5 0.818733 0.387990 0.985848
Si Si6 0.010260 0.399286 0.443269
Si Si7 0.837563 0.887807 0.441501
Si Si8 0.902565 0.757069 0.273850
O O1 0.247145 0.677612 0.229744
O O2 0.043250 0.822706 0.181159
O O3 0.959678 0.648566 0.140343
O O4 0.964742 0.691893 0.237097
O O5 0.481953 0.500000 0.857142
O O6 0.371200 0.640401 0.898368
O O7 0.682852 0.639346 0.921854
O O8 0.806954 0.833645 0.382769
O O9 0.825726 0.701951 0.309098
O O10 0.567886 0.695569 0.323354
O O11 0.848032 0.660507 0.407869
O O12 0.260845 0.152336 0.031381
O O13 0.299233 0.000000 0.092210
O O14 0.827891 0.500000 0.991573
O O15 0.000000 0.346798 0.000000
O O16 0.993913 0.500000 0.412698
O O17 0.183454 0.354968 0.451983
O O18 0.000000 0.415326 0.500000
O O19 0.000000 0.855550 0.500000
O O20 0.846892 0.000000 0.431807
#
# Coordination Sequence:
#
# PCOD8109243 Si02
#       8
#     8   8   8   8   8   8   8   8
#     4  11  22  43  59  87 117 154 195 260 286 340
#     4  10  21  39  63  86 116 156 192 233 299 365
#     4  11  21  42  63  87 116 165 193 244 292 348
#     4  10  21  39  63  86 116 156 192 233 299 365
#     4   9  19  34  57  92 122 144 186 244 293 355
#     4  10  22  39  62  93 125 155 192 237 291 356
#     4  10  22  39  62  93 125 155 192 237 291 356
#     4  10  24  40  61  83 120 154 206 248 290 328
#
# _framework density 21.271968000000001
#
# number of rings (size 3 to 8) (size 9 to 14) (size 15 to 20)
#    0.000    1.875    2.500    0.750    3.500    3.000 
#    0.000    7.500    0.000    0.000    0.000    0.000 
#    0.000    0.000    0.000    0.000    0.000    0.000 
#
# Total GULP energy -396417.868225 kJ/mol
# GULP energy per Si atom -12388.058382 kJ/mol
# Density = 2.122355 g / cm^3
# Si number density = 21.271968 Si / 1000 Ang^3
#
#
#
# Elastic Constant Matrix: (Units=GPa)
#
#
# Indices 1 2 3 4 5 6 
#
# 1 122.8119 25.1735 49.9489 0.0000 18.5121 0.0000
# 2 25.1735 29.5657 33.3438 0.0000 0.7725 0.0000
# 3 49.9489 33.3438 121.1631 0.0000 23.1812 0.0000
# 4 0.0000 0.0000 0.0000 -101.8676 0.0000 6.0434
# 5 18.5121 0.7725 23.1812 0.0000 50.2597 0.0000
# 6 0.0000 0.0000 0.0000 6.0434 0.0000 16.6938
#
#
#
# Elastic Compliance Matrix: (Units=1/GPa)
#
#
# Indices 1 2 3 4 5 6 
#
# 1 0.010810 -0.006871 -0.002000 0.000000 -0.002953 0.000000
# 2 -0.006871 0.055119 -0.013884 0.000000 0.008087 0.000000
# 3 -0.002000 -0.013884 0.013948 0.000000 -0.005483 0.000000
# 4 0.000000 0.000000 0.000000 -0.009610 0.000000 0.003479
# 5 -0.002953 0.008087 -0.005483 0.000000 0.023389 0.000000
# 6 0.000000 0.000000 0.000000 0.003479 0.000000 0.058643
#
#
# Mechanical properties :
#
#
# Convention : Reuss Voigt Hill
#
# Bulk Modulus (GPa) = 29.09724 54.49701 41.79713
# Shear Modulus (GPa) = 23.89339 4.02215 13.95777
#
# Velocity S-wave (km/s) = 3.35510 1.37656 2.56434
# Velocity P-wave (km/s) = 5.35886 5.31049 5.33473
#
# Compressibility (1/GPa) = 0.03436752
#
# Stress axis : x y z
#
# Youngs Moduli (GPa) = 92.51054 18.14252 71.69638
#
# Poissons Ratio (x) = 0.12465 0.14342
# Poissons Ratio (y) = 0.63559 0.99540
# Poissons Ratio (z) = 0.18506 0.25188
#
# Static dielectric constant tensor:
#      x y z
#    x 4.215560 0.000000 0.176740 
#    y 0.000000 3.573210 0.000000 
#    z 0.176740 0.000000 4.145100 
# 
# 
# High freq. dielectric constant tensor:
#      x y z
#    x 1.850780 0.000000 0.009080 
#    y 0.000000 1.796010 0.000000 
#    z 0.009080 0.000000 1.846800 
# 
# From -- ./inp_files/372612.got.cif
#   From: 2010.06.25/outbox.cif.g09.slc.cpg/sg12_187_cif.got.tgz:372612.got - 2010.06.28 00:19:55.
