data_PCOD8109402
_publ_section_title
;
Structure prediction by ZEFSAII (Michael W. Deem and Ramdas Pophale) SiO2 
 PCOD8109402
Probable space group: C 2/M
;
_chemical_formula_sum "Si O2"
_cell_formula_units_Z 64
_cell_length_a 11.451474
_cell_length_b 16.734154
_cell_length_c 26.386332
_cell_angle_alpha 90.000000
_cell_angle_beta 38.528290
_cell_angle_gamma 90.000000
_cell_volume 3149.656460
_symmetry_space_group_name_H-M "C 2/M"
_symmetry_group_IT_number 12
_symmetry_cell_setting 'monoclinic'
loop_
_space_group_symop_operation_xyz
x,y,z
-x,y,-z
-x,-y,-z
x,-y,z
1/2+x,1/2+y,z
1/2-x,1/2+y,-z
1/2-x,1/2-y,-z
1/2+x,1/2-y,z
loop_
_atom_site_type_symbol
_atom_site_label
_atom_site_fract_x
_atom_site_fract_y
_atom_site_fract_z
Si Si1 0.580771 0.908367 0.647297
Si Si2 0.783815 0.366527 0.198600
Si Si3 0.476650 0.669808 0.953177
Si Si4 0.289932 0.682162 0.214559
Si Si5 0.682111 0.587144 0.339888
Si Si6 0.121850 0.645301 0.015159
Si Si7 0.876566 0.092349 0.846426
Si Si8 0.881335 0.192922 0.490410
O O1 0.395903 0.856621 0.699639
O O2 0.636433 0.896562 0.686904
O O3 0.749499 0.877424 0.555334
O O4 0.538413 0.000000 0.647560
O O5 0.782911 0.277223 0.220845
O O6 0.752490 0.419745 0.258456
O O7 0.619434 0.384590 0.214287
O O8 0.968162 0.393731 0.104497
O O9 0.674675 0.660229 0.856571
O O10 0.418659 0.761875 0.978086
O O11 0.500000 0.630094 0.000000
O O12 0.315788 0.624237 0.977545
O O13 0.468765 0.651639 0.184407
O O14 0.598356 0.500000 0.383097
O O15 0.527214 0.655158 0.401237
O O16 0.167453 0.610367 0.942599
O O17 0.930555 0.000000 0.836412
O O18 0.750000 0.250000 0.500000
O O19 0.000000 0.228808 0.500000
#
# Coordination Sequence:
#
# PCOD8109402 Si02
#       8
#     8   8   8   8   8   8   8   8
#     4  10  21  39  64  88 120 162 198 238 300 374
#     4  11  22  35  60  87 119 156 209 256 299 356
#     4   9  17  31  52  77 112 147 195 258 305 338
#     4  10  22  36  59  86 118 156 207 250 300 366
#     4  10  22  38  60  91 123 154 195 247 302 356
#     4   9  19  32  51  80 108 155 205 247 298 363
#     4  11  23  39  57  83 124 165 202 256 320 369
#     4  10  21  42  68  95 124 154 198 248 298 364
#
# _framework density 20.319676999999999
#
# number of rings (size 3 to 8) (size 9 to 14) (size 15 to 20)
#    0.000    2.000    0.000    4.500    3.500    3.000 
#    2.250    0.000    0.000    2.625    0.000    0.000 
#    0.000    0.000    0.000    0.000    0.000    0.000 
#
# Total GULP energy -396496.434271 kJ/mol
# GULP energy per Si atom -12390.513571 kJ/mol
# Density = 2.027343 g / cm^3
# Si number density = 20.319677 Si / 1000 Ang^3
#
#
#
# Elastic Constant Matrix: (Units=GPa)
#
#
# Indices 1 2 3 4 5 6 
#
# 1 78.2764 23.6948 36.6485 0.0040 11.8198 -0.0009
# 2 23.6948 82.9817 13.2368 0.0129 -4.1688 -0.0016
# 3 36.6485 13.2368 89.6842 0.0324 5.2470 0.0048
# 4 0.0040 0.0129 0.0324 -5.1065 0.0036 0.2127
# 5 11.8198 -4.1688 5.2470 0.0036 35.5295 -0.0009
# 6 -0.0009 -0.0016 0.0048 0.2127 -0.0009 20.8852
#
#
#
# Elastic Compliance Matrix: (Units=1/GPa)
#
#
# Indices 1 2 3 4 5 6 
#
# 1 0.017909 -0.004379 -0.006348 -0.000041 -0.005534 0.000002
# 2 -0.004379 0.013519 -0.000387 0.000030 0.003100 0.000001
# 3 -0.006348 -0.000387 0.013800 0.000082 0.000028 -0.000004
# 4 -0.000041 0.000030 0.000082 -0.195744 0.000025 0.001994
# 5 -0.005534 0.003100 0.000028 0.000025 0.030346 0.000001
# 6 0.000002 0.000001 -0.000004 0.001994 0.000001 0.047861
#
#
# Mechanical properties :
#
#
# Convention : Reuss Voigt Hill
#
# Bulk Modulus (GPa) = 43.48116 44.23360 43.85738
# Shear Modulus (GPa) = -117.88313 22.08578 -47.89867
#
# Velocity S-wave (km/s) = -7.62497 3.30042 -4.86042
# Velocity P-wave (km/s) = 7.48834 6.02825 3.14130
#
# Compressibility (1/GPa) = 0.02299847
#
# Stress axis : x y z
#
# Youngs Moduli (GPa) = 55.83916 73.97123 72.46510
#
# Poissons Ratio (x) = 0.32392 0.46001
# Poissons Ratio (y) = 0.24452 0.02806
# Poissons Ratio (z) = 0.35447 0.02864
#
# Static dielectric constant tensor:
#      x y z
#    x 3.907650 0.000000 0.084460 
#    y 0.000000 3.417830 0.000000 
#    z 0.084460 0.000000 3.705110 
# 
# 
# High freq. dielectric constant tensor:
#      x y z
#    x 1.799930 0.000000 0.006340 
#    y 0.000000 1.774120 0.000000 
#    z 0.006340 0.000000 1.794910 
# 
# From -- ./inp_files/358386.got.cif
#   From: 2010.06.25/outbox.cif.g09.slc.cpg/sg12_180_cif.got.tgz:358386.got - 2010.06.28 00:19:55.
