data_PCOD8109680
_publ_section_title
;
Structure prediction by ZEFSAII (Michael W. Deem and Ramdas Pophale) SiO2 
 PCOD8109680
Probable space group: C 2/M
;
_chemical_formula_sum "Si O2"
_cell_formula_units_Z 44
_cell_length_a 11.497635
_cell_length_b 13.966918
_cell_length_c 24.932351
_cell_angle_alpha 90.000000
_cell_angle_beta 147.096829
_cell_angle_gamma 90.000000
_cell_volume 2174.947699
_symmetry_space_group_name_H-M "C 2/M"
_symmetry_group_IT_number 12
_symmetry_cell_setting 'monoclinic'
loop_
_space_group_symop_operation_xyz
x,y,z
-x,y,-z
-x,-y,-z
x,-y,z
1/2+x,1/2+y,z
1/2-x,1/2+y,-z
1/2-x,1/2-y,-z
1/2+x,1/2-y,z
loop_
_atom_site_type_symbol
_atom_site_label
_atom_site_fract_x
_atom_site_fract_y
_atom_site_fract_z
Si Si1 0.188908 0.700747 0.677937
Si Si2 0.148755 0.886655 0.855294
Si Si3 0.500000 0.257294 0.500000
Si Si4 0.599961 0.108112 0.348839
Si Si5 0.625472 0.892581 0.238518
Si Si6 0.460422 0.110569 0.063883
O O1 0.431851 0.670409 0.760990
O O2 0.051602 0.688424 0.570331
O O3 0.184506 0.814229 0.691470
O O4 0.096198 0.637344 0.689558
O O5 0.314100 0.852069 0.873069
O O6 0.099555 0.000000 0.834782
O O7 0.249979 0.850176 0.951619
O O8 0.700168 0.323820 0.562556
O O9 0.517091 0.114930 0.255208
O O10 0.669551 0.000000 0.389510
O O11 0.451045 0.870141 0.124246
O O12 0.721116 0.000000 0.266601
O O13 0.458760 0.000000 0.048461
#
# Coordination Sequence:
#
# PCOD8109680 Si02
#       6
#     8   8   4   8   8   8
#     4  11  22  36  62  86 116 144 194 245 286 327
#     4   9  18  34  58  88 120 152 184 237 288 329
#     4  10  23  40  57  80 112 156 197 230 283 350
#     4  10  21  40  60  83 115 151 187 236 293 343
#     4   9  20  36  58  84 116 155 191 223 275 347
#     4   8  16  34  58  84 118 156 192 220 275 352
#
# _framework density 20.230371000000002
#
# number of rings (size 3 to 8) (size 9 to 14) (size 15 to 20)
#    0.000    2.545    0.000    2.455    5.091    1.455 
#    0.000    2.727    0.000    4.364    0.000    0.000 
#    0.000    0.000    0.000    0.000    0.000    0.000 
#
# Total GULP energy -272637.716776 kJ/mol
# GULP energy per Si atom -12392.623490 kJ/mol
# Density = 2.018433 g / cm^3
# Si number density = 20.230371 Si / 1000 Ang^3
#
#
#
# Elastic Constant Matrix: (Units=GPa)
#
#
# Indices 1 2 3 4 5 6 
#
# 1 103.1203 31.0526 69.3248 0.0000 -19.7223 0.0000
# 2 31.0526 52.5059 35.7299 0.0000 -7.2949 0.0000
# 3 69.3248 35.7299 132.8452 0.0000 -25.6590 0.0000
# 4 0.0000 0.0000 0.0000 26.0380 0.0000 0.4942
# 5 -19.7223 -7.2949 -25.6590 0.0000 40.2623 0.0000
# 6 0.0000 0.0000 0.0000 0.4942 0.0000 26.2545
#
#
#
# Elastic Compliance Matrix: (Units=1/GPa)
#
#
# Indices 1 2 3 4 5 6 
#
# 1 0.016062 -0.004620 -0.006593 0.000000 0.002829 0.000000
# 2 -0.004620 0.024643 -0.004324 0.000000 -0.000554 0.000000
# 3 -0.006593 -0.004324 0.012950 0.000000 0.004240 0.000000
# 4 0.000000 0.000000 0.000000 0.038419 0.000000 -0.000723
# 5 0.002829 -0.000554 0.004240 0.000000 0.028825 0.000000
# 6 0.000000 0.000000 0.000000 -0.000723 0.000000 0.038102
#
#
# Mechanical properties :
#
#
# Convention : Reuss Voigt Hill
#
# Bulk Modulus (GPa) = 44.28381 62.29844 53.29113
# Shear Modulus (GPa) = 25.30337 28.66856 26.98597
#
# Velocity S-wave (km/s) = 3.54045 3.76853 3.65627
# Velocity P-wave (km/s) = 6.21694 7.05671 6.65009
#
# Compressibility (1/GPa) = 0.02258161
#
# Stress axis : x y z
#
# Youngs Moduli (GPa) = 62.25947 40.57901 77.22007
#
# Poissons Ratio (x) = 0.18746 0.50910
# Poissons Ratio (y) = 0.28762 0.33392
# Poissons Ratio (z) = 0.41047 0.17547
#
# Static dielectric constant tensor:
#      x y z
#    x 3.584720 0.000000 -0.324670 
#    y 0.000000 3.678790 0.000000 
#    z -0.324670 0.000000 3.640270 
# 
# 
# High freq. dielectric constant tensor:
#      x y z
#    x 1.779280 0.000000 -0.027200 
#    y 0.000000 1.784520 0.000000 
#    z -0.027200 0.000000 1.782320 
# 
# From -- ./inp_files/358284.got.cif
#   From: 2010.06.25/outbox.cif.g09.slc.cpg/sg12_180_cif.got.tgz:358284.got - 2010.06.28 00:19:55.
