data_PCOD8109915
_publ_section_title
;
Structure prediction by ZEFSAII (Michael W. Deem and Ramdas Pophale) SiO2 
 PCOD8109915
Probable space group: C 2/M
;
_chemical_formula_sum "Si O2"
_cell_formula_units_Z 56
_cell_length_a 20.146931
_cell_length_b 8.729065
_cell_length_c 19.945848
_cell_angle_alpha 90.000000
_cell_angle_beta 51.531754
_cell_angle_gamma 90.000000
_cell_volume 2746.406683
_symmetry_space_group_name_H-M "C 2/M"
_symmetry_group_IT_number 12
_symmetry_cell_setting 'monoclinic'
loop_
_space_group_symop_operation_xyz
x,y,z
-x,y,-z
-x,-y,-z
x,-y,z
1/2+x,1/2+y,z
1/2-x,1/2+y,-z
1/2-x,1/2-y,-z
1/2+x,1/2-y,z
loop_
_atom_site_type_symbol
_atom_site_label
_atom_site_fract_x
_atom_site_fract_y
_atom_site_fract_z
Si Si1 0.084701 0.679489 0.757745
Si Si2 0.302821 0.321035 0.776571
Si Si3 0.495390 0.321642 0.689154
Si Si4 0.801152 0.679986 0.028377
Si Si5 0.933757 0.321513 0.485110
Si Si6 0.519700 0.319748 0.062939
Si Si7 0.241631 0.677898 0.335065
O O1 0.078223 0.500000 0.774144
O O2 0.024477 0.725105 0.734570
O O3 0.181337 0.726443 0.681614
O O4 0.057892 0.766345 0.842292
O O5 0.293778 0.500000 0.764942
O O6 0.398300 0.278984 0.736546
O O7 0.241261 0.270127 0.875157
O O8 0.275934 0.222297 0.730185
O O9 0.506998 0.500000 0.698053
O O10 0.551995 0.277778 0.589924
O O11 0.799597 0.500000 0.021177
O O12 0.750000 0.750000 0.000000
O O13 0.896340 0.738348 0.963932
O O14 0.946814 0.500000 0.460041
O O15 0.839822 0.284341 0.568992
O O16 0.000000 0.268169 0.500000
O O17 0.532377 0.500000 0.060691
O O18 0.500000 0.267483 0.000000
O O19 0.264793 0.500000 0.323324
#
# Coordination Sequence:
#
# PCOD8109915 Si02
#       7
#     8   8   8   8   8   8   8
#     4  12  26  43  64  91 127 166 208 257 313 374
#     4  10  22  39  61  91 124 159 204 256 308 367
#     4  11  23  40  65  94 128 167 209 258 312 369
#     4  11  23  39  61  90 125 165 208 259 314 370
#     4  10  21  40  64  94 127 163 208 256 308 370
#     4  11  24  43  66  92 125 164 209 259 313 375
#     4  11  23  40  65  92 124 162 205 255 307 368
#
# _framework density 20.390280000000001
#
# number of rings (size 3 to 8) (size 9 to 14) (size 15 to 20)
#    0.000    1.143    1.429    4.714    0.000    8.286 
#    0.000    0.000    0.000    0.000    0.000    0.000 
#    0.000    0.000    0.000    0.000    0.000    0.000 
#
# Total GULP energy -347435.994803 kJ/mol
# GULP energy per Si atom -12408.428386 kJ/mol
# Density = 2.034387 g / cm^3
# Si number density = 20.390280 Si / 1000 Ang^3
#
#
#
# Elastic Constant Matrix: (Units=GPa)
#
#
# Indices 1 2 3 4 5 6 
#
# 1 81.1811 19.9002 18.0170 0.0000 -3.8052 0.0002
# 2 19.9002 45.4532 26.2898 0.0002 5.4769 0.0005
# 3 18.0170 26.2898 88.7249 0.0001 -5.3534 0.0000
# 4 0.0000 0.0002 0.0001 35.0314 0.0000 1.5368
# 5 -3.8052 5.4769 -5.3534 0.0000 33.8526 0.0000
# 6 0.0002 0.0005 0.0000 1.5368 0.0000 38.1723
#
#
#
# Elastic Compliance Matrix: (Units=1/GPa)
#
#
# Indices 1 2 3 4 5 6 
#
# 1 0.014090 -0.005895 -0.000971 0.000000 0.002384 0.000000
# 2 -0.005895 0.030109 -0.008136 0.000000 -0.006820 0.000000
# 3 -0.000971 -0.008136 0.014086 0.000000 0.003435 0.000000
# 4 0.000000 0.000000 0.000000 0.028596 0.000000 -0.001151
# 5 0.002384 -0.006820 0.003435 0.000000 0.031454 0.000000
# 6 0.000000 0.000000 0.000000 -0.001151 0.000000 0.026243
#
#
# Mechanical properties :
#
#
# Convention : Reuss Voigt Hill
#
# Bulk Modulus (GPa) = 35.35790 38.19705 36.77747
# Shear Modulus (GPa) = 27.17242 31.48806 29.33024
#
# Velocity S-wave (km/s) = 3.65446 3.93398 3.79679
# Velocity P-wave (km/s) = 5.93169 6.27763 6.10711
#
# Compressibility (1/GPa) = 0.02828223
#
# Stress axis : x y z
#
# Youngs Moduli (GPa) = 70.97064 33.21253 70.99286
#
# Poissons Ratio (x) = 0.19578 0.06892
# Poissons Ratio (y) = 0.41836 0.57760
# Poissons Ratio (z) = 0.06890 0.27022
#
# Static dielectric constant tensor:
#      x y z
#    x 3.679430 0.000000 -0.073330 
#    y 0.000000 3.686290 0.000000 
#    z -0.073330 0.000000 3.858570 
# 
# 
# High freq. dielectric constant tensor:
#      x y z
#    x 1.807470 0.000000 -0.004460 
#    y 0.000000 1.802260 0.000000 
#    z -0.004460 0.000000 1.810510 
# 
# From -- ./inp_files/319730.got.cif
#   From: 2010.06.25/outbox.cif.g09.slc.cpg/sg12_160_cif.got.tgz:319730.got - 2010.06.28 00:19:55.
