data_PCOD8109697
_publ_section_title
;
Structure prediction by ZEFSAII (Michael W. Deem and Ramdas Pophale) SiO2 
 PCOD8109697
Probable space group: C 2/M
;
_chemical_formula_sum "Si O2"
_cell_formula_units_Z 44
_cell_length_a 26.806578
_cell_length_b 12.941820
_cell_length_c 6.626692
_cell_angle_alpha 90.000000
_cell_angle_beta 75.915049
_cell_angle_gamma 90.000000
_cell_volume 2229.854794
_symmetry_space_group_name_H-M "C 2/M"
_symmetry_group_IT_number 12
_symmetry_cell_setting 'monoclinic'
loop_
_space_group_symop_operation_xyz
x,y,z
-x,y,-z
-x,-y,-z
x,-y,z
1/2+x,1/2+y,z
1/2-x,1/2+y,-z
1/2-x,1/2-y,-z
1/2+x,1/2-y,z
loop_
_atom_site_type_symbol
_atom_site_label
_atom_site_fract_x
_atom_site_fract_y
_atom_site_fract_z
Si Si1 0.271071 0.381253 0.785894
Si Si2 0.581702 0.882352 0.225123
Si Si3 0.000000 0.687891 0.000000
Si Si4 0.326769 0.757637 0.053769
Si Si5 0.356245 0.616853 0.378797
Si Si6 0.047417 0.780722 0.571888
O O1 0.264315 0.500000 0.855248
O O2 0.215357 0.331700 0.801407
O O3 0.302901 0.370082 0.549144
O O4 0.299597 0.325665 0.940086
O O5 0.539937 0.881663 0.086364
O O6 0.560034 0.826785 0.445777
O O7 0.593988 0.000000 0.271410
O O8 0.634277 0.827531 0.109918
O O9 0.031896 0.760590 0.817732
O O10 0.357882 0.696233 0.193046
O O11 0.362361 0.500000 0.293682
O O12 0.403771 0.643132 0.480634
O O13 0.000000 0.835094 0.500000
#
# Coordination Sequence:
#
# PCOD8109697 Si02
#       6
#     8   8   4   8   8   8
#     4  10  22  39  61  88 120 157 194 242 298 347
#     4  11  22  37  61  89 119 156 196 239 298 354
#     4  10  21  40  61  82 124 152 197 246 299 344
#     4  11  21  39  62  88 123 153 198 244 288 352
#     4  11  22  40  63  88 118 159 200 240 294 348
#     4  10  22  40  60  88 122 155 197 248 288 350
#
# _framework density 19.732226000000001
#
# number of rings (size 3 to 8) (size 9 to 14) (size 15 to 20)
#    0.000    1.455    3.636    1.909    0.000    4.364 
#    0.000    0.455    0.000    0.000    0.000    0.000 
#    0.000    0.000    0.000    0.000    0.000    0.000 
#
# Total GULP energy -272873.189932 kJ/mol
# GULP energy per Si atom -12403.326815 kJ/mol
# Density = 1.968731 g / cm^3
# Si number density = 19.732226 Si / 1000 Ang^3
#
#
#
# Elastic Constant Matrix: (Units=GPa)
#
#
# Indices 1 2 3 4 5 6 
#
# 1 113.8628 49.0557 29.6707 0.0000 -6.1248 0.0000
# 2 49.0557 99.3280 27.8087 0.0000 -5.8654 0.0000
# 3 29.6707 27.8087 86.3397 0.0000 -8.5682 0.0000
# 4 0.0000 0.0000 0.0000 23.5091 0.0000 -2.3848
# 5 -6.1248 -5.8654 -8.5682 0.0000 28.2464 0.0000
# 6 0.0000 0.0000 0.0000 -2.3848 0.0000 21.9942
#
#
#
# Elastic Compliance Matrix: (Units=1/GPa)
#
#
# Indices 1 2 3 4 5 6 
#
# 1 0.011590 -0.005039 -0.002283 0.000000 0.000774 0.000000
# 2 -0.005039 0.013300 -0.002460 0.000000 0.000923 0.000000
# 3 -0.002283 -0.002460 0.013465 0.000000 0.003078 0.000000
# 4 0.000000 0.000000 0.000000 0.043010 0.000000 0.004664
# 5 0.000774 0.000923 0.003078 0.000000 0.036696 0.000000
# 6 0.000000 0.000000 0.000000 0.004664 0.000000 0.045972
#
#
# Mechanical properties :
#
#
# Convention : Reuss Voigt Hill
#
# Bulk Modulus (GPa) = 53.22181 56.95563 55.08872
# Shear Modulus (GPa) = 26.33509 27.61630 26.97569
#
# Velocity S-wave (km/s) = 3.65721 3.74512 3.70143
# Velocity P-wave (km/s) = 6.69807 6.90132 6.80045
#
# Compressibility (1/GPa) = 0.01878929
#
# Stress axis : x y z
#
# Youngs Moduli (GPa) = 86.28057 75.18979 74.26839
#
# Poissons Ratio (x) = 0.37889 0.16956
# Poissons Ratio (y) = 0.43478 0.18273
# Poissons Ratio (z) = 0.19698 0.18499
#
# Static dielectric constant tensor:
#      x y z
#    x 3.775190 0.000000 -0.111180 
#    y 0.000000 3.446050 0.000000 
#    z -0.111180 0.000000 3.470240 
# 
# 
# High freq. dielectric constant tensor:
#      x y z
#    x 1.785960 0.000000 -0.009080 
#    y 0.000000 1.759710 0.000000 
#    z -0.009080 0.000000 1.767840 
# 
# From -- ./inp_files/30807.got.cif
#   From: 2010.06.25/outbox.cif.g09.slc.cpg/sg12_16_cif.got.tgz:30807.got - 2010.06.28 00:19:55.
