data_PCOD8109423
_publ_section_title
;
Structure prediction by ZEFSAII (Michael W. Deem and Ramdas Pophale) SiO2 
 PCOD8109423
Probable space group: C 2/M
;
_chemical_formula_sum "Si O2"
_cell_formula_units_Z 28
_cell_length_a 8.998363
_cell_length_b 15.250365
_cell_length_c 17.292329
_cell_angle_alpha 90.000000
_cell_angle_beta 34.042422
_cell_angle_gamma 90.000000
_cell_volume 1328.419463
_symmetry_space_group_name_H-M "C 2/M"
_symmetry_group_IT_number 12
_symmetry_cell_setting 'monoclinic'
loop_
_space_group_symop_operation_xyz
x,y,z
-x,y,-z
-x,-y,-z
x,-y,z
1/2+x,1/2+y,z
1/2-x,1/2+y,-z
1/2-x,1/2-y,-z
1/2+x,1/2-y,z
loop_
_atom_site_type_symbol
_atom_site_label
_atom_site_fract_x
_atom_site_fract_y
_atom_site_fract_z
Si Si1 0.934778 0.000000 0.803641
Si Si2 0.811117 0.173977 0.256950
Si Si3 0.514125 0.000000 0.121409
Si Si4 0.462620 0.836731 0.777510
Si Si5 0.000000 0.219383 0.500000
O O1 0.779668 0.000000 0.788930
O O2 0.121273 0.084861 0.727478
O O3 0.731869 0.000000 0.961507
O O4 0.780007 0.157751 0.178608
O O5 0.538155 0.216335 0.408895
O O6 0.048245 0.244395 0.170884
O O7 0.558464 0.084992 0.153699
O O8 0.738384 0.842281 0.608838
#
# Coordination Sequence:
#
# PCOD8109423 Si02
#       5
#     4   8   4   8   4
#     4  11  25  42  61  88 121 160 206 249 296 353
#     4  10  21  39  64  91 122 158 198 246 300 357
#     4  11  25  42  61  88 121 160 206 249 296 353
#     4  10  21  39  64  91 122 158 198 246 300 357
#     4   8  22  38  64  92 124 152 198 244 302 360
#
# _framework density 21.077680000000001
#
# number of rings (size 3 to 8) (size 9 to 14) (size 15 to 20)
#    1.714    0.286    0.000    3.429    0.000    4.571 
#    0.000    0.000    0.000    0.000    0.000    0.000 
#    0.000    0.000    0.000    0.000    0.000    0.000 
#
# Total GULP energy -173462.980078 kJ/mol
# GULP energy per Si atom -12390.212863 kJ/mol
# Density = 2.102971 g / cm^3
# Si number density = 21.077680 Si / 1000 Ang^3
#
#
#
# Elastic Constant Matrix: (Units=GPa)
#
#
# Indices 1 2 3 4 5 6 
#
# 1 116.8376 19.2185 -7.3052 0.0110 28.5590 -0.0072
# 2 19.2185 118.8774 -4.0752 -0.0680 14.0640 -0.0190
# 3 -7.3052 -4.0752 32.9887 -0.0489 9.1582 -0.0148
# 4 0.0110 -0.0680 -0.0489 26.1704 -0.0646 13.1360
# 5 28.5590 14.0640 9.1582 -0.0646 30.0927 -0.0050
# 6 -0.0072 -0.0190 -0.0148 13.1360 -0.0050 41.1755
#
#
#
# Elastic Compliance Matrix: (Units=1/GPa)
#
#
# Indices 1 2 3 4 5 6 
#
# 1 0.012309 -0.000162 0.006475 -0.000034 -0.013576 0.000014
# 2 -0.000162 0.009094 0.002430 0.000017 -0.004836 -0.000001
# 3 0.006475 0.002430 0.037213 0.000024 -0.018605 0.000006
# 4 -0.000034 0.000017 0.000024 0.045497 0.000112 -0.014515
# 5 -0.013576 -0.004836 -0.018605 0.000112 0.054038 -0.000040
# 6 0.000014 -0.000001 0.000006 -0.014515 -0.000040 0.028917
#
#
# Mechanical properties :
#
#
# Convention : Reuss Voigt Hill
#
# Bulk Modulus (GPa) = 13.14040 31.59779 22.36909
# Shear Modulus (GPa) = 25.64790 36.87876 31.26333
#
# Velocity S-wave (km/s) = 3.49209 4.18743 3.85547
# Velocity P-wave (km/s) = 4.74420 6.19702 5.51863
#
# Compressibility (1/GPa) = 0.07610119
#
# Stress axis : x y z
#
# Youngs Moduli (GPa) = 81.24219 109.96721 26.87261
#
# Poissons Ratio (x) = 0.01779 -0.17399
# Poissons Ratio (y) = 0.01315 -0.06530
# Poissons Ratio (z) = -0.52602 -0.26723
#
# Static dielectric constant tensor:
#      x y z
#    x 3.746370 0.000000 0.068080 
#    y 0.000000 3.775130 -0.000080 
#    z 0.068080 -0.000080 3.475050 
# 
# 
# High freq. dielectric constant tensor:
#      x y z
#    x 1.828660 0.000000 0.009810 
#    y 0.000000 1.824600 0.000010 
#    z 0.009810 0.000010 1.804760 
# 
# From -- ./inp_files/194400.got.cif
#   From: 2010.06.25/outbox.cif.g09.slc.cpg/sg12_98_cif.got.tgz:194400.got - 2010.06.28 00:19:55.
