data_PCOD8109906
_publ_section_title
;
Structure prediction by ZEFSAII (Michael W. Deem and Ramdas Pophale) SiO2 
 PCOD8109906
Probable space group: C 2/M
;
_chemical_formula_sum "Si O2"
_cell_formula_units_Z 56
_cell_length_a 19.676006
_cell_length_b 26.237133
_cell_length_c 8.756437
_cell_angle_alpha 90.000000
_cell_angle_beta 142.964344
_cell_angle_gamma 90.000000
_cell_volume 2722.715106
_symmetry_space_group_name_H-M "C 2/M"
_symmetry_group_IT_number 12
_symmetry_cell_setting 'monoclinic'
loop_
_space_group_symop_operation_xyz
x,y,z
-x,y,-z
-x,-y,-z
x,-y,z
1/2+x,1/2+y,z
1/2-x,1/2+y,-z
1/2-x,1/2-y,-z
1/2+x,1/2-y,z
loop_
_atom_site_type_symbol
_atom_site_label
_atom_site_fract_x
_atom_site_fract_y
_atom_site_fract_z
Si Si1 0.095733 0.945141 0.295909
Si Si2 0.227924 0.179001 0.084843
Si Si3 0.931820 0.607911 0.518815
Si Si4 0.582633 0.847117 0.026196
Si Si5 0.705399 0.287368 0.700872
Si Si6 0.509125 0.657636 0.197640
Si Si7 0.844956 0.557129 0.656720
O O1 0.068177 0.896387 0.352929
O O2 0.210924 0.935652 0.410867
O O3 0.101203 0.000000 0.395819
O O4 0.000000 0.948907 0.000000
O O5 0.322089 0.135814 0.257063
O O6 0.272010 0.227271 0.259979
O O7 0.199382 0.192344 0.860906
O O8 0.114925 0.158133 0.957282
O O9 0.893400 0.566706 0.574203
O O10 0.000000 0.582109 0.500000
O O11 0.017783 0.648957 0.748773
O O12 0.695733 0.814772 0.216265
O O13 0.606282 0.904341 0.130122
O O14 0.500000 0.819358 0.000000
O O15 0.585833 0.297247 0.404121
O O16 0.500000 0.663585 0.000000
O O17 0.878793 0.500000 0.767487
#
# Coordination Sequence:
#
# PCOD8109906 Si02
#       7
#     8   8   8   8   8   8   8
#     4   9  17  33  61  90 123 160 204 257 319 376
#     4  11  26  41  65  88 128 174 211 257 323 386
#     4  11  22  39  61  89 128 165 214 262 309 378
#     4  10  22  39  64  90 123 166 207 265 315 374
#     4  11  24  44  62  90 126 172 213 254 326 381
#     4  11  23  40  65  97 128 161 214 269 313 375
#     4  10  21  40  64  92 125 167 213 264 328 383
#
# _framework density 20.567705
#
# number of rings (size 3 to 8) (size 9 to 14) (size 15 to 20)
#    0.000    1.571    2.857    2.143    4.000    4.000 
#    0.000    0.000    0.000    3.429    0.000    0.000 
#    0.000    0.000    0.000    0.000    0.000    0.000 
#
# Total GULP energy -347121.271377 kJ/mol
# GULP energy per Si atom -12397.188263 kJ/mol
# Density = 2.052089 g / cm^3
# Si number density = 20.567705 Si / 1000 Ang^3
#
#
#
# Elastic Constant Matrix: (Units=GPa)
#
#
# Indices 1 2 3 4 5 6 
#
# 1 132.6298 44.0978 37.2328 0.0000 22.5100 0.0000
# 2 44.0978 97.3474 17.2452 0.0000 10.1613 0.0000
# 3 37.2328 17.2452 95.7501 0.0000 19.3093 0.0000
# 4 0.0000 0.0000 0.0000 22.3374 0.0000 -1.2464
# 5 22.5100 10.1613 19.3093 0.0000 36.0131 0.0000
# 6 0.0000 0.0000 0.0000 -1.2464 0.0000 22.0872
#
#
#
# Elastic Compliance Matrix: (Units=1/GPa)
#
#
# Indices 1 2 3 4 5 6 
#
# 1 0.010153 -0.003747 -0.002474 0.000000 -0.003962 0.000000
# 2 -0.003747 0.012153 -0.000575 0.000000 -0.000779 0.000000
# 3 -0.002474 -0.000575 0.012518 0.000000 -0.005004 0.000000
# 4 0.000000 0.000000 0.000000 0.044909 0.000000 0.002534
# 5 -0.003962 -0.000779 -0.005004 0.000000 0.033147 0.000000
# 6 0.000000 0.000000 0.000000 0.002534 0.000000 0.045418
#
#
# Mechanical properties :
#
#
# Convention : Reuss Voigt Hill
#
# Bulk Modulus (GPa) = 47.09803 58.09768 52.59786
# Shear Modulus (GPa) = 27.93800 31.23096 29.58448
#
# Velocity S-wave (km/s) = 3.68957 3.90095 3.79673
# Velocity P-wave (km/s) = 6.41087 6.97125 6.69692
#
# Compressibility (1/GPa) = 0.02123231
#
# Stress axis : x y z
#
# Youngs Moduli (GPa) = 98.49622 82.28386 79.88237
#
# Poissons Ratio (x) = 0.30834 0.19763
# Poissons Ratio (y) = 0.36909 0.04591
# Poissons Ratio (z) = 0.24368 0.04729
#
# Static dielectric constant tensor:
#      x y z
#    x 3.985900 0.000000 0.358590 
#    y 0.000000 4.142060 0.000000 
#    z 0.358590 0.000000 3.880820 
# 
# 
# High freq. dielectric constant tensor:
#      x y z
#    x 1.803530 0.000000 0.024490 
#    y 0.000000 1.796690 0.000000 
#    z 0.024490 0.000000 1.815370 
# 
# From -- ./inp_files/80499.got.cif
#   From: 2010.06.25/outbox.cif.g09.slc.cpg/sg12_41_cif.got.tgz:80499.got - 2010.06.28 00:19:55.
