data_PCOD8109467
_publ_section_title
;
Structure prediction by ZEFSAII (Michael W. Deem and Ramdas Pophale) SiO2 
 PCOD8109467
Probable space group: C 2/M
;
_chemical_formula_sum "Si O2"
_cell_formula_units_Z 64
_cell_length_a 24.016173
_cell_length_b 8.585103
_cell_length_c 15.106994
_cell_angle_alpha 90.000000
_cell_angle_beta 87.786151
_cell_angle_gamma 90.000000
_cell_volume 3112.455102
_symmetry_space_group_name_H-M "C 2/M"
_symmetry_group_IT_number 12
_symmetry_cell_setting 'monoclinic'
loop_
_space_group_symop_operation_xyz
x,y,z
-x,y,-z
-x,-y,-z
x,-y,z
1/2+x,1/2+y,z
1/2-x,1/2+y,-z
1/2-x,1/2-y,-z
1/2+x,1/2-y,z
loop_
_atom_site_type_symbol
_atom_site_label
_atom_site_fract_x
_atom_site_fract_y
_atom_site_fract_z
Si Si1 0.393464 0.817767 0.526683
Si Si2 0.779360 0.181802 0.580500
Si Si3 0.040890 0.820729 0.324412
Si Si4 0.414045 0.681191 0.332153
Si Si5 0.845986 0.679413 0.172711
Si Si6 0.756371 0.676385 0.753001
Si Si7 0.637928 0.321523 0.190102
Si Si8 0.186914 0.819252 0.997896
O O1 0.344627 0.717554 0.574437
O O2 0.445472 0.780413 0.588215
O O3 0.401362 0.771645 0.423824
O O4 0.379457 0.000000 0.530455
O O5 0.750000 0.250000 0.500000
O O6 0.744148 0.279301 0.653588
O O7 0.769104 0.000000 0.595189
O O8 0.076794 0.781192 0.233320
O O9 0.977612 0.784840 0.301196
O O10 0.048528 0.000000 0.351598
O O11 0.402364 0.500000 0.350317
O O12 0.377244 0.733362 0.250509
O O13 0.862519 0.500000 0.175414
O O14 0.779457 0.707170 0.184630
O O15 0.854796 0.746976 0.073817
O O16 0.739696 0.500000 0.775684
O O17 0.821526 0.705848 0.761128
O O18 0.653090 0.500000 0.212085
O O19 0.648017 0.289450 0.086017
O O20 0.195718 0.000000 0.977895
O O21 0.250000 0.750000 0.000000
#
# Coordination Sequence:
#
# PCOD8109467 Si02
#       8
#     8   8   8   8   8   8   8   8
#     4  12  24  39  61  92 126 164 210 258 309 369
#     4  12  24  39  57  83 123 164 206 252 307 372
#     4  10  22  42  67  92 123 165 213 261 311 367
#     4  11  24  43  65  90 122 165 214 264 314 369
#     4  12  25  42  63  90 127 168 208 258 316 376
#     4  12  23  37  60  90 123 160 201 251 311 371
#     4  10  21  39  64  93 124 160 201 251 307 369
#     4  11  22  38  64  96 129 162 205 254 311 378
#
# _framework density 20.562546999999999
#
# number of rings (size 3 to 8) (size 9 to 14) (size 15 to 20)
#    0.000    0.750    2.500    6.375    0.000    3.000 
#    0.000    0.625    0.000    3.750    0.000    0.000 
#    0.000    0.000    0.000    0.000    0.000    0.000 
#
# Total GULP energy -396613.620452 kJ/mol
# GULP energy per Si atom -12394.175639 kJ/mol
# Density = 2.051575 g / cm^3
# Si number density = 20.562547 Si / 1000 Ang^3
#
#
#
# Elastic Constant Matrix: (Units=GPa)
#
#
# Indices 1 2 3 4 5 6 
#
# 1 62.4086 23.6709 24.5237 0.0000 -0.0889 0.0000
# 2 23.6709 91.5645 37.1583 0.0000 -0.3149 0.0000
# 3 24.5237 37.1583 132.9419 0.0000 -0.7860 0.0000
# 4 0.0000 0.0000 0.0000 33.8419 0.0000 3.0015
# 5 -0.0889 -0.3149 -0.7860 0.0000 27.7174 0.0000
# 6 0.0000 0.0000 0.0000 3.0015 0.0000 25.0576
#
#
#
# Elastic Compliance Matrix: (Units=1/GPa)
#
#
# Indices 1 2 3 4 5 6 
#
# 1 0.018382 -0.003808 -0.002327 0.000000 -0.000050 0.000000
# 2 -0.003808 0.013107 -0.002961 0.000000 0.000053 0.000000
# 3 -0.002327 -0.002961 0.008780 0.000000 0.000208 0.000000
# 4 0.000000 0.000000 0.000000 0.029866 0.000000 -0.003578
# 5 -0.000050 0.000053 0.000208 0.000000 0.036085 0.000000
# 6 0.000000 0.000000 0.000000 -0.003578 0.000000 0.040337
#
#
# Mechanical properties :
#
#
# Convention : Reuss Voigt Hill
#
# Bulk Modulus (GPa) = 45.29349 50.84675 48.07012
# Shear Modulus (GPa) = 29.05148 30.76084 29.90616
#
# Velocity S-wave (km/s) = 3.76285 3.87197 3.81780
# Velocity P-wave (km/s) = 6.39951 6.69112 6.54693
#
# Compressibility (1/GPa) = 0.02207823
#
# Stress axis : x y z
#
# Youngs Moduli (GPa) = 54.40091 76.29260 113.89347
#
# Poissons Ratio (x) = 0.29052 0.26501
# Poissons Ratio (y) = 0.20716 0.33722
# Poissons Ratio (z) = 0.12658 0.22589
#
# Static dielectric constant tensor:
#      x y z
#    x 3.338020 0.000000 -0.027450 
#    y 0.000000 2.746290 0.000000 
#    z -0.027450 0.000000 3.994260 
# 
# 
# High freq. dielectric constant tensor:
#      x y z
#    x 1.789770 0.000000 -0.004830 
#    y 0.000000 1.808570 0.000000 
#    z -0.004830 0.000000 1.822020 
# 
# From -- ./inp_files/238762.got.cif
#   From: 2010.06.25/outbox.cif.g09.slc.cpg/sg12_120_cif.got.tgz:238762.got - 2010.06.28 00:19:55.
