data_PCOD8109608
_publ_section_title
;
Structure prediction by ZEFSAII (Michael W. Deem and Ramdas Pophale) SiO2 
 PCOD8109608
Probable space group: C 2/M
;
_chemical_formula_sum "Si O2"
_cell_formula_units_Z 64
_cell_length_a 9.152409
_cell_length_b 18.585737
_cell_length_c 29.049713
_cell_angle_alpha 90.000000
_cell_angle_beta 140.603962
_cell_angle_gamma 90.000000
_cell_volume 3136.244162
_symmetry_space_group_name_H-M "C 2/M"
_symmetry_group_IT_number 12
_symmetry_cell_setting 'monoclinic'
loop_
_space_group_symop_operation_xyz
x,y,z
-x,y,-z
-x,-y,-z
x,-y,z
1/2+x,1/2+y,z
1/2-x,1/2+y,-z
1/2-x,1/2-y,-z
1/2+x,1/2-y,z
loop_
_atom_site_type_symbol
_atom_site_label
_atom_site_fract_x
_atom_site_fract_y
_atom_site_fract_z
Si Si1 0.026913 0.584802 0.608671
Si Si2 0.375673 0.322101 0.518668
Si Si3 0.857167 0.422146 0.872106
Si Si4 0.131925 0.332904 0.720287
Si Si5 0.724314 0.689160 0.684945
Si Si6 0.983064 0.080327 0.132488
Si Si7 0.175207 0.673669 0.000210
Si Si8 0.959396 0.084169 0.287618
O O1 0.009682 0.500000 0.603805
O O2 0.000663 0.611261 0.654912
O O3 0.274638 0.611082 0.648839
O O4 0.816634 0.615100 0.527175
O O5 0.500000 0.317757 0.500000
O O6 0.250000 0.250000 0.500000
O O7 0.556114 0.332197 0.602808
O O8 0.955693 0.500000 0.879555
O O9 0.747465 0.433013 0.895240
O O10 0.657699 0.395559 0.789219
O O11 0.060155 0.364690 0.927632
O O12 0.186655 0.264131 0.701761
O O13 0.347978 0.372726 0.794933
O O14 0.978850 0.308368 0.726103
O O15 0.694610 0.623669 0.712446
O O16 0.902610 0.126930 0.068819
O O17 0.082952 0.000000 0.143681
O O18 0.250000 0.750000 0.000000
O O19 0.000000 0.684150 0.000000
O O20 0.952030 0.000000 0.296354
#
# Coordination Sequence:
#
# PCOD8109608 Si02
#       8
#     8   8   8   8   8   8   8   8
#     4  11  23  42  67  94 124 165 209 259 321 380
#     4  12  25  44  64  90 123 168 208 265 321 383
#     4   9  18  38  66  90 122 168 211 253 306 370
#     4  12  24  41  65  93 126 167 207 270 315 381
#     4  12  26  42  65  93 126 164 215 261 325 381
#     4  10  21  39  66  95 126 167 216 260 311 376
#     4  10  22  38  62  94 129 166 209 260 307 367
#     4  10  23  42  66  95 129 165 210 264 315 380
#
# _framework density 20.406576000000001
#
# number of rings (size 3 to 8) (size 9 to 14) (size 15 to 20)
#    0.000    1.250    3.750    1.500    3.500    4.250 
#    0.000    1.250    0.000    0.750    0.000    0.000 
#    0.000    0.000    0.000    0.000    0.000    0.000 
#
# Total GULP energy -396636.516012 kJ/mol
# GULP energy per Si atom -12394.891125 kJ/mol
# Density = 2.036013 g / cm^3
# Si number density = 20.406576 Si / 1000 Ang^3
#
#
#
# Elastic Constant Matrix: (Units=GPa)
#
#
# Indices 1 2 3 4 5 6 
#
# 1 88.8972 58.1132 21.3913 -0.0001 0.7364 0.0003
# 2 58.1132 132.4276 79.3981 0.0004 -0.6643 0.0000
# 3 21.3913 79.3981 117.6321 0.0007 2.5003 0.0000
# 4 -0.0001 0.0004 0.0007 37.9560 0.0002 3.3536
# 5 0.7364 -0.6643 2.5003 0.0002 18.6251 0.0000
# 6 0.0003 0.0000 0.0000 3.3536 0.0000 31.1993
#
#
#
# Elastic Compliance Matrix: (Units=1/GPa)
#
#
# Indices 1 2 3 4 5 6 
#
# 1 0.016481 -0.009172 0.003224 0.000000 -0.001412 0.000000
# 2 -0.009172 0.017838 -0.010423 0.000000 0.002398 0.000000
# 3 0.003224 -0.010423 0.015003 0.000000 -0.002513 0.000000
# 4 0.000000 0.000000 0.000000 0.026599 0.000000 -0.002859
# 5 -0.001412 0.002398 -0.002513 0.000000 0.054170 0.000000
# 6 0.000000 0.000000 0.000000 -0.002859 0.000000 0.032359
#
#
# Mechanical properties :
#
#
# Convention : Reuss Voigt Hill
#
# Bulk Modulus (GPa) = 60.31550 72.97358 66.64454
# Shear Modulus (GPa) = 24.91053 29.55971 27.23512
#
# Velocity S-wave (km/s) = 3.49766 3.81010 3.65722
# Velocity P-wave (km/s) = 6.77735 7.42922 7.11076
#
# Compressibility (1/GPa) = 0.01657949
#
# Stress axis : x y z
#
# Youngs Moduli (GPa) = 60.67601 56.06164 66.65228
#
# Poissons Ratio (x) = 0.51422 -0.21489
# Poissons Ratio (y) = 0.55655 0.69470
# Poissons Ratio (z) = -0.19562 0.58432
#
# Static dielectric constant tensor:
#      x y z
#    x 3.932630 0.000000 -0.458070 
#    y 0.000000 3.849680 0.000000 
#    z -0.458070 0.000000 4.467710 
# 
# 
# High freq. dielectric constant tensor:
#      x y z
#    x 1.774730 0.000000 -0.002870 
#    y 0.000000 1.810980 0.000000 
#    z -0.002870 0.000000 1.808280 
# 
# From -- ./inp_files/373019.got.cif
#   From: 2010.06.25/outbox.cif.g09.slc.cpg/sg12_187_cif.got.tgz:373019.got - 2010.06.28 00:19:55.
