data_PCOD8109949
_publ_section_title
;
Structure prediction by ZEFSAII (Michael W. Deem and Ramdas Pophale) SiO2 
 PCOD8109949
Probable space group: C 2/M
;
_chemical_formula_sum "Si O2"
_cell_formula_units_Z 56
_cell_length_a 19.624221
_cell_length_b 10.912907
_cell_length_c 14.356905
_cell_angle_alpha 90.000000
_cell_angle_beta 69.888391
_cell_angle_gamma 90.000000
_cell_volume 2887.158840
_symmetry_space_group_name_H-M "C 2/M"
_symmetry_group_IT_number 12
_symmetry_cell_setting 'monoclinic'
loop_
_space_group_symop_operation_xyz
x,y,z
-x,y,-z
-x,-y,-z
x,-y,z
1/2+x,1/2+y,z
1/2-x,1/2+y,-z
1/2-x,1/2-y,-z
1/2+x,1/2-y,z
loop_
_atom_site_type_symbol
_atom_site_label
_atom_site_fract_x
_atom_site_fract_y
_atom_site_fract_z
Si Si1 0.879090 0.000000 0.058953
Si Si2 0.840328 0.144722 0.673813
Si Si3 0.584759 0.859755 0.478701
Si Si4 0.493269 0.500000 0.149479
Si Si5 0.932465 0.783424 0.801996
Si Si6 0.321245 0.858547 0.211171
Si Si7 0.825714 0.244965 0.016416
Si Si8 0.565620 0.140362 0.697151
O O1 0.827890 0.884734 0.067364
O O2 0.911870 0.000000 0.147383
O O3 0.945489 0.000000 0.957608
O O4 0.876434 0.245926 0.590172
O O5 0.874915 0.156506 0.759704
O O6 0.757646 0.189956 0.721138
O O7 0.848717 0.000000 0.637671
O O8 0.500000 0.848963 0.500000
O O9 0.601058 0.836598 0.579815
O O10 0.610483 0.000000 0.438459
O O11 0.504448 0.380741 0.206073
O O12 0.980353 0.676148 0.735407
O O13 0.891230 0.735788 0.913308
O O14 0.334624 0.843230 0.094409
O O15 0.384076 0.795910 0.245986
O O16 0.320691 0.000000 0.233525
O O17 0.750000 0.250000 0.000000
O O18 0.563022 0.000000 0.723455
#
# Coordination Sequence:
#
# PCOD8109949 Si02
#       8
#     4   8   8   4   8   8   8   8
#     4   9  20  34  52  78 112 152 200 236 297 336
#     4  11  22  39  63  93 121 160 205 255 307 362
#     4  10  21  40  65  91 122 159 200 252 311 368
#     4   9  18  34  54  77 110 153 190 248 288 345
#     4  11  20  35  61  86 119 156 203 246 296 357
#     4  10  23  41  61  86 124 162 198 245 306 360
#     4  11  22  36  58  87 121 159 200 245 291 359
#     4  10  22  41  62  87 120 159 198 247 309 368
#
# _framework density 19.396232000000001
#
# number of rings (size 3 to 8) (size 9 to 14) (size 15 to 20)
#    0.000    1.714    3.571    0.857    1.000    3.143 
#    2.571    1.429    0.000    0.000    0.000    0.000 
#    0.000    0.000    0.000    0.000    0.000    0.000 
#
# Total GULP energy -346965.302709 kJ/mol
# GULP energy per Si atom -12391.617954 kJ/mol
# Density = 1.935209 g / cm^3
# Si number density = 19.396232 Si / 1000 Ang^3
#
#
#
# Elastic Constant Matrix: (Units=GPa)
#
#
# Indices 1 2 3 4 5 6 
#
# 1 111.9638 35.4117 22.1654 0.0000 7.3824 0.0000
# 2 35.4117 76.8688 47.8532 0.0000 -8.7638 0.0000
# 3 22.1654 47.8532 83.3684 0.0000 -2.8272 0.0000
# 4 0.0000 0.0000 0.0000 30.8784 0.0000 3.3439
# 5 7.3824 -8.7638 -2.8272 0.0000 31.2414 0.0000
# 6 0.0000 0.0000 0.0000 3.3439 0.0000 27.8338
#
#
#
# Elastic Compliance Matrix: (Units=1/GPa)
#
#
# Indices 1 2 3 4 5 6 
#
# 1 0.010950 -0.005629 0.000179 0.000000 -0.004150 0.000000
# 2 -0.005629 0.023830 -0.011947 0.000000 0.006934 0.000000
# 3 0.000179 -0.011947 0.018747 0.000000 -0.001697 0.000000
# 4 0.000000 0.000000 0.000000 0.032812 0.000000 -0.003942
# 5 -0.004150 0.006934 -0.001697 0.000000 0.034781 0.000000
# 6 0.000000 0.000000 0.000000 -0.003942 0.000000 0.036401
#
#
# Mechanical properties :
#
#
# Convention : Reuss Voigt Hill
#
# Bulk Modulus (GPa) = 53.37928 53.67350 53.52639
# Shear Modulus (GPa) = 25.18144 29.10878 27.14511
#
# Velocity S-wave (km/s) = 3.60705 3.87815 3.74505
# Velocity P-wave (km/s) = 6.70283 6.91271 6.80858
#
# Compressibility (1/GPa) = 0.01873386
#
# Stress axis : x y z
#
# Youngs Moduli (GPa) = 91.32409 41.96398 53.34158
#
# Poissons Ratio (x) = 0.23622 -0.00955
# Poissons Ratio (y) = 0.51406 0.63725
# Poissons Ratio (z) = -0.01634 0.50133
#
# Static dielectric constant tensor:
#      x y z
#    x 3.886660 0.000000 0.195330 
#    y 0.000000 3.586870 0.000000 
#    z 0.195330 0.000000 3.431920 
# 
# 
# High freq. dielectric constant tensor:
#      x y z
#    x 1.770230 0.000000 0.014070 
#    y 0.000000 1.751530 0.000000 
#    z 0.014070 0.000000 1.739330 
# 
# From -- ./inp_files/223773.got.cif
#   From: 2010.06.25/outbox.cif.g09.slc.cpg/sg12_112_cif.got.tgz:223773.got - 2010.06.28 00:19:55.
