data_PCOD8109938
_publ_section_title
;
Structure prediction by ZEFSAII (Michael W. Deem and Ramdas Pophale) SiO2 
 PCOD8109938
Probable space group: C 2/M
;
_chemical_formula_sum "Si O2"
_cell_formula_units_Z 48
_cell_length_a 9.112057
_cell_length_b 29.283034
_cell_length_c 17.528056
_cell_angle_alpha 90.000000
_cell_angle_beta 148.984946
_cell_angle_gamma 90.000000
_cell_volume 2409.880112
_symmetry_space_group_name_H-M "C 2/M"
_symmetry_group_IT_number 12
_symmetry_cell_setting 'monoclinic'
loop_
_space_group_symop_operation_xyz
x,y,z
-x,y,-z
-x,-y,-z
x,-y,z
1/2+x,1/2+y,z
1/2-x,1/2+y,-z
1/2-x,1/2-y,-z
1/2+x,1/2-y,z
loop_
_atom_site_type_symbol
_atom_site_label
_atom_site_fract_x
_atom_site_fract_y
_atom_site_fract_z
Si Si1 0.165670 0.679813 0.849937
Si Si2 0.328510 0.822970 0.851947
Si Si3 0.816635 0.242757 0.614196
Si Si4 0.893814 0.000000 0.665736
Si Si5 0.350441 0.071384 0.856117
Si Si6 0.083909 0.500000 0.676256
Si Si7 0.672950 0.925981 0.842915
O O1 0.128569 0.627631 0.804752
O O2 0.032475 0.688752 0.872882
O O3 0.980207 0.711822 0.713453
O O4 0.500000 0.693229 0.000000
O O5 0.271151 0.876268 0.831436
O O6 0.018336 0.800710 0.714708
O O7 0.500000 0.803738 0.000000
O O8 0.500000 0.232778 0.500000
O O9 0.750000 0.250000 0.500000
O O10 0.057217 0.954416 0.715790
O O11 0.859011 0.000000 0.743452
O O12 0.636579 0.000000 0.491835
O O13 0.529229 0.061280 0.859242
O O14 0.500000 0.053229 0.000000
O O15 0.057239 0.455491 0.719473
O O16 0.000000 0.938529 0.000000
#
# Coordination Sequence:
#
# PCOD8109938 Si02
#       7
#     8   8   8   4   8   4   8
#     4  10  23  42  65  91 123 163 210 257 301 364
#     4  10  23  42  64  93 122 163 211 253 304 367
#     4  12  25  42  61  92 128 164 203 255 314 366
#     4  11  24  41  58  89 129 159 196 249 306 359
#     4  10  21  40  65  90 120 158 204 251 298 356
#     4  11  24  41  58  91 125 161 200 245 304 365
#     4  10  21  40  66  90 117 159 207 250 297 356
#
# _framework density 19.918002999999999
#
# number of rings (size 3 to 8) (size 9 to 14) (size 15 to 20)
#    0.000    1.500    1.667    2.500    2.333    5.333 
#    3.000    0.000    0.000    0.000    0.000    0.000 
#    0.000    0.000    0.000    0.000    0.000    0.000 
#
# Total GULP energy -297360.248915 kJ/mol
# GULP energy per Si atom -12390.010371 kJ/mol
# Density = 1.987267 g / cm^3
# Si number density = 19.918003 Si / 1000 Ang^3
#
#
#
# Elastic Constant Matrix: (Units=GPa)
#
#
# Indices 1 2 3 4 5 6 
#
# 1 165.3135 62.9366 75.7735 0.0000 -1.6227 0.0000
# 2 62.9366 94.1986 59.8780 0.0000 -0.8631 0.0000
# 3 75.7735 59.8780 125.7804 -0.0001 -1.0751 -0.0001
# 4 0.0000 0.0000 -0.0001 32.1222 -0.0001 -4.5393
# 5 -1.6227 -0.8631 -1.0751 -0.0001 46.7390 0.0000
# 6 0.0000 0.0000 -0.0001 -4.5393 0.0000 36.5478
#
#
#
# Elastic Compliance Matrix: (Units=1/GPa)
#
#
# Indices 1 2 3 4 5 6 
#
# 1 0.009203 -0.003762 -0.003751 0.000000 0.000164 0.000000
# 2 -0.003762 0.016761 -0.005712 0.000000 0.000047 0.000000
# 3 -0.003751 -0.005712 0.012930 0.000000 0.000062 0.000000
# 4 0.000000 0.000000 0.000000 0.031687 0.000000 0.003936
# 5 0.000164 0.000047 0.000062 0.000000 0.021403 0.000000
# 6 0.000000 0.000000 0.000000 0.003936 0.000000 0.027850
#
#
# Mechanical properties :
#
#
# Convention : Reuss Voigt Hill
#
# Bulk Modulus (GPa) = 80.37385 86.94098 83.65741
# Shear Modulus (GPa) = 33.23720 35.52876 34.38298
#
# Velocity S-wave (km/s) = 4.08941 4.22803 4.15930
# Velocity P-wave (km/s) = 7.92071 8.22066 8.07208
#
# Compressibility (1/GPa) = 0.01244186
#
# Stress axis : x y z
#
# Youngs Moduli (GPa) = 108.66485 59.66217 77.33888
#
# Poissons Ratio (x) = 0.22447 0.29013
# Poissons Ratio (y) = 0.40884 0.44177
# Poissons Ratio (z) = 0.40764 0.34080
#
# Static dielectric constant tensor:
#      x y z
#    x 3.927340 0.000000 -0.030400 
#    y 0.000000 3.808750 0.000000 
#    z -0.030400 0.000000 3.660780 
# 
# 
# High freq. dielectric constant tensor:
#      x y z
#    x 1.799530 0.000000 -0.000100 
#    y 0.000000 1.786040 0.000000 
#    z -0.000100 0.000000 1.777840 
# 
# From -- ./inp_files/260455.got.cif
#   From: 2010.06.25/outbox.cif.g09.slc.cpg/sg12_131_cif.got.tgz:260455.got - 2010.06.28 00:19:55.
