data_PCOD8109186
_publ_section_title
;
Structure prediction by ZEFSAII (Michael W. Deem and Ramdas Pophale) SiO2 
 PCOD8109186
Probable space group: C 2/M
;
_chemical_formula_sum "Si O2"
_cell_formula_units_Z 40
_cell_length_a 17.926891
_cell_length_b 7.820675
_cell_length_c 15.161422
_cell_angle_alpha 90.000000
_cell_angle_beta 73.675396
_cell_angle_gamma 90.000000
_cell_volume 2039.941504
_symmetry_space_group_name_H-M "C 2/M"
_symmetry_group_IT_number 12
_symmetry_cell_setting 'monoclinic'
loop_
_space_group_symop_operation_xyz
x,y,z
-x,y,-z
-x,-y,-z
x,-y,z
1/2+x,1/2+y,z
1/2-x,1/2+y,-z
1/2-x,1/2-y,-z
1/2+x,1/2-y,z
loop_
_atom_site_type_symbol
_atom_site_label
_atom_site_fract_x
_atom_site_fract_y
_atom_site_fract_z
Si Si1 0.817120 0.309021 0.413834
Si Si2 0.768015 0.812809 0.247079
Si Si3 0.981752 0.703014 0.409265
Si Si4 0.062835 0.000000 0.107007
Si Si5 0.606004 0.203643 0.222398
Si Si6 0.387821 0.500000 0.105976
O O1 0.834646 0.500000 0.434863
O O2 0.750000 0.250000 0.500000
O O3 0.792104 0.304369 0.320400
O O4 0.899584 0.214302 0.403868
O O5 0.692729 0.741493 0.222139
O O6 0.839956 0.831260 0.154283
O O7 0.746739 0.000000 0.294208
O O8 0.979394 0.500000 0.413138
O O9 0.000000 0.778149 0.500000
O O10 0.048827 0.759305 0.319866
O O11 0.085594 0.177273 0.146485
O O12 0.970971 0.000000 0.123978
O O13 0.108388 0.000000 0.999964
O O14 0.599958 0.000000 0.200429
#
# Coordination Sequence:
#
# PCOD8109186 Si02
#       6
#     8   8   8   4   8   4
#     4  11  21  33  55  84 116 160 200 241 296 362
#     4   9  20  39  58  80 119 155 193 248 303 347
#     4   9  18  34  55  80 115 159 200 243 299 354
#     4  11  22  40  67  90 123 157 207 249 318 367
#     4  10  21  39  62  90 121 160 202 259 300 361
#     4   9  22  42  62  90 122 161 191 261 313 357
#
# _framework density 19.608405000000001
#
# number of rings (size 3 to 8) (size 9 to 14) (size 15 to 20)
#    0.600    1.600    0.000    3.000    1.400    4.000 
#    1.800    3.500    0.000    0.000    0.000    0.000 
#    0.000    0.000    0.000    0.000    0.000    0.000 
#
# Total GULP energy -247858.317012 kJ/mol
# GULP energy per Si atom -12392.915851 kJ/mol
# Density = 1.956378 g / cm^3
# Si number density = 19.608405 Si / 1000 Ang^3
#
#
#
# Elastic Constant Matrix: (Units=GPa)
#
#
# Indices 1 2 3 4 5 6 
#
# 1 179.3165 29.7887 94.7736 0.0000 -3.5604 0.0000
# 2 29.7887 51.4831 37.4266 0.0000 6.2251 0.0000
# 3 94.7736 37.4266 164.9917 0.0000 -4.3828 0.0000
# 4 0.0000 0.0000 0.0000 28.8296 0.0000 2.1098
# 5 -3.5604 6.2251 -4.3828 0.0000 37.3855 0.0000
# 6 0.0000 0.0000 0.0000 2.1098 0.0000 19.7707
#
#
#
# Elastic Compliance Matrix: (Units=1/GPa)
#
#
# Indices 1 2 3 4 5 6 
#
# 1 0.008123 -0.001658 -0.004275 0.000000 0.000549 0.000000
# 2 -0.001658 0.024380 -0.004704 0.000000 -0.004769 0.000000
# 3 -0.004275 -0.004704 0.009624 0.000000 0.001504 0.000000
# 4 0.000000 0.000000 0.000000 0.034960 0.000000 -0.003731
# 5 0.000549 -0.004769 0.001504 0.000000 0.027771 0.000000
# 6 0.000000 0.000000 0.000000 -0.003731 0.000000 0.050978
#
#
# Mechanical properties :
#
#
# Convention : Reuss Voigt Hill
#
# Bulk Modulus (GPa) = 47.96010 79.97434 63.96722
# Shear Modulus (GPa) = 27.16497 32.78398 29.97447
#
# Velocity S-wave (km/s) = 3.72610 4.09337 3.91404
# Velocity P-wave (km/s) = 6.55925 7.95080 7.28831
#
# Compressibility (1/GPa) = 0.02085066
#
# Stress axis : x y z
#
# Youngs Moduli (GPa) = 123.11410 41.01721 103.91101
#
# Poissons Ratio (x) = 0.06802 0.44421
# Poissons Ratio (y) = 0.20417 0.48884
# Poissons Ratio (z) = 0.52631 0.19296
#
# Static dielectric constant tensor:
#      x y z
#    x 3.452020 0.000000 -0.147730 
#    y 0.000000 3.277190 0.000000 
#    z -0.147730 0.000000 3.455790 
# 
# 
# High freq. dielectric constant tensor:
#      x y z
#    x 1.787620 0.000000 -0.002500 
#    y 0.000000 1.736440 0.000000 
#    z -0.002500 0.000000 1.756410 
# 
# From -- ./inp_files/220204.got.cif
#   From: 2010.06.25/outbox.cif.g09.slc.cpg/sg12_111_cif.got.tgz:220204.got - 2010.06.28 00:19:55.
