data_PCOD8109717
_publ_section_title
;
Structure prediction by ZEFSAII (Michael W. Deem and Ramdas Pophale) SiO2 
 PCOD8109717
Probable space group: C 2/M
;
_chemical_formula_sum "Si O2"
_cell_formula_units_Z 44
_cell_length_a 9.975051
_cell_length_b 22.477265
_cell_length_c 10.565669
_cell_angle_alpha 90.000000
_cell_angle_beta 92.608198
_cell_angle_gamma 90.000000
_cell_volume 2366.494281
_symmetry_space_group_name_H-M "C 2/M"
_symmetry_group_IT_number 12
_symmetry_cell_setting 'monoclinic'
loop_
_space_group_symop_operation_xyz
x,y,z
-x,y,-z
-x,-y,-z
x,-y,z
1/2+x,1/2+y,z
1/2-x,1/2+y,-z
1/2-x,1/2-y,-z
1/2+x,1/2-y,z
loop_
_atom_site_type_symbol
_atom_site_label
_atom_site_fract_x
_atom_site_fract_y
_atom_site_fract_z
Si Si1 0.899000 0.000000 0.812967
Si Si2 0.820611 0.626610 0.880859
Si Si3 0.892364 0.667825 0.155454
Si Si4 0.652452 0.625512 0.293006
Si Si5 0.802893 0.000000 0.093572
Si Si6 0.584342 0.298220 0.765375
Si Si7 0.000000 0.822778 0.500000
O O1 0.846454 0.943864 0.734061
O O2 0.059392 0.000000 0.823055
O O3 0.832295 0.000000 0.946838
O O4 0.782028 0.557624 0.872043
O O5 0.721326 0.666632 0.794031
O O6 0.968391 0.632422 0.827835
O O7 0.815522 0.649925 0.024295
O O8 0.799215 0.651940 0.270627
O O9 0.921773 0.738173 0.154301
O O10 0.541567 0.659693 0.199899
O O11 0.614381 0.635927 0.438772
O O12 0.571277 0.283564 0.613284
#
# Coordination Sequence:
#
# PCOD8109717 Si02
#       7
#     4   8   8   8   4   8   4
#     4  11  20  36  66  88 113 160 204 250 288 356
#     4  11  23  38  59  93 126 159 188 249 309 353
#     4  11  23  37  58  91 128 154 194 246 306 360
#     4  10  21  40  61  90 112 158 206 246 290 349
#     4  11  20  38  61  87 123 156 203 236 299 371
#     4  10  21  42  61  88 120 162 202 245 295 357
#     4   8  22  41  62  88 112 159 216 246 286 342
#
# _framework density 18.592904000000001
#
# number of rings (size 3 to 8) (size 9 to 14) (size 15 to 20)
#    1.091    0.545    3.636    1.636    0.000    5.455 
#    0.000    0.000    0.000    0.000    0.000    3.818 
#    0.000    0.000    0.000    0.000    0.000    0.000 
#
# Total GULP energy -272733.113473 kJ/mol
# GULP energy per Si atom -12396.959703 kJ/mol
# Density = 1.855059 g / cm^3
# Si number density = 18.592904 Si / 1000 Ang^3
#
#
#
# Elastic Constant Matrix: (Units=GPa)
#
#
# Indices 1 2 3 4 5 6 
#
# 1 131.3521 37.4263 29.9184 0.0000 -11.8883 0.0000
# 2 37.4263 125.8005 17.8178 0.0000 3.9252 0.0000
# 3 29.9184 17.8178 55.4537 0.0000 3.8311 0.0000
# 4 0.0000 0.0000 0.0000 48.1815 0.0000 -2.3299
# 5 -11.8883 3.9252 3.8311 0.0000 30.6556 0.0000
# 6 0.0000 0.0000 0.0000 -2.3299 0.0000 21.9007
#
#
#
# Elastic Compliance Matrix: (Units=1/GPa)
#
#
# Indices 1 2 3 4 5 6 
#
# 1 0.009827 -0.002382 -0.004863 0.000000 0.004724 0.000000
# 2 -0.002382 0.008922 -0.001451 0.000000 -0.001885 0.000000
# 3 -0.004863 -0.001451 0.021425 0.000000 -0.004378 0.000000
# 4 0.000000 0.000000 0.000000 0.020862 0.000000 0.002219
# 5 0.004724 -0.001885 -0.004378 0.000000 0.035241 0.000000
# 6 0.000000 0.000000 0.000000 0.002219 0.000000 0.045897
#
#
# Mechanical properties :
#
#
# Convention : Reuss Voigt Hill
#
# Bulk Modulus (GPa) = 43.89440 53.65903 48.77672
# Shear Modulus (GPa) = 29.91130 35.31048 32.61089
#
# Velocity S-wave (km/s) = 4.01527 4.36264 4.19255
# Velocity P-wave (km/s) = 6.71982 7.36881 7.05179
#
# Compressibility (1/GPa) = 0.02278195
#
# Stress axis : x y z
#
# Youngs Moduli (GPa) = 101.76014 112.08017 46.67364
#
# Poissons Ratio (x) = 0.26700 0.22696
# Poissons Ratio (y) = 0.24242 0.06774
# Poissons Ratio (z) = 0.49484 0.16266
#
# Static dielectric constant tensor:
#      x y z
#    x 3.431580 0.000000 0.015320 
#    y 0.000000 3.391900 0.000000 
#    z 0.015320 0.000000 3.162010 
# 
# 
# High freq. dielectric constant tensor:
#      x y z
#    x 1.728680 0.000000 0.000540 
#    y 0.000000 1.723790 0.000000 
#    z 0.000540 0.000000 1.696970 
# 
# From -- ./inp_files/122151.got.cif
#   From: 2010.06.25/outbox.cif.g09.slc.cpg/sg12_62_cif.got.tgz:122151.got - 2010.06.28 00:19:55.
