data_PCOD8109063
_publ_section_title
;
Structure prediction by ZEFSAII (Michael W. Deem and Ramdas Pophale) SiO2 
 PCOD8109063
Probable space group: C 2/M
;
_chemical_formula_sum "Si O2"
_cell_formula_units_Z 64
_cell_length_a 18.159847
_cell_length_b 20.096509
_cell_length_c 16.072469
_cell_angle_alpha 90.000000
_cell_angle_beta 148.627689
_cell_angle_gamma 90.000000
_cell_volume 3053.635052
_symmetry_space_group_name_H-M "C 2/M"
_symmetry_group_IT_number 12
_symmetry_cell_setting 'monoclinic'
loop_
_space_group_symop_operation_xyz
x,y,z
-x,y,-z
-x,-y,-z
x,-y,z
1/2+x,1/2+y,z
1/2-x,1/2+y,-z
1/2-x,1/2-y,-z
1/2+x,1/2-y,z
loop_
_atom_site_type_symbol
_atom_site_label
_atom_site_fract_x
_atom_site_fract_y
_atom_site_fract_z
Si Si1 0.021795 0.153038 0.118615
Si Si2 0.842739 0.614683 0.848589
Si Si3 0.798049 0.919648 0.450687
Si Si4 0.725242 0.820011 0.523158
Si Si5 0.403797 0.816101 0.212799
Si Si6 0.388302 0.426078 0.250632
Si Si7 0.166702 0.275253 0.029490
Si Si8 0.194996 0.076503 0.004905
O O1 0.180693 0.169211 0.302713
O O2 0.926021 0.210229 0.063482
O O3 0.955900 0.085206 0.093725
O O4 0.000000 0.149193 0.000000
O O5 0.800607 0.616194 0.712055
O O6 0.723615 0.572595 0.782212
O O7 0.846899 0.687588 0.894968
O O8 0.000000 0.582565 0.000000
O O9 0.757527 0.884549 0.497775
O O10 0.957348 0.898041 0.577117
O O11 0.773972 0.000000 0.431508
O O12 0.750000 0.750000 0.500000
O O13 0.563970 0.820148 0.399121
O O14 0.330553 0.747085 0.173583
O O15 0.320313 0.880582 0.168387
O O16 0.396453 0.820337 0.105265
O O17 0.419910 0.500000 0.250689
O O18 0.322466 0.391891 0.105442
O O19 0.241849 0.000000 0.051837
#
# Coordination Sequence:
#
# PCOD8109063 Si02
#       8
#     8   8   8   8   8   8   8   8
#     4  11  24  43  68  95 133 170 218 284 336 397
#     4  12  24  38  62  96 136 176 218 276 331 393
#     4  11  26  44  63  95 140 182 224 274 334 410
#     4  12  25  41  69 102 134 174 229 282 338 397
#     4  10  21  40  65  95 127 175 224 280 329 393
#     4  10  21  40  61  87 130 178 220 261 319 403
#     4  10  21  39  61  89 136 175 220 268 332 401
#     4  10  21  42  69  94 124 176 224 266 342 414
#
# _framework density 20.958627
#
# number of rings (size 3 to 8) (size 9 to 14) (size 15 to 20)
#    0.000    1.250    3.750    1.875    3.500    2.750 
#    0.000    2.500    0.000    0.750    0.000    0.000 
#    0.000    0.000    0.000    0.000    0.000    0.000 
#
# Total GULP energy -396552.808796 kJ/mol
# GULP energy per Si atom -12392.275275 kJ/mol
# Density = 2.091092 g / cm^3
# Si number density = 20.958627 Si / 1000 Ang^3
#
#
#
# Elastic Constant Matrix: (Units=GPa)
#
#
# Indices 1 2 3 4 5 6 
#
# 1 74.7124 7.2317 50.1748 0.0000 3.6751 0.0000
# 2 7.2317 68.7968 21.2623 0.0000 -4.6984 0.0000
# 3 50.1748 21.2623 139.7970 0.0001 5.8095 0.0000
# 4 0.0000 0.0000 0.0001 20.1796 0.0000 -0.7194
# 5 3.6751 -4.6984 5.8095 0.0000 42.5915 0.0000
# 6 0.0000 0.0000 0.0000 -0.7194 0.0000 30.5603
#
#
#
# Elastic Compliance Matrix: (Units=1/GPa)
#
#
# Indices 1 2 3 4 5 6 
#
# 1 0.017654 0.000052 -0.006317 0.000000 -0.000656 0.000000
# 2 0.000052 0.015426 -0.002449 0.000000 0.002031 0.000000
# 3 -0.006317 -0.002449 0.009837 0.000000 -0.001067 0.000000
# 4 0.000000 0.000000 0.000000 0.049597 0.000000 0.001168
# 5 -0.000656 0.002031 -0.001067 0.000000 0.023905 0.000000
# 6 0.000000 0.000000 0.000000 0.001168 0.000000 0.032750
#
#
# Mechanical properties :
#
#
# Convention : Reuss Voigt Hill
#
# Bulk Modulus (GPa) = 39.23321 48.96043 44.09682
# Shear Modulus (GPa) = 28.55616 32.30875 30.43245
#
# Velocity S-wave (km/s) = 3.69521 3.93052 3.81468
# Velocity P-wave (km/s) = 6.07998 6.63399 6.36302
#
# Compressibility (1/GPa) = 0.02548861
#
# Stress axis : x y z
#
# Youngs Moduli (GPa) = 56.64377 64.82653 101.65404
#
# Poissons Ratio (x) = -0.00335 0.64214
# Poissons Ratio (y) = -0.00293 0.24897
# Poissons Ratio (z) = 0.35781 0.15877
#
# Static dielectric constant tensor:
#      x y z
#    x 3.657900 0.000000 0.194440 
#    y 0.000000 3.753090 0.000000 
#    z 0.194440 0.000000 3.909550 
# 
# 
# High freq. dielectric constant tensor:
#      x y z
#    x 1.809260 0.000000 0.015900 
#    y 0.000000 1.817980 0.000000 
#    z 0.015900 0.000000 1.821130 
# 
# From -- ./inp_files/228153.got.cif
#   From: 2010.06.25/outbox.cif.g09.slc.cpg/sg12_115_cif.got.tgz:228153.got - 2010.06.28 00:19:55.
