data_PCOD8109142
_publ_section_title
;
Structure prediction by ZEFSAII (Michael W. Deem and Ramdas Pophale) SiO2 
 PCOD8109142
Probable space group: C 2/M
;
_chemical_formula_sum "Si O2"
_cell_formula_units_Z 64
_cell_length_a 28.100544
_cell_length_b 9.116233
_cell_length_c 14.192270
_cell_angle_alpha 90.000000
_cell_angle_beta 113.635103
_cell_angle_gamma 90.000000
_cell_volume 3330.681335
_symmetry_space_group_name_H-M "C 2/M"
_symmetry_group_IT_number 12
_symmetry_cell_setting 'monoclinic'
loop_
_space_group_symop_operation_xyz
x,y,z
-x,y,-z
-x,-y,-z
x,-y,z
1/2+x,1/2+y,z
1/2-x,1/2+y,-z
1/2-x,1/2-y,-z
1/2+x,1/2-y,z
loop_
_atom_site_type_symbol
_atom_site_label
_atom_site_fract_x
_atom_site_fract_y
_atom_site_fract_z
Si Si1 0.469067 0.172200 0.883083
Si Si2 0.892635 0.829926 0.517996
Si Si3 0.180356 0.329459 0.876157
Si Si4 0.695371 0.171673 0.447842
Si Si5 0.491927 0.327776 0.713900
Si Si6 0.201447 0.170762 0.077375
Si Si7 0.649961 0.170628 0.207353
Si Si8 0.596032 0.330903 0.691069
O O1 0.496552 0.249963 0.817670
O O2 0.409555 0.222393 0.846037
O O3 0.472770 0.000000 0.868526
O O4 0.500000 0.221743 0.000000
O O5 0.842196 0.734729 0.501675
O O6 0.940503 0.773889 0.619135
O O7 0.908190 0.803288 0.422951
O O8 0.880116 0.000000 0.527587
O O9 0.170256 0.500000 0.885207
O O10 0.237590 0.297678 0.882622
O O11 0.141239 0.269412 0.767715
O O12 0.170899 0.248361 0.967834
O O13 0.750000 0.250000 0.500000
O O14 0.670872 0.206153 0.327271
O O15 0.702892 0.000000 0.471016
O O16 0.489989 0.500000 0.728993
O O17 0.541494 0.282212 0.691899
O O18 0.183490 0.235551 0.161872
O O19 0.188212 0.000000 0.062905
O O20 0.655905 0.000000 0.186601
O O21 0.608884 0.500000 0.723986
#
# Coordination Sequence:
#
# PCOD8109142 Si02
#       8
#     8   8   8   8   8   8   8   8
#     4  10  22  40  61  87 121 159 197 242 299 358
#     4  10  21  40  63  87 119 158 196 242 299 352
#     4  10  22  40  59  86 119 155 195 242 295 350
#     4  11  24  41  62  89 123 159 203 249 298 356
#     4  10  21  39  62  88 118 153 196 245 294 350
#     4  10  22  39  61  86 117 155 196 243 293 350
#     4  10  22  40  61  88 121 160 198 243 300 357
#     4  10  22  38  60  89 119 153 196 244 295 350
#
# _framework density 19.215287
#
# number of rings (size 3 to 8) (size 9 to 14) (size 15 to 20)
#    0.000    1.875    1.250    1.500    3.500    5.750 
#    0.000    0.000    0.000    2.250    0.000    0.000 
#    0.000    0.000    0.000    0.000    0.000    0.000 
#
# Total GULP energy -397001.207819 kJ/mol
# GULP energy per Si atom -12406.287744 kJ/mol
# Density = 1.917155 g / cm^3
# Si number density = 19.215287 Si / 1000 Ang^3
#
#
#
# Elastic Constant Matrix: (Units=GPa)
#
#
# Indices 1 2 3 4 5 6 
#
# 1 123.9693 59.8279 68.2868 0.0000 -8.4279 0.0000
# 2 59.8279 77.0959 53.4131 0.0000 -4.5699 0.0000
# 3 68.2868 53.4131 115.2375 0.0000 5.4918 0.0000
# 4 0.0000 0.0000 0.0000 35.4777 0.0000 -2.4078
# 5 -8.4279 -4.5699 5.4918 0.0000 38.0012 0.0000
# 6 0.0000 0.0000 0.0000 -2.4078 0.0000 30.4196
#
#
#
# Elastic Compliance Matrix: (Units=1/GPa)
#
#
# Indices 1 2 3 4 5 6 
#
# 1 0.015002 -0.007641 -0.005501 0.000000 0.003203 0.000000
# 2 -0.007641 0.023501 -0.006463 0.000000 0.002066 0.000000
# 3 -0.005501 -0.006463 0.015133 0.000000 -0.004184 0.000000
# 4 0.000000 0.000000 0.000000 0.028339 0.000000 0.002243
# 5 0.003203 0.002066 -0.004184 0.000000 0.027878 0.000000
# 6 0.000000 0.000000 0.000000 0.002243 0.000000 0.033051
#
#
# Mechanical properties :
#
#
# Convention : Reuss Voigt Hill
#
# Bulk Modulus (GPa) = 69.32365 75.48428 72.40396
# Shear Modulus (GPa) = 26.74919 29.76469 28.25694
#
# Velocity S-wave (km/s) = 3.73510 3.94002 3.83893
# Velocity P-wave (km/s) = 7.39980 7.75029 7.57707
#
# Compressibility (1/GPa) = 0.01442509
#
# Stress axis : x y z
#
# Youngs Moduli (GPa) = 66.65881 42.55216 66.08269
#
# Poissons Ratio (x) = 0.32513 0.36351
# Poissons Ratio (y) = 0.50932 0.42712
# Poissons Ratio (z) = 0.36668 0.27503
#
# Static dielectric constant tensor:
#      x y z
#    x 3.572070 0.000000 0.045970 
#    y 0.000000 3.481930 0.000000 
#    z 0.045970 0.000000 3.570230 
# 
# 
# High freq. dielectric constant tensor:
#      x y z
#    x 1.756710 0.000000 -0.000890 
#    y 0.000000 1.745770 0.000000 
#    z -0.000890 0.000000 1.757890 
# 
# From -- ./inp_files/244186.got.cif
#   From: 2010.06.25/outbox.cif.g09.slc.cpg/sg12_123_cif.got.tgz:244186.got - 2010.06.28 00:19:55.
