data_PCOD8109104
_publ_section_title
;
Structure prediction by ZEFSAII (Michael W. Deem and Ramdas Pophale) SiO2 
 PCOD8109104
Probable space group: C 2/M
;
_chemical_formula_sum "Si O2"
_cell_formula_units_Z 28
_cell_length_a 12.258000
_cell_length_b 16.390179
_cell_length_c 13.060216
_cell_angle_alpha 90.000000
_cell_angle_beta 148.820800
_cell_angle_gamma 90.000000
_cell_volume 1358.456202
_symmetry_space_group_name_H-M "C 2/M"
_symmetry_group_IT_number 12
_symmetry_cell_setting 'monoclinic'
loop_
_space_group_symop_operation_xyz
x,y,z
-x,y,-z
-x,-y,-z
x,-y,z
1/2+x,1/2+y,z
1/2-x,1/2+y,-z
1/2-x,1/2-y,-z
1/2+x,1/2-y,z
loop_
_atom_site_type_symbol
_atom_site_label
_atom_site_fract_x
_atom_site_fract_y
_atom_site_fract_z
Si Si1 0.157958 0.593488 0.495686
Si Si2 0.277345 0.404207 0.367690
Si Si3 0.500000 0.804840 0.000000
Si Si4 0.223369 0.149696 0.194548
O O1 0.202155 0.500000 0.561515
O O2 0.278522 0.617725 0.488943
O O3 0.230747 0.651629 0.646330
O O4 0.906420 0.605365 0.278025
O O5 0.500000 0.374614 0.500000
O O6 0.245767 0.500000 0.325370
O O7 0.075639 0.361309 0.154033
O O8 0.304092 0.743412 0.868888
O O9 0.000000 0.102486 0.000000
#
# Coordination Sequence:
#
# PCOD8109104 Si02
#       4
#     8   8   4   8
#     4  10  21  39  62  86 116 153 195 236 282 346
#     4  10  23  42  61  82 115 158 197 236 280 339
#     4  10  23  38  59  88 120 148 192 238 289 350
#     4   9  21  37  57  93 115 147 185 239 300 332
#
# _framework density 20.611632
#
# number of rings (size 3 to 8) (size 9 to 14) (size 15 to 20)
#    0.857    1.429    0.000    2.143    4.000    6.857 
#    0.000    5.714    0.000    0.000    0.000    0.000 
#    0.000    0.000    0.000    0.000    0.000    0.000 
#
# Total GULP energy -173454.767784 kJ/mol
# GULP energy per Si atom -12389.626270 kJ/mol
# Density = 2.056472 g / cm^3
# Si number density = 20.611632 Si / 1000 Ang^3
#
#
#
# Elastic Constant Matrix: (Units=GPa)
#
#
# Indices 1 2 3 4 5 6 
#
# 1 149.8720 28.2548 54.5525 -0.0010 0.4113 0.0003
# 2 28.2548 63.2942 40.8296 -0.0003 -9.0647 0.0004
# 3 54.5525 40.8296 112.8179 -0.0017 5.3321 0.0023
# 4 -0.0010 -0.0003 -0.0017 37.3164 -0.0006 3.8275
# 5 0.4113 -9.0647 5.3321 -0.0006 23.6802 0.0011
# 6 0.0003 0.0004 0.0023 3.8275 0.0011 9.1516
#
#
#
# Elastic Compliance Matrix: (Units=1/GPa)
#
#
# Indices 1 2 3 4 5 6 
#
# 1 0.008197 -0.001417 -0.003455 0.000000 0.000093 0.000001
# 2 -0.001417 0.023309 -0.008261 0.000000 0.010807 0.000000
# 3 -0.003455 -0.008261 0.013818 0.000001 -0.006214 -0.000002
# 4 0.000000 0.000000 0.000001 0.027999 0.000001 -0.011710
# 5 0.000093 0.010807 -0.006214 0.000001 0.047764 -0.000005
# 6 0.000001 0.000000 -0.000002 -0.011710 -0.000005 0.114168
#
#
# Mechanical properties :
#
#
# Convention : Reuss Voigt Hill
#
# Bulk Modulus (GPa) = 52.47420 63.69530 58.08475
# Shear Modulus (GPa) = 18.66555 27.51947 23.09251
#
# Velocity S-wave (km/s) = 3.01256 3.65792 3.35081
# Velocity P-wave (km/s) = 6.13306 6.98643 6.57361
#
# Compressibility (1/GPa) = 0.01905699
#
# Stress axis : x y z
#
# Youngs Moduli (GPa) = 121.99742 42.90257 72.36921
#
# Poissons Ratio (x) = 0.06079 0.25005
# Poissons Ratio (y) = 0.17286 0.59786
# Poissons Ratio (z) = 0.42152 0.35443
#
# Static dielectric constant tensor:
#      x y z
#    x 3.587210 0.000000 0.155850 
#    y 0.000000 3.611270 0.000000 
#    z 0.155850 0.000000 3.792920 
# 
# 
# High freq. dielectric constant tensor:
#      x y z
#    x 1.784600 0.000000 0.004250 
#    y 0.000000 1.803080 0.000000 
#    z 0.004250 0.000000 1.809930 
# 
# From -- ./inp_files/131493.got.cif
#   From: 2010.06.25/outbox.cif.g09.slc.cpg/sg12_66_cif.got.tgz:131493.got - 2010.06.28 00:19:55.
