data_PCOD8109330
_publ_section_title
;
Structure prediction by ZEFSAII (Michael W. Deem and Ramdas Pophale) SiO2 
 PCOD8109330
Probable space group: C 2/M
;
_chemical_formula_sum "Si O2"
_cell_formula_units_Z 56
_cell_length_a 21.102932
_cell_length_b 10.779579
_cell_length_c 12.205307
_cell_angle_alpha 90.000000
_cell_angle_beta 105.939633
_cell_angle_gamma 90.000000
_cell_volume 2669.721078
_symmetry_space_group_name_H-M "C 2/M"
_symmetry_group_IT_number 12
_symmetry_cell_setting 'monoclinic'
loop_
_space_group_symop_operation_xyz
x,y,z
-x,y,-z
-x,-y,-z
x,-y,z
1/2+x,1/2+y,z
1/2-x,1/2+y,-z
1/2-x,1/2-y,-z
1/2+x,1/2-y,z
loop_
_atom_site_type_symbol
_atom_site_label
_atom_site_fract_x
_atom_site_fract_y
_atom_site_fract_z
Si Si1 0.579099 0.856802 0.147726
Si Si2 0.778327 0.361359 0.156231
Si Si3 0.677982 0.137026 0.386583
Si Si4 0.953642 0.857589 0.385495
Si Si5 0.648278 0.727052 0.999159
Si Si6 0.019032 0.857491 0.844013
Si Si7 0.313053 0.272603 0.384925
O O1 0.623572 0.824138 0.273023
O O2 0.524103 0.748674 0.117076
O O3 0.551945 0.000000 0.139554
O O4 0.622075 0.844047 0.057445
O O5 0.800597 0.500000 0.140528
O O6 0.818646 0.270234 0.097667
O O7 0.795125 0.335750 0.291111
O O8 0.700362 0.347495 0.098114
O O9 0.671030 0.225397 0.486478
O O10 0.749755 0.138699 0.363487
O O11 0.664293 0.000000 0.423348
O O12 0.971322 0.804609 0.274512
O O13 0.876565 0.845885 0.373902
O O14 0.000000 0.791844 0.500000
O O15 0.972797 0.000000 0.390491
O O16 0.589060 0.635508 0.938570
O O17 0.990053 0.000000 0.835536
#
# Coordination Sequence:
#
# PCOD8109330 Si02
#       7
#     8   8   8   8   8   8   8
#     4  11  24  43  64  92 130 171 213 260 316 379
#     4  11  23  39  63  95 126 162 209 260 313 372
#     4  10  22  39  62  92 124 161 207 257 316 379
#     4  10  21  39  63  91 123 161 208 258 312 375
#     4  11  23  42  62  92 126 171 207 263 307 380
#     4  11  24  42  65  93 127 169 217 264 314 372
#     4  11  20  40  64  89 123 161 206 257 316 373
#
# _framework density 20.975973
#
# number of rings (size 3 to 8) (size 9 to 14) (size 15 to 20)
#    0.000    1.286    2.857    3.000    0.000    3.429 
#    0.000    0.714    0.000    3.000    0.000    0.000 
#    0.000    0.000    0.000    0.000    0.000    0.000 
#
# Total GULP energy -347096.870187 kJ/mol
# GULP energy per Si atom -12396.316792 kJ/mol
# Density = 2.092823 g / cm^3
# Si number density = 20.975973 Si / 1000 Ang^3
#
#
#
# Elastic Constant Matrix: (Units=GPa)
#
#
# Indices 1 2 3 4 5 6 
#
# 1 84.2751 19.4447 33.0162 0.0000 1.8834 0.0000
# 2 19.4447 80.6211 20.0306 0.0000 1.1403 0.0000
# 3 33.0162 20.0306 104.1289 0.0000 5.7002 0.0000
# 4 0.0000 0.0000 0.0000 21.7004 0.0000 0.9510
# 5 1.8834 1.1403 5.7002 0.0000 38.9392 0.0000
# 6 0.0000 0.0000 0.0000 0.9510 0.0000 27.2778
#
#
#
# Elastic Compliance Matrix: (Units=1/GPa)
#
#
# Indices 1 2 3 4 5 6 
#
# 1 0.013972 -0.002383 -0.003970 0.000000 -0.000025 0.000000
# 2 -0.002383 0.013433 -0.001828 0.000000 -0.000011 0.000000
# 3 -0.003970 -0.001828 0.011291 0.000000 -0.001407 0.000000
# 4 0.000000 0.000000 0.000000 0.046153 0.000000 -0.001609
# 5 -0.000025 -0.000011 -0.001407 0.000000 0.025889 0.000000
# 6 0.000000 0.000000 0.000000 -0.001609 0.000000 0.036716
#
#
# Mechanical properties :
#
#
# Convention : Reuss Voigt Hill
#
# Bulk Modulus (GPa) = 44.77627 46.00090 45.38858
# Shear Modulus (GPa) = 29.19552 30.68571 29.94062
#
# Velocity S-wave (km/s) = 3.73481 3.82893 3.78216
# Velocity P-wave (km/s) = 6.32386 6.44403 6.38423
#
# Compressibility (1/GPa) = 0.02233326
#
# Stress axis : x y z
#
# Youngs Moduli (GPa) = 71.57325 74.44509 88.56637
#
# Poissons Ratio (x) = 0.17740 0.35163
# Poissons Ratio (y) = 0.17056 0.16188
# Poissons Ratio (z) = 0.28416 0.13607
#
# Static dielectric constant tensor:
#      x y z
#    x 3.760490 0.000000 0.051510 
#    y 0.000000 3.434540 0.000000 
#    z 0.051510 0.000000 4.131880 
# 
# 
# High freq. dielectric constant tensor:
#      x y z
#    x 1.820850 0.000000 0.001970 
#    y 0.000000 1.799620 0.000000 
#    z 0.001970 0.000000 1.846810 
# 
# From -- ./inp_files/165595.got.cif
#   From: 2010.06.25/outbox.cif.g09.slc.cpg/sg12_83_cif.got.tgz:165595.got - 2010.06.28 00:19:55.
