data_PCOD8109825
_publ_section_title
;
Structure prediction by ZEFSAII (Michael W. Deem and Ramdas Pophale) SiO2 
 PCOD8109825
Probable space group: C 2/M
;
_chemical_formula_sum "Si O2"
_cell_formula_units_Z 56
_cell_length_a 12.210840
_cell_length_b 15.049480
_cell_length_c 16.897530
_cell_angle_alpha 90.000000
_cell_angle_beta 119.750318
_cell_angle_gamma 90.000000
_cell_volume 2695.926650
_symmetry_space_group_name_H-M "C 2/M"
_symmetry_group_IT_number 12
_symmetry_cell_setting 'monoclinic'
loop_
_space_group_symop_operation_xyz
x,y,z
-x,y,-z
-x,-y,-z
x,-y,z
1/2+x,1/2+y,z
1/2-x,1/2+y,-z
1/2-x,1/2-y,-z
1/2+x,1/2-y,z
loop_
_atom_site_type_symbol
_atom_site_label
_atom_site_fract_x
_atom_site_fract_y
_atom_site_fract_z
Si Si1 0.791599 0.604338 0.286163
Si Si2 0.932171 0.230182 0.789138
Si Si3 0.500622 0.631967 0.409711
Si Si4 0.577493 0.101155 0.107522
Si Si5 0.868415 0.097794 0.207575
Si Si6 0.724816 0.097067 0.541987
Si Si7 0.955776 0.310819 0.636810
O O1 0.757004 0.500000 0.261166
O O2 0.679132 0.668297 0.212795
O O3 0.811189 0.631287 0.384399
O O4 0.927412 0.625690 0.294964
O O5 0.968010 0.316924 0.853737
O O6 0.889478 0.267213 0.688900
O O7 0.054921 0.169524 0.816449
O O8 0.500000 0.595924 0.500000
O O9 0.389570 0.599040 0.311118
O O10 0.625640 0.596601 0.412388
O O11 0.491169 0.738121 0.405448
O O12 0.722963 0.117796 0.139977
O O13 0.558938 0.000000 0.136972
O O14 0.500000 0.108907 0.000000
O O15 0.904728 0.000000 0.188728
O O16 0.663514 0.147618 0.447860
O O17 0.667430 0.000000 0.514062
#
# Coordination Sequence:
#
# PCOD8109825 Si02
#       7
#     8   8   8   8   8   8   8
#     4  11  22  39  58  84 123 166 207 246 296 355
#     4  11  22  39  66  89 119 156 200 249 306 363
#     4  11  22  34  56  85 123 166 214 255 292 349
#     4  10  24  45  68  94 122 152 193 249 311 373
#     4  10  21  40  63  90 123 163 204 247 303 359
#     4  11  22  35  51  78 119 166 211 253 298 345
#     4  11  23  34  55  82 118 163 210 254 299 344
#
# _framework density 20.772079000000002
#
# number of rings (size 3 to 8) (size 9 to 14) (size 15 to 20)
#    0.000    1.286    2.857    4.714    4.000    4.000 
#    0.000    0.000    0.000    1.714    0.000    0.000 
#    0.000    0.000    0.000    0.000    0.000    0.000 
#
# Total GULP energy -346915.130819 kJ/mol
# GULP energy per Si atom -12389.826101 kJ/mol
# Density = 2.072480 g / cm^3
# Si number density = 20.772079 Si / 1000 Ang^3
#
#
#
# Elastic Constant Matrix: (Units=GPa)
#
#
# Indices 1 2 3 4 5 6 
#
# 1 49.5937 39.1948 27.0230 0.0000 14.4760 0.0000
# 2 39.1948 134.2398 46.9968 0.0000 -3.6356 0.0000
# 3 27.0230 46.9968 86.0627 0.0000 23.4195 0.0000
# 4 0.0000 0.0000 0.0000 -6.6138 0.0000 13.7388
# 5 14.4760 -3.6356 23.4195 0.0000 26.5085 0.0000
# 6 0.0000 0.0000 0.0000 13.7388 0.0000 35.8398
#
#
#
# Elastic Compliance Matrix: (Units=1/GPa)
#
#
# Indices 1 2 3 4 5 6 
#
# 1 0.034511 -0.010968 0.000909 0.000000 -0.021154 0.000000
# 2 -0.010968 0.013992 -0.008359 0.000000 0.015293 0.000000
# 3 0.000909 -0.008359 0.021519 0.000000 -0.020654 0.000000
# 4 0.000000 0.000000 0.000000 -0.084172 0.000000 0.032267
# 5 -0.021154 0.015293 -0.020654 0.000000 0.069621 0.000000
# 6 0.000000 0.000000 0.000000 0.032267 0.000000 0.015533
#
#
# Mechanical properties :
#
#
# Convention : Reuss Voigt Hill
#
# Bulk Modulus (GPa) = 30.13116 55.14726 42.63921
# Shear Modulus (GPa) = 42.05244 21.59234 31.82239
#
# Velocity S-wave (km/s) = 4.50429 3.22761 3.91830
# Velocity P-wave (km/s) = 6.44892 6.36367 6.40644
#
# Compressibility (1/GPa) = 0.03318824
#
# Stress axis : x y z
#
# Youngs Moduli (GPa) = 28.97638 71.46883 46.47113
#
# Poissons Ratio (x) = 0.78385 -0.04226
# Poissons Ratio (y) = 0.31780 0.38843
# Poissons Ratio (z) = -0.02635 0.59737
#
# Static dielectric constant tensor:
#      x y z
#    x 3.649190 0.000000 0.138930 
#    y 0.000000 4.238620 0.000000 
#    z 0.138930 0.000000 3.458130 
# 
# 
# High freq. dielectric constant tensor:
#      x y z
#    x 1.800820 0.000000 0.020780 
#    y 0.000000 1.839350 0.000000 
#    z 0.020780 0.000000 1.776180 
# 
# From -- ./inp_files/263208.got.cif
#   From: 2010.06.25/outbox.cif.g09.slc.cpg/sg12_132_cif.got.tgz:263208.got - 2010.06.28 00:19:55.
