data_PCOD8109831
_publ_section_title
;
Structure prediction by ZEFSAII (Michael W. Deem and Ramdas Pophale) SiO2 
 PCOD8109831
Probable space group: C 2/M
;
_chemical_formula_sum "Si O2"
_cell_formula_units_Z 40
_cell_length_a 18.940109
_cell_length_b 8.955893
_cell_length_c 12.023245
_cell_angle_alpha 90.000000
_cell_angle_beta 77.650969
_cell_angle_gamma 90.000000
_cell_volume 1992.263095
_symmetry_space_group_name_H-M "C 2/M"
_symmetry_group_IT_number 12
_symmetry_cell_setting 'monoclinic'
loop_
_space_group_symop_operation_xyz
x,y,z
-x,y,-z
-x,-y,-z
x,-y,z
1/2+x,1/2+y,z
1/2-x,1/2+y,-z
1/2-x,1/2-y,-z
1/2+x,1/2-y,z
loop_
_atom_site_type_symbol
_atom_site_label
_atom_site_fract_x
_atom_site_fract_y
_atom_site_fract_z
Si Si1 0.324101 0.327091 0.009858
Si Si2 0.047009 0.675900 0.165067
Si Si3 0.926609 0.667707 0.591358
Si Si4 0.601751 0.672463 0.789327
Si Si5 0.173661 0.824903 0.537802
O O1 0.319425 0.500000 0.978426
O O2 0.390976 0.253794 0.925347
O O3 0.250000 0.250000 0.000000
O O4 0.336772 0.307052 0.137555
O O5 0.050282 0.500000 0.143851
O O6 0.058829 0.720231 0.288841
O O7 0.968855 0.734097 0.152546
O O8 0.894045 0.500000 0.599346
O O9 0.871353 0.782983 0.556001
O O10 0.000000 0.673936 0.500000
O O11 0.578594 0.500000 0.786130
O O12 0.634071 0.734029 0.662601
O O13 0.250000 0.750000 0.500000
O O14 0.184585 0.000000 0.540964
#
# Coordination Sequence:
#
# PCOD8109831 Si02
#       5
#     8   8   8   8   8
#     4  11  25  44  64  90 124 162 205 254 310 364
#     4  11  23  40  66  94 123 160 205 254 303 362
#     4  10  21  40  63  91 126 162 200 248 304 362
#     4  10  23  43  64  88 123 163 203 252 306 365
#     4  11  24  40  62  92 126 164 205 251 306 365
#
# _framework density 20.077670000000001
#
# number of rings (size 3 to 8) (size 9 to 14) (size 15 to 20)
#    0.000    1.400    2.000    2.400    2.800    6.800 
#    0.000    0.000    0.000    0.000    0.000    0.000 
#    0.000    0.000    0.000    0.000    0.000    0.000 
#
# Total GULP energy -248103.280330 kJ/mol
# GULP energy per Si atom -12405.164016 kJ/mol
# Density = 2.003197 g / cm^3
# Si number density = 20.077670 Si / 1000 Ang^3
#
#
#
# Elastic Constant Matrix: (Units=GPa)
#
#
# Indices 1 2 3 4 5 6 
#
# 1 136.8452 60.9884 36.9828 0.0000 -0.2798 0.0000
# 2 60.9884 97.2482 36.6634 0.0000 -0.6204 0.0000
# 3 36.9828 36.6634 74.9422 0.0000 4.1953 0.0000
# 4 0.0000 0.0000 0.0000 33.0207 0.0000 1.4560
# 5 -0.2798 -0.6204 4.1953 0.0000 36.0461 0.0000
# 6 0.0000 0.0000 0.0000 1.4560 0.0000 40.0294
#
#
#
# Elastic Compliance Matrix: (Units=1/GPa)
#
#
# Indices 1 2 3 4 5 6 
#
# 1 0.010485 -0.005662 -0.002419 0.000000 0.000265 0.000000
# 2 -0.005662 0.015698 -0.004930 0.000000 0.000800 0.000000
# 3 -0.002419 -0.004930 0.017066 0.000000 -0.002090 0.000000
# 4 0.000000 0.000000 0.000000 0.030333 0.000000 -0.001103
# 5 0.000265 0.000800 -0.002090 0.000000 0.028001 0.000000
# 6 0.000000 0.000000 0.000000 -0.001103 0.000000 0.025022
#
#
# Mechanical properties :
#
#
# Convention : Reuss Voigt Hill
#
# Bulk Modulus (GPa) = 58.05053 64.25609 61.15331
# Shear Modulus (GPa) = 31.57154 33.44598 32.50876
#
# Velocity S-wave (km/s) = 3.96974 4.08589 4.02823
# Velocity P-wave (km/s) = 7.07019 7.37106 7.22219
#
# Compressibility (1/GPa) = 0.01722637
#
# Stress axis : x y z
#
# Youngs Moduli (GPa) = 95.37187 63.70351 58.59433
#
# Poissons Ratio (x) = 0.36069 0.14175
# Poissons Ratio (y) = 0.53999 0.28889
# Poissons Ratio (z) = 0.23072 0.31408
#
# Static dielectric constant tensor:
#      x y z
#    x 3.541720 0.000000 -0.118860 
#    y 0.000000 3.737760 0.000000 
#    z -0.118860 0.000000 3.929930 
# 
# 
# High freq. dielectric constant tensor:
#      x y z
#    x 1.790670 0.000000 0.003900 
#    y 0.000000 1.787770 0.000000 
#    z 0.003900 0.000000 1.797440 
# 
# From -- ./inp_files/151665.got.cif
#   From: 2010.06.25/outbox.cif.g09.slc.cpg/sg12_76_cif.got.tgz:151665.got - 2010.06.28 00:19:55.
