data_PCOD8109407
_publ_section_title
;
Structure prediction by ZEFSAII (Michael W. Deem and Ramdas Pophale) SiO2 
 PCOD8109407
Probable space group: C 2/M
;
_chemical_formula_sum "Si O2"
_cell_formula_units_Z 56
_cell_length_a 19.098331
_cell_length_b 9.253383
_cell_length_c 29.037172
_cell_angle_alpha 90.000000
_cell_angle_beta 146.534979
_cell_angle_gamma 90.000000
_cell_volume 2829.690426
_symmetry_space_group_name_H-M "C 2/M"
_symmetry_group_IT_number 12
_symmetry_cell_setting 'monoclinic'
loop_
_space_group_symop_operation_xyz
x,y,z
-x,y,-z
-x,-y,-z
x,-y,z
1/2+x,1/2+y,z
1/2-x,1/2+y,-z
1/2-x,1/2-y,-z
1/2+x,1/2-y,z
loop_
_atom_site_type_symbol
_atom_site_label
_atom_site_fract_x
_atom_site_fract_y
_atom_site_fract_z
Si Si1 0.676870 0.829702 0.500525
Si Si2 0.001999 0.334417 0.821030
Si Si3 0.742981 0.166257 0.892140
Si Si4 0.469376 0.164167 0.059985
Si Si5 0.245739 0.164147 0.805700
Si Si6 0.383860 0.832623 0.345270
Si Si7 0.727226 0.667840 0.347754
O O1 0.750000 0.750000 0.500000
O O2 0.529250 0.787233 0.418180
O O3 0.730792 0.776198 0.579086
O O4 0.695366 0.000000 0.504445
O O5 0.956923 0.500000 0.796659
O O6 0.140400 0.315318 0.875634
O O7 0.010522 0.274810 0.877528
O O8 0.900950 0.247108 0.736280
O O9 0.689325 0.247280 0.817606
O O10 0.766577 0.000000 0.892327
O O11 0.874019 0.233602 0.980894
O O12 0.602447 0.168526 0.106519
O O13 0.415688 0.000000 0.031817
O O14 0.202825 0.234658 0.734584
O O15 0.195457 0.000000 0.779965
O O16 0.341263 0.802124 0.374378
O O17 0.362787 0.000000 0.320907
O O18 0.694776 0.500000 0.331725
#
# Coordination Sequence:
#
# PCOD8109407 Si02
#       7
#     8   8   8   8   8   8   8
#     4  10  23  41  62  92 125 156 193 241 295 351
#     4  10  22  40  60  86 121 158 197 246 299 349
#     4  11  24  38  58  87 121 159 200 248 299 352
#     4  10  21  40  61  84 116 156 201 249 300 351
#     4  11  23  39  61  87 120 158 199 247 298 354
#     4  10  21  40  64  88 119 157 199 246 293 347
#     4  10  21  39  64  90 117 156 202 243 290 350
#
# _framework density 19.790151000000002
#
# number of rings (size 3 to 8) (size 9 to 14) (size 15 to 20)
#    0.000    1.714    1.429    2.143    2.000    7.429 
#    0.000    0.000    0.000    2.571    0.000    0.000 
#    0.000    0.000    0.000    0.000    0.000    0.000 
#
# Total GULP energy -347337.665167 kJ/mol
# GULP energy per Si atom -12404.916613 kJ/mol
# Density = 1.974511 g / cm^3
# Si number density = 19.790151 Si / 1000 Ang^3
#
#
#
# Elastic Constant Matrix: (Units=GPa)
#
#
# Indices 1 2 3 4 5 6 
#
# 1 91.9072 41.5343 36.0632 0.0000 -13.0216 0.0000
# 2 41.5343 87.4042 49.5797 0.0000 -7.4901 0.0002
# 3 36.0632 49.5797 97.4081 0.0000 -6.8502 0.0000
# 4 0.0000 0.0000 0.0000 31.9718 0.0000 -1.4714
# 5 -13.0216 -7.4901 -6.8502 0.0000 32.4819 0.0000
# 6 0.0000 0.0002 0.0000 -1.4714 0.0000 33.2442
#
#
#
# Elastic Compliance Matrix: (Units=1/GPa)
#
#
# Indices 1 2 3 4 5 6 
#
# 1 0.014844 -0.005264 -0.002521 0.000000 0.004205 0.000000
# 2 -0.005264 0.018082 -0.007217 0.000000 0.000537 0.000000
# 3 -0.002521 -0.007217 0.014906 0.000000 0.000469 0.000000
# 4 0.000000 0.000000 0.000000 0.031341 0.000000 0.001387
# 5 0.004205 0.000537 0.000469 0.000000 0.032695 0.000000
# 6 0.000000 0.000000 0.000000 0.001387 0.000000 0.030142
#
#
# Mechanical properties :
#
#
# Convention : Reuss Voigt Hill
#
# Bulk Modulus (GPa) = 56.08822 59.00819 57.54821
# Shear Modulus (GPa) = 28.09665 29.50906 28.80286
#
# Velocity S-wave (km/s) = 3.77202 3.86566 3.81913
# Velocity P-wave (km/s) = 6.88286 7.05735 6.97065
#
# Compressibility (1/GPa) = 0.01782906
#
# Stress axis : x y z
#
# Youngs Moduli (GPa) = 67.36616 55.30262 67.08792
#
# Poissons Ratio (x) = 0.29109 0.16912
# Poissons Ratio (y) = 0.35459 0.48419
# Poissons Ratio (z) = 0.16982 0.39913
#
# Static dielectric constant tensor:
#      x y z
#    x 3.716060 0.000000 -0.115310 
#    y 0.000000 3.590110 0.000000 
#    z -0.115310 0.000000 3.557750 
# 
# 
# High freq. dielectric constant tensor:
#      x y z
#    x 1.785090 0.000000 -0.007080 
#    y 0.000000 1.767440 0.000000 
#    z -0.007080 0.000000 1.774370 
# 
# From -- ./inp_files/275589.got.cif
#   From: 2010.06.25/outbox.cif.g09.slc.cpg/sg12_138_cif.got.tgz:275589.got - 2010.06.28 00:19:55.
