data_PCOD8109942
_publ_section_title
;
Structure prediction by ZEFSAII (Michael W. Deem and Ramdas Pophale) SiO2 
 PCOD8109942
Probable space group: C 2/M
;
_chemical_formula_sum "Si O2"
_cell_formula_units_Z 56
_cell_length_a 19.724675
_cell_length_b 8.810539
_cell_length_c 16.283756
_cell_angle_alpha 90.000000
_cell_angle_beta 92.244081
_cell_angle_gamma 90.000000
_cell_volume 2827.702568
_symmetry_space_group_name_H-M "C 2/M"
_symmetry_group_IT_number 12
_symmetry_cell_setting 'monoclinic'
loop_
_space_group_symop_operation_xyz
x,y,z
-x,y,-z
-x,-y,-z
x,-y,z
1/2+x,1/2+y,z
1/2-x,1/2+y,-z
1/2-x,1/2-y,-z
1/2+x,1/2-y,z
loop_
_atom_site_type_symbol
_atom_site_label
_atom_site_fract_x
_atom_site_fract_y
_atom_site_fract_z
Si Si1 0.517672 0.673966 0.759216
Si Si2 0.676528 0.821087 0.486481
Si Si3 0.254529 0.174186 0.770161
Si Si4 0.046860 0.679430 0.929496
Si Si5 0.633532 0.326168 0.643749
Si Si6 0.629963 0.324897 0.318607
Si Si7 0.700708 0.820267 0.930909
O O1 0.532998 0.500000 0.782558
O O2 0.515642 0.767456 0.842471
O O3 0.577186 0.737285 0.703632
O O4 0.447833 0.693685 0.708508
O O5 0.750000 0.750000 0.500000
O O6 0.630854 0.776467 0.562524
O O7 0.639647 0.759468 0.404572
O O8 0.684024 0.000000 0.479691
O O9 0.207507 0.186705 0.687850
O O10 0.326317 0.248278 0.751443
O O11 0.220732 0.265073 0.842088
O O12 0.265226 0.000000 0.797450
O O13 0.044706 0.500000 0.930470
O O14 0.124116 0.736039 0.945420
O O15 0.000000 0.746836 0.000000
O O16 0.617455 0.500000 0.618743
O O17 0.651544 0.500000 0.328438
O O18 0.706558 0.000000 0.935007
O O19 0.750000 0.750000 0.000000
#
# Coordination Sequence:
#
# PCOD8109942 Si02
#       7
#     8   8   8   8   8   8   8
#     4  10  23  43  65  91 122 163 205 249 304 368
#     4  12  24  39  62  92 125 162 207 256 309 362
#     4  11  22  39  65  91 123 164 207 254 308 364
#     4  10  23  42  63  90 124 163 202 250 308 363
#     4  10  21  40  65  90 122 162 205 250 305 366
#     4  11  24  41  63  93 127 162 206 253 306 367
#     4  11  24  41  63  93 128 163 207 256 308 365
#
# _framework density 19.804062999999999
#
# number of rings (size 3 to 8) (size 9 to 14) (size 15 to 20)
#    0.000    1.286    2.857    2.571    2.000    3.714 
#    0.000    2.857    0.000    0.000    0.000    0.000 
#    0.000    0.000    0.000    0.000    0.000    0.000 
#
# Total GULP energy -347369.163728 kJ/mol
# GULP energy per Si atom -12406.041562 kJ/mol
# Density = 1.975899 g / cm^3
# Si number density = 19.804063 Si / 1000 Ang^3
#
#
#
# Elastic Constant Matrix: (Units=GPa)
#
#
# Indices 1 2 3 4 5 6 
#
# 1 85.3097 28.0719 41.8586 0.0000 -6.8308 0.0000
# 2 28.0719 66.9564 34.3336 0.0000 8.3268 0.0000
# 3 41.8586 34.3336 124.5262 0.0000 -8.4303 0.0000
# 4 0.0000 0.0000 0.0000 40.3898 0.0000 0.4088
# 5 -6.8308 8.3268 -8.4303 0.0000 34.3005 0.0000
# 6 0.0000 0.0000 0.0000 0.4088 0.0000 25.3805
#
#
#
# Elastic Compliance Matrix: (Units=1/GPa)
#
#
# Indices 1 2 3 4 5 6 
#
# 1 0.015404 -0.005064 -0.003550 0.000000 0.003425 0.000000
# 2 -0.005064 0.020140 -0.004322 0.000000 -0.006960 0.000000
# 3 -0.003550 -0.004322 0.010615 0.000000 0.002951 0.000000
# 4 0.000000 0.000000 0.000000 0.024763 0.000000 -0.000399
# 5 0.003425 -0.006960 0.002951 0.000000 0.032251 0.000000
# 6 0.000000 0.000000 0.000000 -0.000399 0.000000 0.039407
#
#
# Mechanical properties :
#
#
# Convention : Reuss Voigt Hill
#
# Bulk Modulus (GPa) = 49.29063 53.92451 51.60757
# Shear Modulus (GPa) = 28.53654 31.51604 30.02629
#
# Velocity S-wave (km/s) = 3.80009 3.99355 3.89802
# Velocity P-wave (km/s) = 6.64812 6.96798 6.80993
#
# Compressibility (1/GPa) = 0.02028783
#
# Stress axis : x y z
#
# Youngs Moduli (GPa) = 64.91648 49.65295 94.20518
#
# Poissons Ratio (x) = 0.25144 0.33443
# Poissons Ratio (y) = 0.32873 0.40713
# Poissons Ratio (z) = 0.23046 0.21459
#
# Static dielectric constant tensor:
#      x y z
#    x 3.748000 0.000000 -0.140250 
#    y 0.000000 3.691000 0.000000 
#    z -0.140250 0.000000 3.684610 
# 
# 
# High freq. dielectric constant tensor:
#      x y z
#    x 1.779350 0.000000 -0.008000 
#    y 0.000000 1.773890 0.000000 
#    z -0.008000 0.000000 1.782580 
# 
# From -- ./inp_files/230973.got.cif
#   From: 2010.06.25/outbox.cif.g09.slc.cpg/sg12_116_cif.got.tgz:230973.got - 2010.06.28 00:19:55.
