data_PCOD8109568
_publ_section_title
;
Structure prediction by ZEFSAII (Michael W. Deem and Ramdas Pophale) SiO2 
 PCOD8109568
Probable space group: C 2/M
;
_chemical_formula_sum "Si O2"
_cell_formula_units_Z 56
_cell_length_a 23.317558
_cell_length_b 13.996884
_cell_length_c 9.390332
_cell_angle_alpha 90.000000
_cell_angle_beta 59.428713
_cell_angle_gamma 90.000000
_cell_volume 2638.742571
_symmetry_space_group_name_H-M "C 2/M"
_symmetry_group_IT_number 12
_symmetry_cell_setting 'monoclinic'
loop_
_space_group_symop_operation_xyz
x,y,z
-x,y,-z
-x,-y,-z
x,-y,z
1/2+x,1/2+y,z
1/2-x,1/2+y,-z
1/2-x,1/2-y,-z
1/2+x,1/2-y,z
loop_
_atom_site_type_symbol
_atom_site_label
_atom_site_fract_x
_atom_site_fract_y
_atom_site_fract_z
Si Si1 0.162420 0.107179 0.008893
Si Si2 0.056123 0.107397 0.547306
Si Si3 0.814130 0.203745 0.737100
Si Si4 0.280529 0.108390 0.658100
Si Si5 0.704677 0.890666 0.688065
Si Si6 0.972486 0.797245 0.876792
Si Si7 0.066564 0.602909 0.004985
O O1 0.204703 0.115353 0.810535
O O2 0.167094 0.000000 0.066445
O O3 0.192358 0.181438 0.086604
O O4 0.085554 0.125739 0.069846
O O5 0.124714 0.142867 0.396951
O O6 0.000000 0.110610 0.500000
O O7 0.035028 0.177837 0.699986
O O8 0.065741 0.000000 0.593652
O O9 0.825171 0.317231 0.694253
O O10 0.746957 0.175138 0.740028
O O11 0.281714 0.139336 0.491929
O O12 0.308470 0.000000 0.642425
O O13 0.627147 0.874104 0.821101
O O14 0.726113 0.000000 0.684896
O O15 0.942705 0.691793 0.874792
O O16 0.000000 0.797434 0.000000
O O17 0.079484 0.500000 0.067054
O O18 0.000000 0.592702 0.000000
#
# Coordination Sequence:
#
# PCOD8109568 Si02
#       7
#     8   8   8   8   8   8   8
#     4  11  23  42  62  90 127 167 209 259 318 377
#     4  11  24  43  64  91 127 168 209 255 314 380
#     4  12  23  40  67  89 127 172 211 253 312 385
#     4  10  24  40  62  94 127 159 205 266 317 363
#     4  10  21  39  65  96 124 161 213 263 311 370
#     4  11  24  39  64  94 126 163 213 262 315 366
#     4   9  20  39  64  91 125 164 207 254 310 376
#
# _framework density 21.222228000000001
#
# number of rings (size 3 to 8) (size 9 to 14) (size 15 to 20)
#    0.000    1.429    1.429    3.429    6.000    1.143 
#    0.000    2.143    0.000    0.857    0.000    0.000 
#    0.000    0.000    0.000    0.000    0.000    0.000 
#
# Total GULP energy -347175.816730 kJ/mol
# GULP energy per Si atom -12399.136312 kJ/mol
# Density = 2.117393 g / cm^3
# Si number density = 21.222228 Si / 1000 Ang^3
#
#
#
# Elastic Constant Matrix: (Units=GPa)
#
#
# Indices 1 2 3 4 5 6 
#
# 1 91.5370 29.7228 26.9087 0.0000 -8.8859 0.0000
# 2 29.7228 123.7168 32.1735 0.0000 3.8656 0.0000
# 3 26.9087 32.1735 87.0572 0.0000 -11.8955 0.0000
# 4 0.0000 0.0000 0.0000 32.0285 0.0000 0.9863
# 5 -8.8859 3.8656 -11.8955 0.0000 32.7290 0.0000
# 6 0.0000 0.0000 0.0000 0.9863 0.0000 27.3341
#
#
#
# Elastic Compliance Matrix: (Units=1/GPa)
#
#
# Indices 1 2 3 4 5 6 
#
# 1 0.012778 -0.002466 -0.002656 0.000000 0.002795 0.000000
# 2 -0.002466 0.009597 -0.003189 0.000000 -0.002962 0.000000
# 3 -0.002656 -0.003189 0.014142 0.000000 0.004795 0.000000
# 4 0.000000 0.000000 0.000000 0.031257 0.000000 -0.001128
# 5 0.002795 -0.002962 0.004795 0.000000 0.033406 0.000000
# 6 0.000000 0.000000 0.000000 -0.001128 0.000000 0.036625
#
#
# Mechanical properties :
#
#
# Convention : Reuss Voigt Hill
#
# Bulk Modulus (GPa) = 50.26879 53.32454 51.79666
# Shear Modulus (GPa) = 31.04459 32.65206 31.84832
#
# Velocity S-wave (km/s) = 3.82885 3.92673 3.87810
# Velocity P-wave (km/s) = 6.57914 6.76315 6.67178
#
# Compressibility (1/GPa) = 0.01989306
#
# Stress axis : x y z
#
# Youngs Moduli (GPa) = 78.26250 104.19381 70.71340
#
# Poissons Ratio (x) = 0.25698 0.18782
# Poissons Ratio (y) = 0.19303 0.22553
# Poissons Ratio (z) = 0.20787 0.33231
#
# Static dielectric constant tensor:
#      x y z
#    x 3.512940 0.000000 -0.037140 
#    y 0.000000 4.660390 0.000000 
#    z -0.037140 0.000000 3.851920 
# 
# 
# High freq. dielectric constant tensor:
#      x y z
#    x 1.812780 0.000000 -0.018620 
#    y 0.000000 1.855720 0.000000 
#    z -0.018620 0.000000 1.830820 
# 
# From -- ./inp_files/96778.got.cif
#   From: 2010.06.25/outbox.cif.g09.slc.cpg/sg12_49_cif.got.tgz:96778.got - 2010.06.28 00:19:55.
