data_PCOD8109220
_publ_section_title
;
Structure prediction by ZEFSAII (Michael W. Deem and Ramdas Pophale) SiO2 
 PCOD8109220
Probable space group: C 2/M
;
_chemical_formula_sum "Si O2"
_cell_formula_units_Z 48
_cell_length_a 27.719350
_cell_length_b 14.111707
_cell_length_c 14.130211
_cell_angle_alpha 90.000000
_cell_angle_beta 22.112336
_cell_angle_gamma 90.000000
_cell_volume 2080.598326
_symmetry_space_group_name_H-M "C 2/M"
_symmetry_group_IT_number 12
_symmetry_cell_setting 'monoclinic'
loop_
_space_group_symop_operation_xyz
x,y,z
-x,y,-z
-x,-y,-z
x,-y,z
1/2+x,1/2+y,z
1/2-x,1/2+y,-z
1/2-x,1/2-y,-z
1/2+x,1/2-y,z
loop_
_atom_site_type_symbol
_atom_site_label
_atom_site_fract_x
_atom_site_fract_y
_atom_site_fract_z
Si Si1 0.338734 0.296777 0.552606
Si Si2 0.251869 0.389382 0.892321
Si Si3 0.073668 0.890146 0.044730
Si Si4 0.638184 0.752933 0.781307
Si Si5 0.262833 0.393616 0.080938
Si Si6 0.457262 0.106311 0.388868
O O1 0.337280 0.328135 0.664927
O O2 0.426496 0.367899 0.333004
O O3 0.197669 0.310638 0.762243
O O4 0.393455 0.189124 0.440091
O O5 0.286931 0.500000 0.819059
O O6 0.282947 0.348114 0.940598
O O7 0.104274 0.371820 0.138342
O O8 0.157488 0.842453 0.978788
O O9 0.103301 0.000000 0.986471
O O10 0.110476 0.851125 0.874353
O O11 0.750000 0.750000 0.500000
O O12 0.500000 0.796970 0.000000
O O13 0.315319 0.500000 0.976991
O O14 0.113245 0.391893 0.380950
O O15 0.437592 0.000000 0.379448
#
# Coordination Sequence:
#
# PCOD8109220 Si02
#       6
#     8   8   8   8   8   8
#     4  12  24  42  68 100 135 174 231 285 343 405
#     4  10  22  40  63  96 139 182 220 274 338 402
#     4  11  24  45  71 102 136 180 229 280 344 418
#     4  12  26  48  72  98 134 177 231 293 352 406
#     4   9  19  39  65  94 135 181 225 272 333 408
#     4  10  21  39  62  91 133 179 228 276 330 394
#
# _framework density 23.070287
#
# number of rings (size 3 to 8) (size 9 to 14) (size 15 to 20)
#    0.000    1.333    3.333    2.000    0.000    3.667 
#    3.000    2.500    0.000    3.500    0.000    0.000 
#    0.000    0.000    0.000    0.000    0.000    0.000 
#
# Total GULP energy -297371.779228 kJ/mol
# GULP energy per Si atom -12390.490801 kJ/mol
# Density = 2.301778 g / cm^3
# Si number density = 23.070287 Si / 1000 Ang^3
#
#
#
# Elastic Constant Matrix: (Units=GPa)
#
#
# Indices 1 2 3 4 5 6 
#
# 1 114.7205 28.2891 50.0022 0.0000 6.5298 0.0000
# 2 28.2891 68.6377 27.1992 0.0000 -0.0498 0.0000
# 3 50.0022 27.1992 118.5931 0.0000 8.9012 0.0000
# 4 0.0000 0.0000 0.0000 31.2946 0.0000 3.7700
# 5 6.5298 -0.0498 8.9012 0.0000 43.2681 0.0000
# 6 0.0000 0.0000 0.0000 3.7700 0.0000 27.5434
#
#
#
# Elastic Compliance Matrix: (Units=1/GPa)
#
#
# Indices 1 2 3 4 5 6 
#
# 1 0.011256 -0.003064 -0.003977 0.000000 -0.000884 0.000000
# 2 -0.003064 0.016886 -0.002658 0.000000 0.001029 0.000000
# 3 -0.003977 -0.002658 0.010841 0.000000 -0.001633 0.000000
# 4 0.000000 0.000000 0.000000 0.032490 0.000000 -0.004447
# 5 -0.000884 0.001029 -0.001633 0.000000 0.023582 0.000000
# 6 0.000000 0.000000 0.000000 -0.004447 0.000000 0.036915
#
#
# Mechanical properties :
#
#
# Convention : Reuss Voigt Hill
#
# Bulk Modulus (GPa) = 51.05813 56.99248 54.02531
# Shear Modulus (GPa) = 31.66618 33.51860 32.59239
#
# Velocity S-wave (km/s) = 3.70888 3.81581 3.76272
# Velocity P-wave (km/s) = 6.36558 6.64616 6.50738
#
# Compressibility (1/GPa) = 0.01958552
#
# Stress axis : x y z
#
# Youngs Moduli (GPa) = 88.84125 59.22002 92.24101
#
# Poissons Ratio (x) = 0.18145 0.36682
# Poissons Ratio (y) = 0.27220 0.24520
# Poissons Ratio (z) = 0.35330 0.15742
#
# Static dielectric constant tensor:
#      x y z
#    x 4.413900 0.000000 -0.073550 
#    y 0.000000 4.013500 0.000000 
#    z -0.073550 0.000000 4.175150 
# 
# 
# High freq. dielectric constant tensor:
#      x y z
#    x 1.904070 0.000000 -0.000920 
#    y 0.000000 1.892980 0.000000 
#    z -0.000920 0.000000 1.918630 
# 
# From -- ./inp_files/251400.got.cif
#   From: 2010.06.25/outbox.cif.g09.slc.cpg/sg12_126_cif.got.tgz:251400.got - 2010.06.28 00:19:55.
