data_PCOD8109650
_publ_section_title
;
Structure prediction by ZEFSAII (Michael W. Deem and Ramdas Pophale) SiO2 
 PCOD8109650
Probable space group: C 2/M
;
_chemical_formula_sum "Si O2"
_cell_formula_units_Z 64
_cell_length_a 19.502338
_cell_length_b 27.100925
_cell_length_c 13.265002
_cell_angle_alpha 90.000000
_cell_angle_beta 152.799518
_cell_angle_gamma 90.000000
_cell_volume 3204.752343
_symmetry_space_group_name_H-M "C 2/M"
_symmetry_group_IT_number 12
_symmetry_cell_setting 'monoclinic'
loop_
_space_group_symop_operation_xyz
x,y,z
-x,y,-z
-x,-y,-z
x,-y,z
1/2+x,1/2+y,z
1/2-x,1/2+y,-z
1/2-x,1/2-y,-z
1/2+x,1/2-y,z
loop_
_atom_site_type_symbol
_atom_site_label
_atom_site_fract_x
_atom_site_fract_y
_atom_site_fract_z
Si Si1 0.967875 0.644885 0.571268
Si Si2 0.168228 0.136407 0.479904
Si Si3 0.616780 0.056310 0.859354
Si Si4 0.590804 0.386561 0.720483
Si Si5 0.338844 0.214889 0.821344
Si Si6 0.084733 0.556295 0.211420
Si Si7 0.337790 0.677067 0.746229
Si Si8 0.302413 0.794980 0.001727
O O1 0.790902 0.644880 0.366325
O O2 0.000000 0.663719 0.500000
O O3 0.049704 0.680933 0.756987
O O4 0.036946 0.589970 0.670514
O O5 0.223223 0.171947 0.641881
O O6 0.273463 0.090901 0.589483
O O7 0.153034 0.169126 0.360793
O O8 0.013470 0.113449 0.316859
O O9 0.789104 0.070383 0.103701
O O10 0.607538 0.000000 0.810520
O O11 0.531321 0.065494 0.851481
O O12 0.500000 0.398695 0.500000
O O13 0.668873 0.333664 0.815355
O O14 0.300384 0.265645 0.714802
O O15 0.500000 0.194394 0.000000
O O16 0.341772 0.225849 0.943704
O O17 0.141817 0.500000 0.282625
O O18 0.000000 0.571559 0.000000
O O19 0.500000 0.661384 0.000000
O O20 0.250000 0.750000 0.000000
#
# Coordination Sequence:
#
# PCOD8109650 Si02
#       8
#     8   8   8   8   8   8   8   8
#     4  11  24  43  69  93 127 172 220 265 323 381
#     4  12  23  40  66  91 138 161 215 265 321 383
#     4  10  23  44  67  95 128 165 216 265 324 400
#     4  11  24  39  62  98 129 171 207 265 332 377
#     4  11  24  39  65  93 128 172 217 260 322 378
#     4  10  21  39  68  97 124 165 209 264 330 391
#     4  11  26  42  62  94 130 175 216 266 318 378
#     4  11  25  41  63  92 133 172 219 265 313 386
#
# _framework density 19.970341999999999
#
# number of rings (size 3 to 8) (size 9 to 14) (size 15 to 20)
#    0.000    1.125    2.500    3.000   12.250    1.500 
#    0.000    0.000    0.000    0.750    0.000    0.000 
#    0.000    0.000    0.000    0.000    0.000    0.000 
#
# Total GULP energy -396967.834219 kJ/mol
# GULP energy per Si atom -12405.244819 kJ/mol
# Density = 1.992489 g / cm^3
# Si number density = 19.970342 Si / 1000 Ang^3
#
#
#
# Elastic Constant Matrix: (Units=GPa)
#
#
# Indices 1 2 3 4 5 6 
#
# 1 135.5311 35.2087 43.0435 0.0000 3.5438 0.0000
# 2 35.2087 100.9886 45.7158 0.0000 7.1597 0.0000
# 3 43.0435 45.7158 105.8791 0.0000 13.8756 0.0000
# 4 0.0000 0.0000 0.0000 24.3990 0.0000 4.2266
# 5 3.5438 7.1597 13.8756 0.0000 41.2532 0.0000
# 6 0.0000 0.0000 0.0000 4.2266 0.0000 32.2008
#
#
#
# Elastic Compliance Matrix: (Units=1/GPa)
#
#
# Indices 1 2 3 4 5 6 
#
# 1 0.008734 -0.001794 -0.002844 0.000000 0.000518 0.000000
# 2 -0.001794 0.012682 -0.004684 0.000000 -0.000471 0.000000
# 3 -0.002844 -0.004684 0.013061 0.000000 -0.003336 0.000000
# 4 0.000000 0.000000 0.000000 0.041939 0.000000 -0.005505
# 5 0.000518 -0.000471 -0.003336 0.000000 0.025400 0.000000
# 6 0.000000 0.000000 0.000000 -0.005505 0.000000 0.031778
#
#
# Mechanical properties :
#
#
# Convention : Reuss Voigt Hill
#
# Bulk Modulus (GPa) = 63.16631 65.59275 64.37953
# Shear Modulus (GPa) = 31.74301 34.13265 32.93783
#
# Velocity S-wave (km/s) = 3.99119 4.13869 4.06561
# Velocity P-wave (km/s) = 7.27586 7.46691 7.37201
#
# Compressibility (1/GPa) = 0.01583122
#
# Stress axis : x y z
#
# Youngs Moduli (GPa) = 114.49281 78.85411 76.56647
#
# Poissons Ratio (x) = 0.14150 0.21774
# Poissons Ratio (y) = 0.20545 0.35866
# Poissons Ratio (z) = 0.32559 0.36938
#
# Static dielectric constant tensor:
#      x y z
#    x 3.707960 0.000000 0.067040 
#    y 0.000000 3.618260 0.000000 
#    z 0.067040 0.000000 3.689590 
# 
# 
# High freq. dielectric constant tensor:
#      x y z
#    x 1.793850 0.000000 0.004400 
#    y 0.000000 1.775270 0.000000 
#    z 0.004400 0.000000 1.780230 
# 
# From -- ./inp_files/161251.got.cif
#   From: 2010.06.25/outbox.cif.g09.slc.cpg/sg12_81_cif.got.tgz:161251.got - 2010.06.28 00:19:55.
