data_PCOD8109068
_publ_section_title
;
Structure prediction by ZEFSAII (Michael W. Deem and Ramdas Pophale) SiO2 
 PCOD8109068
Probable space group: C 2/M
;
_chemical_formula_sum "Si O2"
_cell_formula_units_Z 40
_cell_length_a 8.954657
_cell_length_b 17.968403
_cell_length_c 12.727990
_cell_angle_alpha 90.000000
_cell_angle_beta 95.960256
_cell_angle_gamma 90.000000
_cell_volume 2036.874010
_symmetry_space_group_name_H-M "C 2/M"
_symmetry_group_IT_number 12
_symmetry_cell_setting 'monoclinic'
loop_
_space_group_symop_operation_xyz
x,y,z
-x,y,-z
-x,-y,-z
x,-y,z
1/2+x,1/2+y,z
1/2-x,1/2+y,-z
1/2-x,1/2-y,-z
1/2+x,1/2-y,z
loop_
_atom_site_type_symbol
_atom_site_label
_atom_site_fract_x
_atom_site_fract_y
_atom_site_fract_z
Si Si1 0.375732 0.792047 0.572378
Si Si2 0.240768 0.587841 0.284381
Si Si3 0.759788 0.788646 0.887101
Si Si4 0.466541 0.918372 0.118667
Si Si5 0.472224 0.304876 0.238078
O O1 0.500000 0.819757 0.500000
O O2 0.250000 0.750000 0.500000
O O3 0.306756 0.867046 0.615766
O O4 0.441048 0.733165 0.660446
O O5 0.243917 0.500000 0.307745
O O6 0.410105 0.612483 0.261842
O O7 0.117333 0.609722 0.186924
O O8 0.675621 0.866774 0.874325
O O9 0.683198 0.737935 0.793607
O O10 0.930569 0.803699 0.862536
O O11 0.750000 0.750000 0.000000
O O12 0.422342 0.000000 0.158048
O O13 0.500000 0.920732 0.000000
#
# Coordination Sequence:
#
# PCOD8109068 Si02
#       5
#     8   8   8   8   8
#     4  12  23  42  68  90 121 169 214 269 327 383
#     4  11  24  43  66  97 132 167 214 274 330 387
#     4  12  22  36  64  97 128 167 220 259 310 390
#     4  10  21  39  61  90 132 173 207 258 324 381
#     4  12  22  40  62  93 128 166 213 264 320 379
#
# _framework density 19.637934000000001
#
# number of rings (size 3 to 8) (size 9 to 14) (size 15 to 20)
#    0.000    0.600    6.000    3.000    0.000    1.200 
#    0.000    2.000    0.000    6.000    0.000    0.000 
#    0.000    0.000    0.000    0.000    0.000    0.000 
#
# Total GULP energy -247963.411631 kJ/mol
# GULP energy per Si atom -12398.170582 kJ/mol
# Density = 1.959324 g / cm^3
# Si number density = 19.637934 Si / 1000 Ang^3
#
#
#
# Elastic Constant Matrix: (Units=GPa)
#
#
# Indices 1 2 3 4 5 6 
#
# 1 134.7190 68.5619 51.9669 0.0000 -19.8211 0.0000
# 2 68.5619 126.0917 51.0153 0.0000 -1.8272 0.0000
# 3 51.9669 51.0153 114.2809 0.0000 -0.2376 0.0000
# 4 0.0000 0.0000 0.0000 44.4927 0.0000 8.4526
# 5 -19.8211 -1.8272 -0.2376 0.0000 40.1355 0.0000
# 6 0.0000 0.0000 0.0000 8.4526 0.0000 46.0623
#
#
#
# Elastic Compliance Matrix: (Units=1/GPa)
#
#
# Indices 1 2 3 4 5 6 
#
# 1 0.012164 -0.005245 -0.003178 0.000000 0.005750 0.000000
# 2 -0.005245 0.011947 -0.002953 0.000000 -0.002064 0.000000
# 3 -0.003178 -0.002953 0.011510 0.000000 -0.001636 0.000000
# 4 0.000000 0.000000 0.000000 0.023287 0.000000 -0.004273
# 5 0.005750 -0.002064 -0.001636 0.000000 0.027651 0.000000
# 6 0.000000 0.000000 0.000000 -0.004273 0.000000 0.022494
#
#
# Mechanical properties :
#
#
# Convention : Reuss Voigt Hill
#
# Bulk Modulus (GPa) = 77.69799 79.79777 78.74788
# Shear Modulus (GPa) = 36.73890 39.70794 38.22342
#
# Velocity S-wave (km/s) = 4.32998 4.50155 4.41660
# Velocity P-wave (km/s) = 8.04049 8.23051 8.13605
#
# Compressibility (1/GPa) = 0.01287035
#
# Stress axis : x y z
#
# Youngs Moduli (GPa) = 82.20971 83.70038 86.88012
#
# Poissons Ratio (x) = 0.43901 0.27610
# Poissons Ratio (y) = 0.43119 0.25652
# Poissons Ratio (z) = 0.26126 0.24713
#
# Static dielectric constant tensor:
#      x y z
#    x 3.624670 0.000000 0.061370 
#    y 0.000000 4.842650 0.000000 
#    z 0.061370 0.000000 3.582780 
# 
# 
# High freq. dielectric constant tensor:
#      x y z
#    x 1.774160 0.000000 0.002870 
#    y 0.000000 1.763620 0.000000 
#    z 0.002870 0.000000 1.770080 
# 
# From -- ./inp_files/118886.got.cif
#   From: 2010.06.25/outbox.cif.g09.slc.cpg/sg12_60_cif.got.tgz:118886.got - 2010.06.28 00:19:55.
