data_PCOD8109129
_publ_section_title
;
Structure prediction by ZEFSAII (Michael W. Deem and Ramdas Pophale) SiO2 
 PCOD8109129
Probable space group: C 2/M
;
_chemical_formula_sum "Si O2"
_cell_formula_units_Z 56
_cell_length_a 20.318902
_cell_length_b 8.583289
_cell_length_c 17.628463
_cell_angle_alpha 90.000000
_cell_angle_beta 63.825970
_cell_angle_gamma 90.000000
_cell_volume 2759.197222
_symmetry_space_group_name_H-M "C 2/M"
_symmetry_group_IT_number 12
_symmetry_cell_setting 'monoclinic'
loop_
_space_group_symop_operation_xyz
x,y,z
-x,y,-z
-x,-y,-z
x,-y,z
1/2+x,1/2+y,z
1/2-x,1/2+y,-z
1/2-x,1/2-y,-z
1/2+x,1/2-y,z
loop_
_atom_site_type_symbol
_atom_site_label
_atom_site_fract_x
_atom_site_fract_y
_atom_site_fract_z
Si Si1 0.329914 0.817876 0.967554
Si Si2 0.582014 0.681822 0.942481
Si Si3 0.319918 0.317317 0.693175
Si Si4 0.575684 0.316106 0.493331
Si Si5 0.914388 0.682871 0.776569
Si Si6 0.150690 0.318733 0.763511
Si Si7 0.071311 0.816922 0.665132
O O1 0.382457 0.759288 0.873288
O O2 0.321480 0.000000 0.967123
O O3 0.250000 0.750000 0.000000
O O4 0.362259 0.771873 0.031987
O O5 0.589379 0.500000 0.955090
O O6 0.601574 0.719263 0.846002
O O7 0.500000 0.741177 0.000000
O O8 0.332288 0.500000 0.702979
O O9 0.357642 0.267017 0.594940
O O10 0.354104 0.217951 0.743479
O O11 0.235174 0.272866 0.730239
O O12 0.500000 0.242354 0.500000
O O13 0.566307 0.500000 0.501733
O O14 0.590456 0.255860 0.570880
O O15 0.933182 0.500000 0.767539
O O16 0.986740 0.782241 0.725358
O O17 0.137676 0.500000 0.786028
O O18 0.125394 0.277491 0.691980
O O19 0.085296 0.000000 0.667770
#
# Coordination Sequence:
#
# PCOD8109129 Si02
#       7
#     8   8   8   8   8   8   8
#     4  11  24  40  60  87 120 157 197 247 301 354
#     4  11  24  42  64  88 117 157 204 248 295 357
#     4  10  21  39  62  87 119 161 201 240 295 356
#     4   9  17  35  62  89 116 153 201 245 288 345
#     4  11  23  38  59  89 121 152 194 248 300 349
#     4  11  24  40  60  89 125 158 194 245 301 355
#     4  11  22  38  63  88 117 158 202 243 289 351
#
# _framework density 20.295759
#
# number of rings (size 3 to 8) (size 9 to 14) (size 15 to 20)
#    0.000    1.429    1.429    3.857    0.000    9.714 
#    0.000    2.143    0.000    0.000    0.000    0.000 
#    0.000    0.000    0.000    0.000    0.000    0.000 
#
# Total GULP energy -347360.600729 kJ/mol
# GULP energy per Si atom -12405.735740 kJ/mol
# Density = 2.024957 g / cm^3
# Si number density = 20.295759 Si / 1000 Ang^3
#
#
#
# Elastic Constant Matrix: (Units=GPa)
#
#
# Indices 1 2 3 4 5 6 
#
# 1 93.7350 13.4585 14.7441 0.0001 4.5889 0.0003
# 2 13.4585 29.9947 19.7450 0.0001 -7.2404 0.0001
# 3 14.7441 19.7450 103.2623 0.0000 7.3520 0.0001
# 4 0.0001 0.0001 0.0000 25.6365 0.0000 6.5804
# 5 4.5889 -7.2404 7.3520 0.0000 40.2893 0.0001
# 6 0.0003 0.0001 0.0001 6.5804 0.0001 32.8562
#
#
#
# Elastic Compliance Matrix: (Units=1/GPa)
#
#
# Indices 1 2 3 4 5 6 
#
# 1 0.011632 -0.005453 -0.000460 0.000000 -0.002221 0.000000
# 2 -0.005453 0.043642 -0.008276 0.000000 0.009974 0.000000
# 3 -0.000460 -0.008276 0.011585 0.000000 -0.003549 0.000000
# 4 0.000000 0.000000 0.000000 0.041121 0.000000 -0.008236
# 5 -0.002221 0.009974 -0.003549 0.000000 0.027514 0.000000
# 6 0.000000 0.000000 0.000000 -0.008236 0.000000 0.032085
#
#
# Mechanical properties :
#
#
# Convention : Reuss Voigt Hill
#
# Bulk Modulus (GPa) = 25.98705 35.87636 30.93171
# Shear Modulus (GPa) = 23.94824 31.69269 27.82046
#
# Velocity S-wave (km/s) = 3.43879 3.95592 3.70638
# Velocity P-wave (km/s) = 5.34780 6.21135 5.79568
#
# Compressibility (1/GPa) = 0.03848070
#
# Stress axis : x y z
#
# Youngs Moduli (GPa) = 85.96705 22.91390 86.31837
#
# Poissons Ratio (x) = 0.12494 0.03972
# Poissons Ratio (y) = 0.46874 0.71441
# Poissons Ratio (z) = 0.03956 0.18965
#
# Static dielectric constant tensor:
#      x y z
#    x 3.646390 0.000000 -0.046280 
#    y 0.000000 3.490240 0.000000 
#    z -0.046280 0.000000 3.804800 
# 
# 
# High freq. dielectric constant tensor:
#      x y z
#    x 1.801300 0.000000 0.002970 
#    y 0.000000 1.781650 0.000000 
#    z 0.002970 0.000000 1.809040 
# 
# From -- ./inp_files/280950.got.cif
#   From: 2010.06.25/outbox.cif.g09.slc.cpg/sg12_141_cif.got.tgz:280950.got - 2010.06.28 00:19:55.
