data_PCOD8109899
_publ_section_title
;
Structure prediction by ZEFSAII (Michael W. Deem and Ramdas Pophale) SiO2 
 PCOD8109899
Probable space group: C 2/M
;
_chemical_formula_sum "Si O2"
_cell_formula_units_Z 48
_cell_length_a 9.210584
_cell_length_b 15.299132
_cell_length_c 18.780127
_cell_angle_alpha 90.000000
_cell_angle_beta 68.757515
_cell_angle_gamma 90.000000
_cell_volume 2466.574349
_symmetry_space_group_name_H-M "C 2/M"
_symmetry_group_IT_number 12
_symmetry_cell_setting 'monoclinic'
loop_
_space_group_symop_operation_xyz
x,y,z
-x,y,-z
-x,-y,-z
x,-y,z
1/2+x,1/2+y,z
1/2-x,1/2+y,-z
1/2-x,1/2-y,-z
1/2+x,1/2-y,z
loop_
_atom_site_type_symbol
_atom_site_label
_atom_site_fract_x
_atom_site_fract_y
_atom_site_fract_z
Si Si1 0.411597 0.838414 0.842983
Si Si2 0.578080 0.663600 0.840983
Si Si3 0.767274 0.000000 0.590800
Si Si4 0.572577 0.500000 0.062970
Si Si5 0.591649 0.000000 0.054520
Si Si6 0.100626 0.000000 0.590019
Si Si7 0.210705 0.161662 0.662601
Si Si8 0.451652 0.160492 0.335891
O O1 0.478086 0.751067 0.866249
O O2 0.227743 0.827198 0.864678
O O3 0.497436 0.859003 0.753804
O O4 0.443820 0.916499 0.890971
O O5 0.471643 0.584366 0.883898
O O6 0.626936 0.643843 0.751945
O O7 0.832789 0.000000 0.500390
O O8 0.660836 0.915775 0.619412
O O9 0.911460 0.000000 0.621213
O O10 0.500000 0.500000 0.000000
O O11 0.748282 0.500000 0.013367
O O12 0.500000 0.000000 0.000000
O O13 0.165286 0.915223 0.617896
O O14 0.397290 0.166608 0.639893
O O15 0.147214 0.250961 0.640013
#
# Coordination Sequence:
#
# PCOD8109899 Si02
#       8
#     8   8   4   4   4   4   8   8
#     4  10  22  42  62  87 118 152 198 246 291 351
#     4  10  22  40  64  88 115 155 197 243 296 349
#     4  11  24  40  60  90 125 163 197 242 296 349
#     4  12  23  41  59  82 121 160 191 241 302 354
#     4  12  27  41  55  86 121 156 199 243 296 354
#     4  11  24  40  60  90 127 159 199 243 292 354
#     4  10  21  40  64  92 120 155 202 248 293 354
#     4  10  21  40  66  90 119 157 200 247 298 350
#
# _framework density 19.460187000000001
#
# number of rings (size 3 to 8) (size 9 to 14) (size 15 to 20)
#    0.000    1.500    1.667    2.500    2.333    7.333 
#    3.000    0.000    0.000    0.000    0.000    0.000 
#    0.000    0.000    0.000    0.000    0.000    0.000 
#
# Total GULP energy -297605.277510 kJ/mol
# GULP energy per Si atom -12400.219896 kJ/mol
# Density = 1.941590 g / cm^3
# Si number density = 19.460187 Si / 1000 Ang^3
#
#
#
# Elastic Constant Matrix: (Units=GPa)
#
#
# Indices 1 2 3 4 5 6 
#
# 1 163.7373 88.8654 55.8234 0.0000 4.7147 0.0000
# 2 88.8654 181.2084 73.8606 0.0000 1.7389 0.0000
# 3 55.8234 73.8606 65.5897 0.0000 0.4887 0.0000
# 4 0.0000 0.0000 0.0000-1139.3736 0.0000 -2.8046
# 5 4.7147 1.7389 0.4887 0.0000 35.3153 0.0000
# 6 0.0000 0.0000 0.0000 -2.8046 0.0000 38.4559
#
#
#
# Elastic Compliance Matrix: (Units=1/GPa)
#
#
# Indices 1 2 3 4 5 6 
#
# 1 0.009184 -0.002424 -0.005080 0.000000 -0.001037 0.000000
# 2 -0.002424 0.010844 -0.010148 0.000000 -0.000070 0.000000
# 3 -0.005080 -0.010148 0.030993 0.000000 0.000749 0.000000
# 4 0.000000 0.000000 0.000000 -0.000878 0.000000 -0.000064
# 5 -0.001037 -0.000070 0.000749 0.000000 0.028448 0.000000
# 6 0.000000 0.000000 0.000000 -0.000064 0.000000 0.025999
#
#
# Mechanical properties :
#
#
# Convention : Reuss Voigt Hill
#
# Bulk Modulus (GPa) = 63.62491 94.18159 78.90325
# Shear Modulus (GPa) = 34.45096 -200.32141 -82.93523
#
# Velocity S-wave (km/s) = 4.21209 -10.15690 -6.53532
# Velocity P-wave (km/s) = 7.51143 9.43652 4.03896
#
# Compressibility (1/GPa) = 0.01571711
#
# Stress axis : x y z
#
# Youngs Moduli (GPa) = 108.87942 92.21499 32.26581
#
# Poissons Ratio (x) = 0.22349 0.16391
# Poissons Ratio (y) = 0.26387 0.32745
# Poissons Ratio (z) = 0.55311 0.93584
#
# Static dielectric constant tensor:
#      x y z
#    x 3.801500 0.000000 -0.010690 
#    y 0.000000 3.799430 0.000000 
#    z -0.010690 0.000000 3.579110 
# 
# 
# High freq. dielectric constant tensor:
#      x y z
#    x 1.776670 0.000000 -0.001470 
#    y 0.000000 1.772650 0.000000 
#    z -0.001470 0.000000 1.759140 
# 
# From -- ./inp_files/299803.got.cif
#   From: 2010.06.25/outbox.cif.g09.slc.cpg/sg12_150_cif.got.tgz:299803.got - 2010.06.28 00:19:55.
