data_PCOD8109248
_publ_section_title
;
Structure prediction by ZEFSAII (Michael W. Deem and Ramdas Pophale) SiO2 
 PCOD8109248
Probable space group: C 2/M
;
_chemical_formula_sum "Si O2"
_cell_formula_units_Z 56
_cell_length_a 30.479292
_cell_length_b 16.545163
_cell_length_c 9.474035
_cell_angle_alpha 90.000000
_cell_angle_beta 144.208447
_cell_angle_gamma 90.000000
_cell_volume 2794.129712
_symmetry_space_group_name_H-M "C 2/M"
_symmetry_group_IT_number 12
_symmetry_cell_setting 'monoclinic'
loop_
_space_group_symop_operation_xyz
x,y,z
-x,y,-z
-x,-y,-z
x,-y,z
1/2+x,1/2+y,z
1/2-x,1/2+y,-z
1/2-x,1/2-y,-z
1/2+x,1/2-y,z
loop_
_atom_site_type_symbol
_atom_site_label
_atom_site_fract_x
_atom_site_fract_y
_atom_site_fract_z
Si Si1 0.087124 0.088628 0.248917
Si Si2 0.601817 0.262622 0.480765
Si Si3 0.513034 0.000000 0.700622
Si Si4 0.584341 0.696624 0.743587
Si Si5 0.444476 0.823573 0.103287
Si Si6 0.827566 0.095601 0.810272
Si Si7 0.579350 0.000000 0.287679
Si Si8 0.334288 0.843195 0.572567
O O1 0.098831 0.148422 0.408194
O O2 0.124797 0.120094 0.202723
O O3 0.120591 0.000000 0.375459
O O4 0.000000 0.079992 0.000000
O O5 0.623349 0.276762 0.699353
O O6 0.524974 0.210733 0.262520
O O7 0.667078 0.214916 0.568178
O O8 0.500000 0.000000 0.500000
O O9 0.556639 0.919262 0.864228
O O10 0.433966 0.000000 0.577750
O O11 0.500000 0.663373 0.500000
O O12 0.582188 0.778769 0.826595
O O13 0.630359 0.625988 0.939578
O O14 0.384212 0.802914 0.825524
O O15 0.749070 0.141861 0.589840
O O16 0.815916 0.000000 0.794024
O O17 0.628011 0.925129 0.373657
O O18 0.500000 0.000000 0.000000
#
# Coordination Sequence:
#
# PCOD8109248 Si02
#       8
#     8   8   4   8   8   8   4   8
#     4  10  21  39  63  88 114 155 212 267 310 364
#     4  11  21  37  64  93 126 164 214 253 303 379
#     4  12  22  36  64  98 132 166 212 256 304 358
#     4  10  23  41  61  91 124 162 212 261 313 377
#     4  11  22  38  63  96 127 168 213 254 304 370
#     4  11  25  43  64  92 124 162 209 264 325 372
#     4  12  20  38  64  98 124 176 212 247 300 365
#     4  12  22  38  64  93 131 162 208 261 307 373
#
# _framework density 20.042017999999999
#
# number of rings (size 3 to 8) (size 9 to 14) (size 15 to 20)
#    0.000    1.000    3.571    5.143    0.000    3.714 
#    0.000    0.000    0.000    0.000    0.000    0.000 
#    0.000    0.000    0.000    0.000    0.000    0.000 
#
# Total GULP energy -347201.174954 kJ/mol
# GULP energy per Si atom -12400.041963 kJ/mol
# Density = 1.999640 g / cm^3
# Si number density = 20.042018 Si / 1000 Ang^3
#
#
#
# Elastic Constant Matrix: (Units=GPa)
#
#
# Indices 1 2 3 4 5 6 
#
# 1 151.6722 46.1252 55.2829 0.0000 -11.6562 0.0000
# 2 46.1252 106.3394 23.6168 0.0000 -6.1076 0.0000
# 3 55.2829 23.6168 69.6019 0.0000 -6.9969 0.0000
# 4 0.0000 0.0000 0.0000 25.6236 0.0000 -6.4768
# 5 -11.6562 -6.1076 -6.9969 0.0000 31.8431 0.0000
# 6 0.0000 0.0000 0.0000 -6.4768 0.0000 35.7630
#
#
#
# Elastic Compliance Matrix: (Units=1/GPa)
#
#
# Indices 1 2 3 4 5 6 
#
# 1 0.010069 -0.002740 -0.006902 0.000000 0.001643 0.000000
# 2 -0.002740 0.010962 -0.001465 0.000000 0.000778 0.000000
# 3 -0.006902 -0.001465 0.020518 0.000000 0.001701 0.000000
# 4 0.000000 0.000000 0.000000 0.040899 0.000000 0.007407
# 5 0.001643 0.000778 0.001701 0.000000 0.032528 0.000000
# 6 0.000000 0.000000 0.000000 0.007407 0.000000 0.029303
#
#
# Mechanical properties :
#
#
# Convention : Reuss Voigt Hill
#
# Bulk Modulus (GPa) = 51.72262 64.18480 57.95371
# Shear Modulus (GPa) = 28.91200 32.15185 30.53192
#
# Velocity S-wave (km/s) = 3.80224 4.00962 3.90730
# Velocity P-wave (km/s) = 6.71857 7.31647 7.02388
#
# Compressibility (1/GPa) = 0.01933390
#
# Stress axis : x y z
#
# Youngs Moduli (GPa) = 99.31963 91.22087 48.73817
#
# Poissons Ratio (x) = 0.24994 0.33640
# Poissons Ratio (y) = 0.27213 0.07141
# Poissons Ratio (z) = 0.68553 0.13366
#
# Static dielectric constant tensor:
#      x y z
#    x 3.915610 0.000000 -0.063180 
#    y 0.000000 3.898810 0.000000 
#    z -0.063180 0.000000 4.119660 
# 
# 
# High freq. dielectric constant tensor:
#      x y z
#    x 1.796500 0.000000 -0.010720 
#    y 0.000000 1.802050 0.000000 
#    z -0.010720 0.000000 1.750230 
# 
# From -- ./inp_files/106070.got.cif
#   From: 2010.06.25/outbox.cif.g09.slc.cpg/sg12_54_cif.got.tgz:106070.got - 2010.06.28 00:19:55.
