data_PCOD8109999
_publ_section_title
;
Structure prediction by ZEFSAII (Michael W. Deem and Ramdas Pophale) SiO2 
 PCOD8109999
Probable space group: C 2/M
;
_chemical_formula_sum "Si O2"
_cell_formula_units_Z 64
_cell_length_a 14.397652
_cell_length_b 29.235237
_cell_length_c 9.140303
_cell_angle_alpha 90.000000
_cell_angle_beta 50.268614
_cell_angle_gamma 90.000000
_cell_volume 2958.783545
_symmetry_space_group_name_H-M "C 2/M"
_symmetry_group_IT_number 12
_symmetry_cell_setting 'monoclinic'
loop_
_space_group_symop_operation_xyz
x,y,z
-x,y,-z
-x,-y,-z
x,-y,z
1/2+x,1/2+y,z
1/2-x,1/2+y,-z
1/2-x,1/2-y,-z
1/2+x,1/2-y,z
loop_
_atom_site_type_symbol
_atom_site_label
_atom_site_fract_x
_atom_site_fract_y
_atom_site_fract_z
Si Si1 0.867104 0.947761 0.102917
Si Si2 0.132326 0.883172 0.402349
Si Si3 0.479398 0.051594 0.191659
Si Si4 0.312164 0.286351 0.777049
Si Si5 0.725880 0.111202 0.460408
Si Si6 0.755641 0.449121 0.069263
Si Si7 0.396864 0.201720 0.498930
Si Si8 0.557072 0.243130 0.095457
O O1 0.764386 0.918508 0.284033
O O2 0.857060 0.000000 0.168082
O O3 0.844987 0.943509 0.953058
O O4 0.000000 0.927985 0.000000
O O5 0.138038 0.830782 0.350336
O O6 0.160457 0.887187 0.544985
O O7 0.232655 0.912925 0.219345
O O8 0.000000 0.902985 0.500000
O O9 0.391589 0.089213 0.347378
O O10 0.429700 0.000000 0.269294
O O11 0.500000 0.060589 0.000000
O O12 0.610960 0.058128 0.133891
O O13 0.334774 0.243666 0.646634
O O14 0.385517 0.282281 0.857280
O O15 0.168674 0.291259 0.949262
O O16 0.700652 0.162732 0.433477
O O17 0.748744 0.500000 0.146035
O O18 0.500000 0.181081 0.500000
O O19 0.451114 0.217075 0.288292
O O20 0.500000 0.262160 0.000000
#
# Coordination Sequence:
#
# PCOD8109999 Si02
#       8
#     8   8   8   8   8   8   8   8
#     4  10  23  44  65  93 135 175 214 260 315 385
#     4  12  25  41  64  91 126 170 219 267 311 389
#     4  10  21  40  65  97 132 162 208 271 324 385
#     4  10  24  44  62  91 129 167 214 262 322 381
#     4  12  25  38  67  98 125 170 217 263 325 382
#     4  10  23  42  65  93 130 169 207 266 328 376
#     4  10  24  43  62  93 132 165 208 271 324 379
#     4  10  21  40  68  90 118 167 210 264 325 376
#
# _framework density 21.630513000000001
#
# number of rings (size 3 to 8) (size 9 to 14) (size 15 to 20)
#    0.000    1.500    1.250    3.000    3.500    6.250 
#    0.000    4.375    0.000    0.000    0.000    0.000 
#    0.000    0.000    0.000    0.000    0.000    0.000 
#
# Total GULP energy -396845.578600 kJ/mol
# GULP energy per Si atom -12401.424331 kJ/mol
# Density = 2.158128 g / cm^3
# Si number density = 21.630513 Si / 1000 Ang^3
#
#
#
# Elastic Constant Matrix: (Units=GPa)
#
#
# Indices 1 2 3 4 5 6 
#
# 1 109.3182 29.3301 18.6415 0.0000 6.8260 0.0000
# 2 29.3301 101.4773 39.3688 0.0000 4.1830 0.0000
# 3 18.6415 39.3688 89.6793 0.0000 1.4587 0.0000
# 4 0.0000 0.0000 0.0000 16.3263 0.0000 7.1568
# 5 6.8260 4.1830 1.4587 0.0000 31.1114 0.0000
# 6 0.0000 0.0000 0.0000 7.1568 0.0000 22.1625
#
#
#
# Elastic Compliance Matrix: (Units=1/GPa)
#
#
# Indices 1 2 3 4 5 6 
#
# 1 0.010090 -0.002457 -0.000989 0.000000 -0.001837 0.000000
# 2 -0.002457 0.012533 -0.004976 0.000000 -0.000913 0.000000
# 3 -0.000989 -0.004976 0.013537 0.000000 0.000251 0.000000
# 4 0.000000 0.000000 0.000000 0.071351 0.000000 -0.023041
# 5 -0.001837 -0.000913 0.000251 0.000000 0.032657 0.000000
# 6 0.000000 0.000000 0.000000 -0.023041 0.000000 0.052562
#
#
# Mechanical properties :
#
#
# Convention : Reuss Voigt Hill
#
# Bulk Modulus (GPa) = 51.77201 52.79508 52.28355
# Shear Modulus (GPa) = 23.14685 28.12899 25.63792
#
# Velocity S-wave (km/s) = 3.27479 3.61006 3.44650
# Velocity P-wave (km/s) = 6.18754 6.46818 6.32942
#
# Compressibility (1/GPa) = 0.01931545
#
# Stress axis : x y z
#
# Youngs Moduli (GPa) = 99.10632 79.79090 73.87228
#
# Poissons Ratio (x) = 0.19604 0.07306
# Poissons Ratio (y) = 0.24350 0.36761
# Poissons Ratio (z) = 0.09801 0.39706
#
# Static dielectric constant tensor:
#      x y z
#    x 4.170590 0.000000 -0.057340 
#    y 0.000000 3.667000 0.000000 
#    z -0.057340 0.000000 3.845540 
# 
# 
# High freq. dielectric constant tensor:
#      x y z
#    x 1.867810 0.000000 -0.002720 
#    y 0.000000 1.834630 0.000000 
#    z -0.002720 0.000000 1.846180 
# 
# From -- ./inp_files/68615.got.cif
#   From: 2010.06.25/outbox.cif.g09.slc.cpg/sg12_35_cif.got.tgz:68615.got - 2010.06.28 00:19:55.
