data_PCOD8109292
_publ_section_title
;
Structure prediction by ZEFSAII (Michael W. Deem and Ramdas Pophale) SiO2 
 PCOD8109292
Probable space group: C 2/M
;
_chemical_formula_sum "Si O2"
_cell_formula_units_Z 48
_cell_length_a 12.411748
_cell_length_b 13.955292
_cell_length_c 13.853608
_cell_angle_alpha 90.000000
_cell_angle_beta 107.924547
_cell_angle_gamma 90.000000
_cell_volume 2283.108289
_symmetry_space_group_name_H-M "C 2/M"
_symmetry_group_IT_number 12
_symmetry_cell_setting 'monoclinic'
loop_
_space_group_symop_operation_xyz
x,y,z
-x,y,-z
-x,-y,-z
x,-y,z
1/2+x,1/2+y,z
1/2-x,1/2+y,-z
1/2-x,1/2-y,-z
1/2+x,1/2-y,z
loop_
_atom_site_type_symbol
_atom_site_label
_atom_site_fract_x
_atom_site_fract_y
_atom_site_fract_z
Si Si1 0.120354 0.277672 0.070340
Si Si2 0.873160 0.101625 0.426743
Si Si3 0.419138 0.799334 0.383795
Si Si4 0.837246 0.884058 0.065024
Si Si5 0.298214 0.394498 0.610058
Si Si6 0.975940 0.227760 0.762424
O O1 0.213131 0.357619 0.070432
O O2 0.110405 0.270045 0.182887
O O3 0.147790 0.171829 0.033183
O O4 0.000000 0.316657 0.000000
O O5 0.861880 0.193522 0.355713
O O6 0.784857 0.115959 0.490975
O O7 0.000000 0.094485 0.500000
O O8 0.843909 0.000000 0.365534
O O9 0.500000 0.805752 0.500000
O O10 0.319821 0.874623 0.369676
O O11 0.474552 0.813831 0.292551
O O12 0.930117 0.840470 0.163124
O O13 0.849832 0.000000 0.055836
O O14 0.333483 0.500000 0.650767
O O15 0.403696 0.330964 0.666935
#
# Coordination Sequence:
#
# PCOD8109292 Si02
#       6
#     8   8   8   8   8   8
#     4   9  21  40  61  88 119 148 182 230 285 343
#     4   9  17  32  53  79 104 138 191 239 278 323
#     4  11  22  37  58  79 115 156 198 236 286 335
#     4  10  21  39  63  90 116 146 186 231 284 343
#     4  11  22  36  56  81 112 152 196 241 287 330
#     4  11  21  37  59  84 116 151 192 238 280 333
#
# _framework density 21.023971
#
# number of rings (size 3 to 8) (size 9 to 14) (size 15 to 20)
#    0.000    1.833    3.333    2.000    0.000    5.000 
#    0.000    0.833    0.000    0.000    0.000    0.000 
#    0.000    0.000    0.000    0.000    0.000    0.000 
#
# Total GULP energy -297329.541060 kJ/mol
# GULP energy per Si atom -12388.730878 kJ/mol
# Density = 2.097612 g / cm^3
# Si number density = 21.023971 Si / 1000 Ang^3
#
#
#
# Elastic Constant Matrix: (Units=GPa)
#
#
# Indices 1 2 3 4 5 6 
#
# 1 120.8692 13.3495 27.0161 0.0000 -21.5941 0.0000
# 2 13.3495 26.4816 4.9179 0.0000 -4.9284 0.0000
# 3 27.0161 4.9179 59.6324 0.0000 -23.0975 0.0000
# 4 0.0000 0.0000 0.0000 12.1592 0.0000 -5.1289
# 5 -21.5941 -4.9284 -23.0975 0.0000 40.7728 0.0000
# 6 0.0000 0.0000 0.0000 -5.1289 0.0000 63.1821
#
#
#
# Elastic Compliance Matrix: (Units=1/GPa)
#
#
# Indices 1 2 3 4 5 6 
#
# 1 0.009920 -0.003871 -0.002974 0.000000 0.003101 0.000000
# 2 -0.003871 0.040287 -0.000611 0.000000 0.002474 0.000000
# 3 -0.002974 -0.000611 0.022456 0.000000 0.011072 0.000000
# 4 0.000000 0.000000 0.000000 0.085158 0.000000 0.006913
# 5 0.003101 0.002474 0.011072 0.000000 0.032740 0.000000
# 6 0.000000 0.000000 0.000000 0.006913 0.000000 0.016388
#
#
# Mechanical properties :
#
#
# Convention : Reuss Voigt Hill
#
# Bulk Modulus (GPa) = 17.31551 33.06112 25.18832
# Shear Modulus (GPa) = 20.73739 34.00280 27.37010
#
# Velocity S-wave (km/s) = 3.14406 4.02597 3.61203
# Velocity P-wave (km/s) = 4.62970 6.11317 5.42241
#
# Compressibility (1/GPa) = 0.05775169
#
# Stress axis : x y z
#
# Youngs Moduli (GPa) = 100.80998 24.82177 44.53244
#
# Poissons Ratio (x) = 0.09609 0.13242
# Poissons Ratio (y) = 0.39025 0.02719
# Poissons Ratio (z) = 0.29977 0.01516
#
# Static dielectric constant tensor:
#      x y z
#    x 4.096750 0.000000 -0.274160 
#    y 0.000000 3.843570 0.000000 
#    z -0.274160 0.000000 3.679030 
# 
# 
# High freq. dielectric constant tensor:
#      x y z
#    x 1.842550 0.000000 -0.017600 
#    y 0.000000 1.798970 0.000000 
#    z -0.017600 0.000000 1.803940 
# 
# From -- ./inp_files/204281.got.cif
#   From: 2010.06.25/outbox.cif.g09.slc.cpg/sg12_103_cif.got.tgz:204281.got - 2010.06.28 00:19:55.
