data_PCOD8109147
_publ_section_title
;
Structure prediction by ZEFSAII (Michael W. Deem and Ramdas Pophale) SiO2 
 PCOD8109147
Probable space group: C 2/M
;
_chemical_formula_sum "Si O2"
_cell_formula_units_Z 64
_cell_length_a 19.757351
_cell_length_b 8.505670
_cell_length_c 31.152867
_cell_angle_alpha 90.000000
_cell_angle_beta 143.029915
_cell_angle_gamma 90.000000
_cell_volume 3148.453018
_symmetry_space_group_name_H-M "C 2/M"
_symmetry_group_IT_number 12
_symmetry_cell_setting 'monoclinic'
loop_
_space_group_symop_operation_xyz
x,y,z
-x,y,-z
-x,-y,-z
x,-y,z
1/2+x,1/2+y,z
1/2-x,1/2+y,-z
1/2-x,1/2-y,-z
1/2+x,1/2-y,z
loop_
_atom_site_type_symbol
_atom_site_label
_atom_site_fract_x
_atom_site_fract_y
_atom_site_fract_z
Si Si1 0.286767 0.181376 0.442672
Si Si2 0.542413 0.686118 0.087036
Si Si3 0.911957 0.186729 0.795564
Si Si4 0.017682 0.180934 0.407051
Si Si5 0.821906 0.684784 0.362394
Si Si6 0.453074 0.819004 0.666343
Si Si7 0.323075 0.313866 0.926572
Si Si8 0.917489 0.815919 0.190561
O O1 0.357939 0.285358 0.511738
O O2 0.318889 0.227360 0.410751
O O3 0.155366 0.210090 0.382875
O O4 0.313647 0.000000 0.465503
O O5 0.543303 0.500000 0.089873
O O6 0.567460 0.759364 0.146601
O O7 0.638191 0.738531 0.101655
O O8 0.419422 0.739744 0.008784
O O9 0.792243 0.247083 0.717515
O O10 0.010153 0.244444 0.813411
O O11 0.912065 0.000000 0.797708
O O12 0.992385 0.284934 0.352284
O O13 0.926746 0.222498 0.396740
O O14 0.009526 0.000000 0.390033
O O15 0.838129 0.500000 0.363108
O O16 0.545615 0.778645 0.748721
O O17 0.418175 0.000000 0.652408
O O18 0.301259 0.500000 0.917551
O O19 0.212405 0.220270 0.884272
O O20 0.937174 0.000000 0.208212
#
# Coordination Sequence:
#
# PCOD8109147 Si02
#       8
#     8   8   8   8   8   8   8   8
#     4  11  22  42  66  89 120 157 198 246 300 358
#     4   8  16  33  58  86 118 154 199 242 287 346
#     4   9  18  35  58  83 115 159 200 238 291 353
#     4  12  26  41  60  90 123 155 198 249 299 355
#     4  10  21  39  62  88 119 160 204 244 295 358
#     4  12  25  42  63  87 117 157 201 248 303 361
#     4   9  18  34  58  89 118 153 199 247 286 342
#     4  11  22  38  58  85 119 157 196 245 302 355
#
# _framework density 20.327444
#
# number of rings (size 3 to 8) (size 9 to 14) (size 15 to 20)
#    0.000    1.750    1.250    4.500    1.750    3.000 
#    0.000    1.250    0.000    3.000    0.000    0.000 
#    0.000    0.000    0.000    0.000    0.000    0.000 
#
# Total GULP energy -396933.798734 kJ/mol
# GULP energy per Si atom -12404.181210 kJ/mol
# Density = 2.028118 g / cm^3
# Si number density = 20.327444 Si / 1000 Ang^3
#
#
#
# Elastic Constant Matrix: (Units=GPa)
#
#
# Indices 1 2 3 4 5 6 
#
# 1 68.2403 20.9353 17.6890 0.0000 -4.8263 0.0000
# 2 20.9353 44.9443 19.1951 0.0002 -9.9721 -0.0003
# 3 17.6890 19.1951 81.4845 0.0000 -4.4231 -0.0001
# 4 0.0000 0.0002 0.0000 27.0539 -0.0001 8.9483
# 5 -4.8263 -9.9721 -4.4231 -0.0001 41.4621 0.0000
# 6 0.0000 -0.0003 -0.0001 8.9483 0.0000 23.4409
#
#
#
# Elastic Compliance Matrix: (Units=1/GPa)
#
#
# Indices 1 2 3 4 5 6 
#
# 1 0.017408 -0.007206 -0.002078 0.000000 0.000072 0.000000
# 2 -0.007206 0.028965 -0.004955 0.000000 0.005599 0.000000
# 3 -0.002078 -0.004955 0.013893 0.000000 0.000049 0.000000
# 4 0.000000 0.000000 0.000000 0.042305 0.000000 -0.016149
# 5 0.000072 0.005599 0.000049 0.000000 0.025479 0.000000
# 6 0.000000 0.000000 0.000000 -0.016149 0.000000 0.048825
#
#
# Mechanical properties :
#
#
# Convention : Reuss Voigt Hill
#
# Bulk Modulus (GPa) = 31.45695 34.47865 32.96780
# Shear Modulus (GPa) = 23.15369 27.51468 25.33418
#
# Velocity S-wave (km/s) = 3.37862 3.68308 3.53413
# Velocity P-wave (km/s) = 5.54336 5.92328 5.73647
#
# Compressibility (1/GPa) = 0.03178948
#
# Stress axis : x y z
#
# Youngs Moduli (GPa) = 57.44362 34.52478 71.97773
#
# Poissons Ratio (x) = 0.24877 0.14955
# Poissons Ratio (y) = 0.41392 0.35665
# Poissons Ratio (z) = 0.11936 0.17107
#
# Static dielectric constant tensor:
#      x y z
#    x 3.879390 0.000000 -0.204660 
#    y 0.000000 3.317000 0.000000 
#    z -0.204660 0.000000 3.828230 
# 
# 
# High freq. dielectric constant tensor:
#      x y z
#    x 1.805000 0.000000 -0.002600 
#    y 0.000000 1.766840 0.000000 
#    z -0.002600 0.000000 1.801470 
# 
# From -- ./inp_files/378379.got.cif
#   From: 2010.06.25/outbox.cif.g09.slc.cpg/sg12_190_cif.got.tgz:378379.got - 2010.06.28 00:19:55.
