data_PCOD8109255
_publ_section_title
;
Structure prediction by ZEFSAII (Michael W. Deem and Ramdas Pophale) SiO2 
 PCOD8109255
Probable space group: C 2/M
;
_chemical_formula_sum "Si O2"
_cell_formula_units_Z 40
_cell_length_a 20.426643
_cell_length_b 8.858229
_cell_length_c 27.966325
_cell_angle_alpha 90.000000
_cell_angle_beta 156.014157
_cell_angle_gamma 90.000000
_cell_volume 2057.081526
_symmetry_space_group_name_H-M "C 2/M"
_symmetry_group_IT_number 12
_symmetry_cell_setting 'monoclinic'
loop_
_space_group_symop_operation_xyz
x,y,z
-x,y,-z
-x,-y,-z
x,-y,z
1/2+x,1/2+y,z
1/2-x,1/2+y,-z
1/2-x,1/2-y,-z
1/2+x,1/2-y,z
loop_
_atom_site_type_symbol
_atom_site_label
_atom_site_fract_x
_atom_site_fract_y
_atom_site_fract_z
Si Si1 0.404833 0.174473 0.729297
Si Si2 0.070115 0.321860 0.496852
Si Si3 0.696178 0.175380 0.853243
Si Si4 0.502600 0.175995 0.102147
Si Si5 0.173651 0.176186 0.736850
O O1 0.253197 0.272079 0.612013
O O2 0.547395 0.210633 0.788225
O O3 0.460537 0.222608 0.819108
O O4 0.354084 0.000000 0.694800
O O5 0.060144 0.500000 0.489636
O O6 0.000000 0.256733 0.500000
O O7 0.968324 0.261017 0.384854
O O8 0.674174 0.274984 0.791830
O O9 0.705200 0.000000 0.845352
O O10 0.857370 0.221118 0.988019
O O11 0.655404 0.217777 0.171940
O O12 0.456445 0.000000 0.066686
O O13 0.138791 0.000000 0.709743
#
# Coordination Sequence:
#
# PCOD8109255 Si02
#       5
#     8   8   8   8   8
#     4  10  22  41  63  88 120 161 201 241 294 357
#     4  11  23  39  63  93 120 149 195 252 302 350
#     4  11  24  39  59  90 126 158 196 248 300 347
#     4  10  21  39  63  88 117 159 207 243 288 356
#     4  11  23  40  64  88 119 162 201 242 294 356
#
# _framework density 19.445022999999999
#
# number of rings (size 3 to 8) (size 9 to 14) (size 15 to 20)
#    0.000    1.400    2.000    3.000    0.000    8.000 
#    0.000    0.000    0.000    0.000    0.000    0.000 
#    0.000    0.000    0.000    0.000    0.000    0.000 
#
# Total GULP energy -248145.429345 kJ/mol
# GULP energy per Si atom -12407.271467 kJ/mol
# Density = 1.940077 g / cm^3
# Si number density = 19.445023 Si / 1000 Ang^3
#
#
#
# Elastic Constant Matrix: (Units=GPa)
#
#
# Indices 1 2 3 4 5 6 
#
# 1 187.1212 34.0401 72.4942 -0.0086 -46.0038 -0.0016
# 2 34.0401 59.2651 48.2449 0.0013 10.2307 -0.0005
# 3 72.4942 48.2449 146.4613 0.0020 -13.0711 -0.0021
# 4 -0.0086 0.0013 0.0020 40.4674 0.0053 -1.5470
# 5 -46.0038 10.2307 -13.0711 0.0053 65.3106 0.0005
# 6 -0.0016 -0.0005 -0.0021 -1.5470 0.0005 31.3502
#
#
#
# Elastic Compliance Matrix: (Units=1/GPa)
#
#
# Indices 1 2 3 4 5 6 
#
# 1 0.008492 -0.004051 -0.002320 0.000001 0.006152 0.000000
# 2 -0.004051 0.026883 -0.007617 0.000000 -0.008589 0.000000
# 3 -0.002320 -0.007617 0.010636 -0.000001 0.001688 0.000000
# 4 0.000001 0.000000 -0.000001 0.024758 -0.000001 0.001222
# 5 0.006152 -0.008589 0.001688 -0.000001 0.021328 0.000000
# 6 0.000000 0.000000 0.000000 0.001222 0.000000 0.031958
#
#
# Mechanical properties :
#
#
# Convention : Reuss Voigt Hill
#
# Bulk Modulus (GPa) = 55.44618 78.04511 66.74564
# Shear Modulus (GPa) = 31.63682 43.29688 37.46685
#
# Velocity S-wave (km/s) = 4.03797 4.72384 4.39431
# Velocity P-wave (km/s) = 7.09341 8.36518 7.75541
#
# Compressibility (1/GPa) = 0.01803551
#
# Stress axis : x y z
#
# Youngs Moduli (GPa) = 117.75177 37.19759 94.02324
#
# Poissons Ratio (x) = 0.15070 0.21813
# Poissons Ratio (y) = 0.47705 0.71616
# Poissons Ratio (z) = 0.27318 0.28333
#
# Static dielectric constant tensor:
#      x y z
#    x 3.673940 0.000000 0.041890 
#    y 0.000000 3.525230 0.000000 
#    z 0.041890 0.000000 3.528400 
# 
# 
# High freq. dielectric constant tensor:
#      x y z
#    x 1.768910 0.000000 -0.001300 
#    y 0.000000 1.760800 0.000000 
#    z -0.001300 0.000000 1.769820 
# 
# From -- ./inp_files/151715.got.cif
#   From: 2010.06.25/outbox.cif.g09.slc.cpg/sg12_76_cif.got.tgz:151715.got - 2010.06.28 00:19:55.
