data_PCOD8109775
_publ_section_title
;
Structure prediction by ZEFSAII (Michael W. Deem and Ramdas Pophale) SiO2 
 PCOD8109775
Probable space group: C 2/M
;
_chemical_formula_sum "Si O2"
_cell_formula_units_Z 48
_cell_length_a 9.249304
_cell_length_b 21.803198
_cell_length_c 11.385743
_cell_angle_alpha 90.000000
_cell_angle_beta 119.809155
_cell_angle_gamma 90.000000
_cell_volume 1992.293124
_symmetry_space_group_name_H-M "C 2/M"
_symmetry_group_IT_number 12
_symmetry_cell_setting 'monoclinic'
loop_
_space_group_symop_operation_xyz
x,y,z
-x,y,-z
-x,-y,-z
x,-y,z
1/2+x,1/2+y,z
1/2-x,1/2+y,-z
1/2-x,1/2-y,-z
1/2+x,1/2-y,z
loop_
_atom_site_type_symbol
_atom_site_label
_atom_site_fract_x
_atom_site_fract_y
_atom_site_fract_z
Si Si1 0.418195 0.432534 0.600577
Si Si2 0.740828 0.823466 0.091191
Si Si3 0.205730 0.568288 0.248541
Si Si4 0.907102 0.624735 0.579463
Si Si5 0.850208 0.301941 0.196557
Si Si6 0.442208 0.612460 0.856907
O O1 0.345638 0.500000 0.535653
O O2 0.604520 0.422628 0.619510
O O3 0.291465 0.375568 0.527184
O O4 0.448375 0.435441 0.753250
O O5 0.672897 0.882165 0.134032
O O6 0.762253 0.763767 0.183847
O O7 0.383576 0.809860 0.068969
O O8 0.923862 0.833562 0.111465
O O9 0.185285 0.500000 0.187478
O O10 0.074628 0.577806 0.302040
O O11 0.000000 0.601178 0.500000
O O12 0.978595 0.690035 0.657354
O O13 0.738134 0.356821 0.202433
O O14 0.500000 0.578185 0.000000
#
# Coordination Sequence:
#
# PCOD8109775 Si02
#       6
#     8   8   8   8   8   8
#     4  10  21  41  64  88 127 177 220 260 321 399
#     4   9  21  41  70  90 127 175 219 275 333 390
#     4  10  23  44  68  93 128 180 232 269 323 399
#     4  12  24  40  63  96 137 168 213 275 339 392
#     4  10  21  40  63 100 131 166 217 276 342 398
#     4   9  18  37  61  89 122 166 220 267 320 390
#
# _framework density 24.092839999999999
#
# number of rings (size 3 to 8) (size 9 to 14) (size 15 to 20)
#    0.000    2.000    1.667    1.000    2.333    3.667 
#    0.000   12.500    0.000    0.000    0.000    0.000 
#    0.000    0.000    0.000    0.000    0.000    0.000 
#
# Total GULP energy -297350.338246 kJ/mol
# GULP energy per Si atom -12389.597427 kJ/mol
# Density = 2.403800 g / cm^3
# Si number density = 24.092840 Si / 1000 Ang^3
#
#
#
# Elastic Constant Matrix: (Units=GPa)
#
#
# Indices 1 2 3 4 5 6 
#
# 1 94.2768 44.1867 52.3533 0.0000 -23.4023 0.0000
# 2 44.1867 122.8372 55.2556 0.0000 -11.3326 0.0000
# 3 52.3533 55.2556 111.9358 0.0000 -6.6000 0.0000
# 4 0.0000 0.0000 0.0000 39.3223 0.0000 -1.8025
# 5 -23.4023 -11.3326 -6.6000 0.0000 39.8907 0.0000
# 6 0.0000 0.0000 0.0000 -1.8025 0.0000 19.1273
#
#
#
# Elastic Compliance Matrix: (Units=1/GPa)
#
#
# Indices 1 2 3 4 5 6 
#
# 1 0.017483 -0.002642 -0.006375 0.000000 0.008451 0.000000
# 2 -0.002642 0.011048 -0.004165 0.000000 0.000900 0.000000
# 3 -0.006375 -0.004165 0.013816 0.000000 -0.002637 0.000000
# 4 0.000000 0.000000 0.000000 0.025541 0.000000 0.002407
# 5 0.008451 0.000900 -0.002637 0.000000 0.029846 0.000000
# 6 0.000000 0.000000 0.000000 0.002407 0.000000 0.052508
#
#
# Mechanical properties :
#
#
# Convention : Reuss Voigt Hill
#
# Bulk Modulus (GPa) = 62.56349 70.29345 66.42847
# Shear Modulus (GPa) = 27.48282 31.48500 29.48391
#
# Velocity S-wave (km/s) = 3.38110 3.61892 3.50203
# Velocity P-wave (km/s) = 6.42390 6.83385 6.63204
#
# Compressibility (1/GPa) = 0.01598376
#
# Stress axis : x y z
#
# Youngs Moduli (GPa) = 57.19832 90.51718 72.38200
#
# Poissons Ratio (x) = 0.23913 0.46140
# Poissons Ratio (y) = 0.15111 0.30146
# Poissons Ratio (z) = 0.36461 0.37699
#
# Static dielectric constant tensor:
#      x y z
#    x 4.372970 0.000000 -0.155920 
#    y 0.000000 3.817350 0.000000 
#    z -0.155920 0.000000 4.660770 
# 
# 
# High freq. dielectric constant tensor:
#      x y z
#    x 1.960270 0.000000 -0.016320 
#    y 0.000000 1.913810 0.000000 
#    z -0.016320 0.000000 1.973670 
# 
# From -- ./inp_files/122586.got.cif
#   From: 2010.06.25/outbox.cif.g09.slc.cpg/sg12_62_cif.got.tgz:122586.got - 2010.06.28 00:19:55.
