data_PCOD8109858
_publ_section_title
;
Structure prediction by ZEFSAII (Michael W. Deem and Ramdas Pophale) SiO2 
 PCOD8109858
Probable space group: C 2/M
;
_chemical_formula_sum "Si O2"
_cell_formula_units_Z 56
_cell_length_a 18.504085
_cell_length_b 8.799595
_cell_length_c 16.943734
_cell_angle_alpha 90.000000
_cell_angle_beta 81.684634
_cell_angle_gamma 90.000000
_cell_volume 2729.917570
_symmetry_space_group_name_H-M "C 2/M"
_symmetry_group_IT_number 12
_symmetry_cell_setting 'monoclinic'
loop_
_space_group_symop_operation_xyz
x,y,z
-x,y,-z
-x,-y,-z
x,-y,z
1/2+x,1/2+y,z
1/2-x,1/2+y,-z
1/2-x,1/2-y,-z
1/2+x,1/2-y,z
loop_
_atom_site_type_symbol
_atom_site_label
_atom_site_fract_x
_atom_site_fract_y
_atom_site_fract_z
Si Si1 0.545133 0.175105 0.268502
Si Si2 0.877761 0.676870 0.301458
Si Si3 0.656856 0.678772 0.135735
Si Si4 0.417538 0.319704 0.012599
Si Si5 0.676914 0.669870 0.534817
Si Si6 0.942102 0.170697 0.571732
Si Si7 0.308364 0.680011 0.164300
O O1 0.460737 0.208230 0.261538
O O2 0.594624 0.284844 0.208762
O O3 0.561462 0.211987 0.356521
O O4 0.565404 0.000000 0.249401
O O5 0.859608 0.500000 0.307226
O O6 0.866943 0.743181 0.390239
O O7 0.822397 0.753680 0.248761
O O8 0.672214 0.500000 0.133300
O O9 0.627159 0.738163 0.056366
O O10 0.731417 0.764035 0.143295
O O11 0.422491 0.500000 0.009483
O O12 0.500000 0.251148 0.000000
O O13 0.373591 0.263817 0.096572
O O14 0.691842 0.500000 0.563313
O O15 0.750000 0.750000 0.500000
O O16 0.634970 0.666923 0.458943
O O17 0.000000 0.233657 0.500000
O O18 0.964339 0.000000 0.597131
O O19 0.305989 0.500000 0.169900
#
# Coordination Sequence:
#
# PCOD8109858 Si02
#       7
#     8   8   8   8   8   8   8
#     4  11  24  40  62  91 124 161 206 255 306 365
#     4  11  24  42  62  89 124 162 207 256 310 369
#     4  11  23  40  64  92 127 165 203 251 305 363
#     4   9  19  38  65  95 123 159 205 250 301 363
#     4  11  24  41  63  89 122 162 206 258 311 366
#     4  10  21  40  64  89 118 158 207 253 305 365
#     4  11  23  40  64  92 126 163 205 254 305 364
#
# _framework density 20.513439000000002
#
# number of rings (size 3 to 8) (size 9 to 14) (size 15 to 20)
#    0.000    1.429    1.429    3.429    2.000    4.286 
#    0.000    2.143    0.000    5.143    0.000    0.000 
#    0.000    0.000    0.000    0.000    0.000    0.000 
#
# Total GULP energy -347303.802216 kJ/mol
# GULP energy per Si atom -12403.707222 kJ/mol
# Density = 2.046675 g / cm^3
# Si number density = 20.513439 Si / 1000 Ang^3
#
#
#
# Elastic Constant Matrix: (Units=GPa)
#
#
# Indices 1 2 3 4 5 6 
#
# 1 110.7811 42.8902 24.4949 0.0000 5.4126 0.0000
# 2 42.8902 88.7241 30.2465 0.0000 0.0656 0.0000
# 3 24.4949 30.2465 77.8893 0.0000 8.7034 0.0000
# 4 0.0000 0.0000 0.0000 24.5288 0.0000 2.0904
# 5 5.4126 0.0656 8.7034 0.0000 40.1879 0.0000
# 6 0.0000 0.0000 0.0000 2.0904 0.0000 24.6419
#
#
#
# Elastic Compliance Matrix: (Units=1/GPa)
#
#
# Indices 1 2 3 4 5 6 
#
# 1 0.011341 -0.004969 -0.001504 0.000000 -0.001194 0.000000
# 2 -0.004969 0.015215 -0.004527 0.000000 0.001625 0.000000
# 3 -0.001504 -0.004527 0.015419 0.000000 -0.003129 0.000000
# 4 0.000000 0.000000 0.000000 0.041065 0.000000 -0.003484
# 5 -0.001194 0.001625 -0.003129 0.000000 0.025719 0.000000
# 6 0.000000 0.000000 0.000000 -0.003484 0.000000 0.040877
#
#
# Mechanical properties :
#
#
# Convention : Reuss Voigt Hill
#
# Bulk Modulus (GPa) = 50.06052 52.51754 51.28903
# Shear Modulus (GPa) = 28.04326 29.85592 28.94959
#
# Velocity S-wave (km/s) = 3.70140 3.81915 3.76074
# Velocity P-wave (km/s) = 6.53635 6.71603 6.62680
#
# Compressibility (1/GPa) = 0.01997582
#
# Stress axis : x y z
#
# Youngs Moduli (GPa) = 88.17210 65.72375 64.85335
#
# Poissons Ratio (x) = 0.32659 0.09752
# Poissons Ratio (y) = 0.43814 0.29361
# Poissons Ratio (z) = 0.13258 0.29755
#
# Static dielectric constant tensor:
#      x y z
#    x 3.786030 0.000000 -0.028490 
#    y 0.000000 7.165830 0.000000 
#    z -0.028490 0.000000 3.663690 
# 
# 
# High freq. dielectric constant tensor:
#      x y z
#    x 1.815980 0.000000 0.000490 
#    y 0.000000 1.795640 0.000000 
#    z 0.000490 0.000000 1.808560 
# 
# From -- ./inp_files/275267.got.cif
#   From: 2010.06.25/outbox.cif.g09.slc.cpg/sg12_138_cif.got.tgz:275267.got - 2010.06.28 00:19:55.
