data_PCOD8109034
_publ_section_title
;
Structure prediction by ZEFSAII (Michael W. Deem and Ramdas Pophale) SiO2 
 PCOD8109034
Probable space group: C 2/M
;
_chemical_formula_sum "Si O2"
_cell_formula_units_Z 56
_cell_length_a 10.130002
_cell_length_b 15.137607
_cell_length_c 28.681986
_cell_angle_alpha 90.000000
_cell_angle_beta 142.551697
_cell_angle_gamma 90.000000
_cell_volume 2674.311240
_symmetry_space_group_name_H-M "C 2/M"
_symmetry_group_IT_number 12
_symmetry_cell_setting 'monoclinic'
loop_
_space_group_symop_operation_xyz
x,y,z
-x,y,-z
-x,-y,-z
x,-y,z
1/2+x,1/2+y,z
1/2-x,1/2+y,-z
1/2-x,1/2-y,-z
1/2+x,1/2-y,z
loop_
_atom_site_type_symbol
_atom_site_label
_atom_site_fract_x
_atom_site_fract_y
_atom_site_fract_z
Si Si1 0.537219 0.356892 0.185379
Si Si2 0.010056 0.649688 0.172765
Si Si3 0.510754 0.648036 0.721381
Si Si4 0.264323 0.100194 0.440973
Si Si5 0.750418 0.500000 0.942897
Si Si6 0.534554 0.600296 0.560550
Si Si7 0.240378 0.000000 0.049612
Si Si8 1.000000 0.647019 0.276790
O O1 0.479663 0.254980 0.157411
O O2 0.525001 0.382423 0.235995
O O3 0.361401 0.412359 0.108114
O O4 0.780566 0.384980 0.239892
O O5 0.849910 0.591462 0.096731
O O6 0.969353 0.623470 0.214415
O O7 0.248913 0.621028 0.225391
O O8 0.351455 0.599420 0.641457
O O9 0.462729 0.750764 0.703182
O O10 0.500000 0.147608 0.500000
O O11 0.113890 0.145302 0.439757
O O12 0.305274 0.000000 0.467912
O O13 0.731577 0.500000 0.992319
O O14 0.000000 0.500000 0.000000
O O15 0.500000 0.646813 0.500000
O O16 0.455957 0.500000 0.534294
O O17 0.788601 0.599204 0.644213
O O18 0.000000 0.000000 0.000000
#
# Coordination Sequence:
#
# PCOD8109034 Si02
#       8
#     8   8   8   8   4   8   4   8
#     4  10  24  40  62  93 128 161 202 257 306 364
#     4  10  22  42  64  91 124 159 206 257 304 364
#     4  10  21  39  61  88 116 167 208 249 308 360
#     4  10  22  38  58  87 123 162 210 255 307 364
#     4  12  26  44  62  98 127 162 203 237 312 389
#     4  10  22  38  58  87 123 164 203 261 315 350
#     4  12  26  40  70  98 119 158 209 245 310 385
#     4  10  21  39  61  88 120 157 214 255 304 359
#
# _framework density 20.939971
#
# number of rings (size 3 to 8) (size 9 to 14) (size 15 to 20)
#    0.000    1.714    1.429    1.714    6.000    1.714 
#    0.000    1.429    0.000    0.000    0.000    0.000 
#    0.000    0.000    0.000    0.000    0.000    0.000 
#
# Total GULP energy -347150.101005 kJ/mol
# GULP energy per Si atom -12398.217893 kJ/mol
# Density = 2.089231 g / cm^3
# Si number density = 20.939971 Si / 1000 Ang^3
#
#
#
# Elastic Constant Matrix: (Units=GPa)
#
#
# Indices 1 2 3 4 5 6 
#
# 1 243.2661 32.8343 114.5009 0.0001 18.1721 0.0000
# 2 32.8343 58.3513 46.9773 0.0000 -0.0224 0.0000
# 3 114.5009 46.9773 173.0389 0.0002 11.1032 0.0000
# 4 0.0001 0.0000 0.0002 -0.2193 0.0001 2.5923
# 5 18.1721 -0.0224 11.1032 0.0001 39.6738 0.0000
# 6 0.0000 0.0000 0.0000 2.5923 0.0000 21.3869
#
#
#
# Elastic Compliance Matrix: (Units=1/GPa)
#
#
# Indices 1 2 3 4 5 6 
#
# 1 0.006085 -0.000348 -0.003822 0.000000 -0.001718 0.000000
# 2 -0.000348 0.022065 -0.005877 -0.000001 0.001816 0.000000
# 3 -0.003822 -0.005877 0.009970 0.000002 -0.001043 0.000000
# 4 0.000000 -0.000001 0.000002 -1.874557 0.000005 0.227210
# 5 -0.001718 0.001816 -0.001043 0.000005 0.026285 -0.000001
# 6 0.000000 0.000000 0.000000 0.227210 -0.000001 0.019218
#
#
# Mechanical properties :
#
#
# Convention : Reuss Voigt Hill
#
# Bulk Modulus (GPa) = 55.47001 95.92012 75.69507
# Shear Modulus (GPa) = -2.83313 30.85788 14.01237
#
# Velocity S-wave (km/s) = -1.16444 3.84296 2.58964
# Velocity P-wave (km/s) = 4.97390 8.09924 6.72077
#
# Compressibility (1/GPa) = 0.01802776
#
# Stress axis : x y z
#
# Youngs Moduli (GPa) = 164.34432 45.32010 100.29823
#
# Poissons Ratio (x) = 0.01576 0.38331
# Poissons Ratio (y) = 0.05716 0.58943
# Poissons Ratio (z) = 0.62807 0.26634
#
# Static dielectric constant tensor:
#      x y z
#    x 4.382090 0.000000 -0.011830 
#    y 0.000000 3.547130 0.000000 
#    z -0.011830 0.000000 3.673430 
# 
# 
# High freq. dielectric constant tensor:
#      x y z
#    x 1.845660 0.000000 0.001030 
#    y 0.000000 1.808220 0.000000 
#    z 0.001030 0.000000 1.819410 
# 
# From -- ./inp_files/356787.got.cif
#   From: 2010.06.25/outbox.cif.g09.slc.cpg/sg12_179_cif.got.tgz:356787.got - 2010.06.28 00:19:55.
