data_PCOD8109908
_publ_section_title
;
Structure prediction by ZEFSAII (Michael W. Deem and Ramdas Pophale) SiO2 
 PCOD8109908
Probable space group: C 2/M
;
_chemical_formula_sum "Si O2"
_cell_formula_units_Z 64
_cell_length_a 34.819634
_cell_length_b 8.527957
_cell_length_c 15.487920
_cell_angle_alpha 90.000000
_cell_angle_beta 42.868358
_cell_angle_gamma 90.000000
_cell_volume 3128.766273
_symmetry_space_group_name_H-M "C 2/M"
_symmetry_group_IT_number 12
_symmetry_cell_setting 'monoclinic'
loop_
_space_group_symop_operation_xyz
x,y,z
-x,y,-z
-x,-y,-z
x,-y,z
1/2+x,1/2+y,z
1/2-x,1/2+y,-z
1/2-x,1/2-y,-z
1/2+x,1/2-y,z
loop_
_atom_site_type_symbol
_atom_site_label
_atom_site_fract_x
_atom_site_fract_y
_atom_site_fract_z
Si Si1 0.512137 0.182200 0.107008
Si Si2 0.792942 0.186436 0.999611
Si Si3 0.287272 0.685980 0.361702
Si Si4 0.595251 0.816014 0.259022
Si Si5 0.763437 0.685988 0.732612
Si Si6 0.915439 0.184049 0.159426
Si Si7 0.498450 0.317913 0.312363
Si Si8 0.388153 0.815625 0.569857
O O1 0.449307 0.226533 0.178728
O O2 0.519127 0.221294 0.195534
O O3 0.522993 0.000000 0.072995
O O4 0.558376 0.279506 0.977300
O O5 0.854765 0.256017 0.884137
O O6 0.794617 0.000000 0.991146
O O7 0.750000 0.250000 0.000000
O O8 0.772634 0.246689 0.126629
O O9 0.284417 0.500000 0.365423
O O10 0.250000 0.750000 0.500000
O O11 0.263364 0.754231 0.310922
O O12 0.351274 0.744449 0.268046
O O13 0.537363 0.730787 0.328682
O O14 0.608768 0.771343 0.334811
O O15 0.587271 0.000000 0.260153
O O16 0.762308 0.500000 0.734751
O O17 0.827949 0.742869 0.633918
O O18 0.919546 0.000000 0.170434
O O19 0.504554 0.500000 0.281734
O O20 0.434097 0.279227 0.440358
O O21 0.397906 0.000000 0.539550
#
# Coordination Sequence:
#
# PCOD8109908 Si02
#       8
#     8   8   8   8   8   8   8   8
#     4  11  23  41  65  91 119 161 210 256 311 374
#     4  11  21  38  64  93 127 169 213 258 313 372
#     4  10  23  41  64  93 127 164 205 253 310 371
#     4  11  23  41  63  92 126 163 208 258 311 371
#     4   9  20  40  63  90 123 167 208 246 308 376
#     4  10  21  40  64  92 128 162 200 256 315 367
#     4  12  26  41  61  91 125 160 206 261 314 371
#     4  10  21  41  64  87 123 167 207 251 306 372
#
# _framework density 20.455347
#
# number of rings (size 3 to 8) (size 9 to 14) (size 15 to 20)
#    0.000    1.500    1.250    4.500    3.500    3.500 
#    0.000    1.250    0.000    0.000    0.000    0.000 
#    0.000    0.000    0.000    0.000    0.000    0.000 
#
# Total GULP energy -396976.620887 kJ/mol
# GULP energy per Si atom -12405.519403 kJ/mol
# Density = 2.040879 g / cm^3
# Si number density = 20.455347 Si / 1000 Ang^3
#
#
#
# Elastic Constant Matrix: (Units=GPa)
#
#
# Indices 1 2 3 4 5 6 
#
# 1 105.2651 14.2214 44.7530 0.0004 -1.4620 0.0002
# 2 14.2214 46.1143 12.1400 -0.0056 -0.3047 0.0023
# 3 44.7530 12.1400 110.8416 -0.0006 -5.2947 0.0010
# 4 0.0004 -0.0056 -0.0006 36.8541 0.0003 -1.2258
# 5 -1.4620 -0.3047 -5.2947 0.0003 38.9985 0.0000
# 6 0.0002 0.0023 0.0010 -1.2258 0.0000 29.5975
#
#
#
# Elastic Compliance Matrix: (Units=1/GPa)
#
#
# Indices 1 2 3 4 5 6 
#
# 1 0.011731 -0.002440 -0.004478 -0.000001 -0.000187 0.000000
# 2 -0.002440 0.022838 -0.001522 0.000003 -0.000120 -0.000002
# 3 -0.004478 -0.001522 0.011060 0.000000 0.001322 0.000000
# 4 -0.000001 0.000003 0.000000 0.027171 0.000000 0.001125
# 5 -0.000187 -0.000120 0.001322 0.000000 0.025814 0.000000
# 6 0.000000 -0.000002 0.000000 0.001125 0.000000 0.033833
#
#
# Mechanical properties :
#
#
# Convention : Reuss Voigt Hill
#
# Bulk Modulus (GPa) = 34.78479 44.93885 39.86182
# Shear Modulus (GPa) = 31.46460 33.83046 32.64753
#
# Velocity S-wave (km/s) = 3.92626 4.07119 3.99938
# Velocity P-wave (km/s) = 6.13157 6.64202 6.39189
#
# Compressibility (1/GPa) = 0.02874820
#
# Stress axis : x y z
#
# Youngs Moduli (GPa) = 85.24650 43.78749 90.41802
#
# Poissons Ratio (x) = 0.10684 0.40490
# Poissons Ratio (y) = 0.20800 0.13760
# Poissons Ratio (z) = 0.38174 0.06664
#
# Static dielectric constant tensor:
#      x y z
#    x 3.924990 0.000000 -0.006370 
#    y 0.000000 3.594570 -0.000010 
#    z -0.006370 -0.000010 3.910710 
# 
# 
# High freq. dielectric constant tensor:
#      x y z
#    x 1.809810 0.000000 -0.002420 
#    y 0.000000 1.789520 0.000000 
#    z -0.002420 0.000000 1.809910 
# 
# From -- ./inp_files/249888.got.cif
#   From: 2010.06.25/outbox.cif.g09.slc.cpg/sg12_125_cif.got.tgz:249888.got - 2010.06.28 00:19:55.
