data_PCOD8109596
_publ_section_title
;
Structure prediction by ZEFSAII (Michael W. Deem and Ramdas Pophale) SiO2 
 PCOD8109596
Probable space group: C 2/M
;
_chemical_formula_sum "Si O2"
_cell_formula_units_Z 52
_cell_length_a 15.801258
_cell_length_b 17.023569
_cell_length_c 15.602599
_cell_angle_alpha 90.000000
_cell_angle_beta 144.560233
_cell_angle_gamma 90.000000
_cell_volume 2433.618396
_symmetry_space_group_name_H-M "C 2/M"
_symmetry_group_IT_number 12
_symmetry_cell_setting 'monoclinic'
loop_
_space_group_symop_operation_xyz
x,y,z
-x,y,-z
-x,-y,-z
x,-y,z
1/2+x,1/2+y,z
1/2-x,1/2+y,-z
1/2-x,1/2-y,-z
1/2+x,1/2-y,z
loop_
_atom_site_type_symbol
_atom_site_label
_atom_site_fract_x
_atom_site_fract_y
_atom_site_fract_z
Si Si1 0.661766 0.587716 0.667721
Si Si2 0.500000 0.339193 0.000000
Si Si3 0.908558 0.592441 0.734248
Si Si4 0.060575 0.642220 0.428672
Si Si5 0.213937 0.413456 0.712681
Si Si6 0.070188 0.254915 0.908722
Si Si7 0.121234 0.783832 0.772180
O O1 0.500000 0.592326 0.500000
O O2 0.702099 0.500000 0.731057
O O3 0.770743 0.612940 0.681121
O O4 0.669951 0.640374 0.759262
O O5 0.645848 0.390927 0.114526
O O6 0.536875 0.283592 0.111156
O O7 0.952983 0.500000 0.779225
O O8 0.868786 0.614747 0.603284
O O9 0.039200 0.651538 0.869946
O O10 0.184174 0.641241 0.604466
O O11 0.926930 0.584475 0.341491
O O12 0.990566 0.729568 0.372786
O O13 0.240158 0.500000 0.697555
O O14 0.046454 0.202334 0.803232
O O15 0.230339 0.238862 0.080076
#
# Coordination Sequence:
#
# PCOD8109596 Si02
#       7
#     8   4   8   8   8   8   8
#     4  10  23  40  61  90 126 164 206 259 317 372
#     4  12  23  40  59  90 132 166 200 260 319 376
#     4  10  21  39  66  94 122 162 213 268 314 364
#     4  10  21  40  67  92 121 160 215 263 306 373
#     4  11  23  39  63  92 124 164 208 260 317 372
#     4  10  22  38  61  91 124 163 205 256 313 378
#     4  10  21  40  61  90 122 161 207 254 317 368
#
# _framework density 21.367360000000001
#
# number of rings (size 3 to 8) (size 9 to 14) (size 15 to 20)
#    0.000    1.692    1.538    3.000    2.154    1.846 
#    0.000    8.077    0.000    0.000    0.000    0.000 
#    0.000    0.000    0.000    0.000    0.000    0.000 
#
# Total GULP energy -322148.575268 kJ/mol
# GULP energy per Si atom -12390.329818 kJ/mol
# Density = 2.131873 g / cm^3
# Si number density = 21.367360 Si / 1000 Ang^3
#
#
#
# Elastic Constant Matrix: (Units=GPa)
#
#
# Indices 1 2 3 4 5 6 
#
# 1 147.1479 66.4306 39.7845 0.0006 -24.2557 0.0003
# 2 66.4306 94.8700 40.5973 0.0007 -19.4062 0.0013
# 3 39.7845 40.5973 99.4337 0.0011 -8.1124 0.0019
# 4 0.0006 0.0007 0.0011 24.9258 0.0006 -5.2683
# 5 -24.2557 -19.4062 -8.1124 0.0006 30.3876 0.0008
# 6 0.0003 0.0013 0.0019 -5.2683 0.0008 28.5035
#
#
#
# Elastic Compliance Matrix: (Units=1/GPa)
#
#
# Indices 1 2 3 4 5 6 
#
# 1 0.010556 -0.005888 -0.001471 0.000000 0.004273 0.000000
# 2 -0.005888 0.017656 -0.004412 0.000000 0.005398 -0.000001
# 3 -0.001471 -0.004412 0.012391 -0.000001 -0.000684 -0.000001
# 4 0.000000 0.000000 -0.000001 0.041750 -0.000001 0.007717
# 5 0.004273 0.005398 -0.000684 -0.000001 0.039583 -0.000002
# 6 0.000000 -0.000001 -0.000001 0.007717 -0.000002 0.036510
#
#
# Mechanical properties :
#
#
# Convention : Reuss Voigt Hill
#
# Bulk Modulus (GPa) = 58.61544 70.56403 64.58973
# Shear Modulus (GPa) = 26.64159 29.73934 28.19046
#
# Velocity S-wave (km/s) = 3.53489 3.73475 3.63619
# Velocity P-wave (km/s) = 6.64472 7.18983 6.92264
#
# Compressibility (1/GPa) = 0.01706035
#
# Stress axis : x y z
#
# Youngs Moduli (GPa) = 94.73096 56.63766 80.70230
#
# Poissons Ratio (x) = 0.33349 0.11871
# Poissons Ratio (y) = 0.55780 0.35609
# Poissons Ratio (z) = 0.13935 0.24991
#
# Static dielectric constant tensor:
#      x y z
#    x 4.154420 0.000000 -0.152210 
#    y 0.000000 3.800070 0.000000 
#    z -0.152210 0.000000 3.658290 
# 
# 
# High freq. dielectric constant tensor:
#      x y z
#    x 1.848360 0.000000 -0.007730 
#    y 0.000000 1.827990 0.000000 
#    z -0.007730 0.000000 1.830040 
# 
# From -- ./inp_files/216892.got.cif
#   From: 2010.06.25/outbox.cif.g09.slc.cpg/sg12_109_cif.got.tgz:216892.got - 2010.06.28 00:19:55.
