data_PCOD8109828
_publ_section_title
;
Structure prediction by ZEFSAII (Michael W. Deem and Ramdas Pophale) SiO2 
 PCOD8109828
Probable space group: C 2/M
;
_chemical_formula_sum "Si O2"
_cell_formula_units_Z 56
_cell_length_a 12.110338
_cell_length_b 24.459387
_cell_length_c 11.165797
_cell_angle_alpha 90.000000
_cell_angle_beta 50.523109
_cell_angle_gamma 90.000000
_cell_volume 2552.947892
_symmetry_space_group_name_H-M "C 2/M"
_symmetry_group_IT_number 12
_symmetry_cell_setting 'monoclinic'
loop_
_space_group_symop_operation_xyz
x,y,z
-x,y,-z
-x,-y,-z
x,-y,z
1/2+x,1/2+y,z
1/2-x,1/2+y,-z
1/2-x,1/2-y,-z
1/2+x,1/2-y,z
loop_
_atom_site_type_symbol
_atom_site_label
_atom_site_fract_x
_atom_site_fract_y
_atom_site_fract_z
Si Si1 0.325179 0.660104 0.385719
Si Si2 0.854945 0.366504 0.825379
Si Si3 0.348351 0.325409 0.835016
Si Si4 0.638950 0.770587 0.345407
Si Si5 0.829415 0.562839 0.635970
Si Si6 0.660717 0.605999 0.382597
Si Si7 0.049761 0.441229 0.830285
O O1 0.488155 0.671031 0.234978
O O2 0.245906 0.711904 0.379208
O O3 0.263305 0.601070 0.388421
O O4 0.319201 0.656327 0.535464
O O5 0.914793 0.325507 0.683564
O O6 0.787755 0.418225 0.800109
O O7 0.987788 0.388153 0.808970
O O8 0.742167 0.333788 0.982821
O O9 0.301066 0.269723 0.798574
O O10 0.310895 0.373403 0.770410
O O11 0.500000 0.741944 0.500000
O O12 0.782965 0.500000 0.647860
O O13 0.000000 0.570058 0.500000
O O14 0.500000 0.581372 0.500000
O O15 0.779914 0.559201 0.311843
O O16 0.997961 0.500000 0.813014
O O17 0.000000 0.437575 0.000000
#
# Coordination Sequence:
#
# PCOD8109828 Si02
#       7
#     8   8   8   8   8   8   8
#     4  10  22  40  63  91 127 164 212 262 312 381
#     4  11  22  41  62  93 128 159 209 267 314 376
#     4  11  24  41  59  91 129 168 208 260 320 378
#     4  11  23  40  65  91 120 166 214 261 318 377
#     4  10  21  40  68  94 120 160 209 264 317 372
#     4  10  21  40  63  90 131 172 212 265 314 374
#     4  11  22  38  62  91 125 168 210 254 315 379
#
# _framework density 21.935426
#
# number of rings (size 3 to 8) (size 9 to 14) (size 15 to 20)
#    0.000    1.429    1.429    5.571    0.000    7.714 
#    0.000    4.286    0.000    0.000    0.000    0.000 
#    0.000    0.000    0.000    0.000    0.000    0.000 
#
# Total GULP energy -346959.178232 kJ/mol
# GULP energy per Si atom -12391.399223 kJ/mol
# Density = 2.188550 g / cm^3
# Si number density = 21.935426 Si / 1000 Ang^3
#
#
#
# Elastic Constant Matrix: (Units=GPa)
#
#
# Indices 1 2 3 4 5 6 
#
# 1 93.6966 14.0750 36.4432 0.0000 -9.1047 0.0000
# 2 14.0750 48.0401 19.2219 0.0000 -7.5547 0.0000
# 3 36.4432 19.2219 110.3074 0.0000 -1.3075 0.0000
# 4 0.0000 0.0000 0.0000 -1.2317 0.0000 -24.4452
# 5 -9.1047 -7.5547 -1.3075 0.0000 32.4476 0.0000
# 6 0.0000 0.0000 0.0000 -24.4452 0.0000 9.5202
#
#
#
# Elastic Compliance Matrix: (Units=1/GPa)
#
#
# Indices 1 2 3 4 5 6 
#
# 1 0.012728 -0.001705 -0.003872 0.000000 0.003018 0.000000
# 2 -0.001705 0.023465 -0.003468 0.000000 0.004845 0.000000
# 3 -0.003872 -0.003468 0.010932 0.000000 -0.001454 0.000000
# 4 0.000000 0.000000 0.000000 -0.015625 0.000000 -0.040120
# 5 0.003018 0.004845 -0.001454 0.000000 0.032735 0.000000
# 6 0.000000 0.000000 0.000000 -0.040120 0.000000 0.002022
#
#
# Mechanical properties :
#
#
# Convention : Reuss Voigt Hill
#
# Bulk Modulus (GPa) = 34.44202 43.50270 38.97236
# Shear Modulus (GPa) = 53.17627 20.30081 36.73854
#
# Velocity S-wave (km/s) = 4.92898 3.04547 4.09693
# Velocity P-wave (km/s) = 6.93749 5.67818 6.33918
#
# Compressibility (1/GPa) = 0.02903430
#
# Stress axis : x y z
#
# Youngs Moduli (GPa) = 78.56504 42.61637 91.47447
#
# Poissons Ratio (x) = 0.07267 0.35421
# Poissons Ratio (y) = 0.13396 0.31725
# Poissons Ratio (z) = 0.30422 0.14780
#
# Static dielectric constant tensor:
#      x y z
#    x 4.061520 0.000000 0.172960 
#    y 0.000000 3.915100 0.000000 
#    z 0.172960 0.000000 3.901000 
# 
# 
# High freq. dielectric constant tensor:
#      x y z
#    x 1.866160 0.000000 0.016640 
#    y 0.000000 1.859990 0.000000 
#    z 0.016640 0.000000 1.859630 
# 
# From -- ./inp_files/136926.got.cif
#   From: 2010.06.25/outbox.cif.g09.slc.cpg/sg12_69_cif.got.tgz:136926.got - 2010.06.28 00:19:55.
