data_PCOD8109584
_publ_section_title
;
Structure prediction by ZEFSAII (Michael W. Deem and Ramdas Pophale) SiO2 
 PCOD8109584
Probable space group: C 2/M
;
_chemical_formula_sum "Si O2"
_cell_formula_units_Z 44
_cell_length_a 5.258058
_cell_length_b 24.481689
_cell_length_c 15.340658
_cell_angle_alpha 90.000000
_cell_angle_beta 80.121931
_cell_angle_gamma 90.000000
_cell_volume 1945.468249
_symmetry_space_group_name_H-M "C 2/M"
_symmetry_group_IT_number 12
_symmetry_cell_setting 'monoclinic'
loop_
_space_group_symop_operation_xyz
x,y,z
-x,y,-z
-x,-y,-z
x,-y,z
1/2+x,1/2+y,z
1/2-x,1/2+y,-z
1/2-x,1/2-y,-z
1/2+x,1/2-y,z
loop_
_atom_site_type_symbol
_atom_site_label
_atom_site_fract_x
_atom_site_fract_y
_atom_site_fract_z
Si Si1 0.460531 0.373751 0.807281
Si Si2 0.188291 0.227025 0.099023
Si Si3 0.854474 0.440296 0.418443
Si Si4 0.461416 0.062032 0.777060
Si Si5 0.380793 0.285646 0.345607
Si Si6 0.500000 0.350547 0.500000
O O1 0.352170 0.338152 0.895492
O O2 0.711319 0.406092 0.827208
O O3 0.538169 0.332073 0.727016
O O4 0.235040 0.414579 0.792305
O O5 0.424505 0.243937 0.148650
O O6 0.250000 0.250000 0.000000
O O7 0.714376 0.500000 0.418035
O O8 0.661476 0.389679 0.426152
O O9 0.000000 0.437228 0.500000
O O10 0.054336 0.434155 0.327139
O O11 0.444420 0.000000 0.811425
O O12 0.609191 0.241048 0.335487
O O13 0.337353 0.312616 0.443848
#
# Coordination Sequence:
#
# PCOD8109584 Si02
#       6
#     8   8   8   8   8   4
#     4  12  22  42  66  91 131 170 207 271 324 373
#     4  10  21  39  66 103 134 162 208 252 312 382
#     4  10  22  38  59  84 114 162 228 286 328 377
#     4  11  24  41  63  95 126 168 220 269 328 391
#     4  12  26  40  57  83 120 167 217 261 315 387
#     4  12  23  38  58  76 120 164 219 264 346 354
#
# _framework density 22.616662999999999
#
# number of rings (size 3 to 8) (size 9 to 14) (size 15 to 20)
#    0.000    0.909    1.818    5.727    2.545    0.000 
#    0.000    0.000    0.000    0.000    0.000   50.909 
#    0.000    0.000    0.000    0.000    0.000    0.000 
#
# Total GULP energy -272702.960505 kJ/mol
# GULP energy per Si atom -12395.589114 kJ/mol
# Density = 2.256519 g / cm^3
# Si number density = 22.616663 Si / 1000 Ang^3
#
#
#
# Elastic Constant Matrix: (Units=GPa)
#
#
# Indices 1 2 3 4 5 6 
#
# 1 145.6346 55.1849 -0.3405 0.0000 -10.6800 0.0000
# 2 55.1849 151.1777 27.9857 0.0000 -12.5784 0.0000
# 3 -0.3405 27.9857 48.7217 0.0000 -7.5036 0.0000
# 4 0.0000 0.0000 0.0000 30.9249 0.0000 -12.1710
# 5 -10.6800 -12.5784 -7.5036 0.0000 15.1447 0.0000
# 6 0.0000 0.0000 0.0000 -12.1710 0.0000 47.3118
#
#
#
# Elastic Compliance Matrix: (Units=1/GPa)
#
#
# Indices 1 2 3 4 5 6 
#
# 1 0.008408 -0.003166 0.002583 0.000000 0.004579 0.000000
# 2 -0.003166 0.008872 -0.004685 0.000000 0.002815 0.000000
# 3 0.002583 -0.004685 0.024808 0.000000 0.010222 0.000000
# 4 0.000000 0.000000 0.000000 0.035979 0.000000 0.009256
# 5 0.004579 0.002815 0.010222 0.000000 0.076661 0.000000
# 6 0.000000 0.000000 0.000000 0.009256 0.000000 0.023517
#
#
# Mechanical properties :
#
#
# Convention : Reuss Voigt Hill
#
# Bulk Modulus (GPa) = 31.69424 56.79938 44.24681
# Shear Modulus (GPa) = 25.08782 36.18985 30.63884
#
# Velocity S-wave (km/s) = 3.33417 4.00452 3.68462
# Velocity P-wave (km/s) = 5.37274 6.82276 6.14070
#
# Compressibility (1/GPa) = 0.03155147
#
# Stress axis : x y z
#
# Youngs Moduli (GPa) = 118.93180 112.71458 40.30968
#
# Poissons Ratio (x) = 0.35690 -0.10411
# Poissons Ratio (y) = 0.37658 0.18884
# Poissons Ratio (z) = -0.30717 0.52803
#
# Static dielectric constant tensor:
#      x y z
#    x 2.871360 0.000000 -0.584180 
#    y 0.000000 4.569630 0.000000 
#    z -0.584180 0.000000 3.921160 
# 
# 
# High freq. dielectric constant tensor:
#      x y z
#    x 1.898470 0.000000 -0.001410 
#    y 0.000000 1.908240 0.000000 
#    z -0.001410 0.000000 1.866390 
# 
# From -- ./inp_files/252910.got.cif
#   From: 2010.06.25/outbox.cif.g09.slc.cpg/sg12_127_cif.got.tgz:252910.got - 2010.06.28 00:19:55.
