data_PCOD8109816
_publ_section_title
;
Structure prediction by ZEFSAII (Michael W. Deem and Ramdas Pophale) SiO2 
 PCOD8109816
Probable space group: C 2/M
;
_chemical_formula_sum "Si O2"
_cell_formula_units_Z 56
_cell_length_a 18.448646
_cell_length_b 8.955126
_cell_length_c 16.982469
_cell_angle_alpha 90.000000
_cell_angle_beta 99.249617
_cell_angle_gamma 90.000000
_cell_volume 2769.191919
_symmetry_space_group_name_H-M "C 2/M"
_symmetry_group_IT_number 12
_symmetry_cell_setting 'monoclinic'
loop_
_space_group_symop_operation_xyz
x,y,z
-x,y,-z
-x,-y,-z
x,-y,z
1/2+x,1/2+y,z
1/2-x,1/2+y,-z
1/2-x,1/2-y,-z
1/2+x,1/2-y,z
loop_
_atom_site_type_symbol
_atom_site_label
_atom_site_fract_x
_atom_site_fract_y
_atom_site_fract_z
Si Si1 0.070756 0.834916 0.565124
Si Si2 0.811422 0.824937 0.839397
Si Si3 0.031734 0.175660 0.732608
Si Si4 0.851953 0.327909 0.139369
Si Si5 0.379720 0.177078 0.708751
Si Si6 0.326044 0.825657 0.529238
Si Si7 0.584757 0.172758 0.020329
O O1 0.050127 0.774313 0.647261
O O2 0.123633 0.714330 0.535819
O O3 0.000000 0.848400 0.500000
O O4 0.107972 0.000000 0.577305
O O5 0.732946 0.783990 0.863504
O O6 0.818258 0.742628 0.756599
O O7 0.876631 0.771471 0.907041
O O8 0.819580 0.000000 0.826966
O O9 0.099574 0.221112 0.798366
O O10 0.958950 0.260742 0.748237
O O11 0.017378 0.000000 0.736227
O O12 0.866545 0.500000 0.164977
O O13 0.873138 0.297240 0.053339
O O14 0.360718 0.232168 0.617239
O O15 0.380556 0.000000 0.715685
O O16 0.250000 0.750000 0.500000
O O17 0.314034 0.000000 0.530985
O O18 0.589741 0.000000 0.046487
O O19 0.500000 0.223115 0.000000
#
# Coordination Sequence:
#
# PCOD8109816 Si02
#       7
#     8   8   8   8   8   8   8
#     4  10  21  40  63  89 123 160 202 254 309 365
#     4  11  24  40  62  92 126 163 205 253 301 355
#     4  11  23  39  64  93 122 160 205 254 306 364
#     4  10  23  41  61  92 130 164 201 248 303 363
#     4  11  24  42  62  87 121 162 207 254 308 368
#     4  11  25  41  62  89 121 162 208 258 310 365
#     4  10  21  40  66  92 122 163 204 247 304 364
#
# _framework density 20.222505000000002
#
# number of rings (size 3 to 8) (size 9 to 14) (size 15 to 20)
#    0.000    1.429    1.429    3.000    2.000    6.286 
#    0.000    0.000    0.000    0.000    0.000    0.000 
#    0.000    0.000    0.000    0.000    0.000    0.000 
#
# Total GULP energy -347353.632915 kJ/mol
# GULP energy per Si atom -12405.486890 kJ/mol
# Density = 2.017648 g / cm^3
# Si number density = 20.222505 Si / 1000 Ang^3
#
#
#
# Elastic Constant Matrix: (Units=GPa)
#
#
# Indices 1 2 3 4 5 6 
#
# 1 130.9735 45.1855 34.1130 0.0000 -7.4642 0.0000
# 2 45.1855 77.1937 36.8878 0.0000 -0.8998 0.0000
# 3 34.1130 36.8878 70.4724 0.0000 -5.6246 0.0000
# 4 0.0000 0.0000 0.0000 43.6989 0.0000 -3.6632
# 5 -7.4642 -0.8998 -5.6246 0.0000 40.0444 0.0000
# 6 0.0000 0.0000 0.0000 -3.6632 0.0000 38.4995
#
#
#
# Elastic Compliance Matrix: (Units=1/GPa)
#
#
# Indices 1 2 3 4 5 6 
#
# 1 0.009927 -0.004738 -0.002211 0.000000 0.001433 0.000000
# 2 -0.004738 0.019568 -0.008075 0.000000 -0.001578 0.000000
# 3 -0.002211 -0.008075 0.019660 0.000000 0.002168 0.000000
# 4 0.000000 0.000000 0.000000 0.023068 0.000000 0.002195
# 5 0.001433 -0.001578 0.002168 0.000000 0.025508 0.000000
# 6 0.000000 0.000000 0.000000 0.002195 0.000000 0.026183
#
#
# Mechanical properties :
#
#
# Convention : Reuss Voigt Hill
#
# Bulk Modulus (GPa) = 52.33561 56.77914 54.55738
# Shear Modulus (GPa) = 31.18527 35.27878 33.23203
#
# Velocity S-wave (km/s) = 3.93123 4.18129 4.05818
# Velocity P-wave (km/s) = 6.82218 7.17280 6.99969
#
# Compressibility (1/GPa) = 0.01910745
#
# Stress axis : x y z
#
# Youngs Moduli (GPa) = 100.73349 51.10374 50.86418
#
# Poissons Ratio (x) = 0.24211 0.11247
# Poissons Ratio (y) = 0.47723 0.41074
# Poissons Ratio (z) = 0.22274 0.41268
#
# Static dielectric constant tensor:
#      x y z
#    x 3.594220 0.000000 -0.062340 
#    y 0.000000 4.757830 0.000000 
#    z -0.062340 0.000000 3.767670 
# 
# 
# High freq. dielectric constant tensor:
#      x y z
#    x 1.800850 0.000000 -0.006900 
#    y 0.000000 1.790490 0.000000 
#    z -0.006900 0.000000 1.799020 
# 
# From -- ./inp_files/275504.got.cif
#   From: 2010.06.25/outbox.cif.g09.slc.cpg/sg12_138_cif.got.tgz:275504.got - 2010.06.28 00:19:55.
