data_PCOD8109442
_publ_section_title
;
Structure prediction by ZEFSAII (Michael W. Deem and Ramdas Pophale) SiO2 
 PCOD8109442
Probable space group: C 2/M
;
_chemical_formula_sum "Si O2"
_cell_formula_units_Z 48
_cell_length_a 17.788992
_cell_length_b 10.649813
_cell_length_c 20.639533
_cell_angle_alpha 90.000000
_cell_angle_beta 35.079324
_cell_angle_gamma 90.000000
_cell_volume 2247.201015
_symmetry_space_group_name_H-M "C 2/M"
_symmetry_group_IT_number 12
_symmetry_cell_setting 'monoclinic'
loop_
_space_group_symop_operation_xyz
x,y,z
-x,y,-z
-x,-y,-z
x,-y,z
1/2+x,1/2+y,z
1/2-x,1/2+y,-z
1/2-x,1/2-y,-z
1/2+x,1/2-y,z
loop_
_atom_site_type_symbol
_atom_site_label
_atom_site_fract_x
_atom_site_fract_y
_atom_site_fract_z
Si Si1 0.247312 0.860827 0.662714
Si Si2 0.450668 0.356826 0.847564
Si Si3 0.119133 0.859691 0.366626
Si Si4 0.159522 0.362204 0.539349
Si Si5 0.888741 0.146770 0.031267
Si Si6 0.391908 0.238874 0.756665
O O1 0.274913 0.749056 0.693470
O O2 0.351268 0.854057 0.530916
O O3 0.106058 0.841153 0.730273
O O4 0.254597 0.000000 0.691340
O O5 0.406182 0.500000 0.877998
O O6 0.379537 0.294924 0.836933
O O7 0.405147 0.294015 0.947639
O O8 0.077934 0.842497 0.320450
O O9 0.000000 0.843877 0.500000
O O10 0.179024 0.000000 0.332392
O O11 0.217177 0.500000 0.518748
O O12 0.250000 0.250000 0.500000
O O13 0.013029 0.357086 0.670655
O O14 0.745387 0.171363 0.161335
O O15 0.916446 0.000000 0.006019
O O16 0.000000 0.205830 0.000000
#
# Coordination Sequence:
#
# PCOD8109442 Si02
#       6
#     8   8   8   8   8   8
#     4  10  21  40  63  90 125 170 215 261 312 377
#     4  10  21  39  64  92 122 165 212 258 315 381
#     4  11  24  39  58  90 129 173 213 260 319 380
#     4  11  23  38  61  95 131 169 212 262 321 379
#     4  10  22  41  65  91 122 163 216 267 316 375
#     4  12  22  39  63  93 129 167 212 267 317 381
#
# _framework density 21.359905000000001
#
# number of rings (size 3 to 8) (size 9 to 14) (size 15 to 20)
#    0.000    1.333    3.333    2.500    0.000    4.333 
#    0.000    0.000    0.000   11.000    0.000    0.000 
#    0.000    0.000    0.000    0.000    0.000    0.000 
#
# Total GULP energy -297498.164921 kJ/mol
# GULP energy per Si atom -12395.756872 kJ/mol
# Density = 2.131129 g / cm^3
# Si number density = 21.359905 Si / 1000 Ang^3
#
#
#
# Elastic Constant Matrix: (Units=GPa)
#
#
# Indices 1 2 3 4 5 6 
#
# 1 118.8374 55.4071 41.5642 0.0000 12.4241 0.0000
# 2 55.4071 133.9264 20.1400 0.0000 -5.5115 0.0000
# 3 41.5642 20.1400 110.8809 0.0001 2.7138 0.0000
# 4 0.0000 0.0000 0.0001 22.2196 0.0000 -2.1607
# 5 12.4241 -5.5115 2.7138 0.0000 42.1806 0.0000
# 6 0.0000 0.0000 0.0000 -2.1607 0.0000 29.8389
#
#
#
# Elastic Compliance Matrix: (Units=1/GPa)
#
#
# Indices 1 2 3 4 5 6 
#
# 1 0.012308 -0.004706 -0.003661 0.000000 -0.004005 0.000000
# 2 -0.004706 0.009527 -0.000031 0.000000 0.002633 0.000000
# 3 -0.003661 -0.000031 0.010387 0.000000 0.000406 0.000000
# 4 0.000000 0.000000 0.000000 0.045324 0.000000 0.003282
# 5 -0.004005 0.002633 0.000406 0.000000 0.025205 0.000000
# 6 0.000000 0.000000 0.000000 0.003282 0.000000 0.033751
#
#
# Mechanical properties :
#
#
# Convention : Reuss Voigt Hill
#
# Bulk Modulus (GPa) = 64.82644 66.42971 65.62808
# Shear Modulus (GPa) = 31.55764 35.28337 33.42051
#
# Velocity S-wave (km/s) = 3.84790 4.06871 3.95984
# Velocity P-wave (km/s) = 7.08218 7.29659 7.19018
#
# Compressibility (1/GPa) = 0.01542580
#
# Stress axis : x y z
#
# Youngs Moduli (GPa) = 81.24602 104.96657 96.27757
#
# Poissons Ratio (x) = 0.49401 0.35247
# Poissons Ratio (y) = 0.38237 0.00295
# Poissons Ratio (z) = 0.29744 0.00322
#
# Static dielectric constant tensor:
#      x y z
#    x 3.829990 0.000000 0.228990 
#    y 0.000000 3.731330 0.000000 
#    z 0.228990 0.000000 3.821800 
# 
# 
# High freq. dielectric constant tensor:
#      x y z
#    x 1.835710 0.000000 0.015320 
#    y 0.000000 1.818050 0.000000 
#    z 0.015320 0.000000 1.842650 
# 
# From -- ./inp_files/310203.got.cif
#   From: 2010.06.25/outbox.cif.g09.slc.cpg/sg12_156_cif.got.tgz:310203.got - 2010.06.28 00:19:55.
