data_PCOD8109028
_publ_section_title
;
Structure prediction by ZEFSAII (Michael W. Deem and Ramdas Pophale) SiO2 
 PCOD8109028
Probable space group: C 2/M
;
_chemical_formula_sum "Si O2"
_cell_formula_units_Z 56
_cell_length_a 9.480111
_cell_length_b 17.787461
_cell_length_c 18.238672
_cell_angle_alpha 90.000000
_cell_angle_beta 62.596320
_cell_angle_gamma 90.000000
_cell_volume 2730.415893
_symmetry_space_group_name_H-M "C 2/M"
_symmetry_group_IT_number 12
_symmetry_cell_setting 'monoclinic'
loop_
_space_group_symop_operation_xyz
x,y,z
-x,y,-z
-x,-y,-z
x,-y,z
1/2+x,1/2+y,z
1/2-x,1/2+y,-z
1/2-x,1/2-y,-z
1/2+x,1/2-y,z
loop_
_atom_site_type_symbol
_atom_site_label
_atom_site_fract_x
_atom_site_fract_y
_atom_site_fract_z
Si Si1 0.566856 0.089082 0.665168
Si Si2 0.334210 0.326568 0.000025
Si Si3 0.019746 0.086780 0.165076
Si Si4 0.191424 0.415590 0.160825
Si Si5 0.428945 0.203278 0.596354
Si Si6 0.418916 0.586024 0.588999
Si Si7 0.559282 0.670792 0.672999
O O1 0.456852 0.117398 0.758323
O O2 0.508630 0.125376 0.602868
O O3 0.742413 0.119769 0.642747
O O4 0.553407 0.000000 0.658372
O O5 0.358882 0.381139 0.924518
O O6 0.500000 0.309122 0.000000
O O7 0.250000 0.250000 0.000000
O O8 0.212735 0.367193 0.083331
O O9 0.842830 0.086227 0.176904
O O10 0.022972 0.146871 0.230875
O O11 0.067978 0.000000 0.174376
O O12 0.155627 0.500000 0.143479
O O13 0.500000 0.225331 0.500000
O O14 0.463742 0.265631 0.650432
O O15 0.240388 0.194033 0.637333
O O16 0.500000 0.626729 0.500000
O O17 0.392926 0.500000 0.576950
O O18 0.536177 0.595909 0.629614
#
# Coordination Sequence:
#
# PCOD8109028 Si02
#       7
#     8   8   8   8   8   8   8
#     4  10  21  39  63  90 121 161 210 260 313 372
#     4  10  22  39  64  93 128 162 199 247 306 366
#     4  10  21  39  65  95 122 160 212 256 305 367
#     4   9  18  38  64  90 122 161 208 252 302 365
#     4  12  25  40  60  89 125 165 209 260 319 373
#     4  10  21  39  61  87 121 162 207 257 314 369
#     4  12  24  39  61  86 124 163 209 258 308 376
#
# _framework density 20.509695000000001
#
# number of rings (size 3 to 8) (size 9 to 14) (size 15 to 20)
#    0.000    1.571    1.429    3.429    2.000    2.571 
#    2.571    0.000    0.000    0.857    0.000    0.000 
#    0.000    0.000    0.000    0.000    0.000    0.000 
#
# Total GULP energy -347070.502956 kJ/mol
# GULP energy per Si atom -12395.375106 kJ/mol
# Density = 2.046301 g / cm^3
# Si number density = 20.509695 Si / 1000 Ang^3
#
#
#
# Elastic Constant Matrix: (Units=GPa)
#
#
# Indices 1 2 3 4 5 6 
#
# 1 107.6006 45.5270 54.0633 0.0000 -5.5751 0.0000
# 2 45.5270 98.5235 67.4227 0.0000 1.2809 0.0000
# 3 54.0633 67.4227 159.2477 0.0000 -1.5654 0.0000
# 4 0.0000 0.0000 0.0000 31.9497 0.0000 15.9829
# 5 -5.5751 1.2809 -1.5654 0.0000 33.6984 0.0000
# 6 0.0000 0.0000 0.0000 15.9829 0.0000 29.8791
#
#
#
# Elastic Compliance Matrix: (Units=1/GPa)
#
#
# Indices 1 2 3 4 5 6 
#
# 1 0.012351 -0.004053 -0.002456 0.000000 0.002083 0.000000
# 2 -0.004053 0.015643 -0.005262 0.000000 -0.001510 0.000000
# 3 -0.002456 -0.005262 0.009344 0.000000 0.000228 0.000000
# 4 0.000000 0.000000 0.000000 0.042735 0.000000 -0.022859
# 5 0.002083 -0.001510 0.000228 0.000000 0.030088 0.000000
# 6 0.000000 0.000000 0.000000 -0.022859 0.000000 0.045696
#
#
# Mechanical properties :
#
#
# Convention : Reuss Voigt Hill
#
# Bulk Modulus (GPa) = 72.49312 77.71087 75.10200
# Shear Modulus (GPa) = 27.17430 32.32936 29.75183
#
# Velocity S-wave (km/s) = 3.64393 3.97457 3.81284
# Velocity P-wave (km/s) = 7.28882 7.68342 7.48872
#
# Compressibility (1/GPa) = 0.01379441
#
# Stress axis : x y z
#
# Youngs Moduli (GPa) = 80.96659 63.92480 107.02621
#
# Poissons Ratio (x) = 0.25911 0.26290
# Poissons Ratio (y) = 0.32818 0.56316
# Poissons Ratio (z) = 0.19889 0.33637
#
# Static dielectric constant tensor:
#      x y z
#    x 3.766620 0.000000 -0.083800 
#    y 0.000000 3.872340 0.000000 
#    z -0.083800 0.000000 3.974690 
# 
# 
# High freq. dielectric constant tensor:
#      x y z
#    x 1.792550 0.000000 -0.004830 
#    y 0.000000 1.812290 0.000000 
#    z -0.004830 0.000000 1.810770 
# 
# From -- ./inp_files/257015.got.cif
#   From: 2010.06.25/outbox.cif.g09.slc.cpg/sg12_129_cif.got.tgz:257015.got - 2010.06.28 00:19:55.
