data_PCOD8109688
_publ_section_title
;
Structure prediction by ZEFSAII (Michael W. Deem and Ramdas Pophale) SiO2 
 PCOD8109688
Probable space group: C 2/M
;
_chemical_formula_sum "Si O2"
_cell_formula_units_Z 40
_cell_length_a 21.511533
_cell_length_b 13.254052
_cell_length_c 18.915200
_cell_angle_alpha 90.000000
_cell_angle_beta 20.359535
_cell_angle_gamma 90.000000
_cell_volume 1876.281040
_symmetry_space_group_name_H-M "C 2/M"
_symmetry_group_IT_number 12
_symmetry_cell_setting 'monoclinic'
loop_
_space_group_symop_operation_xyz
x,y,z
-x,y,-z
-x,-y,-z
x,-y,z
1/2+x,1/2+y,z
1/2-x,1/2+y,-z
1/2-x,1/2-y,-z
1/2+x,1/2-y,z
loop_
_atom_site_type_symbol
_atom_site_label
_atom_site_fract_x
_atom_site_fract_y
_atom_site_fract_z
Si Si1 0.983360 0.699995 0.741956
Si Si2 0.141138 0.883998 0.644727
Si Si3 0.801907 0.617312 0.061648
Si Si4 0.519746 0.737014 0.556826
Si Si5 0.419803 0.747057 0.158156
O O1 0.037438 0.817271 0.697167
O O2 0.146531 0.628780 0.593458
O O3 0.949830 0.686254 0.693234
O O4 0.812090 0.667356 0.971573
O O5 0.087811 0.846361 0.779922
O O6 0.084906 0.000000 0.695000
O O7 0.832780 0.500000 0.023185
O O8 0.958486 0.662977 0.942745
O O9 0.609429 0.639416 0.301901
O O10 0.500000 0.787524 0.500000
O O11 0.723401 0.706352 0.354796
O O12 0.500000 0.703867 0.000000
#
# Coordination Sequence:
#
# PCOD8109688 Si02
#       5
#     8   8   8   8   8
#     4   9  20  37  60  88 124 157 195 253 300 350
#     4   9  18  35  63  90 115 157 206 246 294 356
#     4  11  23  39  63  91 120 159 203 247 301 360
#     4  11  22  39  61  85 119 163 197 243 299 359
#     4  10  21  40  60  87 123 158 197 250 303 351
#
# _framework density 21.318767000000001
#
# number of rings (size 3 to 8) (size 9 to 14) (size 15 to 20)
#    0.000    2.000    2.000    2.400    0.000    2.800 
#    0.000    0.000    0.000   25.800    0.000    0.000 
#    0.000    0.000    0.000    0.000    0.000    0.000 
#
# Total GULP energy -247947.153999 kJ/mol
# GULP energy per Si atom -12397.357700 kJ/mol
# Density = 2.127024 g / cm^3
# Si number density = 21.318767 Si / 1000 Ang^3
#
#
#
# Elastic Constant Matrix: (Units=GPa)
#
#
# Indices 1 2 3 4 5 6 
#
# 1 115.1388 6.8740 36.7896 0.0047 17.0470 -0.0022
# 2 6.8740 98.8776 16.0823 0.0052 -4.3923 -0.0028
# 3 36.7896 16.0823 121.6644 0.0003 6.3820 -0.0004
# 4 0.0047 0.0052 0.0003 19.2990 0.0004 2.1869
# 5 17.0470 -4.3923 6.3820 0.0004 43.2811 0.0002
# 6 -0.0022 -0.0028 -0.0004 2.1869 0.0002 8.9552
#
#
#
# Elastic Compliance Matrix: (Units=1/GPa)
#
#
# Indices 1 2 3 4 5 6 
#
# 1 0.010148 -0.000407 -0.002825 -0.000003 -0.003622 0.000003
# 2 -0.000407 0.010421 -0.001329 -0.000003 0.001414 0.000004
# 3 -0.002825 -0.001329 0.009270 0.000001 -0.000389 -0.000001
# 4 -0.000003 -0.000003 0.000001 0.053291 0.000000 -0.013014
# 5 -0.003622 0.001414 -0.000389 0.000000 0.024732 -0.000001
# 6 0.000003 0.000004 -0.000001 -0.013014 -0.000001 0.114845
#
#
# Mechanical properties :
#
#
# Convention : Reuss Voigt Hill
#
# Bulk Modulus (GPa) = 48.26786 50.57474 49.42130
# Shear Modulus (GPa) = 20.94384 32.70270 26.82327
#
# Velocity S-wave (km/s) = 3.13775 3.92086 3.55096
# Velocity P-wave (km/s) = 5.98477 6.65373 6.32810
#
# Compressibility (1/GPa) = 0.02071772
#
# Stress axis : x y z
#
# Youngs Moduli (GPa) = 98.53836 95.96285 107.87975
#
# Poissons Ratio (x) = 0.03905 0.30475
# Poissons Ratio (y) = 0.04010 0.14333
# Poissons Ratio (z) = 0.27836 0.12749
#
# Static dielectric constant tensor:
#      x y z
#    x 4.176950 0.000000 0.215930 
#    y 0.000000 3.232820 0.000010 
#    z 0.215930 0.000010 4.232460 
# 
# 
# High freq. dielectric constant tensor:
#      x y z
#    x 1.850550 0.000000 0.006690 
#    y 0.000000 1.778400 0.000000 
#    z 0.006690 0.000000 1.862070 
# 
# From -- ./inp_files/325062.got.cif
#   From: 2010.06.25/outbox.cif.g09.slc.cpg/sg12_163_cif.got.tgz:325062.got - 2010.06.28 00:19:55.
