data_PCOD8109503
_publ_section_title
;
Structure prediction by ZEFSAII (Michael W. Deem and Ramdas Pophale) SiO2 
 PCOD8109503
Probable space group: C 2/M
;
_chemical_formula_sum "Si O2"
_cell_formula_units_Z 40
_cell_length_a 21.172635
_cell_length_b 14.840896
_cell_length_c 17.445424
_cell_angle_alpha 90.000000
_cell_angle_beta 19.852854
_cell_angle_gamma 90.000000
_cell_volume 1861.622217
_symmetry_space_group_name_H-M "C 2/M"
_symmetry_group_IT_number 12
_symmetry_cell_setting 'monoclinic'
loop_
_space_group_symop_operation_xyz
x,y,z
-x,y,-z
-x,-y,-z
x,-y,z
1/2+x,1/2+y,z
1/2-x,1/2+y,-z
1/2-x,1/2-y,-z
1/2+x,1/2-y,z
loop_
_atom_site_type_symbol
_atom_site_label
_atom_site_fract_x
_atom_site_fract_y
_atom_site_fract_z
Si Si1 0.191734 0.286478 0.818261
Si Si2 0.210702 0.598921 0.235400
Si Si3 0.346900 0.397498 0.513568
Si Si4 0.460125 0.900079 0.884482
Si Si5 0.739894 0.354374 0.996932
O O1 0.198023 0.178435 0.818469
O O2 0.351931 0.328349 0.580627
O O3 0.189457 0.333433 0.904186
O O4 0.000000 0.317674 0.000000
O O5 0.301762 0.500000 0.148357
O O6 0.000000 0.595925 0.500000
O O7 0.224769 0.620387 0.130378
O O8 0.324235 0.500000 0.569424
O O9 0.536783 0.390467 0.250436
O O10 0.175758 0.371371 0.651590
O O11 0.430366 0.000000 0.951842
O O12 0.406113 0.899437 0.856497
O O13 0.750000 0.250000 0.000000
#
# Coordination Sequence:
#
# PCOD8109503 Si02
#       5
#     8   8   8   8   8
#     4  10  21  40  62  93 125 162 203 251 313 373
#     4  11  24  43  61  84 123 166 211 258 306 368
#     4  10  22  40  66  98 128 158 203 260 314 372
#     4  10  21  39  64  96 130 162 200 255 318 373
#     4  12  23  41  66  91 126 166 209 260 311 367
#
# _framework density 21.486637999999999
#
# number of rings (size 3 to 8) (size 9 to 14) (size 15 to 20)
#    0.000    1.400    2.000    3.600    0.000    3.600 
#    3.600    2.000    0.000    0.000    0.000    0.000 
#    0.000    0.000    0.000    0.000    0.000    0.000 
#
# Total GULP energy -247916.568692 kJ/mol
# GULP energy per Si atom -12395.828435 kJ/mol
# Density = 2.143773 g / cm^3
# Si number density = 21.486638 Si / 1000 Ang^3
#
#
#
# Elastic Constant Matrix: (Units=GPa)
#
#
# Indices 1 2 3 4 5 6 
#
# 1 90.9224 33.3138 52.2214 -0.0136 12.3054 0.0045
# 2 33.3138 161.8158 34.2630 0.0016 10.3827 0.0037
# 3 52.2214 34.2630 76.2604 -0.0019 11.6720 -0.0192
# 4 -0.0136 0.0016 -0.0019 34.3214 0.0216 -3.3539
# 5 12.3054 10.3827 11.6720 0.0216 34.7489 -0.0158
# 6 0.0045 0.0037 -0.0192 -3.3539 -0.0158 45.1986
#
#
#
# Elastic Compliance Matrix: (Units=1/GPa)
#
#
# Indices 1 2 3 4 5 6 
#
# 1 0.018512 -0.001167 -0.011809 0.000007 -0.002240 -0.000007
# 2 -0.001167 0.006941 -0.002177 0.000000 -0.000929 -0.000002
# 3 -0.011809 -0.002177 0.022600 -0.000001 -0.002759 0.000010
# 4 0.000007 0.000000 -0.000001 0.029349 -0.000019 0.002178
# 5 -0.002240 -0.000929 -0.002759 -0.000019 0.030776 0.000008
# 6 -0.000007 -0.000002 0.000010 0.002178 0.000008 0.022286
#
#
# Mechanical properties :
#
#
# Convention : Reuss Voigt Hill
#
# Bulk Modulus (GPa) = 56.35066 63.17724 59.76395
# Shear Modulus (GPa) = 29.99658 36.80047 33.39852
#
# Velocity S-wave (km/s) = 3.74044 4.14298 3.94685
# Velocity P-wave (km/s) = 6.70353 7.23551 6.97460
#
# Compressibility (1/GPa) = 0.01774602
#
# Stress axis : x y z
#
# Youngs Moduli (GPa) = 54.01950 144.07757 44.24744
#
# Poissons Ratio (x) = 0.16812 0.52253
# Poissons Ratio (y) = 0.06303 0.09633
# Poissons Ratio (z) = 0.63794 0.31367
#
# Static dielectric constant tensor:
#      x y z
#    x 4.230530 -0.000160 -0.750940 
#    y -0.000160 4.376210 0.000630 
#    z -0.750940 0.000630 6.705400 
# 
# 
# High freq. dielectric constant tensor:
#      x y z
#    x 1.836320 0.000000 0.003200 
#    y 0.000000 1.862660 0.000000 
#    z 0.003200 0.000000 1.834630 
# 
# From -- ./inp_files/58964.got.cif
#   From: 2010.06.25/outbox.cif.g09.slc.cpg/sg12_30_cif.got.tgz:58964.got - 2010.06.28 00:19:55.
