data_PCOD8109510
_publ_section_title
;
Structure prediction by ZEFSAII (Michael W. Deem and Ramdas Pophale) SiO2 
 PCOD8109510
Probable space group: C 2/M
;
_chemical_formula_sum "Si O2"
_cell_formula_units_Z 48
_cell_length_a 26.729029
_cell_length_b 19.344467
_cell_length_c 9.204031
_cell_angle_alpha 90.000000
_cell_angle_beta 27.507414
_cell_angle_gamma 90.000000
_cell_volume 2198.019593
_symmetry_space_group_name_H-M "C 2/M"
_symmetry_group_IT_number 12
_symmetry_cell_setting 'monoclinic'
loop_
_space_group_symop_operation_xyz
x,y,z
-x,y,-z
-x,-y,-z
x,-y,z
1/2+x,1/2+y,z
1/2-x,1/2+y,-z
1/2-x,1/2-y,-z
1/2+x,1/2-y,z
loop_
_atom_site_type_symbol
_atom_site_label
_atom_site_fract_x
_atom_site_fract_y
_atom_site_fract_z
Si Si1 0.809026 0.330172 0.640530
Si Si2 0.391319 0.071775 0.197226
Si Si3 0.110217 0.919861 0.794511
Si Si4 0.019478 0.356995 0.286125
Si Si5 0.236829 0.704669 0.675144
Si Si6 0.610155 0.420513 0.137702
O O1 0.831673 0.362876 0.420910
O O2 0.791280 0.248247 0.666450
O O3 0.906538 0.336796 0.502274
O O4 0.703698 0.371922 0.966838
O O5 0.320989 0.000000 0.391742
O O6 0.500000 0.058924 0.000000
O O7 0.422556 0.081000 0.949019
O O8 0.208904 0.871538 0.482028
O O9 0.135604 0.000000 0.690130
O O10 0.096130 0.908632 0.002208
O O11 0.000000 0.895897 0.000000
O O12 0.000000 0.380715 0.500000
O O13 0.109054 0.296374 0.045900
O O14 0.250000 0.750000 0.500000
O O15 0.500000 0.398223 0.500000
O O16 0.638871 0.500000 0.100037
#
# Coordination Sequence:
#
# PCOD8109510 Si02
#       6
#     8   8   8   8   8   8
#     4  11  23  41  68  92 130 178 222 278 334 411
#     4   9  18  36  63  91 123 169 217 258 317 396
#     4  10  23  43  69  97 131 176 227 282 335 396
#     4  11  26  43  61  96 133 169 222 276 347 400
#     4  12  24  41  67  99 127 173 225 284 331 408
#     4  10  21  39  64  98 136 174 223 273 331 401
#
# _framework density 21.83784
#
# number of rings (size 3 to 8) (size 9 to 14) (size 15 to 20)
#    0.000    1.500    3.333    0.500    2.333    5.667 
#    0.000    0.000    0.000    0.000    0.000    0.000 
#    0.000    0.000    0.000    0.000    0.000    0.000 
#
# Total GULP energy -297350.645994 kJ/mol
# GULP energy per Si atom -12389.610250 kJ/mol
# Density = 2.178814 g / cm^3
# Si number density = 21.837840 Si / 1000 Ang^3
#
#
#
# Elastic Constant Matrix: (Units=GPa)
#
#
# Indices 1 2 3 4 5 6 
#
# 1 126.5546 41.8211 66.4578 0.0000 -14.8457 0.0000
# 2 41.8211 131.3548 51.7697 0.0000 -7.6458 0.0000
# 3 66.4578 51.7697 146.8865 0.0000 -14.2900 0.0000
# 4 0.0000 0.0000 0.0000 36.2120 0.0000 -2.2687
# 5 -14.8457 -7.6458 -14.2900 0.0000 44.0589 0.0000
# 6 0.0000 0.0000 0.0000 -2.2687 0.0000 36.6279
#
#
#
# Elastic Compliance Matrix: (Units=1/GPa)
#
#
# Indices 1 2 3 4 5 6 
#
# 1 0.010869 -0.001721 -0.004113 0.000000 0.002029 0.000000
# 2 -0.001721 0.009126 -0.002416 0.000000 0.000220 0.000000
# 3 -0.004113 -0.002416 0.009650 0.000000 0.001324 0.000000
# 4 0.000000 0.000000 0.000000 0.027723 0.000000 0.001717
# 5 0.002029 0.000220 0.001324 0.000000 0.023848 0.000000
# 6 0.000000 0.000000 0.000000 0.001717 0.000000 0.027408
#
#
# Mechanical properties :
#
#
# Convention : Reuss Voigt Hill
#
# Bulk Modulus (GPa) = 76.08879 80.54368 78.31624
# Shear Modulus (GPa) = 38.60827 39.69624 39.15226
#
# Velocity S-wave (km/s) = 4.20926 4.26816 4.23881
# Velocity P-wave (km/s) = 7.65128 7.82638 7.73933
#
# Compressibility (1/GPa) = 0.01314254
#
# Stress axis : x y z
#
# Youngs Moduli (GPa) = 92.00802 109.57611 103.63183
#
# Poissons Ratio (x) = 0.18859 0.42628
# Poissons Ratio (y) = 0.15835 0.25041
# Poissons Ratio (z) = 0.37847 0.26478
#
# Static dielectric constant tensor:
#      x y z
#    x 4.032870 0.000000 -0.280190 
#    y 0.000000 4.597640 0.000000 
#    z -0.280190 0.000000 4.068910 
# 
# 
# High freq. dielectric constant tensor:
#      x y z
#    x 1.858340 0.000000 -0.022350 
#    y 0.000000 1.859060 0.000000 
#    z -0.022350 0.000000 1.860450 
# 
# From -- ./inp_files/106497.got.cif
#   From: 2010.06.25/outbox.cif.g09.slc.cpg/sg12_54_cif.got.tgz:106497.got - 2010.06.28 00:19:55.
