data_PCOD8109638
_publ_section_title
;
Structure prediction by ZEFSAII (Michael W. Deem and Ramdas Pophale) SiO2 
 PCOD8109638
Probable space group: C 2/M
;
_chemical_formula_sum "Si O2"
_cell_formula_units_Z 48
_cell_length_a 17.264774
_cell_length_b 27.333427
_cell_length_c 8.835224
_cell_angle_alpha 90.000000
_cell_angle_beta 148.678246
_cell_angle_gamma 90.000000
_cell_volume 2167.430406
_symmetry_space_group_name_H-M "C 2/M"
_symmetry_group_IT_number 12
_symmetry_cell_setting 'monoclinic'
loop_
_space_group_symop_operation_xyz
x,y,z
-x,y,-z
-x,-y,-z
x,-y,z
1/2+x,1/2+y,z
1/2-x,1/2+y,-z
1/2-x,1/2-y,-z
1/2+x,1/2-y,z
loop_
_atom_site_type_symbol
_atom_site_label
_atom_site_fract_x
_atom_site_fract_y
_atom_site_fract_z
Si Si1 0.142241 0.315355 0.131062
Si Si2 0.054908 0.362855 0.434156
Si Si3 0.944605 0.051207 0.739317
Si Si4 0.712120 0.279197 0.089213
Si Si5 0.874305 0.444635 0.676864
Si Si6 0.038829 0.155727 0.241265
O O1 0.193022 0.259804 0.190457
O O2 0.283245 0.340889 0.444651
O O3 0.000000 0.316852 0.000000
O O4 0.093923 0.342435 0.896041
O O5 0.163509 0.317172 0.648394
O O6 0.137626 0.406355 0.481829
O O7 0.000000 0.385886 0.500000
O O8 0.767946 0.056120 0.453878
O O9 0.009969 0.101354 0.779119
O O10 0.987679 0.000000 0.723439
O O11 0.000000 0.045401 0.000000
O O12 0.750000 0.250000 0.000000
O O13 0.552664 0.306812 0.805881
O O14 0.906149 0.500000 0.669246
O O15 0.000000 0.425210 0.000000
O O16 0.000000 0.162777 0.000000
#
# Coordination Sequence:
#
# PCOD8109638 Si02
#       6
#     8   8   8   8   8   8
#     4  12  25  42  67  94 128 175 229 285 335 397
#     4  12  24  42  64  93 134 176 224 279 335 398
#     4   9  17  33  59  93 123 154 201 263 324 383
#     4  12  26  45  61  90 132 180 226 277 338 398
#     4  10  21  39  67  99 132 169 215 272 335 403
#     4  11  23  40  66  97 130 166 221 279 333 400
#
# _framework density 22.146038000000001
#
# number of rings (size 3 to 8) (size 9 to 14) (size 15 to 20)
#    0.000    1.000    1.667    7.000    0.000    2.333 
#    0.000    0.833    0.000    0.000    0.000    1.167 
#    0.000    0.667    0.000    0.000    0.000    0.000 
#
# Total GULP energy -297423.997788 kJ/mol
# GULP energy per Si atom -12392.666574 kJ/mol
# Density = 2.209563 g / cm^3
# Si number density = 22.146038 Si / 1000 Ang^3
#
#
#
# Elastic Constant Matrix: (Units=GPa)
#
#
# Indices 1 2 3 4 5 6 
#
# 1 79.8711 52.1581 27.5550 0.0000 -5.3667 0.0000
# 2 52.1581 173.2666 20.0512 0.0000 -11.5128 0.0000
# 3 27.5550 20.0512 130.6051 0.0000 1.6594 0.0000
# 4 0.0000 0.0000 0.0000 30.4870 0.0000 -1.3928
# 5 -5.3667 -11.5128 1.6594 0.0000 24.7223 0.0000
# 6 0.0000 0.0000 0.0000 -1.3928 0.0000 24.1435
#
#
#
# Elastic Compliance Matrix: (Units=1/GPa)
#
#
# Indices 1 2 3 4 5 6 
#
# 1 0.016579 -0.004554 -0.002820 0.000000 0.001668 0.000000
# 2 -0.004554 0.007327 -0.000195 0.000000 0.002437 0.000000
# 3 -0.002820 -0.000195 0.008298 0.000000 -0.001260 0.000000
# 4 0.000000 0.000000 0.000000 0.032888 0.000000 0.001897
# 5 0.001668 0.002437 -0.001260 0.000000 0.042030 0.000000
# 6 0.000000 0.000000 0.000000 0.001897 0.000000 0.041528
#
#
# Mechanical properties :
#
#
# Convention : Reuss Voigt Hill
#
# Bulk Modulus (GPa) = 58.59623 64.80794 61.70209
# Shear Modulus (GPa) = 29.50288 34.80245 32.15267
#
# Velocity S-wave (km/s) = 3.65389 3.96851 3.81445
# Velocity P-wave (km/s) = 6.65715 7.09410 6.87909
#
# Compressibility (1/GPa) = 0.01706594
#
# Stress axis : x y z
#
# Youngs Moduli (GPa) = 60.31858 136.48785 120.51733
#
# Poissons Ratio (x) = 0.62150 0.33984
# Poissons Ratio (y) = 0.27466 0.02351
# Poissons Ratio (z) = 0.17009 0.02663
#
# Static dielectric constant tensor:
#      x y z
#    x 3.692880 0.000000 0.040530 
#    y 0.000000 4.834730 0.000000 
#    z 0.040530 0.000000 4.206440 
# 
# 
# High freq. dielectric constant tensor:
#      x y z
#    x 1.825370 0.000000 0.015730 
#    y 0.000000 1.903940 0.000000 
#    z 0.015730 0.000000 1.884740 
# 
# From -- ./inp_files/80810.got.cif
#   From: 2010.06.25/outbox.cif.g09.slc.cpg/sg12_41_cif.got.tgz:80810.got - 2010.06.28 00:19:55.
