data_PCOD8109953
_publ_section_title
;
Structure prediction by ZEFSAII (Michael W. Deem and Ramdas Pophale) SiO2 
 PCOD8109953
Probable space group: C 2/M
;
_chemical_formula_sum "Si O2"
_cell_formula_units_Z 56
_cell_length_a 9.056430
_cell_length_b 18.255439
_cell_length_c 17.196744
_cell_angle_alpha 90.000000
_cell_angle_beta 107.391111
_cell_angle_gamma 90.000000
_cell_volume 2713.153830
_symmetry_space_group_name_H-M "C 2/M"
_symmetry_group_IT_number 12
_symmetry_cell_setting 'monoclinic'
loop_
_space_group_symop_operation_xyz
x,y,z
-x,y,-z
-x,-y,-z
x,-y,z
1/2+x,1/2+y,z
1/2-x,1/2+y,-z
1/2-x,1/2-y,-z
1/2+x,1/2-y,z
loop_
_atom_site_type_symbol
_atom_site_label
_atom_site_fract_x
_atom_site_fract_y
_atom_site_fract_z
Si Si1 0.174124 0.309160 0.047159
Si Si2 0.024345 0.198184 0.696763
Si Si3 0.521095 0.913540 0.310004
Si Si4 0.631297 0.807458 0.215468
Si Si5 0.603645 0.203727 0.446655
Si Si6 0.451125 0.586039 0.076645
Si Si7 0.660661 0.584412 0.253857
O O1 0.150122 0.280442 0.130504
O O2 0.286673 0.378567 0.072223
O O3 0.250000 0.250000 0.000000
O O4 0.000000 0.334337 0.000000
O O5 0.204235 0.187557 0.719200
O O6 0.977029 0.247042 0.762971
O O7 0.990951 0.232848 0.609291
O O8 0.932773 0.122117 0.691019
O O9 0.560790 0.887574 0.227446
O O10 0.621459 0.865405 0.388761
O O11 0.339744 0.894128 0.289681
O O12 0.555157 0.000000 0.325715
O O13 0.500000 0.171737 0.500000
O O14 0.750000 0.250000 0.500000
O O15 0.421755 0.500000 0.069313
O O16 0.586450 0.607108 0.158699
O O17 0.500000 0.616659 0.000000
O O18 0.636022 0.500000 0.264025
#
# Coordination Sequence:
#
# PCOD8109953 Si02
#       7
#     8   8   8   8   8   8   8
#     4  12  26  40  60  92 126 167 214 270 321 370
#     4  11  21  39  63  89 122 164 209 251 312 381
#     4  10  23  42  67  97 125 166 216 260 312 381
#     4  11  23  39  61  89 123 166 213 267 310 369
#     4  11  22  40  64  95 130 161 198 252 319 382
#     4  10  23  42  62  88 126 169 211 265 326 375
#     4  10  21  40  65  91 125 169 217 264 310 374
#
# _framework density 20.640186
#
# number of rings (size 3 to 8) (size 9 to 14) (size 15 to 20)
#    0.000    1.286    1.429    5.571    4.000    1.714 
#    0.000    0.714    0.000    1.714    0.000    0.000 
#    0.000    0.000    0.000    0.000    0.000    0.000 
#
# Total GULP energy -346869.213101 kJ/mol
# GULP energy per Si atom -12388.186182 kJ/mol
# Density = 2.059321 g / cm^3
# Si number density = 20.640186 Si / 1000 Ang^3
#
#
#
# Elastic Constant Matrix: (Units=GPa)
#
#
# Indices 1 2 3 4 5 6 
#
# 1 70.0522 39.9156 20.1656 0.0000 7.5741 0.0000
# 2 39.9156 84.6310 36.1522 0.0000 7.2714 0.0000
# 3 20.1656 36.1522 90.2588 0.0000 -5.0532 0.0000
# 4 0.0000 0.0000 0.0000 25.7448 0.0000 -4.5224
# 5 7.5741 7.2714 -5.0532 0.0000 43.6587 0.0000
# 6 0.0000 0.0000 0.0000 -4.5224 0.0000 28.3908
#
#
#
# Elastic Compliance Matrix: (Units=1/GPa)
#
#
# Indices 1 2 3 4 5 6 
#
# 1 0.019755 -0.008688 -0.001052 0.000000 -0.002102 0.000000
# 2 -0.008688 0.018492 -0.005590 0.000000 -0.002220 0.000000
# 3 -0.001052 -0.005590 0.013704 0.000000 0.002700 0.000000
# 4 0.000000 0.000000 0.000000 0.039961 0.000000 0.006365
# 5 -0.002102 -0.002220 0.002700 0.000000 0.023952 0.000000
# 6 0.000000 0.000000 0.000000 0.006365 0.000000 0.036237
#
#
# Mechanical properties :
#
#
# Convention : Reuss Voigt Hill
#
# Bulk Modulus (GPa) = 46.96368 48.60097 47.78233
# Shear Modulus (GPa) = 26.33554 29.47276 27.90415
#
# Velocity S-wave (km/s) = 3.57590 3.78290 3.68085
# Velocity P-wave (km/s) = 6.31287 6.53286 6.42381
#
# Compressibility (1/GPa) = 0.02129305
#
# Stress axis : x y z
#
# Youngs Moduli (GPa) = 50.61950 54.07715 72.96913
#
# Poissons Ratio (x) = 0.46980 0.07674
# Poissons Ratio (y) = 0.43976 0.40791
# Poissons Ratio (z) = 0.05324 0.30230
#
# Static dielectric constant tensor:
#      x y z
#    x 3.965400 0.000000 -0.012940 
#    y 0.000000 3.751610 0.000000 
#    z -0.012940 0.000000 3.923970 
# 
# 
# High freq. dielectric constant tensor:
#      x y z
#    x 1.820470 0.000000 0.001020 
#    y 0.000000 1.804210 0.000000 
#    z 0.001020 0.000000 1.808930 
# 
# From -- ./inp_files/257175.got.cif
#   From: 2010.06.25/outbox.cif.g09.slc.cpg/sg12_129_cif.got.tgz:257175.got - 2010.06.28 00:19:55.
