data_PCOD8109344
_publ_section_title
;
Structure prediction by ZEFSAII (Michael W. Deem and Ramdas Pophale) SiO2 
 PCOD8109344
Probable space group: C 2/M
;
_chemical_formula_sum "Si O2"
_cell_formula_units_Z 64
_cell_length_a 9.545646
_cell_length_b 14.543667
_cell_length_c 30.625003
_cell_angle_alpha 90.000000
_cell_angle_beta 134.812926
_cell_angle_gamma 90.000000
_cell_volume 3016.155758
_symmetry_space_group_name_H-M "C 2/M"
_symmetry_group_IT_number 12
_symmetry_cell_setting 'monoclinic'
loop_
_space_group_symop_operation_xyz
x,y,z
-x,y,-z
-x,-y,-z
x,-y,z
1/2+x,1/2+y,z
1/2-x,1/2+y,-z
1/2-x,1/2-y,-z
1/2+x,1/2-y,z
loop_
_atom_site_type_symbol
_atom_site_label
_atom_site_fract_x
_atom_site_fract_y
_atom_site_fract_z
Si Si1 0.280892 0.109156 0.443159
Si Si2 0.034859 0.261819 0.856876
Si Si3 0.593035 0.243228 0.772777
Si Si4 0.269403 0.893707 0.948325
Si Si5 0.718804 0.398894 0.032435
Si Si6 0.518763 0.892575 0.326369
Si Si7 0.539119 0.609440 0.557174
Si Si8 0.191755 0.107261 0.325197
O O1 0.500000 0.149355 0.500000
O O2 0.220910 0.139629 0.381405
O O3 0.122663 0.148132 0.443773
O O4 0.286468 0.000000 0.448229
O O5 0.998934 0.285529 0.798261
O O6 0.152862 0.165373 0.886711
O O7 0.154996 0.341325 0.906373
O O8 0.822673 0.258765 0.832774
O O9 0.571324 0.159790 0.734451
O O10 0.491989 0.336434 0.733822
O O11 0.217724 0.000000 0.927938
O O12 0.500000 0.874013 0.000000
O O13 0.200840 0.856365 0.980319
O O14 0.819100 0.500000 0.051024
O O15 0.500000 0.408020 0.000000
O O16 0.742350 0.857071 0.381744
O O17 0.391992 0.872089 0.342135
O O18 0.514090 0.000000 0.314128
O O19 0.500000 0.648371 0.500000
O O20 0.529339 0.500000 0.554401
O O21 0.136622 0.000000 0.310344
#
# Coordination Sequence:
#
# PCOD8109344 Si02
#       8
#     8   8   8   8   8   8   8   8
#     4   9  17  31  58  93 123 157 205 260 320 379
#     4  12  24  39  62  88 125 164 205 255 304 362
#     4  12  26  41  59  90 124 168 219 257 300 370
#     4  10  21  39  65  94 123 157 200 249 307 372
#     4  10  21  39  63  92 123 155 195 250 312 367
#     4  10  22  42  63  84 122 169 210 260 317 370
#     4   9  17  31  58  93 123 157 205 260 320 380
#     4  10  22  42  63  84 122 169 210 261 316 369
#
# _framework density 21.219062999999998
#
# number of rings (size 3 to 8) (size 9 to 14) (size 15 to 20)
#    0.000    1.750    1.250    3.000    1.750    5.000 
#    0.000    0.625    0.000    3.000    0.000    0.000 
#    0.000    0.000    0.000    0.000    0.000    0.000 
#
# Total GULP energy -396852.948558 kJ/mol
# GULP energy per Si atom -12401.654642 kJ/mol
# Density = 2.117077 g / cm^3
# Si number density = 21.219063 Si / 1000 Ang^3
#
#
#
# Elastic Constant Matrix: (Units=GPa)
#
#
# Indices 1 2 3 4 5 6 
#
# 1 134.3140 30.9621 48.3293 0.0000 -7.3941 0.0000
# 2 30.9621 64.5621 44.0088 0.0000 4.0813 0.0000
# 3 48.3293 44.0088 119.3485 0.0000 0.7827 0.0000
# 4 0.0000 0.0000 0.0000 15.5633 0.0000 1.7057
# 5 -7.3941 4.0813 0.7827 0.0000 48.1301 0.0000
# 6 0.0000 0.0000 0.0000 1.7057 0.0000 22.8947
#
#
#
# Elastic Compliance Matrix: (Units=1/GPa)
#
#
# Indices 1 2 3 4 5 6 
#
# 1 0.009126 -0.002612 -0.002743 0.000000 0.001668 0.000000
# 2 -0.002612 0.021566 -0.006881 0.000000 -0.002118 0.000000
# 3 -0.002743 -0.006881 0.012027 0.000000 -0.000034 0.000000
# 4 0.000000 0.000000 0.000000 0.064783 0.000000 -0.004826
# 5 0.001668 -0.002118 -0.000034 0.000000 0.021213 0.000000
# 6 0.000000 0.000000 0.000000 -0.004826 0.000000 0.044038
#
#
# Mechanical properties :
#
#
# Convention : Reuss Voigt Hill
#
# Bulk Modulus (GPa) = 54.80343 62.75834 58.78088
# Shear Modulus (GPa) = 24.59324 30.31255 27.45289
#
# Velocity S-wave (km/s) = 3.40813 3.78372 3.60082
# Velocity P-wave (km/s) = 6.43200 6.98064 6.71193
#
# Compressibility (1/GPa) = 0.01824703
#
# Stress axis : x y z
#
# Youngs Moduli (GPa) = 109.57262 46.36990 83.14560
#
# Poissons Ratio (x) = 0.12113 0.22810
# Poissons Ratio (y) = 0.28622 0.57209
# Poissons Ratio (z) = 0.30060 0.31905
#
# Static dielectric constant tensor:
#      x y z
#    x 4.527650 0.000000 0.079840 
#    y 0.000000 3.723860 0.000000 
#    z 0.079840 0.000000 3.769830 
# 
# 
# High freq. dielectric constant tensor:
#      x y z
#    x 1.850220 0.000000 -0.002770 
#    y 0.000000 1.823400 0.000000 
#    z -0.002770 0.000000 1.831330 
# 
# From -- ./inp_files/372597.got.cif
#   From: 2010.06.25/outbox.cif.g09.slc.cpg/sg12_187_cif.got.tgz:372597.got - 2010.06.28 00:19:55.
