data_PCOD8109023
_publ_section_title
;
Structure prediction by ZEFSAII (Michael W. Deem and Ramdas Pophale) SiO2 
 PCOD8109023
Probable space group: C 2/M
;
_chemical_formula_sum "Si O2"
_cell_formula_units_Z 64
_cell_length_a 20.217544
_cell_length_b 8.784023
_cell_length_c 33.382168
_cell_angle_alpha 90.000000
_cell_angle_beta 146.626162
_cell_angle_gamma 90.000000
_cell_volume 3261.201507
_symmetry_space_group_name_H-M "C 2/M"
_symmetry_group_IT_number 12
_symmetry_cell_setting 'monoclinic'
loop_
_space_group_symop_operation_xyz
x,y,z
-x,y,-z
-x,-y,-z
x,-y,z
1/2+x,1/2+y,z
1/2-x,1/2+y,-z
1/2-x,1/2-y,-z
1/2+x,1/2-y,z
loop_
_atom_site_type_symbol
_atom_site_label
_atom_site_fract_x
_atom_site_fract_y
_atom_site_fract_z
Si Si1 0.962271 0.680199 0.287866
Si Si2 0.020440 0.674909 0.055137
Si Si3 0.186565 0.819739 0.281313
Si Si4 0.727971 0.319531 0.212290
Si Si5 0.264279 0.175945 0.964515
Si Si6 0.362432 0.319922 0.435861
Si Si7 0.055500 0.679626 0.811477
Si Si8 0.778660 0.680459 0.557031
O O1 0.965784 0.500000 0.292234
O O2 0.855947 0.745243 0.261807
O O3 0.939315 0.733998 0.231388
O O4 0.090289 0.746304 0.366025
O O5 0.060566 0.500000 0.072193
O O6 0.124123 0.764163 0.130328
O O7 0.900668 0.694632 0.020123
O O8 0.000000 0.741227 0.000000
O O9 0.214949 0.760236 0.250982
O O10 0.281835 0.751518 0.360387
O O11 0.052464 0.765184 0.221594
O O12 0.193970 0.000000 0.288024
O O13 0.725021 0.500000 0.209385
O O14 0.181970 0.270577 0.893049
O O15 0.224518 0.000000 0.945341
O O16 0.250000 0.250000 0.000000
O O17 0.500000 0.265077 0.500000
O O18 0.350940 0.500000 0.425728
O O19 0.314826 0.267131 0.455569
O O20 0.035849 0.500000 0.806328
O O21 0.777980 0.500000 0.553200
O O22 0.750000 0.750000 0.500000
#
# Coordination Sequence:
#
# PCOD8109023 Si02
#       8
#     8   8   8   8   8   8   8   8
#     4   9  19  38  60  82 113 152 193 236 289 344
#     4  10  22  40  59  83 117 153 191 241 295 345
#     4  11  23  38  59  88 121 154 195 243 291 347
#     4  10  22  38  58  85 115 151 195 241 288 346
#     4  11  23  38  58  86 118 152 194 241 292 350
#     4  10  22  41  63  87 119 158 198 238 289 350
#     4  11  21  38  63  85 113 154 195 241 294 346
#     4  10  21  39  61  87 119 154 193 240 289 344
#
# _framework density 19.624669999999998
#
# number of rings (size 3 to 8) (size 9 to 14) (size 15 to 20)
#    0.000    1.750    1.250    2.625    1.750    5.000 
#    0.000    1.250    0.000    0.000    0.000    0.000 
#    0.000    0.000    0.000    0.000    0.000    0.000 
#
# Total GULP energy -396849.015089 kJ/mol
# GULP energy per Si atom -12401.531722 kJ/mol
# Density = 1.958000 g / cm^3
# Si number density = 19.624670 Si / 1000 Ang^3
#
#
#
# Elastic Constant Matrix: (Units=GPa)
#
#
# Indices 1 2 3 4 5 6 
#
# 1 161.0015 25.6429 61.0275 0.0001 -8.8095 0.0000
# 2 25.6429 18.0066 19.8786 0.0003 -6.0142 0.0005
# 3 61.0275 19.8786 131.0048 0.0001 -9.9769 -0.0001
# 4 0.0001 0.0003 0.0001 34.0410 0.0000 -2.7483
# 5 -8.8095 -6.0142 -9.9769 0.0000 42.6802 0.0000
# 6 0.0000 0.0005 -0.0001 -2.7483 0.0000 26.1201
#
#
#
# Elastic Compliance Matrix: (Units=1/GPa)
#
#
# Indices 1 2 3 4 5 6 
#
# 1 0.008722 -0.009581 -0.002622 0.000000 -0.000163 0.000000
# 2 -0.009581 0.079456 -0.007016 -0.000001 0.007579 -0.000002
# 3 -0.002622 -0.007016 0.009980 0.000000 0.000803 0.000000
# 4 0.000000 -0.000001 0.000000 0.029628 0.000000 0.003117
# 5 -0.000163 0.007579 0.000803 0.000000 0.024652 0.000000
# 6 0.000000 -0.000002 0.000000 0.003117 0.000000 0.038613
#
#
# Mechanical properties :
#
#
# Convention : Reuss Voigt Hill
#
# Bulk Modulus (GPa) = 16.74456 58.12342 37.43399
# Shear Modulus (GPa) = 20.04845 34.13252 27.09049
#
# Velocity S-wave (km/s) = 3.19971 4.17498 3.71944
# Velocity P-wave (km/s) = 4.71187 7.27478 6.12879
#
# Compressibility (1/GPa) = 0.05972090
#
# Stress axis : x y z
#
# Youngs Moduli (GPa) = 114.65390 12.58556 100.19660
#
# Poissons Ratio (x) = 0.12058 0.26268
# Poissons Ratio (y) = 1.09848 0.70301
# Poissons Ratio (z) = 0.30058 0.08830
#
# Static dielectric constant tensor:
#      x y z
#    x 4.002320 0.000000 0.094460 
#    y 0.000000 3.434410 0.000000 
#    z 0.094460 0.000000 3.681300 
# 
# 
# High freq. dielectric constant tensor:
#      x y z
#    x 1.785560 0.000000 -0.000630 
#    y 0.000000 1.748750 0.000000 
#    z -0.000630 0.000000 1.778930 
# 
# From -- ./inp_files/378292.got.cif
#   From: 2010.06.25/outbox.cif.g09.slc.cpg/sg12_190_cif.got.tgz:378292.got - 2010.06.28 00:19:55.
