data_PCOD8109259
_publ_section_title
;
Structure prediction by ZEFSAII (Michael W. Deem and Ramdas Pophale) SiO2 
 PCOD8109259
Probable space group: C 2/M
;
_chemical_formula_sum "Si O2"
_cell_formula_units_Z 64
_cell_length_a 27.725827
_cell_length_b 14.763553
_cell_length_c 12.593261
_cell_angle_alpha 90.000000
_cell_angle_beta 36.597018
_cell_angle_gamma 90.000000
_cell_volume 3073.217201
_symmetry_space_group_name_H-M "C 2/M"
_symmetry_group_IT_number 12
_symmetry_cell_setting 'monoclinic'
loop_
_space_group_symop_operation_xyz
x,y,z
-x,y,-z
-x,-y,-z
x,-y,z
1/2+x,1/2+y,z
1/2-x,1/2+y,-z
1/2-x,1/2-y,-z
1/2+x,1/2-y,z
loop_
_atom_site_type_symbol
_atom_site_label
_atom_site_fract_x
_atom_site_fract_y
_atom_site_fract_z
Si Si1 0.340308 0.897560 0.122904
Si Si2 0.268595 0.353617 0.486780
Si Si3 0.416784 0.723187 0.929000
Si Si4 0.955766 0.895513 0.189992
Si Si5 0.774559 0.898490 0.868158
Si Si6 0.914951 0.772880 0.682318
Si Si7 0.771203 0.900173 0.251561
Si Si8 0.656643 0.898444 0.270700
O O1 0.289333 0.892513 0.320433
O O2 0.282724 0.870694 0.127176
O O3 0.374784 0.000000 0.049187
O O4 0.413900 0.824568 0.986225
O O5 0.250000 0.250000 0.500000
O O6 0.361984 0.369338 0.351836
O O7 0.246283 0.406088 0.418570
O O8 0.501452 0.672992 0.802789
O O9 0.401973 0.727297 0.830328
O O10 0.344527 0.668551 0.111064
O O11 0.964907 0.000000 0.211185
O O12 0.000000 0.881386 0.000000
O O13 0.848362 0.830119 0.738517
O O14 0.807715 0.000000 0.793281
O O15 0.729037 0.889366 0.059399
O O16 0.913564 0.670870 0.637537
O O17 0.000000 0.816504 0.500000
O O18 0.693174 0.871367 0.320775
O O19 0.799848 0.000000 0.162675
O O20 0.620136 0.000000 0.335641
#
# Coordination Sequence:
#
# PCOD8109259 Si02
#       8
#     8   8   8   8   8   8   8   8
#     4  11  23  41  65  92 126 169 216 266 316 375
#     4  12  24  40  66  99 133 166 212 264 316 380
#     4  12  23  40  63  93 127 174 214 257 324 390
#     4  11  23  40  63  94 132 169 211 263 320 377
#     4  10  21  39  63  88 119 165 214 257 314 380
#     4  12  26  39  59  92 134 164 203 266 329 385
#     4  11  21  38  66  95 124 162 214 266 313 371
#     4  10  21  40  67  91 117 163 219 265 309 375
#
# _framework density 20.825081000000001
#
# number of rings (size 3 to 8) (size 9 to 14) (size 15 to 20)
#    0.000    0.875    5.000    2.625    1.750    1.000 
#    0.000    0.000    0.000    4.875    0.000    0.000 
#    0.000    0.000    0.000    0.000    0.000    0.000 
#
# Total GULP energy -396837.428331 kJ/mol
# GULP energy per Si atom -12401.169635 kJ/mol
# Density = 2.077768 g / cm^3
# Si number density = 20.825081 Si / 1000 Ang^3
#
#
#
# Elastic Constant Matrix: (Units=GPa)
#
#
# Indices 1 2 3 4 5 6 
#
# 1 117.0683 47.8837 25.3273 0.0000 13.6367 0.0000
# 2 47.8837 126.1030 22.2226 0.0000 -8.5154 0.0000
# 3 25.3273 22.2226 61.4032 0.0000 7.2849 0.0000
# 4 0.0000 0.0000 0.0000 17.2254 0.0000 4.8210
# 5 13.6367 -8.5154 7.2849 0.0000 27.5466 0.0000
# 6 0.0000 0.0000 0.0000 4.8210 0.0000 28.8323
#
#
#
# Elastic Compliance Matrix: (Units=1/GPa)
#
#
# Indices 1 2 3 4 5 6 
#
# 1 0.011634 -0.004428 -0.002427 0.000000 -0.006486 0.000000
# 2 -0.004428 0.010504 -0.002705 0.000000 0.006154 0.000000
# 3 -0.002427 -0.002705 0.018813 0.000000 -0.004610 0.000000
# 4 0.000000 0.000000 0.000000 0.060904 0.000000 -0.010184
# 5 -0.006486 0.006154 -0.004610 0.000000 0.042635 0.000000
# 6 0.000000 0.000000 0.000000 -0.010184 0.000000 0.036386
#
#
# Mechanical properties :
#
#
# Convention : Reuss Voigt Hill
#
# Bulk Modulus (GPa) = 45.80692 55.04905 50.42799
# Shear Modulus (GPa) = 24.12302 28.66360 26.39331
#
# Velocity S-wave (km/s) = 3.40717 3.71401 3.56389
# Velocity P-wave (km/s) = 6.12553 6.69949 6.41893
#
# Compressibility (1/GPa) = 0.02183076
#
# Stress axis : x y z
#
# Youngs Moduli (GPa) = 85.95752 95.20464 53.15570
#
# Poissons Ratio (x) = 0.42156 0.12899
# Poissons Ratio (y) = 0.38061 0.14380
# Poissons Ratio (z) = 0.20858 0.25754
#
# Static dielectric constant tensor:
#      x y z
#    x 3.884300 0.000000 0.238280 
#    y 0.000000 4.159990 0.000000 
#    z 0.238280 0.000000 3.606160 
# 
# 
# High freq. dielectric constant tensor:
#      x y z
#    x 1.815860 0.000000 0.019700 
#    y 0.000000 1.834330 0.000000 
#    z 0.019700 0.000000 1.793970 
# 
# From -- ./inp_files/183787.got.cif
#   From: 2010.06.25/outbox.cif.g09.slc.cpg/sg12_92_cif.got.tgz:183787.got - 2010.06.28 00:19:55.
