data_PCOD8109401
_publ_section_title
;
Structure prediction by ZEFSAII (Michael W. Deem and Ramdas Pophale) SiO2 
 PCOD8109401
Probable space group: C 2/M
;
_chemical_formula_sum "Si O2"
_cell_formula_units_Z 52
_cell_length_a 15.704082
_cell_length_b 14.363670
_cell_length_c 11.815646
_cell_angle_alpha 90.000000
_cell_angle_beta 67.538232
_cell_angle_gamma 90.000000
_cell_volume 2463.035736
_symmetry_space_group_name_H-M "C 2/M"
_symmetry_group_IT_number 12
_symmetry_cell_setting 'monoclinic'
loop_
_space_group_symop_operation_xyz
x,y,z
-x,y,-z
-x,-y,-z
x,-y,z
1/2+x,1/2+y,z
1/2-x,1/2+y,-z
1/2-x,1/2-y,-z
1/2+x,1/2-y,z
loop_
_atom_site_type_symbol
_atom_site_label
_atom_site_fract_x
_atom_site_fract_y
_atom_site_fract_z
Si Si1 0.759704 0.104469 0.819166
Si Si2 0.391548 0.400135 0.561366
Si Si3 0.760083 0.893344 0.300102
Si Si4 0.000000 0.788530 0.000000
Si Si5 0.598986 0.797485 0.509231
Si Si6 0.315723 0.393010 0.029391
Si Si7 0.882937 0.723741 0.249315
O O1 0.859937 0.105318 0.708424
O O2 0.769449 0.150129 0.939307
O O3 0.694106 0.165461 0.775308
O O4 0.719020 0.000000 0.847390
O O5 0.500000 0.400740 0.500000
O O6 0.354173 0.500000 0.529014
O O7 0.355940 0.306951 0.516906
O O8 0.665352 0.868717 0.411122
O O9 0.844443 0.827569 0.295818
O O10 0.786773 0.000000 0.314322
O O11 0.746816 0.880374 0.170816
O O12 0.086267 0.849503 0.992541
O O13 0.972346 0.726175 0.122773
O O14 0.500000 0.800977 0.500000
O O15 0.590067 0.825217 0.645808
O O16 0.335630 0.500000 0.991162
#
# Coordination Sequence:
#
# PCOD8109401 Si02
#       7
#     8   8   8   4   8   8   8
#     4  10  21  39  64  88 118 157 200 251 297 350
#     4   9  19  35  57  90 120 153 196 245 304 351
#     4  10  22  41  62  88 122 161 197 241 297 357
#     4  10  23  36  61  88 124 162 192 244 304 348
#     4  11  24  40  61  87 124 157 202 247 295 359
#     4   9  20  39  63  91 120 153 201 249 299 355
#     4  11  24  41  59  92 121 156 205 248 295 359
#
# _framework density 21.112158000000001
#
# number of rings (size 3 to 8) (size 9 to 14) (size 15 to 20)
#    0.000    2.000    1.538    0.692    4.308    5.846 
#    0.000    0.385    0.000    0.000    0.000    0.000 
#    0.000    0.000    0.000    0.000    0.000    0.000 
#
# Total GULP energy -322207.833172 kJ/mol
# GULP energy per Si atom -12392.608968 kJ/mol
# Density = 2.106411 g / cm^3
# Si number density = 21.112158 Si / 1000 Ang^3
#
#
#
# Elastic Constant Matrix: (Units=GPa)
#
#
# Indices 1 2 3 4 5 6 
#
# 1 83.9274 29.3366 75.1530 0.0000 15.6827 0.0000
# 2 29.3366 77.0203 39.7495 0.0000 1.3955 0.0000
# 3 75.1530 39.7495 193.0243 0.0000 7.5437 0.0000
# 4 0.0000 0.0000 0.0000 31.6887 0.0000 -2.4827
# 5 15.6827 1.3955 7.5437 0.0000 42.1478 0.0000
# 6 0.0000 0.0000 0.0000 -2.4827 0.0000 23.4248
#
#
#
# Elastic Compliance Matrix: (Units=1/GPa)
#
#
# Indices 1 2 3 4 5 6 
#
# 1 0.020844 -0.004212 -0.007000 0.000000 -0.006364 0.000000
# 2 -0.004212 0.015379 -0.001580 0.000000 0.001341 0.000000
# 3 -0.007000 -0.001580 0.008185 0.000000 0.001192 0.000000
# 4 0.000000 0.000000 0.000000 0.031821 0.000000 0.003373
# 5 -0.006364 0.001341 0.001192 0.000000 0.025836 0.000000
# 6 0.000000 0.000000 0.000000 0.003373 0.000000 0.043047
#
#
# Mechanical properties :
#
#
# Convention : Reuss Voigt Hill
#
# Bulk Modulus (GPa) = 53.11834 71.38337 62.25086
# Shear Modulus (GPa) = 28.25359 33.43448 30.84403
#
# Velocity S-wave (km/s) = 3.66219 3.98384 3.82640
# Velocity P-wave (km/s) = 6.56482 7.41931 7.00511
#
# Compressibility (1/GPa) = 0.01882589
#
# Stress axis : x y z
#
# Youngs Moduli (GPa) = 47.97524 65.02499 122.18052
#
# Poissons Ratio (x) = 0.27387 0.85520
# Poissons Ratio (y) = 0.20206 0.19299
# Poissons Ratio (z) = 0.33580 0.10271
#
# Static dielectric constant tensor:
#      x y z
#    x 3.369720 0.000000 -0.041910 
#    y 0.000000 4.182170 0.000000 
#    z -0.041910 0.000000 4.344380 
# 
# 
# High freq. dielectric constant tensor:
#      x y z
#    x 1.791550 0.000000 0.000230 
#    y 0.000000 1.825990 0.000000 
#    z 0.000230 0.000000 1.852160 
# 
# From -- ./inp_files/143631.got.cif
#   From: 2010.06.25/outbox.cif.g09.slc.cpg/sg12_72_cif.got.tgz:143631.got - 2010.06.28 00:19:55.
