data_PCOD8109301
_publ_section_title
;
Structure prediction by ZEFSAII (Michael W. Deem and Ramdas Pophale) SiO2 
 PCOD8109301
Probable space group: C 2/M
;
_chemical_formula_sum "Si O2"
_cell_formula_units_Z 40
_cell_length_a 14.807459
_cell_length_b 8.796826
_cell_length_c 32.690370
_cell_angle_alpha 90.000000
_cell_angle_beta 153.344729
_cell_angle_gamma 90.000000
_cell_volume 1910.321207
_symmetry_space_group_name_H-M "C 2/M"
_symmetry_group_IT_number 12
_symmetry_cell_setting 'monoclinic'
loop_
_space_group_symop_operation_xyz
x,y,z
-x,y,-z
-x,-y,-z
x,-y,z
1/2+x,1/2+y,z
1/2-x,1/2+y,-z
1/2-x,1/2-y,-z
1/2+x,1/2-y,z
loop_
_atom_site_type_symbol
_atom_site_label
_atom_site_fract_x
_atom_site_fract_y
_atom_site_fract_z
Si Si1 0.021461 0.167902 0.580652
Si Si2 0.583475 0.819339 0.217825
Si Si3 0.713656 0.821919 0.777321
Si Si4 0.790098 0.324981 0.892663
Si Si5 0.835351 0.832067 0.594820
O O1 0.248531 0.228272 0.680167
O O2 0.912950 0.162573 0.580245
O O3 0.895644 0.272957 0.498514
O O4 0.027311 0.000000 0.563862
O O5 0.655249 0.771908 0.201930
O O6 0.380602 0.730670 0.145319
O O7 0.549378 0.000000 0.204572
O O8 0.793681 0.780359 0.854318
O O9 0.477418 0.778111 0.678924
O O10 0.738940 0.000000 0.779387
O O11 0.752344 0.500000 0.865219
O O12 0.000000 0.303284 0.000000
O O13 0.839297 0.000000 0.615991
#
# Coordination Sequence:
#
# PCOD8109301 Si02
#       5
#     8   8   8   8   8
#     4   8  15  28  49  80 116 153 191 232 282 339
#     4  10  21  39  63  90 121 156 196 242 291 348
#     4  11  22  38  62  89 120 158 197 240 291 348
#     4  11  25  44  64  87 116 150 193 247 302 355
#     4   9  16  28  50  81 117 155 194 236 282 337
#
# _framework density 20.938886
#
# number of rings (size 3 to 8) (size 9 to 14) (size 15 to 20)
#    0.000    2.200    0.000    4.800    0.000    8.000 
#    0.000    1.000    0.000    6.000    0.000    0.000 
#    0.000    0.000    0.000    0.000    0.000    0.000 
#
# Total GULP energy -247995.249247 kJ/mol
# GULP energy per Si atom -12399.762462 kJ/mol
# Density = 2.089123 g / cm^3
# Si number density = 20.938886 Si / 1000 Ang^3
#
#
#
# Elastic Constant Matrix: (Units=GPa)
#
#
# Indices 1 2 3 4 5 6 
#
# 1 62.7823 6.1640 44.6810 0.0003 29.9036 -0.0003
# 2 6.1640 101.8696 45.8037 0.0002 -7.3678 -0.0002
# 3 44.6810 45.8037 126.1128 0.0003 35.0421 -0.0002
# 4 0.0003 0.0002 0.0003 36.7368 0.0006 0.4176
# 5 29.9036 -7.3678 35.0421 0.0006 93.9299 -0.0006
# 6 -0.0003 -0.0002 -0.0002 0.4176 -0.0006 26.4606
#
#
#
# Elastic Compliance Matrix: (Units=1/GPa)
#
#
# Indices 1 2 3 4 5 6 
#
# 1 0.023316 0.001707 -0.007648 0.000000 -0.004436 0.000000
# 2 0.001707 0.012557 -0.005900 0.000000 0.002642 0.000000
# 3 -0.007648 -0.005900 0.013649 0.000000 -0.003120 0.000000
# 4 0.000000 0.000000 0.000000 0.027226 0.000000 -0.000430
# 5 -0.004436 0.002642 -0.003120 0.000000 0.013430 0.000000
# 6 0.000000 0.000000 0.000000 -0.000430 0.000000 0.037799
#
#
# Mechanical properties :
#
#
# Convention : Reuss Voigt Hill
#
# Bulk Modulus (GPa) = 38.69896 53.78467 46.24181
# Shear Modulus (GPa) = 31.19705 44.36651 37.78178
#
# Velocity S-wave (km/s) = 3.86412 4.60810 4.25241
# Velocity P-wave (km/s) = 6.19924 7.35221 6.80021
#
# Compressibility (1/GPa) = 0.02584049
#
# Stress axis : x y z
#
# Youngs Moduli (GPa) = 42.88816 79.63679 73.26629
#
# Poissons Ratio (x) = -0.13596 0.56037
# Poissons Ratio (y) = -0.07322 0.43226
# Poissons Ratio (z) = 0.32803 0.46984
#
# Static dielectric constant tensor:
#      x y z
#    x 3.468840 0.000000 0.173080 
#    y 0.000000 3.959340 0.000000 
#    z 0.173080 0.000000 3.925740 
# 
# 
# High freq. dielectric constant tensor:
#      x y z
#    x 1.800990 0.000000 0.006170 
#    y 0.000000 1.827540 0.000000 
#    z 0.006170 0.000000 1.821320 
# 
# From -- ./inp_files/151869.got.cif
#   From: 2010.06.25/outbox.cif.g09.slc.cpg/sg12_76_cif.got.tgz:151869.got - 2010.06.28 00:19:55.
