data_PCOD8109733
_publ_section_title
;
Structure prediction by ZEFSAII (Michael W. Deem and Ramdas Pophale) SiO2 
 PCOD8109733
Probable space group: C 2/M
;
_chemical_formula_sum "Si O2"
_cell_formula_units_Z 64
_cell_length_a 34.144475
_cell_length_b 9.231680
_cell_length_c 15.310726
_cell_angle_alpha 90.000000
_cell_angle_beta 43.519211
_cell_angle_gamma 90.000000
_cell_volume 3323.246578
_symmetry_space_group_name_H-M "C 2/M"
_symmetry_group_IT_number 12
_symmetry_cell_setting 'monoclinic'
loop_
_space_group_symop_operation_xyz
x,y,z
-x,y,-z
-x,-y,-z
x,-y,z
1/2+x,1/2+y,z
1/2-x,1/2+y,-z
1/2-x,1/2-y,-z
1/2+x,1/2-y,z
loop_
_atom_site_type_symbol
_atom_site_label
_atom_site_fract_x
_atom_site_fract_y
_atom_site_fract_z
Si Si1 0.645022 0.169472 0.266254
Si Si2 0.748630 0.329874 0.172791
Si Si3 0.535031 0.831897 0.858068
Si Si4 0.019042 0.170214 0.214412
Si Si5 0.543002 0.668784 0.506514
Si Si6 0.372518 0.167470 0.905711
Si Si7 0.763862 0.830339 0.607980
Si Si8 0.834753 0.332468 0.361189
O O1 0.706255 0.241570 0.179795
O O2 0.600611 0.240024 0.405168
O O3 0.624410 0.201526 0.201753
O O4 0.649885 0.000000 0.277465
O O5 0.737184 0.500000 0.178993
O O6 0.740180 0.279306 0.285941
O O7 0.811629 0.287809 0.041620
O O8 0.515049 0.734524 0.810913
O O9 0.600961 0.797485 0.770177
O O10 0.525297 0.000000 0.850428
O O11 0.500000 0.786927 0.000000
O O12 0.081538 0.237955 0.117601
O O13 0.984515 0.209843 0.357144
O O14 0.025632 0.000000 0.191570
O O15 0.500000 0.715428 0.500000
O O16 0.558616 0.500000 0.474504
O O17 0.385489 0.000000 0.903978
O O18 0.817778 0.754039 0.475871
O O19 0.705392 0.784908 0.654356
O O20 0.774449 0.000000 0.584793
O O21 0.826427 0.500000 0.396753
#
# Coordination Sequence:
#
# PCOD8109733 Si02
#       8
#     8   8   8   8   8   8   8   8
#     4  11  23  37  58  89 121 153 196 249 294 343
#     4  10  22  38  60  85 115 156 197 239 291 356
#     4  10  23  41  64  89 119 159 197 241 298 361
#     4  11  24  40  62  90 120 157 201 250 300 353
#     4  10  21  40  62  85 118 161 201 241 297 362
#     4  10  22  40  61  85 117 158 200 242 293 352
#     4   9  19  36  59  84 109 147 192 235 286 344
#     4   9  19  37  59  84 113 145 188 237 286 340
#
# _framework density 19.258277
#
# number of rings (size 3 to 8) (size 9 to 14) (size 15 to 20)
#    0.000    2.000    1.250    1.125    3.500    3.500 
#    0.000    0.000    0.000    0.000    0.000    0.000 
#    0.000    0.000    0.000    0.000    0.000    0.000 
#
# Total GULP energy -396978.056595 kJ/mol
# GULP energy per Si atom -12405.564269 kJ/mol
# Density = 1.921444 g / cm^3
# Si number density = 19.258277 Si / 1000 Ang^3
#
#
#
# Elastic Constant Matrix: (Units=GPa)
#
#
# Indices 1 2 3 4 5 6 
#
# 1 74.7735 34.2247 35.1789 0.0000 -6.2759 0.0000
# 2 34.2247 54.0456 40.7252 0.0001 -3.0164 -0.0001
# 3 35.1789 40.7252 117.8499 0.0000 -10.7346 0.0000
# 4 0.0000 0.0001 0.0000 30.7323 0.0000 -2.4834
# 5 -6.2759 -3.0164 -10.7346 0.0000 28.8124 0.0000
# 6 0.0000 -0.0001 0.0000 -2.4834 0.0000 34.6509
#
#
#
# Elastic Compliance Matrix: (Units=1/GPa)
#
#
# Indices 1 2 3 4 5 6 
#
# 1 0.019357 -0.010729 -0.001852 0.000000 0.002403 0.000000
# 2 -0.010729 0.030974 -0.007679 0.000000 -0.001955 0.000000
# 3 -0.001852 -0.007679 0.011989 0.000000 0.003259 0.000000
# 4 0.000000 0.000000 0.000000 0.032729 0.000000 0.002346
# 5 0.002403 -0.001955 0.003259 0.000000 0.036240 0.000000
# 6 0.000000 0.000000 0.000000 0.002346 0.000000 0.029027
#
#
# Mechanical properties :
#
#
# Convention : Reuss Voigt Hill
#
# Bulk Modulus (GPa) = 45.86972 51.88074 48.87523
# Shear Modulus (GPa) = 24.02654 27.94179 25.98417
#
# Velocity S-wave (km/s) = 3.53596 3.81320 3.67719
# Velocity P-wave (km/s) = 6.36715 6.81067 6.59264
#
# Compressibility (1/GPa) = 0.02180088
#
# Stress axis : x y z
#
# Youngs Moduli (GPa) = 51.66012 32.28486 83.41129
#
# Poissons Ratio (x) = 0.34637 0.15447
# Poissons Ratio (y) = 0.55424 0.64054
# Poissons Ratio (z) = 0.09567 0.24792
#
# Static dielectric constant tensor:
#      x y z
#    x 3.532060 0.000000 0.001100 
#    y 0.000000 3.433430 0.000000 
#    z 0.001100 0.000000 3.619450 
# 
# 
# High freq. dielectric constant tensor:
#      x y z
#    x 1.754070 0.000000 -0.003550 
#    y 0.000000 1.743830 0.000000 
#    z -0.003550 0.000000 1.759260 
# 
# From -- ./inp_files/249821.got.cif
#   From: 2010.06.25/outbox.cif.g09.slc.cpg/sg12_125_cif.got.tgz:249821.got - 2010.06.28 00:19:55.
