data_PCOD8109026
_publ_section_title
;
Structure prediction by ZEFSAII (Michael W. Deem and Ramdas Pophale) SiO2 
 PCOD8109026
Probable space group: C 2/M
;
_chemical_formula_sum "Si O2"
_cell_formula_units_Z 44
_cell_length_a 27.089220
_cell_length_b 9.458129
_cell_length_c 26.733399
_cell_angle_alpha 90.000000
_cell_angle_beta 16.216918
_cell_angle_gamma 90.000000
_cell_volume 1912.878655
_symmetry_space_group_name_H-M "C 2/M"
_symmetry_group_IT_number 12
_symmetry_cell_setting 'monoclinic'
loop_
_space_group_symop_operation_xyz
x,y,z
-x,y,-z
-x,-y,-z
x,-y,z
1/2+x,1/2+y,z
1/2-x,1/2+y,-z
1/2-x,1/2-y,-z
1/2+x,1/2-y,z
loop_
_atom_site_type_symbol
_atom_site_label
_atom_site_fract_x
_atom_site_fract_y
_atom_site_fract_z
Si Si1 0.377942 0.657267 0.164766
Si Si2 0.432064 0.652718 0.670223
Si Si3 0.000000 0.734254 0.500000
Si Si4 0.159557 0.659299 0.705458
Si Si5 0.494220 0.340945 0.231709
Si Si6 0.372248 0.157518 0.814669
O O1 0.435296 0.500000 0.126164
O O2 0.168186 0.645873 0.356034
O O3 0.422315 0.766421 0.165790
O O4 0.500000 0.706910 0.000000
O O5 0.347241 0.500000 0.765597
O O6 0.419310 0.672417 0.623194
O O7 0.633111 0.654397 0.491160
O O8 0.333060 0.774296 0.798202
O O9 0.080838 0.500000 0.777111
O O10 0.122488 0.751768 0.692825
O O11 0.417043 0.500000 0.314456
O O12 0.492338 0.257587 0.286385
O O13 0.691647 0.353500 0.019918
O O14 0.453219 0.000000 0.729000
#
# Coordination Sequence:
#
# PCOD8109026 Si02
#       6
#     8   8   4   8   8   8
#     4  10  22  39  60  88 121 161 208 255 306 365
#     4  10  22  40  61  86 119 158 200 247 301 359
#     4  10  22  40  62  90 124 164 206 258 304 362
#     4  10  22  39  59  86 119 155 198 246 299 360
#     4  10  21  39  61  87 120 155 196 248 298 357
#     4  10  22  38  60  89 118 154 200 244 300 363
#
# _framework density 23.001981000000001
#
# number of rings (size 3 to 8) (size 9 to 14) (size 15 to 20)
#    0.000    2.000    0.000    2.182    2.545    8.364 
#    0.000    0.000    0.000    0.000    0.000    0.000 
#    0.000    0.000    0.000    0.000    0.000    0.000 
#
# Total GULP energy -272744.512784 kJ/mol
# GULP energy per Si atom -12397.477854 kJ/mol
# Density = 2.294963 g / cm^3
# Si number density = 23.001981 Si / 1000 Ang^3
#
#
#
# Elastic Constant Matrix: (Units=GPa)
#
#
# Indices 1 2 3 4 5 6 
#
# 1 114.0779 63.1940 -1.6911 -0.1455 14.6817 0.0360
# 2 63.1940 202.8852 7.6106 -0.0842 17.1101 0.0376
# 3 -1.6911 7.6106 27.1704 -0.3516 12.2946 0.0626
# 4 -0.1455 -0.0842 -0.3516 -63.4295 0.1337 22.7155
# 5 14.6817 17.1101 12.2946 0.1337 34.5421 -0.0216
# 6 0.0360 0.0376 0.0626 22.7155 -0.0216 20.6185
#
#
#
# Elastic Compliance Matrix: (Units=1/GPa)
#
#
# Indices 1 2 3 4 5 6 
#
# 1 0.011188 -0.003247 0.003611 -0.000044 -0.004432 0.000019
# 2 -0.003247 0.006089 -0.001391 0.000003 -0.001141 -0.000005
# 3 0.003611 -0.001391 0.045054 -0.000250 -0.016881 0.000117
# 4 -0.000044 0.000003 -0.000250 -0.011304 0.000158 0.012454
# 5 -0.004432 -0.001141 -0.016881 0.000158 0.037407 -0.000073
# 6 0.000019 -0.000005 0.000117 0.012454 -0.000073 0.034779
#
#
# Mechanical properties :
#
#
# Convention : Reuss Voigt Hill
#
# Bulk Modulus (GPa) = 16.59010 53.59560 35.09285
# Shear Modulus (GPa) = 34.39749 16.68089 25.53919
#
# Velocity S-wave (km/s) = 3.87125 2.69586 3.33574
# Velocity P-wave (km/s) = 5.21635 5.74815 5.48869
#
# Compressibility (1/GPa) = 0.06027690
#
# Stress axis : x y z
#
# Youngs Moduli (GPa) = 89.37921 164.24347 22.19548
#
# Poissons Ratio (x) = 0.53323 -0.08014
# Poissons Ratio (y) = 0.29018 0.03088
# Poissons Ratio (z) = -0.32273 0.22850
#
# Static dielectric constant tensor:
#      x y z
#    x 4.276090 -0.000060 0.105690 
#    y -0.000060 4.569870 0.000180 
#    z 0.105690 0.000180 3.860450 
# 
# 
# High freq. dielectric constant tensor:
#      x y z
#    x 1.911050 0.000000 0.008510 
#    y 0.000000 1.916410 0.000010 
#    z 0.008510 0.000010 1.894100 
# 
# From -- ./inp_files/368993.got.cif
#   From: 2010.06.25/outbox.cif.g09.slc.cpg/sg12_185_cif.got.tgz:368993.got - 2010.06.28 00:19:55.
