data_PCOD8109699
_publ_section_title
;
Structure prediction by ZEFSAII (Michael W. Deem and Ramdas Pophale) SiO2 
 PCOD8109699
Probable space group: C 2/M
;
_chemical_formula_sum "Si O2"
_cell_formula_units_Z 64
_cell_length_a 11.961738
_cell_length_b 13.760617
_cell_length_c 18.513620
_cell_angle_alpha 90.000000
_cell_angle_beta 89.886364
_cell_angle_gamma 90.000000
_cell_volume 3047.352433
_symmetry_space_group_name_H-M "C 2/M"
_symmetry_group_IT_number 12
_symmetry_cell_setting 'monoclinic'
loop_
_space_group_symop_operation_xyz
x,y,z
-x,y,-z
-x,-y,-z
x,-y,z
1/2+x,1/2+y,z
1/2-x,1/2+y,-z
1/2-x,1/2-y,-z
1/2+x,1/2-y,z
loop_
_atom_site_type_symbol
_atom_site_label
_atom_site_fract_x
_atom_site_fract_y
_atom_site_fract_z
Si Si1 0.594321 0.704878 0.287894
Si Si2 0.637568 0.613272 0.698091
Si Si3 0.260924 0.113020 0.399018
Si Si4 0.483351 0.890577 0.640543
Si Si5 0.241466 0.759029 0.822712
Si Si6 0.399038 0.889545 0.097864
Si Si7 0.653319 0.889271 0.062520
Si Si8 0.234784 0.387732 0.441677
O O1 0.495090 0.627523 0.295662
O O2 0.688896 0.678780 0.345954
O O3 0.546945 0.813920 0.297297
O O4 0.649181 0.702610 0.207986
O O5 0.666494 0.500000 0.705035
O O6 0.699775 0.667786 0.762001
O O7 0.685803 0.655762 0.621923
O O8 0.391797 0.128019 0.385363
O O9 0.236329 0.155777 0.479324
O O10 0.228252 0.000000 0.390096
O O11 0.396977 0.874127 0.574723
O O12 0.469179 0.000000 0.672046
O O13 0.147515 0.679338 0.839484
O O14 0.264426 0.817510 0.895903
O O15 0.528037 0.865678 0.086752
O O16 0.382431 0.000000 0.123815
O O17 0.332821 0.872211 0.023022
O O18 0.684398 0.000000 0.081744
O O19 0.264178 0.500000 0.448153
#
# Coordination Sequence:
#
# PCOD8109699 Si02
#       8
#     8   8   8   8   8   8   8   8
#     4  12  25  39  56  89 120 160 201 242 295 354
#     4  11  24  42  59  83 122 159 199 248 298 351
#     4  10  22  41  63  84 111 152 203 255 309 358
#     4  10  21  40  61  84 113 146 194 254 308 357
#     4  12  22  38  60  89 120 162 197 232 287 354
#     4   9  20  39  63  92 123 151 188 242 288 334
#     4   9  19  38  65  93 118 150 194 240 287 338
#     4   9  19  40  64  83 109 151 200 257 308 351
#
# _framework density 21.001837999999999
#
# number of rings (size 3 to 8) (size 9 to 14) (size 15 to 20)
#    0.000    1.750    1.250    3.750    0.000    4.000 
#    2.250    5.000    0.000    0.000    0.000    7.875 
#    0.000    0.000    0.000    0.000    0.000    0.000 
#
# Total GULP energy -396794.138383 kJ/mol
# GULP energy per Si atom -12399.816824 kJ/mol
# Density = 2.095404 g / cm^3
# Si number density = 21.001838 Si / 1000 Ang^3
#
#
#
# Elastic Constant Matrix: (Units=GPa)
#
#
# Indices 1 2 3 4 5 6 
#
# 1 78.9080 23.8863 13.4105 0.0000 -9.3541 0.0000
# 2 23.8863 81.5720 24.3062 0.0000 -13.1707 0.0000
# 3 13.4105 24.3062 57.8474 0.0000 -11.5070 0.0000
# 4 0.0000 0.0000 0.0000 12.4081 0.0000 -0.0620
# 5 -9.3541 -13.1707 -11.5070 0.0000 31.4450 0.0000
# 6 0.0000 0.0000 0.0000 -0.0620 0.0000 34.7996
#
#
#
# Elastic Compliance Matrix: (Units=1/GPa)
#
#
# Indices 1 2 3 4 5 6 
#
# 1 0.014206 -0.003365 -0.001423 0.000000 0.002296 0.000000
# 2 -0.003365 0.015295 -0.004930 0.000000 0.003601 0.000000
# 3 -0.001423 -0.004930 0.020700 0.000000 0.005087 0.000000
# 4 0.000000 0.000000 0.000000 0.080593 0.000000 0.000144
# 5 0.002296 0.003601 0.005087 0.000000 0.035854 0.000000
# 6 0.000000 0.000000 0.000000 0.000144 0.000000 0.028736
#
#
# Mechanical properties :
#
#
# Convention : Reuss Voigt Hill
#
# Bulk Modulus (GPa) = 32.50467 37.94815 35.22641
# Shear Modulus (GPa) = 22.21478 26.17883 24.19680
#
# Velocity S-wave (km/s) = 3.25584 3.53441 3.39798
# Velocity P-wave (km/s) = 5.44469 5.89613 5.67490
#
# Compressibility (1/GPa) = 0.03076481
#
# Stress axis : x y z
#
# Youngs Moduli (GPa) = 70.39495 65.38079 48.30901
#
# Poissons Ratio (x) = 0.22002 0.06872
# Poissons Ratio (y) = 0.23689 0.23817
# Poissons Ratio (z) = 0.10014 0.32234
#
# Static dielectric constant tensor:
#      x y z
#    x 3.775500 0.000000 -0.109240 
#    y 0.000000 3.843480 0.000000 
#    z -0.109240 0.000000 3.843010 
# 
# 
# High freq. dielectric constant tensor:
#      x y z
#    x 1.817990 0.000000 -0.002450 
#    y 0.000000 1.832230 0.000000 
#    z -0.002450 0.000000 1.816280 
# 
# From -- ./inp_files/263352.got.cif
#   From: 2010.06.25/outbox.cif.g09.slc.cpg/sg12_132_cif.got.tgz:263352.got - 2010.06.28 00:19:55.
