data_PCOD8109591
_publ_section_title
;
Structure prediction by ZEFSAII (Michael W. Deem and Ramdas Pophale) SiO2 
 PCOD8109591
Probable space group: C 2/M
;
_chemical_formula_sum "Si O2"
_cell_formula_units_Z 40
_cell_length_a 20.134556
_cell_length_b 9.498756
_cell_length_c 22.853443
_cell_angle_alpha 90.000000
_cell_angle_beta 152.407444
_cell_angle_gamma 90.000000
_cell_volume 2024.468686
_symmetry_space_group_name_H-M "C 2/M"
_symmetry_group_IT_number 12
_symmetry_cell_setting 'monoclinic'
loop_
_space_group_symop_operation_xyz
x,y,z
-x,y,-z
-x,-y,-z
x,-y,z
1/2+x,1/2+y,z
1/2-x,1/2+y,-z
1/2-x,1/2-y,-z
1/2+x,1/2-y,z
loop_
_atom_site_type_symbol
_atom_site_label
_atom_site_fract_x
_atom_site_fract_y
_atom_site_fract_z
Si Si1 0.458177 0.500000 0.063303
Si Si2 0.025048 0.698740 0.584663
Si Si3 0.229585 0.000000 0.193012
Si Si4 0.469879 0.500000 0.703326
Si Si5 0.417842 0.725954 0.128950
Si Si6 0.095495 0.500000 0.292581
Si Si7 0.069184 0.000000 0.462366
Si Si8 0.143426 0.500000 0.467531
O O1 0.601021 0.500000 0.137526
O O2 0.457351 0.639255 0.101925
O O3 0.321033 0.500000 0.913688
O O4 0.179607 0.642871 0.726327
O O5 0.000000 0.638548 0.500000
O O6 0.008013 0.866335 0.568860
O O7 0.909483 0.639599 0.540616
O O8 0.547868 0.640132 0.785703
O O9 0.473855 0.500000 0.637938
O O10 0.311721 0.500000 0.605746
O O11 0.511153 0.866985 0.201174
O O12 0.250000 0.750000 0.000000
O O13 0.258306 0.500000 0.395151
O O14 0.092057 0.500000 0.360304
#
# Coordination Sequence:
#
# PCOD8109591 Si02
#       8
#     4   8   4   4   8   4   4   4
#     4  10  25  45  65  88 120 169 216 251 298 366
#     4  11  24  38  66  92 125 161 207 255 310 364
#     4  10  24  45  67  86 117 171 219 254 287 365
#     4  10  22  39  63  90 126 164 204 254 318 370
#     4  11  24  38  65  94 127 163 206 256 311 370
#     4  11  23  40  64  96 132 160 199 263 323 371
#     4  11  24  40  61  97 132 160 195 265 330 370
#     4  10  21  39  66  93 120 166 210 254 305 375
#
# _framework density 19.758271000000001
#
# number of rings (size 3 to 8) (size 9 to 14) (size 15 to 20)
#    0.000    1.400    0.000    5.100   16.800    3.200 
#    0.000    0.000    0.000    2.400    0.000    0.000 
#    0.000    0.000    0.000    0.000    0.000    0.000 
#
# Total GULP energy -248027.966479 kJ/mol
# GULP energy per Si atom -12401.398324 kJ/mol
# Density = 1.971330 g / cm^3
# Si number density = 19.758271 Si / 1000 Ang^3
#
#
#
# Elastic Constant Matrix: (Units=GPa)
#
#
# Indices 1 2 3 4 5 6 
#
# 1 84.0182 35.0267 51.1840 0.0004 -5.7120 0.0001
# 2 35.0267 165.3121 68.6755 0.0007 0.0492 0.0003
# 3 51.1840 68.6755 156.8889 0.0012 0.4431 0.0006
# 4 0.0004 0.0007 0.0012 23.5052 0.0007 -1.9808
# 5 -5.7120 0.0492 0.4431 0.0007 28.7412 0.0003
# 6 0.0001 0.0003 0.0006 -1.9808 0.0003 22.6941
#
#
#
# Elastic Compliance Matrix: (Units=1/GPa)
#
#
# Indices 1 2 3 4 5 6 
#
# 1 0.015396 -0.001433 -0.004404 0.000000 0.003130 0.000000
# 2 -0.001433 0.007527 -0.002827 0.000000 -0.000254 0.000000
# 3 -0.004404 -0.002827 0.009051 0.000000 -0.001010 0.000000
# 4 0.000000 0.000000 0.000000 0.042859 -0.000001 0.003741
# 5 0.003130 -0.000254 -0.001010 -0.000001 0.035431 -0.000001
# 6 0.000000 0.000000 0.000000 0.003741 -0.000001 0.044391
#
#
# Mechanical properties :
#
#
# Convention : Reuss Voigt Hill
#
# Bulk Modulus (GPa) = 68.28020 79.55462 73.91741
# Shear Modulus (GPa) = 28.27020 31.74363 30.00691
#
# Velocity S-wave (km/s) = 3.78670 4.01259 3.90128
# Velocity P-wave (km/s) = 7.33155 7.86252 7.60167
#
# Compressibility (1/GPa) = 0.01464554
#
# Stress axis : x y z
#
# Youngs Moduli (GPa) = 64.95395 132.85194 110.48660
#
# Poissons Ratio (x) = 0.19043 0.48659
# Poissons Ratio (y) = 0.09310 0.31230
# Poissons Ratio (z) = 0.28606 0.37551
#
# Static dielectric constant tensor:
#      x y z
#    x 3.605570 0.000000 -0.086280 
#    y 0.000000 3.776060 0.000000 
#    z -0.086280 0.000000 3.814960 
# 
# 
# High freq. dielectric constant tensor:
#      x y z
#    x 1.776240 0.000000 -0.005180 
#    y 0.000000 1.778380 0.000000 
#    z -0.005180 0.000000 1.783560 
# 
# From -- ./inp_files/346411.got.cif
#   From: 2010.06.25/outbox.cif.g09.slc.cpg/sg12_174_cif.got.tgz:346411.got - 2010.06.28 00:19:55.
