data_PCOD8109462
_publ_section_title
;
Structure prediction by ZEFSAII (Michael W. Deem and Ramdas Pophale) SiO2 
 PCOD8109462
Probable space group: C 2/M
;
_chemical_formula_sum "Si O2"
_cell_formula_units_Z 56
_cell_length_a 18.904019
_cell_length_b 8.626098
_cell_length_c 19.292814
_cell_angle_alpha 90.000000
_cell_angle_beta 66.138838
_cell_angle_gamma 90.000000
_cell_volume 2877.141975
_symmetry_space_group_name_H-M "C 2/M"
_symmetry_group_IT_number 12
_symmetry_cell_setting 'monoclinic'
loop_
_space_group_symop_operation_xyz
x,y,z
-x,y,-z
-x,-y,-z
x,-y,z
1/2+x,1/2+y,z
1/2-x,1/2+y,-z
1/2-x,1/2-y,-z
1/2+x,1/2-y,z
loop_
_atom_site_type_symbol
_atom_site_label
_atom_site_fract_x
_atom_site_fract_y
_atom_site_fract_z
Si Si1 0.071696 0.677853 0.926853
Si Si2 0.730548 0.824239 0.935910
Si Si3 0.354430 0.823483 0.795971
Si Si4 0.943561 0.318237 0.584176
Si Si5 0.500385 0.320879 0.296052
Si Si6 0.298304 0.318423 0.682852
Si Si7 0.868872 0.818255 0.240779
O O1 0.054596 0.500000 0.913353
O O2 0.141064 0.690678 0.953800
O O3 0.091721 0.765190 0.847239
O O4 0.000000 0.748220 0.000000
O O5 0.776365 0.728976 0.861768
O O6 0.759016 0.000000 0.923970
O O7 0.750000 0.750000 0.000000
O O8 0.430123 0.723058 0.785264
O O9 0.336591 0.796761 0.723164
O O10 0.372404 0.000000 0.807046
O O11 0.925068 0.500000 0.591753
O O12 0.989374 0.275670 0.637427
O O13 0.862877 0.221726 0.598819
O O14 0.000000 0.271285 0.500000
O O15 0.504900 0.500000 0.313820
O O16 0.422604 0.280550 0.285262
O O17 0.300365 0.500000 0.702284
O O18 0.209609 0.271217 0.707313
O O19 0.851971 0.000000 0.240333
#
# Coordination Sequence:
#
# PCOD8109462 Si02
#       7
#     8   8   8   8   8   8   8
#     4  10  23  41  59  82 114 155 201 246 299 354
#     4  11  23  38  56  81 113 149 193 246 299 351
#     4  11  21  36  58  82 111 150 194 243 292 344
#     4  10  21  39  64  93 123 155 193 238 289 348
#     4  10  22  38  59  89 120 153 196 241 289 348
#     4  11  21  36  61  88 116 154 195 236 287 347
#     4  11  23  39  60  87 119 156 199 245 294 350
#
# _framework density 19.463759
#
# number of rings (size 3 to 8) (size 9 to 14) (size 15 to 20)
#    0.000    1.429    1.429    6.000    2.000    4.286 
#    0.000    0.714    0.000    0.000    0.000    0.000 
#    0.000    0.000    0.000    0.000    0.000    0.000 
#
# Total GULP energy -346944.729425 kJ/mol
# GULP energy per Si atom -12390.883194 kJ/mol
# Density = 1.941946 g / cm^3
# Si number density = 19.463759 Si / 1000 Ang^3
#
#
#
# Elastic Constant Matrix: (Units=GPa)
#
#
# Indices 1 2 3 4 5 6 
#
# 1 119.6798 48.0725 54.0478 0.0001 -18.6775 0.0001
# 2 48.0725 65.0781 38.4761 0.0003 -3.6955 0.0004
# 3 54.0478 38.4761 99.0027 0.0001 -24.4321 0.0001
# 4 0.0001 0.0003 0.0001 30.3801 0.0001 -4.0760
# 5 -18.6775 -3.6955 -24.4321 0.0001 33.5696 0.0001
# 6 0.0001 0.0004 0.0001 -4.0760 0.0001 31.4225
#
#
#
# Elastic Compliance Matrix: (Units=1/GPa)
#
#
# Indices 1 2 3 4 5 6 
#
# 1 0.013720 -0.007909 -0.003349 0.000000 0.004326 0.000000
# 2 -0.007909 0.025008 -0.007079 0.000000 -0.006800 0.000000
# 3 -0.003349 -0.007079 0.017099 0.000000 0.009802 0.000000
# 4 0.000000 0.000000 0.000000 0.033499 0.000000 0.004345
# 5 0.004326 -0.006800 0.009802 0.000000 0.038581 0.000000
# 6 0.000000 0.000000 0.000000 0.004345 0.000000 0.032388
#
#
# Mechanical properties :
#
#
# Convention : Reuss Voigt Hill
#
# Bulk Modulus (GPa) = 52.21218 62.77259 57.49239
# Shear Modulus (GPa) = 24.58763 28.61873 26.60318
#
# Velocity S-wave (km/s) = 3.55808 3.83869 3.70104
# Velocity P-wave (km/s) = 6.61540 7.20891 6.91852
#
# Compressibility (1/GPa) = 0.01915262
#
# Stress axis : x y z
#
# Youngs Moduli (GPa) = 72.88653 39.98716 58.48245
#
# Poissons Ratio (x) = 0.31627 0.19584
# Poissons Ratio (y) = 0.57648 0.41401
# Poissons Ratio (z) = 0.24407 0.28308
#
# Static dielectric constant tensor:
#      x y z
#    x 3.659800 0.000000 -0.150170 
#    y 0.000000 3.637200 0.000000 
#    z -0.150170 0.000000 3.313360 
# 
# 
# High freq. dielectric constant tensor:
#      x y z
#    x 1.764710 0.000000 -0.020570 
#    y 0.000000 1.768550 0.000000 
#    z -0.020570 0.000000 1.748650 
# 
# From -- ./inp_files/275159.got.cif
#   From: 2010.06.25/outbox.cif.g09.slc.cpg/sg12_138_cif.got.tgz:275159.got - 2010.06.28 00:19:55.
