data_PCOD8109084
_publ_section_title
;
Structure prediction by ZEFSAII (Michael W. Deem and Ramdas Pophale) SiO2 
 PCOD8109084
Probable space group: C 2/M
;
_chemical_formula_sum "Si O2"
_cell_formula_units_Z 56
_cell_length_a 18.665758
_cell_length_b 8.664351
_cell_length_c 29.124398
_cell_angle_alpha 90.000000
_cell_angle_beta 142.555951
_cell_angle_gamma 90.000000
_cell_volume 2863.732808
_symmetry_space_group_name_H-M "C 2/M"
_symmetry_group_IT_number 12
_symmetry_cell_setting 'monoclinic'
loop_
_space_group_symop_operation_xyz
x,y,z
-x,y,-z
-x,-y,-z
x,-y,z
1/2+x,1/2+y,z
1/2-x,1/2+y,-z
1/2-x,1/2-y,-z
1/2+x,1/2-y,z
loop_
_atom_site_type_symbol
_atom_site_label
_atom_site_fract_x
_atom_site_fract_y
_atom_site_fract_z
Si Si1 0.809187 0.820509 0.712180
Si Si2 0.457901 0.323918 0.699816
Si Si3 0.988213 0.679865 0.127865
Si Si4 0.588165 0.679177 0.004212
Si Si5 0.456682 0.183794 0.429180
Si Si6 0.837901 0.820548 0.128761
Si Si7 0.378654 0.180269 0.568014
O O1 0.852966 0.794515 0.682496
O O2 0.676042 0.759715 0.648071
O O3 0.885972 0.720644 0.786303
O O4 0.822363 0.000000 0.732304
O O5 0.455181 0.500000 0.681220
O O6 0.582843 0.282233 0.786483
O O7 0.440955 0.213925 0.647930
O O8 0.981815 0.500000 0.113036
O O9 0.881668 0.722109 0.107709
O O10 0.974825 0.776741 0.074928
O O11 0.622508 0.500000 0.021420
O O12 0.704568 0.779221 0.072158
O O13 0.500000 0.720766 0.000000
O O14 0.500000 0.250851 0.500000
O O15 0.541187 0.248983 0.432225
O O16 0.458354 0.000000 0.431363
O O17 0.851135 0.000000 0.122605
O O18 0.250000 0.250000 0.500000
O O19 0.366011 0.000000 0.554725
#
# Coordination Sequence:
#
# PCOD8109084 Si02
#       7
#     8   8   8   8   8   8   8
#     4   9  18  36  60  82 107 142 186 230 272 324
#     4   9  19  36  58  82 109 141 176 221 274 327
#     4  11  22  37  59  85 115 149 187 230 278 335
#     4  11  24  40  58  82 114 150 189 234 282 333
#     4   9  18  34  56  79 104 140 185 226 267 320
#     4  10  21  39  62  85 112 148 189 230 277 335
#     4  11  22  35  55  81 109 143 182 226 274 326
#
# _framework density 19.554898000000001
#
# number of rings (size 3 to 8) (size 9 to 14) (size 15 to 20)
#    0.000    2.000    0.000    4.714    0.000    7.429 
#    0.000    5.714    0.000    3.000    0.000    0.000 
#    0.000    0.000    0.000    0.000    0.000    0.000 
#
# Total GULP energy -347316.543495 kJ/mol
# GULP energy per Si atom -12404.162268 kJ/mol
# Density = 1.951039 g / cm^3
# Si number density = 19.554898 Si / 1000 Ang^3
#
#
#
# Elastic Constant Matrix: (Units=GPa)
#
#
# Indices 1 2 3 4 5 6 
#
# 1 130.1932 22.2940 77.5532 0.0002 7.9728 -0.0004
# 2 22.2940 35.4360 21.9616 0.0004 2.8182 -0.0010
# 3 77.5532 21.9616 117.2416 0.0000 4.3985 -0.0002
# 4 0.0002 0.0004 0.0000 32.8113 0.0000 0.4618
# 5 7.9728 2.8182 4.3985 0.0000 35.1332 0.0002
# 6 -0.0004 -0.0010 -0.0002 0.4618 0.0002 27.9480
#
#
#
# Elastic Compliance Matrix: (Units=1/GPa)
#
#
# Indices 1 2 3 4 5 6 
#
# 1 0.013094 -0.003138 -0.008010 0.000000 -0.001717 0.000000
# 2 -0.003138 0.032794 -0.004014 0.000000 -0.001416 0.000001
# 3 -0.008010 -0.004014 0.014568 0.000000 0.000316 0.000000
# 4 0.000000 0.000000 0.000000 0.030484 0.000000 -0.000504
# 5 -0.001717 -0.001416 0.000316 0.000000 0.028927 0.000000
# 6 0.000000 0.000001 0.000000 -0.000504 0.000000 0.035789
#
#
# Mechanical properties :
#
#
# Convention : Reuss Voigt Hill
#
# Bulk Modulus (GPa) = 33.18580 58.49872 45.84226
# Shear Modulus (GPa) = 25.50699 29.91596 27.71147
#
# Velocity S-wave (km/s) = 3.61554 3.91557 3.76854
# Velocity P-wave (km/s) = 5.86830 7.10086 6.51380
#
# Compressibility (1/GPa) = 0.03013337
#
# Stress axis : x y z
#
# Youngs Moduli (GPa) = 76.36820 30.49292 68.64488
#
# Poissons Ratio (x) = 0.09568 0.54982
# Poissons Ratio (y) = 0.23961 0.27557
# Poissons Ratio (z) = 0.61168 0.12241
#
# Static dielectric constant tensor:
#      x y z
#    x 3.682780 0.000000 0.029350 
#    y 0.000000 3.383090 0.000000 
#    z 0.029350 0.000000 3.663070 
# 
# 
# High freq. dielectric constant tensor:
#      x y z
#    x 1.762000 0.000000 0.003180 
#    y 0.000000 1.748200 0.000000 
#    z 0.003180 0.000000 1.775190 
# 
# From -- ./inp_files/363204.got.cif
#   From: 2010.06.25/outbox.cif.g09.slc.cpg/sg12_182_cif.got.tgz:363204.got - 2010.06.28 00:19:55.
