data_PCOD8109010
_publ_section_title
;
Structure prediction by ZEFSAII (Michael W. Deem and Ramdas Pophale) SiO2 
 PCOD8109010
Probable space group: C 2/M
;
_chemical_formula_sum "Si O2"
_cell_formula_units_Z 36
_cell_length_a 10.005108
_cell_length_b 16.136909
_cell_length_c 12.149654
_cell_angle_alpha 90.000000
_cell_angle_beta 116.773315
_cell_angle_gamma 90.000000
_cell_volume 1751.290282
_symmetry_space_group_name_H-M "C 2/M"
_symmetry_group_IT_number 12
_symmetry_cell_setting 'monoclinic'
loop_
_space_group_symop_operation_xyz
x,y,z
-x,y,-z
-x,-y,-z
x,-y,z
1/2+x,1/2+y,z
1/2-x,1/2+y,-z
1/2-x,1/2-y,-z
1/2+x,1/2-y,z
loop_
_atom_site_type_symbol
_atom_site_label
_atom_site_fract_x
_atom_site_fract_y
_atom_site_fract_z
Si Si1 0.431826 0.594243 0.639415
Si Si2 0.000000 0.707186 0.000000
Si Si3 0.220121 0.854322 0.633144
Si Si4 0.548423 0.904408 0.815448
Si Si5 0.710717 0.309329 0.227865
O O1 0.378800 0.500000 0.630867
O O2 0.328057 0.639699 0.511293
O O3 0.605040 0.596279 0.668523
O O4 0.412562 0.639622 0.748990
O O5 0.869532 0.764927 0.904029
O O6 0.072621 0.648717 0.934485
O O7 0.381474 0.895099 0.707799
O O8 0.214558 0.758371 0.664936
O O9 0.661684 0.871417 0.765367
O O10 0.584068 0.000000 0.853977
#
# Coordination Sequence:
#
# PCOD8109010 Si02
#       5
#     8   4   8   8   8
#     4  11  22  39  60  88 121 156 191 233 286 347
#     4  10  23  42  59  80 116 160 194 232 293 360
#     4  10  21  39  61  86 120 158 190 226 286 358
#     4  11  22  39  62  90 115 147 195 248 289 333
#     4  11  23  40  61  87 116 152 196 243 288 338
#
# _framework density 20.556270999999999
#
# number of rings (size 3 to 8) (size 9 to 14) (size 15 to 20)
#    0.000    1.333    0.000    7.667    0.000    4.444 
#    0.000    8.889    0.000    0.000    0.000    0.000 
#    0.000    0.000    0.000    0.000    0.000    0.000 
#
# Total GULP energy -223300.510252 kJ/mol
# GULP energy per Si atom -12405.583903 kJ/mol
# Density = 2.050948 g / cm^3
# Si number density = 20.556271 Si / 1000 Ang^3
#
#
#
# Elastic Constant Matrix: (Units=GPa)
#
#
# Indices 1 2 3 4 5 6 
#
# 1 103.9375 64.6366 54.9653 0.0000 -4.0639 0.0000
# 2 64.6366 121.0503 60.0812 0.0000 2.2132 0.0000
# 3 54.9653 60.0812 81.1890 0.0000 5.5988 0.0000
# 4 0.0000 0.0000 0.0000 15.7569 0.0000 -4.2222
# 5 -4.0639 2.2132 5.5988 0.0000 29.6446 0.0000
# 6 0.0000 0.0000 0.0000 -4.2222 0.0000 35.9525
#
#
#
# Elastic Compliance Matrix: (Units=1/GPa)
#
#
# Indices 1 2 3 4 5 6 
#
# 1 0.017413 -0.005339 -0.008136 0.000000 0.004322 0.000000
# 2 -0.005339 0.014715 -0.007243 0.000000 -0.000463 0.000000
# 3 -0.008136 -0.007243 0.023531 0.000000 -0.005019 0.000000
# 4 0.000000 0.000000 0.000000 0.065526 0.000000 0.007695
# 5 0.004322 -0.000463 -0.005019 0.000000 0.035308 0.000000
# 6 0.000000 0.000000 0.000000 0.007695 0.000000 0.028718
#
#
# Mechanical properties :
#
#
# Convention : Reuss Voigt Hill
#
# Bulk Modulus (GPa) = 70.30628 73.94924 72.12776
# Shear Modulus (GPa) = 21.60873 24.70373 23.15623
#
# Velocity S-wave (km/s) = 3.24574 3.47040 3.35995
# Velocity P-wave (km/s) = 6.95144 7.21875 7.08636
#
# Compressibility (1/GPa) = 0.01422348
#
# Stress axis : x y z
#
# Youngs Moduli (GPa) = 57.42960 67.95665 42.49684
#
# Poissons Ratio (x) = 0.36280 0.34574
# Poissons Ratio (y) = 0.30660 0.30782
# Poissons Ratio (z) = 0.46723 0.49223
#
# Static dielectric constant tensor:
#      x y z
#    x 3.661020 0.000000 -0.086520 
#    y 0.000000 3.811680 0.000000 
#    z -0.086520 0.000000 3.624220 
# 
# 
# High freq. dielectric constant tensor:
#      x y z
#    x 1.808430 0.000000 -0.006420 
#    y 0.000000 1.816620 0.000000 
#    z -0.006420 0.000000 1.798620 
# 
# From -- ./inp_files/118756.got.cif
#   From: 2010.06.25/outbox.cif.g09.slc.cpg/sg12_60_cif.got.tgz:118756.got - 2010.06.28 00:19:55.
