data_PCOD8109435
_publ_section_title
;
Structure prediction by ZEFSAII (Michael W. Deem and Ramdas Pophale) SiO2 
 PCOD8109435
Probable space group: C 2/M
;
_chemical_formula_sum "Si O2"
_cell_formula_units_Z 48
_cell_length_a 27.478024
_cell_length_b 8.458354
_cell_length_c 10.034005
_cell_angle_alpha 90.000000
_cell_angle_beta 89.974983
_cell_angle_gamma 90.000000
_cell_volume 2332.091723
_symmetry_space_group_name_H-M "C 2/M"
_symmetry_group_IT_number 12
_symmetry_cell_setting 'monoclinic'
loop_
_space_group_symop_operation_xyz
x,y,z
-x,y,-z
-x,-y,-z
x,-y,z
1/2+x,1/2+y,z
1/2-x,1/2+y,-z
1/2-x,1/2-y,-z
1/2+x,1/2-y,z
loop_
_atom_site_type_symbol
_atom_site_label
_atom_site_fract_x
_atom_site_fract_y
_atom_site_fract_z
Si Si1 0.358336 0.315532 0.496675
Si Si2 0.539400 0.187024 0.103569
Si Si3 0.208391 0.684699 0.283513
Si Si4 0.645576 0.812588 0.035358
Si Si5 0.538602 0.686568 0.390660
Si Si6 0.686548 0.184967 0.755357
O O1 0.360766 0.500000 0.462539
O O2 0.313065 0.281441 0.592973
O O3 0.407844 0.256033 0.565912
O O4 0.352488 0.218628 0.360033
O O5 0.592296 0.258848 0.066597
O O6 0.523958 0.234809 0.251727
O O7 0.540987 0.000000 0.093045
O O8 0.500000 0.256634 0.000000
O O9 0.198585 0.500000 0.307459
O O10 0.182951 0.745808 0.148307
O O11 0.265352 0.716141 0.275571
O O12 0.642783 0.000000 0.032916
O O13 0.664215 0.750172 0.893240
O O14 0.500000 0.745082 0.500000
O O15 0.536791 0.500000 0.372696
O O16 0.699020 0.000000 0.763285
#
# Coordination Sequence:
#
# PCOD8109435 Si02
#       6
#     8   8   8   8   8   8
#     4  11  23  40  60  86 119 157 199 242 290 347
#     4  10  21  39  64  92 120 151 192 241 293 352
#     4  11  21  39  63  86 117 156 198 245 295 348
#     4   9  20  38  59  87 121 153 191 241 292 344
#     4  10  23  42  62  87 121 156 194 242 293 348
#     4  11  23  38  59  88 121 156 196 243 293 349
#
# _framework density 20.582381999999999
#
# number of rings (size 3 to 8) (size 9 to 14) (size 15 to 20)
#    0.000    1.667    1.667    2.500    2.333    1.333 
#    0.000    4.167    0.000    0.000    0.000    0.000 
#    0.000    0.000    0.000    0.000    0.000    0.000 
#
# Total GULP energy -297739.769176 kJ/mol
# GULP energy per Si atom -12405.823716 kJ/mol
# Density = 2.053554 g / cm^3
# Si number density = 20.582382 Si / 1000 Ang^3
#
#
#
# Elastic Constant Matrix: (Units=GPa)
#
#
# Indices 1 2 3 4 5 6 
#
# 1 105.9295 11.0485 43.2308 0.0000 1.4102 0.0000
# 2 11.0485 28.6603 12.6674 0.0000 2.9106 0.0000
# 3 43.2308 12.6674 145.8017 0.0000 3.9865 0.0000
# 4 0.0000 0.0000 0.0000 22.7704 0.0000 5.1393
# 5 1.4102 2.9106 3.9865 0.0000 44.4165 0.0000
# 6 0.0000 0.0000 0.0000 5.1393 0.0000 14.0828
#
#
#
# Elastic Compliance Matrix: (Units=1/GPa)
#
#
# Indices 1 2 3 4 5 6 
#
# 1 0.010968 -0.002913 -0.003002 0.000000 0.000112 0.000000
# 2 -0.002913 0.037255 -0.002315 0.000000 -0.002141 0.000000
# 3 -0.003002 -0.002315 0.007963 0.000000 -0.000468 0.000000
# 4 0.000000 0.000000 0.000000 0.047858 0.000000 -0.017465
# 5 0.000112 -0.002141 -0.000468 0.000000 0.022693 0.000000
# 6 0.000000 0.000000 0.000000 -0.017465 0.000000 0.077382
#
#
# Mechanical properties :
#
#
# Convention : Reuss Voigt Hill
#
# Bulk Modulus (GPa) = 25.17197 46.03163 35.60180
# Shear Modulus (GPa) = 21.38404 30.48359 25.93381
#
# Velocity S-wave (km/s) = 3.22677 3.85262 3.55350
# Velocity P-wave (km/s) = 5.11264 6.49641 5.84562
#
# Compressibility (1/GPa) = 0.03972673
#
# Stress axis : x y z
#
# Youngs Moduli (GPa) = 91.17705 26.84220 125.58698
#
# Poissons Ratio (x) = 0.07818 0.37701
# Poissons Ratio (y) = 0.26556 0.29068
# Poissons Ratio (z) = 0.27371 0.06213
#
# Static dielectric constant tensor:
#      x y z
#    x 3.889570 0.000000 0.046530 
#    y 0.000000 3.380220 0.000000 
#    z 0.046530 0.000000 3.913100 
# 
# 
# High freq. dielectric constant tensor:
#      x y z
#    x 1.812880 0.000000 0.003000 
#    y 0.000000 1.782470 0.000000 
#    z 0.003000 0.000000 1.820950 
# 
# From -- ./inp_files/108616.got.cif
#   From: 2010.06.25/outbox.cif.g09.slc.cpg/sg12_55_cif.got.tgz:108616.got - 2010.06.28 00:19:55.
