data_PCOD8109614
_publ_section_title
;
Structure prediction by ZEFSAII (Michael W. Deem and Ramdas Pophale) SiO2 
 PCOD8109614
Probable space group: C 2/M
;
_chemical_formula_sum "Si O2"
_cell_formula_units_Z 64
_cell_length_a 8.780433
_cell_length_b 26.614904
_cell_length_c 14.152488
_cell_angle_alpha 90.000000
_cell_angle_beta 55.752696
_cell_angle_gamma 90.000000
_cell_volume 2733.868122
_symmetry_space_group_name_H-M "C 2/M"
_symmetry_group_IT_number 12
_symmetry_cell_setting 'monoclinic'
loop_
_space_group_symop_operation_xyz
x,y,z
-x,y,-z
-x,-y,-z
x,-y,z
1/2+x,1/2+y,z
1/2-x,1/2+y,-z
1/2-x,1/2-y,-z
1/2+x,1/2-y,z
loop_
_atom_site_type_symbol
_atom_site_label
_atom_site_fract_x
_atom_site_fract_y
_atom_site_fract_z
Si Si1 0.566146 0.940868 0.766548
Si Si2 0.167579 0.556524 0.515570
Si Si3 0.852036 0.117466 0.304320
Si Si4 0.153651 0.058880 0.878103
Si Si5 0.692847 0.247744 0.914998
Si Si6 0.400620 0.797003 0.671667
Si Si7 0.795091 0.795627 0.596326
Si Si8 0.748588 0.351631 0.206173
O O1 0.623303 0.927288 0.638371
O O2 0.352393 0.926052 0.849525
O O3 0.667477 0.908321 0.814360
O O4 0.601844 0.000000 0.774541
O O5 0.245450 0.500000 0.489843
O O6 0.320675 0.593888 0.419534
O O7 0.000000 0.559870 0.500000
O O8 0.881909 0.074429 0.217016
O O9 0.676796 0.148692 0.327590
O O10 0.035447 0.150241 0.249381
O O11 0.133180 0.000000 0.884241
O O12 0.000000 0.083658 0.000000
O O13 0.833420 0.278523 0.798749
O O14 0.658037 0.189595 0.894503
O O15 0.500000 0.275957 0.000000
O O16 0.750000 0.250000 0.000000
O O17 0.625259 0.795687 0.579797
O O18 0.310644 0.760951 0.626415
O O19 0.717491 0.833016 0.700515
O O20 0.000000 0.815486 0.500000
#
# Coordination Sequence:
#
# PCOD8109614 Si02
#       8
#     8   8   8   8   8   8   8   8
#     4  10  22  44  68  96 138 181 228 286 347 410
#     4  10  21  39  66  96 131 179 231 282 338 408
#     4  12  24  38  65  98 135 171 229 281 340 416
#     4  10  22  42  66  92 127 176 230 290 352 410
#     4  11  23  45  72  93 130 176 225 283 337 400
#     4  11  24  44  66 100 128 171 229 277 340 411
#     4  11  24  43  64  89 136 174 215 273 341 408
#     4  11  26  41  63 103 134 176 230 275 341 415
#
# _framework density 23.410052
#
# number of rings (size 3 to 8) (size 9 to 14) (size 15 to 20)
#    0.000    1.250    1.250    5.250    1.750    4.000 
#    0.000    1.250    0.000    2.625    0.000    0.000 
#    0.000    0.000    0.000    0.000    0.000    0.000 
#
# Total GULP energy -396453.138403 kJ/mol
# GULP energy per Si atom -12389.160575 kJ/mol
# Density = 2.335677 g / cm^3
# Si number density = 23.410052 Si / 1000 Ang^3
#
#
#
# Elastic Constant Matrix: (Units=GPa)
#
#
# Indices 1 2 3 4 5 6 
#
# 1 104.6434 30.9187 37.8276 0.0000 -13.7815 0.0000
# 2 30.9187 76.0939 39.5802 0.0000 3.2801 0.0000
# 3 37.8276 39.5802 131.4557 0.0000 -10.7246 0.0000
# 4 0.0000 0.0000 0.0000 -4.1326 0.0000 -9.0989
# 5 -13.7815 3.2801 -10.7246 0.0000 41.7829 0.0000
# 6 0.0000 0.0000 0.0000 -9.0989 0.0000 36.7847
#
#
#
# Elastic Compliance Matrix: (Units=1/GPa)
#
#
# Indices 1 2 3 4 5 6 
#
# 1 0.011930 -0.004011 -0.001919 0.000000 0.003757 0.000000
# 2 -0.004011 0.017186 -0.004329 0.000000 -0.003783 0.000000
# 3 -0.001919 -0.004329 0.009641 0.000000 0.002182 0.000000
# 4 0.000000 0.000000 0.000000 -0.156661 0.000000 -0.038751
# 5 0.003757 -0.003783 0.002182 0.000000 0.026029 0.000000
# 6 0.000000 0.000000 0.000000 -0.038751 0.000000 0.017600
#
#
# Mechanical properties :
#
#
# Convention : Reuss Voigt Hill
#
# Bulk Modulus (GPa) = 54.82794 58.76069 56.79431
# Shear Modulus (GPa) = -104.87367 28.47811 -38.19778
#
# Velocity S-wave (km/s) = -6.70043 3.49161 -4.04379
# Velocity P-wave (km/s) = 6.03238 6.43508 1.58440
#
# Compressibility (1/GPa) = 0.01823888
#
# Stress axis : x y z
#
# Youngs Moduli (GPa) = 83.82303 58.18543 103.72762
#
# Poissons Ratio (x) = 0.23341 0.19901
# Poissons Ratio (y) = 0.33625 0.44904
# Poissons Ratio (z) = 0.16082 0.25189
#
# Static dielectric constant tensor:
#      x y z
#    x 3.938830 0.000000 -0.067700 
#    y 0.000000 2.530810 0.000000 
#    z -0.067700 0.000000 4.534930 
# 
# 
# High freq. dielectric constant tensor:
#      x y z
#    x 1.925430 0.000000 -0.003880 
#    y 0.000000 1.929580 0.000000 
#    z -0.003880 0.000000 1.926340 
# 
# From -- ./inp_files/201278.got.cif
#   From: 2010.06.25/outbox.cif.g09.slc.cpg/sg12_101_cif.got.tgz:201278.got - 2010.06.28 00:19:55.
