data_PCOD8109741
_publ_section_title
;
Structure prediction by ZEFSAII (Michael W. Deem and Ramdas Pophale) SiO2 
 PCOD8109741
Probable space group: C 2/M
;
_chemical_formula_sum "Si O2"
_cell_formula_units_Z 56
_cell_length_a 19.143059
_cell_length_b 9.194870
_cell_length_c 16.475693
_cell_angle_alpha 90.000000
_cell_angle_beta 74.428644
_cell_angle_gamma 90.000000
_cell_volume 2793.577856
_symmetry_space_group_name_H-M "C 2/M"
_symmetry_group_IT_number 12
_symmetry_cell_setting 'monoclinic'
loop_
_space_group_symop_operation_xyz
x,y,z
-x,y,-z
-x,-y,-z
x,-y,z
1/2+x,1/2+y,z
1/2-x,1/2+y,-z
1/2-x,1/2-y,-z
1/2+x,1/2-y,z
loop_
_atom_site_type_symbol
_atom_site_label
_atom_site_fract_x
_atom_site_fract_y
_atom_site_fract_z
Si Si1 0.590500 0.166672 0.112530
Si Si2 0.042503 0.834727 0.800926
Si Si3 0.582860 0.170494 0.490215
Si Si4 0.140263 0.331876 0.647675
Si Si5 0.771091 0.666890 0.822568
Si Si6 0.298867 0.669124 0.649784
Si Si7 0.380206 0.335219 0.056719
O O1 0.532427 0.248538 0.187786
O O2 0.668262 0.185052 0.128487
O O3 0.566487 0.000000 0.113849
O O4 0.592413 0.231488 0.022293
O O5 0.106465 0.764482 0.728984
O O6 0.061746 0.827145 0.889573
O O7 0.032201 0.000000 0.775026
O O8 0.500000 0.216237 0.500000
O O9 0.605565 0.217091 0.573544
O O10 0.632872 0.253062 0.411245
O O11 0.594440 0.000000 0.472695
O O12 0.123022 0.500000 0.671439
O O13 0.226576 0.303541 0.618913
O O14 0.764458 0.500000 0.794357
O O15 0.788262 0.769678 0.742531
O O16 0.696964 0.720109 0.886551
O O17 0.316804 0.500000 0.650856
O O18 0.374005 0.500000 0.025241
#
# Coordination Sequence:
#
# PCOD8109741 Si02
#       7
#     8   8   8   8   8   8   8
#     4  11  24  38  59  88 122 161 201 252 306 356
#     4  11  23  39  62  89 121 162 202 248 301 355
#     4  10  23  42  65  91 123 161 197 240 297 362
#     4  10  22  41  63  90 122 159 203 246 295 354
#     4  10  22  41  62  86 120 163 204 245 301 364
#     4  11  23  39  63  93 123 156 200 253 297 347
#     4  10  21  40  62  86 117 158 208 251 297 358
#
# _framework density 20.045978000000002
#
# number of rings (size 3 to 8) (size 9 to 14) (size 15 to 20)
#    0.000    1.571    1.429    2.571    2.000    6.000 
#    0.000    0.000    0.000    0.000    0.000    0.000 
#    0.000    0.000    0.000    0.000    0.000    0.000 
#
# Total GULP energy -347373.187707 kJ/mol
# GULP energy per Si atom -12406.185275 kJ/mol
# Density = 2.000035 g / cm^3
# Si number density = 20.045978 Si / 1000 Ang^3
#
#
#
# Elastic Constant Matrix: (Units=GPa)
#
#
# Indices 1 2 3 4 5 6 
#
# 1 82.8772 38.7620 35.6528 0.0000 -16.4332 0.0000
# 2 38.7620 87.1548 39.5354 0.0000 -16.5386 0.0000
# 3 35.6528 39.5354 70.1099 0.0000 -15.3905 0.0000
# 4 0.0000 0.0000 0.0000 25.4319 0.0000 -2.4751
# 5 -16.4332 -16.5386 -15.3905 0.0000 33.0832 0.0000
# 6 0.0000 0.0000 0.0000 -2.4751 0.0000 29.1919
#
#
#
# Elastic Compliance Matrix: (Units=1/GPa)
#
#
# Indices 1 2 3 4 5 6 
#
# 1 0.017247 -0.004500 -0.005398 0.000000 0.003807 0.000000
# 2 -0.004500 0.017102 -0.006649 0.000000 0.003221 0.000000
# 3 -0.005398 -0.006649 0.021650 0.000000 0.004067 0.000000
# 4 0.000000 0.000000 0.000000 0.039648 0.000000 0.003362
# 5 0.003807 0.003221 0.004067 0.000000 0.035620 0.000000
# 6 0.000000 0.000000 0.000000 0.003362 0.000000 0.034541
#
#
# Mechanical properties :
#
#
# Convention : Reuss Voigt Hill
#
# Bulk Modulus (GPa) = 43.65361 52.00469 47.82915
# Shear Modulus (GPa) = 24.20866 25.95417 25.08141
#
# Velocity S-wave (km/s) = 3.47891 3.60214 3.54106
# Velocity P-wave (km/s) = 6.16125 6.58024 6.37419
#
# Compressibility (1/GPa) = 0.02290761
#
# Stress axis : x y z
#
# Youngs Moduli (GPa) = 57.97945 58.47103 46.18896
#
# Poissons Ratio (x) = 0.26312 0.24931
# Poissons Ratio (y) = 0.26090 0.30710
# Poissons Ratio (z) = 0.31295 0.38876
#
# Static dielectric constant tensor:
#      x y z
#    x 3.816410 0.000000 -0.046070 
#    y 0.000000 3.688860 0.000000 
#    z -0.046070 0.000000 3.512360 
# 
# 
# High freq. dielectric constant tensor:
#      x y z
#    x 1.797270 0.000000 -0.006710 
#    y 0.000000 1.783830 0.000000 
#    z -0.006710 0.000000 1.781920 
# 
# From -- ./inp_files/275119.got.cif
#   From: 2010.06.25/outbox.cif.g09.slc.cpg/sg12_138_cif.got.tgz:275119.got - 2010.06.28 00:19:55.
