data_PCOD8109323
_publ_section_title
;
Structure prediction by ZEFSAII (Michael W. Deem and Ramdas Pophale) SiO2 
 PCOD8109323
Probable space group: C 2/M
;
_chemical_formula_sum "Si O2"
_cell_formula_units_Z 56
_cell_length_a 29.255983
_cell_length_b 8.529216
_cell_length_c 12.592603
_cell_angle_alpha 90.000000
_cell_angle_beta 120.372748
_cell_angle_gamma 90.000000
_cell_volume 2710.980740
_symmetry_space_group_name_H-M "C 2/M"
_symmetry_group_IT_number 12
_symmetry_cell_setting 'monoclinic'
loop_
_space_group_symop_operation_xyz
x,y,z
-x,y,-z
-x,-y,-z
x,-y,z
1/2+x,1/2+y,z
1/2-x,1/2+y,-z
1/2-x,1/2-y,-z
1/2+x,1/2-y,z
loop_
_atom_site_type_symbol
_atom_site_label
_atom_site_fract_x
_atom_site_fract_y
_atom_site_fract_z
Si Si1 0.287492 0.822128 0.957202
Si Si2 0.057444 0.313180 0.035847
Si Si3 0.242457 0.182738 0.295217
Si Si4 0.644083 0.684957 0.526574
Si Si5 0.907828 0.322446 0.151233
Si Si6 0.557694 0.316494 0.592052
Si Si7 0.646934 0.815084 0.302109
O O1 0.285889 0.720043 0.849061
O O2 0.270730 0.000000 0.910187
O O3 0.250000 0.750000 0.000000
O O4 0.344975 0.816682 0.075220
O O5 0.058662 0.500000 0.039156
O O6 0.101524 0.250218 0.169745
O O7 0.069702 0.251911 0.932155
O O8 0.000000 0.247084 0.000000
O O9 0.296995 0.276905 0.365429
O O10 0.202966 0.233142 0.342947
O O11 0.255137 0.000000 0.320662
O O12 0.638546 0.500000 0.503101
O O13 0.602444 0.750983 0.564909
O O14 0.630082 0.772899 0.401219
O O15 0.927872 0.500000 0.192013
O O16 0.928088 0.216404 0.270052
O O17 0.500000 0.241560 0.500000
O O18 0.555291 0.500000 0.571103
O O19 0.654342 0.000000 0.297620
#
# Coordination Sequence:
#
# PCOD8109323 Si02
#       7
#     8   8   8   8   8   8   8
#     4  11  22  38  60  90 126 163 204 253 305 361
#     4   9  19  37  62  92 124 158 197 249 310 364
#     4  12  24  40  62  91 125 163 208 252 308 373
#     4  11  24  42  63  88 124 165 208 256 308 367
#     4  10  21  39  63  91 122 155 201 253 299 360
#     4  10  24  44  63  87 124 165 203 251 309 364
#     4  11  22  40  65  93 127 162 203 254 310 369
#
# _framework density 20.65673
#
# number of rings (size 3 to 8) (size 9 to 14) (size 15 to 20)
#    0.000    1.429    1.429    3.857    2.000    4.857 
#    0.000    0.000    0.000    2.143    0.000    0.000 
#    0.000    0.000    0.000    0.000    0.000    0.000 
#
# Total GULP energy -347325.350106 kJ/mol
# GULP energy per Si atom -12404.476789 kJ/mol
# Density = 2.060971 g / cm^3
# Si number density = 20.656730 Si / 1000 Ang^3
#
#
#
# Elastic Constant Matrix: (Units=GPa)
#
#
# Indices 1 2 3 4 5 6 
#
# 1 150.7034 24.4910 62.7891 0.0000 3.4397 0.0000
# 2 24.4910 44.5842 11.5075 0.0000 -0.8622 0.0000
# 3 62.7891 11.5075 129.0889 0.0000 -9.3318 0.0000
# 4 0.0000 0.0000 0.0000 32.5624 0.0000 -7.6640
# 5 3.4397 -0.8622 -9.3318 0.0000 33.4483 0.0000
# 6 0.0000 0.0000 0.0000 -7.6640 0.0000 19.3261
#
#
#
# Elastic Compliance Matrix: (Units=1/GPa)
#
#
# Indices 1 2 3 4 5 6 
#
# 1 0.009089 -0.003944 -0.004230 0.000000 -0.002216 0.000000
# 2 -0.003944 0.024669 -0.000210 0.000000 0.000983 0.000000
# 3 -0.004230 -0.000210 0.010057 0.000000 0.003235 0.000000
# 4 0.000000 0.000000 0.000000 0.033872 0.000000 0.013432
# 5 -0.002216 0.000983 0.003235 0.000000 0.031053 0.000000
# 6 0.000000 0.000000 0.000000 0.013432 0.000000 0.057070
#
#
# Mechanical properties :
#
#
# Convention : Reuss Voigt Hill
#
# Bulk Modulus (GPa) = 36.97115 57.99464 47.48289
# Shear Modulus (GPa) = 26.09706 32.10663 29.10184
#
# Velocity S-wave (km/s) = 3.55825 3.94673 3.75751
# Velocity P-wave (km/s) = 5.90070 6.99323 6.47006
#
# Compressibility (1/GPa) = 0.02704812
#
# Stress axis : x y z
#
# Youngs Moduli (GPa) = 110.01849 40.53647 99.43811
#
# Poissons Ratio (x) = 0.15988 0.42060
# Poissons Ratio (y) = 0.43393 0.02084
# Poissons Ratio (z) = 0.46535 0.00850
#
# Static dielectric constant tensor:
#      x y z
#    x 3.997520 0.000000 0.032130 
#    y 0.000000 3.553510 0.000000 
#    z 0.032130 0.000000 3.666920 
# 
# 
# High freq. dielectric constant tensor:
#      x y z
#    x 1.823230 0.000000 -0.003710 
#    y 0.000000 1.789800 0.000000 
#    z -0.003710 0.000000 1.818420 
# 
# From -- ./inp_files/187717.got.cif
#   From: 2010.06.25/outbox.cif.g09.slc.cpg/sg12_94_cif.got.tgz:187717.got - 2010.06.28 00:19:55.
