data_PCOD8109374
_publ_section_title
;
Structure prediction by ZEFSAII (Michael W. Deem and Ramdas Pophale) SiO2 
 PCOD8109374
Probable space group: C 2/M
;
_chemical_formula_sum "Si O2"
_cell_formula_units_Z 48
_cell_length_a 20.165948
_cell_length_b 8.793646
_cell_length_c 20.765469
_cell_angle_alpha 90.000000
_cell_angle_beta 138.231475
_cell_angle_gamma 90.000000
_cell_volume 2452.921761
_symmetry_space_group_name_H-M "C 2/M"
_symmetry_group_IT_number 12
_symmetry_cell_setting 'monoclinic'
loop_
_space_group_symop_operation_xyz
x,y,z
-x,y,-z
-x,-y,-z
x,-y,z
1/2+x,1/2+y,z
1/2-x,1/2+y,-z
1/2-x,1/2-y,-z
1/2+x,1/2-y,z
loop_
_atom_site_type_symbol
_atom_site_label
_atom_site_fract_x
_atom_site_fract_y
_atom_site_fract_z
Si Si1 0.964715 0.179363 0.792004
Si Si2 0.665962 0.174656 0.982144
Si Si3 0.493480 0.822502 0.309492
Si Si4 0.229050 0.678715 0.291470
Si Si5 0.290647 0.326384 0.193917
Si Si6 0.585380 0.178177 0.512042
O O1 0.954277 0.236244 0.711286
O O2 0.870541 0.232642 0.764164
O O3 0.970804 0.000000 0.796000
O O4 0.062116 0.242424 0.897324
O O5 0.695642 0.189238 0.078531
O O6 0.654566 0.000000 0.952823
O O7 0.750000 0.250000 0.000000
O O8 0.378075 0.778829 0.230429
O O9 0.550336 0.776633 0.415572
O O10 0.501004 0.000000 0.301382
O O11 0.209345 0.500000 0.282384
O O12 0.259359 0.729224 0.241725
O O13 0.315762 0.726397 0.403142
O O14 0.329421 0.500000 0.223634
O O15 0.500000 0.227938 0.500000
O O16 0.608918 0.000000 0.535909
#
# Coordination Sequence:
#
# PCOD8109374 Si02
#       6
#     8   8   8   8   8   8
#     4  12  26  43  62  89 128 166 206 260 314 365
#     4  11  22  39  64  94 125 162 207 255 307 365
#     4  11  22  38  65  93 123 162 207 254 305 370
#     4  11  24  42  64  92 126 165 207 255 311 368
#     4  10  22  39  63  93 125 160 204 255 305 365
#     4  10  21  39  63  94 126 161 204 254 308 366
#
# _framework density 19.568501000000001
#
# number of rings (size 3 to 8) (size 9 to 14) (size 15 to 20)
#    0.000    1.167    3.333    3.000    0.000    4.333 
#    0.000    3.333    0.000    0.000    0.000    0.000 
#    0.000    0.000    0.000    0.000    0.000    0.000 
#
# Total GULP energy -297762.973361 kJ/mol
# GULP energy per Si atom -12406.790557 kJ/mol
# Density = 1.952396 g / cm^3
# Si number density = 19.568501 Si / 1000 Ang^3
#
#
#
# Elastic Constant Matrix: (Units=GPa)
#
#
# Indices 1 2 3 4 5 6 
#
# 1 65.9573 17.5117 13.4499 0.0000 6.5771 0.0000
# 2 17.5117 91.1806 21.0595 0.0000 3.9844 0.0000
# 3 13.4499 21.0595 90.0808 0.0000 2.3727 0.0000
# 4 0.0000 0.0000 0.0000 33.1743 0.0000 7.9093
# 5 6.5771 3.9844 2.3727 0.0000 34.6507 0.0000
# 6 0.0000 0.0000 0.0000 7.9093 0.0000 30.8873
#
#
#
# Elastic Compliance Matrix: (Units=1/GPa)
#
#
# Indices 1 2 3 4 5 6 
#
# 1 0.016494 -0.002640 -0.001774 0.000000 -0.002706 0.000000
# 2 -0.002640 0.012062 -0.002407 0.000000 -0.000721 0.000000
# 3 -0.001774 -0.002407 0.011934 0.000000 -0.000204 0.000000
# 4 0.000000 0.000000 0.000000 0.032104 0.000000 -0.008221
# 5 -0.002706 -0.000721 -0.000204 0.000000 0.029470 0.000000
# 6 0.000000 0.000000 0.000000 -0.008221 0.000000 0.034481
#
#
# Mechanical properties :
#
#
# Convention : Reuss Voigt Hill
#
# Bulk Modulus (GPa) = 37.24660 39.02900 38.13780
# Shear Modulus (GPa) = 31.41996 32.75565 32.08781
#
# Velocity S-wave (km/s) = 4.01139 4.09577 4.05380
# Velocity P-wave (km/s) = 6.36634 6.50809 6.43760
#
# Compressibility (1/GPa) = 0.02684809
#
# Stress axis : x y z
#
# Youngs Moduli (GPa) = 60.62897 82.90788 83.79366
#
# Poissons Ratio (x) = 0.21885 0.14867
# Poissons Ratio (y) = 0.16004 0.20166
# Poissons Ratio (z) = 0.10757 0.19953
#
# Static dielectric constant tensor:
#      x y z
#    x 3.582840 0.000000 -0.145980 
#    y 0.000000 3.630370 0.000000 
#    z -0.145980 0.000000 3.800020 
# 
# 
# High freq. dielectric constant tensor:
#      x y z
#    x 1.761440 0.000000 -0.008120 
#    y 0.000000 1.771020 0.000000 
#    z -0.008120 0.000000 1.776290 
# 
# From -- ./inp_files/319557.got.cif
#   From: 2010.06.25/outbox.cif.g09.slc.cpg/sg12_160_cif.got.tgz:319557.got - 2010.06.28 00:19:55.
