data_PCOD8109594
_publ_section_title
;
Structure prediction by ZEFSAII (Michael W. Deem and Ramdas Pophale) SiO2 
 PCOD8109594
Probable space group: C 2/M
;
_chemical_formula_sum "Si O2"
_cell_formula_units_Z 64
_cell_length_a 18.663826
_cell_length_b 14.274903
_cell_length_c 14.725430
_cell_angle_alpha 90.000000
_cell_angle_beta 125.949085
_cell_angle_gamma 90.000000
_cell_volume 3175.993500
_symmetry_space_group_name_H-M "C 2/M"
_symmetry_group_IT_number 12
_symmetry_cell_setting 'monoclinic'
loop_
_space_group_symop_operation_xyz
x,y,z
-x,y,-z
-x,-y,-z
x,-y,z
1/2+x,1/2+y,z
1/2-x,1/2+y,-z
1/2-x,1/2-y,-z
1/2+x,1/2-y,z
loop_
_atom_site_type_symbol
_atom_site_label
_atom_site_fract_x
_atom_site_fract_y
_atom_site_fract_z
Si Si1 0.933703 0.781700 0.241163
Si Si2 0.262086 0.388451 0.442681
Si Si3 0.100772 0.209464 0.108274
Si Si4 0.645614 0.896789 0.876201
Si Si5 0.847075 0.106147 0.020976
Si Si6 0.901301 0.400320 0.959062
Si Si7 0.869693 0.222730 0.664013
Si Si8 0.904979 0.109320 0.395009
O O1 0.891775 0.678645 0.222023
O O2 0.908887 0.826088 0.125555
O O3 0.888474 0.841864 0.286483
O O4 0.039613 0.773365 0.325705
O O5 0.240646 0.500000 0.432566
O O6 0.172913 0.327169 0.363478
O O7 0.306636 0.353638 0.569453
O O8 0.328174 0.365338 0.408926
O O9 0.145632 0.312285 0.124690
O O10 0.111402 0.183311 0.221165
O O11 0.149135 0.132017 0.083009
O O12 0.000000 0.214447 0.000000
O O13 0.632971 0.000000 0.823570
O O14 0.747102 0.879967 0.978906
O O15 0.591093 0.884282 0.927893
O O16 0.880149 0.000000 0.058384
O O17 0.850872 0.500000 0.900483
O O18 0.000000 0.410420 0.000000
O O19 0.000000 0.145480 0.500000
O O20 0.908259 0.000000 0.378135
#
# Coordination Sequence:
#
# PCOD8109594 Si02
#       8
#     8   8   8   8   8   8   8   8
#     4  12  21  39  65  91 124 164 207 260 316 376
#     4  10  24  46  66  93 127 163 218 277 318 370
#     4  11  21  38  57  89 125 162 201 247 308 379
#     4  10  22  38  57  86 126 168 204 243 301 370
#     4  11  24  38  54  87 128 166 206 245 302 381
#     4   9  17  32  55  82 117 158 199 240 291 358
#     4  11  24  40  66  95 124 167 214 257 324 379
#     4  10  21  39  66  94 119 153 203 267 328 371
#
# _framework density 20.151174999999999
#
# number of rings (size 3 to 8) (size 9 to 14) (size 15 to 20)
#    0.000    1.500    3.750    1.500    1.750    2.250 
#    0.000    2.500    0.000    0.375    0.000    0.000 
#    0.000    0.000    0.000    0.000    0.000    0.000 
#
# Total GULP energy -396733.818660 kJ/mol
# GULP energy per Si atom -12397.931833 kJ/mol
# Density = 2.010531 g / cm^3
# Si number density = 20.151175 Si / 1000 Ang^3
#
#
#
# Elastic Constant Matrix: (Units=GPa)
#
#
# Indices 1 2 3 4 5 6 
#
# 1 84.2962 43.3061 32.9961 0.0000 -9.2857 0.0000
# 2 43.3061 99.5562 28.2002 0.0000 -0.7400 0.0000
# 3 32.9961 28.2002 84.1751 0.0000 -12.3483 0.0000
# 4 0.0000 0.0000 0.0000 28.8974 0.0000 -1.3614
# 5 -9.2857 -0.7400 -12.3483 0.0000 31.1333 0.0000
# 6 0.0000 0.0000 0.0000 -1.3614 0.0000 34.9000
#
#
#
# Elastic Compliance Matrix: (Units=1/GPa)
#
#
# Indices 1 2 3 4 5 6 
#
# 1 0.017030 -0.006220 -0.004107 0.000000 0.003302 0.000000
# 2 -0.006220 0.013418 -0.002424 0.000000 -0.002497 0.000000
# 3 -0.004107 -0.002424 0.014986 0.000000 0.004661 0.000000
# 4 0.000000 0.000000 0.000000 0.034669 0.000000 0.001352
# 5 0.003302 -0.002497 0.004661 0.000000 0.034894 0.000000
# 6 0.000000 0.000000 0.000000 0.001352 0.000000 0.028706
#
#
# Mechanical properties :
#
#
# Convention : Reuss Voigt Hill
#
# Bulk Modulus (GPa) = 50.17015 53.00360 51.58688
# Shear Modulus (GPa) = 28.43357 29.88781 29.16069
#
# Velocity S-wave (km/s) = 3.76042 3.85538 3.80820
# Velocity P-wave (km/s) = 6.61856 6.79549 6.70761
#
# Compressibility (1/GPa) = 0.01993217
#
# Stress axis : x y z
#
# Youngs Moduli (GPa) = 58.72052 74.52634 66.72994
#
# Poissons Ratio (x) = 0.46354 0.27409
# Poissons Ratio (y) = 0.36523 0.16172
# Poissons Ratio (z) = 0.24119 0.18062
#
# Static dielectric constant tensor:
#      x y z
#    x 3.714930 0.000000 -0.013210 
#    y 0.000000 4.111170 0.000000 
#    z -0.013210 0.000000 3.414240 
# 
# 
# High freq. dielectric constant tensor:
#      x y z
#    x 1.794880 0.000000 -0.002140 
#    y 0.000000 1.795150 0.000000 
#    z -0.002140 0.000000 1.762360 
# 
# From -- ./inp_files/225743.got.cif
#   From: 2010.06.25/outbox.cif.g09.slc.cpg/sg12_113_cif.got.tgz:225743.got - 2010.06.28 00:19:55.
