data_PCOD8109655
_publ_section_title
;
Structure prediction by ZEFSAII (Michael W. Deem and Ramdas Pophale) SiO2 
 PCOD8109655
Probable space group: C 2/M
;
_chemical_formula_sum "Si O2"
_cell_formula_units_Z 56
_cell_length_a 14.437043
_cell_length_b 18.909129
_cell_length_c 10.747206
_cell_angle_alpha 90.000000
_cell_angle_beta 58.130347
_cell_angle_gamma 90.000000
_cell_volume 2491.619089
_symmetry_space_group_name_H-M "C 2/M"
_symmetry_group_IT_number 12
_symmetry_cell_setting 'monoclinic'
loop_
_space_group_symop_operation_xyz
x,y,z
-x,y,-z
-x,-y,-z
x,-y,z
1/2+x,1/2+y,z
1/2-x,1/2+y,-z
1/2-x,1/2-y,-z
1/2+x,1/2-y,z
loop_
_atom_site_type_symbol
_atom_site_label
_atom_site_fract_x
_atom_site_fract_y
_atom_site_fract_z
Si Si1 0.228247 0.575975 0.443468
Si Si2 0.173174 0.174365 0.819409
Si Si3 0.005106 0.632815 0.641566
Si Si4 0.994564 0.217423 0.252058
Si Si5 0.274892 0.319968 0.833776
Si Si6 0.787781 0.418302 0.915646
Si Si7 0.892106 0.882580 0.519720
O O1 0.230145 0.500000 0.369083
O O2 0.248262 0.645536 0.346579
O O3 0.323145 0.567058 0.479295
O O4 0.110031 0.583668 0.591336
O O5 0.054231 0.188317 0.844168
O O6 0.214881 0.247233 0.846863
O O7 0.181408 0.112684 0.917546
O O8 0.895672 0.590344 0.754782
O O9 0.000000 0.655104 0.500000
O O10 0.018725 0.698939 0.723980
O O11 0.936081 0.184957 0.413456
O O12 0.121079 0.198258 0.154890
O O13 0.308976 0.356994 0.683053
O O14 0.198977 0.374029 0.965422
O O15 0.766745 0.500000 0.962843
O O16 0.000000 0.921745 0.500000
#
# Coordination Sequence:
#
# PCOD8109655 Si02
#       7
#     8   8   8   8   8   8   8
#     4  11  22  37  63 101 135 171 218 273 335 388
#     4  11  22  41  68  96 130 171 223 274 321 384
#     4  12  22  40  68  97 131 172 215 275 324 392
#     4  10  21  39  69 104 124 160 230 276 325 374
#     4  11  22  44  65  94 133 176 219 270 327 388
#     4  12  27  44  64  96 136 179 218 265 335 402
#     4   9  20  39  66  95 128 167 220 278 320 383
#
# _framework density 22.475346999999999
#
# number of rings (size 3 to 8) (size 9 to 14) (size 15 to 20)
#    0.000    1.143    2.857    4.286    0.000    4.286 
#    0.000    9.286    0.000    4.286    0.000    0.000 
#    0.000    0.000    0.000    0.000    0.000    0.000 
#
# Total GULP energy -347046.681420 kJ/mol
# GULP energy per Si atom -12394.524336 kJ/mol
# Density = 2.242419 g / cm^3
# Si number density = 22.475347 Si / 1000 Ang^3
#
#
#
# Elastic Constant Matrix: (Units=GPa)
#
#
# Indices 1 2 3 4 5 6 
#
# 1 119.0266 33.6699 7.9235 0.0000 13.0558 0.0000
# 2 33.6699 134.4055 25.2188 0.0000 18.1438 0.0000
# 3 7.9235 25.2188 67.3836 0.0000 18.3968 0.0000
# 4 0.0000 0.0000 0.0000 0.7259 0.0000 5.1316
# 5 13.0558 18.1438 18.3968 0.0000 14.1760 0.0000
# 6 0.0000 0.0000 0.0000 5.1316 0.0000 21.7085
#
#
#
# Elastic Compliance Matrix: (Units=1/GPa)
#
#
# Indices 1 2 3 4 5 6 
#
# 1 0.009762 -0.001520 0.002082 0.000000 -0.009747 0.000000
# 2 -0.001520 0.009236 -0.000670 0.000000 -0.009551 0.000000
# 3 0.002082 -0.000670 0.023441 0.000000 -0.031480 0.000000
# 4 0.000000 0.000000 0.000000 -2.052791 0.000000 0.485255
# 5 -0.009747 -0.009551 -0.031480 0.000000 0.132595 0.000000
# 6 0.000000 0.000000 0.000000 0.485255 0.000000 -0.068644
#
#
# Mechanical properties :
#
#
# Convention : Reuss Voigt Hill
#
# Bulk Modulus (GPa) = 23.68432 50.49336 37.08884
# Shear Modulus (GPa) = -2.58785 24.25566 10.83391
#
# Velocity S-wave (km/s) = -1.07420 3.28870 2.19791
# Velocity P-wave (km/s) = 3.00370 6.07747 4.79363
#
# Compressibility (1/GPa) = 0.04222202
#
# Stress axis : x y z
#
# Youngs Moduli (GPa) = 102.43735 108.27007 42.66031
#
# Poissons Ratio (x) = 0.16462 -0.08882
# Poissons Ratio (y) = 0.15575 0.02859
# Poissons Ratio (z) = -0.21329 0.07257
#
# Static dielectric constant tensor:
#      x y z
#    x 4.444260 0.000000 0.110360 
#    y 0.000000 3.874590 0.000000 
#    z 0.110360 0.000000 3.979230 
# 
# 
# High freq. dielectric constant tensor:
#      x y z
#    x 1.892370 0.000000 0.004040 
#    y 0.000000 1.875350 0.000000 
#    z 0.004040 0.000000 1.880920 
# 
# From -- ./inp_files/146032.got.cif
#   From: 2010.06.25/outbox.cif.g09.slc.cpg/sg12_74_cif.got.tgz:146032.got - 2010.06.28 00:19:55.
