data_PCOD8109605
_publ_section_title
;
Structure prediction by ZEFSAII (Michael W. Deem and Ramdas Pophale) SiO2 
 PCOD8109605
Probable space group: C 2/M
;
_chemical_formula_sum "Si O2"
_cell_formula_units_Z 36
_cell_length_a 9.064943
_cell_length_b 20.910814
_cell_length_c 12.079880
_cell_angle_alpha 90.000000
_cell_angle_beta 130.450875
_cell_angle_gamma 90.000000
_cell_volume 1742.456330
_symmetry_space_group_name_H-M "C 2/M"
_symmetry_group_IT_number 12
_symmetry_cell_setting 'monoclinic'
loop_
_space_group_symop_operation_xyz
x,y,z
-x,y,-z
-x,-y,-z
x,-y,z
1/2+x,1/2+y,z
1/2-x,1/2+y,-z
1/2-x,1/2-y,-z
1/2+x,1/2-y,z
loop_
_atom_site_type_symbol
_atom_site_label
_atom_site_fract_x
_atom_site_fract_y
_atom_site_fract_z
Si Si1 0.500000 0.249403 0.000000
Si Si2 0.216601 0.071243 0.063453
Si Si3 0.453847 0.925387 0.605370
Si Si4 0.362804 0.327611 0.140364
Si Si5 0.853790 0.182077 0.528718
O O1 0.534866 0.289933 0.908257
O O2 0.307128 0.209674 0.879262
O O3 0.356936 0.092777 0.231152
O O4 0.266602 0.000000 0.051950
O O5 0.242485 0.110943 0.963711
O O6 0.000000 0.079158 0.000000
O O7 0.500000 0.912063 0.500000
O O8 0.292381 0.875906 0.569904
O O9 0.391214 0.000000 0.591869
O O10 0.529248 0.343509 0.308261
O O11 0.750000 0.250000 0.500000
O O12 0.000000 0.192584 0.500000
#
# Coordination Sequence:
#
# PCOD8109605 Si02
#       5
#     4   8   8   8   8
#     4  10  24  38  64  90 126 160 210 254 328 370
#     4  10  21  39  66  95 124 166 218 264 313 380
#     4  10  23  43  67  95 133 175 218 268 327 392
#     4  11  23  41  64  92 125 167 208 267 312 389
#     4  12  27  42  66  98 134 173 217 271 329 392
#
# _framework density 20.660488999999998
#
# number of rings (size 3 to 8) (size 9 to 14) (size 15 to 20)
#    0.000    1.333    1.111    3.333    9.333    3.111 
#    0.000    0.556    0.000    0.000    0.000    0.000 
#    0.000    0.000    0.000    0.000    0.000    0.000 
#
# Total GULP energy -223185.888074 kJ/mol
# GULP energy per Si atom -12399.216004 kJ/mol
# Density = 2.061346 g / cm^3
# Si number density = 20.660489 Si / 1000 Ang^3
#
#
#
# Elastic Constant Matrix: (Units=GPa)
#
#
# Indices 1 2 3 4 5 6 
#
# 1 122.1110 54.9366 45.8561 0.0000 6.9279 0.0000
# 2 54.9366 120.1188 65.3446 0.0000 8.9122 0.0000
# 3 45.8561 65.3446 183.0632 0.0000 12.0173 0.0000
# 4 0.0000 0.0000 0.0000 18.9085 0.0000 20.3776
# 5 6.9279 8.9122 12.0173 0.0000 26.8959 0.0000
# 6 0.0000 0.0000 0.0000 20.3776 0.0000 13.9779
#
#
#
# Elastic Compliance Matrix: (Units=1/GPa)
#
#
# Indices 1 2 3 4 5 6 
#
# 1 0.010516 -0.004150 -0.001098 0.000000 -0.000843 0.000000
# 2 -0.004150 0.012057 -0.003165 0.000000 -0.001512 0.000000
# 3 -0.001098 -0.003165 0.006985 0.000000 -0.001789 0.000000
# 4 0.000000 0.000000 0.000000 -0.092605 0.000000 0.135002
# 5 -0.000843 -0.001512 -0.001789 0.000000 0.038698 0.000000
# 6 0.000000 0.000000 0.000000 0.135002 0.000000 -0.125270
#
#
# Mechanical properties :
#
#
# Convention : Reuss Voigt Hill
#
# Bulk Modulus (GPa) = 78.53602 84.17418 81.35510
# Shear Modulus (GPa) = -38.89576 29.23352 -4.83112
#
# Velocity S-wave (km/s) = -4.34362 3.76566 -1.53082
# Velocity P-wave (km/s) = 3.59710 7.72897 6.02811
#
# Compressibility (1/GPa) = 0.01273301
#
# Stress axis : x y z
#
# Youngs Moduli (GPa) = 95.09016 82.93913 143.16960
#
# Poissons Ratio (x) = 0.34420 0.15714
# Poissons Ratio (y) = 0.39463 0.45312
# Poissons Ratio (z) = 0.10437 0.26250
#
# Static dielectric constant tensor:
#      x y z
#    x 3.457120 0.000000 0.400510 
#    y 0.000000 4.065370 0.000000 
#    z 0.400510 0.000000 3.500890 
# 
# 
# High freq. dielectric constant tensor:
#      x y z
#    x 1.800820 0.000000 0.006440 
#    y 0.000000 1.816440 0.000000 
#    z 0.006440 0.000000 1.826350 
# 
# From -- ./inp_files/122245.got.cif
#   From: 2010.06.25/outbox.cif.g09.slc.cpg/sg12_62_cif.got.tgz:122245.got - 2010.06.28 00:19:55.
