data_PCOD8109861
_publ_section_title
;
Structure prediction by ZEFSAII (Michael W. Deem and Ramdas Pophale) SiO2 
 PCOD8109861
Probable space group: C 2/M
;
_chemical_formula_sum "Si O2"
_cell_formula_units_Z 40
_cell_length_a 24.003444
_cell_length_b 9.140042
_cell_length_c 9.418915
_cell_angle_alpha 90.000000
_cell_angle_beta 102.674330
_cell_angle_gamma 90.000000
_cell_volume 2016.086139
_symmetry_space_group_name_H-M "C 2/M"
_symmetry_group_IT_number 12
_symmetry_cell_setting 'monoclinic'
loop_
_space_group_symop_operation_xyz
x,y,z
-x,y,-z
-x,-y,-z
x,-y,z
1/2+x,1/2+y,z
1/2-x,1/2+y,-z
1/2-x,1/2-y,-z
1/2+x,1/2-y,z
loop_
_atom_site_type_symbol
_atom_site_label
_atom_site_fract_x
_atom_site_fract_y
_atom_site_fract_z
Si Si1 0.952018 0.827726 0.363576
Si Si2 0.840829 0.667951 0.401322
Si Si3 0.763802 0.172052 0.860362
Si Si4 0.354716 0.170126 0.730382
Si Si5 0.984240 0.335668 0.828674
O O1 0.890977 0.769451 0.374490
O O2 0.000000 0.773704 0.500000
O O3 0.969441 0.766300 0.220653
O O4 0.948031 0.000000 0.352522
O O5 0.859130 0.500000 0.389232
O O6 0.785015 0.707885 0.280991
O O7 0.828240 0.699071 0.559915
O O8 0.822372 0.235035 0.830046
O O9 0.770534 0.000000 0.891277
O O10 0.750000 0.250000 0.000000
O O11 0.420295 0.223240 0.766982
O O12 0.350304 0.000000 0.771459
O O13 0.989078 0.500000 0.770082
O O14 0.000000 0.331916 0.000000
#
# Coordination Sequence:
#
# PCOD8109861 Si02
#       5
#     8   8   8   8   8
#     4  11  23  38  60  93 126 156 196 247 299 351
#     4  10  22  41  65  88 116 161 206 243 293 359
#     4  11  25  42  62  89 121 157 199 249 303 357
#     4  10  21  40  64  89 119 156 201 249 296 351
#     4  10  22  39  62  90 122 161 199 241 296 360
#
# _framework density 19.840420999999999
#
# number of rings (size 3 to 8) (size 9 to 14) (size 15 to 20)
#    0.000    1.600    2.000    1.800    2.800    4.400 
#    0.000    0.000    0.000    0.000    0.000    0.000 
#    0.000    0.000    0.000    0.000    0.000    0.000 
#
# Total GULP energy -248105.695214 kJ/mol
# GULP energy per Si atom -12405.284761 kJ/mol
# Density = 1.979526 g / cm^3
# Si number density = 19.840421 Si / 1000 Ang^3
#
#
#
# Elastic Constant Matrix: (Units=GPa)
#
#
# Indices 1 2 3 4 5 6 
#
# 1 79.5944 43.8557 26.1514 0.0000 -19.1538 0.0000
# 2 43.8557 76.8837 35.6481 0.0000 -14.3973 0.0000
# 3 26.1514 35.6481 92.7352 0.0000 -8.5692 0.0000
# 4 0.0000 0.0000 0.0000 31.1964 0.0000 -6.4473
# 5 -19.1538 -14.3973 -8.5692 0.0000 36.9073 0.0000
# 6 0.0000 0.0000 0.0000 -6.4473 0.0000 40.6881
#
#
#
# Elastic Compliance Matrix: (Units=1/GPa)
#
#
# Indices 1 2 3 4 5 6 
#
# 1 0.019715 -0.009453 -0.001350 0.000000 0.006231 0.000000
# 2 -0.009453 0.021264 -0.005309 0.000000 0.002156 0.000000
# 3 -0.001350 -0.005309 0.013233 0.000000 0.000301 0.000000
# 4 0.000000 0.000000 0.000000 0.033140 0.000000 0.005251
# 5 0.006231 0.002156 0.000301 0.000000 0.031239 0.000000
# 6 0.000000 0.000000 0.000000 0.005251 0.000000 0.025409
#
#
# Mechanical properties :
#
#
# Convention : Reuss Voigt Hill
#
# Bulk Modulus (GPa) = 45.48017 51.16929 48.32473
# Shear Modulus (GPa) = 27.23975 31.32889 29.28432
#
# Velocity S-wave (km/s) = 3.70934 3.97803 3.84603
# Velocity P-wave (km/s) = 6.42794 6.85172 6.64321
#
# Compressibility (1/GPa) = 0.02198760
#
# Stress axis : x y z
#
# Youngs Moduli (GPa) = 50.72226 47.02710 75.57004
#
# Poissons Ratio (x) = 0.44455 0.10203
# Poissons Ratio (y) = 0.47949 0.40121
# Poissons Ratio (z) = 0.06848 0.24967
#
# Static dielectric constant tensor:
#      x y z
#    x 3.585930 0.000000 0.095870 
#    y 0.000000 3.581010 0.000000 
#    z 0.095870 0.000000 3.713480 
# 
# 
# High freq. dielectric constant tensor:
#      x y z
#    x 1.779720 0.000000 -0.000240 
#    y 0.000000 1.771310 0.000000 
#    z -0.000240 0.000000 1.783990 
# 
# From -- ./inp_files/92737.got.cif
#   From: 2010.06.25/outbox.cif.g09.slc.cpg/sg12_47_cif.got.tgz:92737.got - 2010.06.28 00:19:55.
