data_PCOD8109854
_publ_section_title
;
Structure prediction by ZEFSAII (Michael W. Deem and Ramdas Pophale) SiO2 
 PCOD8109854
Probable space group: C 2/M
;
_chemical_formula_sum "Si O2"
_cell_formula_units_Z 64
_cell_length_a 19.435275
_cell_length_b 8.867416
_cell_length_c 31.048926
_cell_angle_alpha 90.000000
_cell_angle_beta 143.316591
_cell_angle_gamma 90.000000
_cell_volume 3196.645312
_symmetry_space_group_name_H-M "C 2/M"
_symmetry_group_IT_number 12
_symmetry_cell_setting 'monoclinic'
loop_
_space_group_symop_operation_xyz
x,y,z
-x,y,-z
-x,-y,-z
x,-y,z
1/2+x,1/2+y,z
1/2-x,1/2+y,-z
1/2-x,1/2-y,-z
1/2+x,1/2-y,z
loop_
_atom_site_type_symbol
_atom_site_label
_atom_site_fract_x
_atom_site_fract_y
_atom_site_fract_z
Si Si1 0.021028 0.677567 0.730149
Si Si2 0.483937 0.328220 0.119467
Si Si3 0.082747 0.824642 0.676400
Si Si4 0.341114 0.322624 0.513792
Si Si5 0.778436 0.176594 0.620679
Si Si6 0.833613 0.176713 0.123084
Si Si7 0.928461 0.678065 0.004683
Si Si8 0.272444 0.326832 0.717168
O O1 0.003173 0.500000 0.721867
O O2 0.094573 0.727467 0.725701
O O3 0.086725 0.727243 0.805774
O O4 0.898497 0.757293 0.664604
O O5 0.480121 0.500000 0.101834
O O6 0.373815 0.291657 0.094258
O O7 0.486663 0.227122 0.078379
O O8 0.596414 0.295056 0.204163
O O9 0.192533 0.786596 0.702848
O O10 0.968858 0.780104 0.592948
O O11 0.084364 0.000000 0.689468
O O12 0.320753 0.500000 0.502232
O O13 0.250000 0.250000 0.500000
O O14 0.324346 0.253450 0.457799
O O15 0.757664 0.213276 0.659879
O O16 0.780685 0.000000 0.612261
O O17 0.847509 0.000000 0.141262
O O18 0.703179 0.234996 0.063200
O O19 0.931154 0.500000 0.004404
O O20 0.000000 0.744895 0.000000
O O21 0.237931 0.500000 0.709053
#
# Coordination Sequence:
#
# PCOD8109854 Si02
#       8
#     8   8   8   8   8   8   8   8
#     4  12  24  38  63  95 124 159 212 261 303 370
#     4  10  21  40  64  88 121 164 205 252 303 362
#     4  11  25  42  62  89 126 166 204 256 318 368
#     4  11  23  39  62  91 123 163 209 259 311 369
#     4  11  22  41  66  91 126 165 205 256 313 368
#     4  10  21  41  64  87 125 167 204 251 309 364
#     4  10  23  40  60  92 126 160 204 252 304 366
#     4  10  23  42  63  91 126 163 207 255 311 370
#
# _framework density 20.020990000000001
#
# number of rings (size 3 to 8) (size 9 to 14) (size 15 to 20)
#    0.000    1.375    2.500    2.625    1.750    4.750 
#    0.000    2.500    0.000    0.000    0.000    0.000 
#    0.000    0.000    0.000    0.000    0.000    0.000 
#
# Total GULP energy -396984.414120 kJ/mol
# GULP energy per Si atom -12405.762941 kJ/mol
# Density = 1.997542 g / cm^3
# Si number density = 20.020990 Si / 1000 Ang^3
#
#
#
# Elastic Constant Matrix: (Units=GPa)
#
#
# Indices 1 2 3 4 5 6 
#
# 1 117.5746 29.2295 31.6570 0.0000 -0.8927 0.0001
# 2 29.2295 59.4702 22.5190 0.0001 -4.2828 0.0003
# 3 31.6570 22.5190 71.3759 0.0000 -12.2449 0.0000
# 4 0.0000 0.0001 0.0000 33.7005 0.0000 -4.2641
# 5 -0.8927 -4.2828 -12.2449 0.0000 36.0774 0.0000
# 6 0.0001 0.0003 0.0000 -4.2641 0.0000 32.9400
#
#
#
# Elastic Compliance Matrix: (Units=1/GPa)
#
#
# Indices 1 2 3 4 5 6 
#
# 1 0.010437 -0.003847 -0.003663 0.000000 -0.001442 0.000000
# 2 -0.003847 0.020516 -0.004635 0.000000 0.000767 0.000000
# 3 -0.003663 -0.004635 0.018038 0.000000 0.005481 0.000000
# 4 0.000000 0.000000 0.000000 0.030167 0.000000 0.003905
# 5 -0.001442 0.000767 0.005481 0.000000 0.029634 0.000000
# 6 0.000000 0.000000 0.000000 0.003905 0.000000 0.030864
#
#
# Mechanical properties :
#
#
# Convention : Reuss Voigt Hill
#
# Bulk Modulus (GPa) = 40.48319 46.13686 43.31003
# Shear Modulus (GPa) = 29.03972 31.54459 30.29216
#
# Velocity S-wave (km/s) = 3.81263 3.97366 3.89398
# Velocity P-wave (km/s) = 6.29649 6.64436 6.47276
#
# Compressibility (1/GPa) = 0.02470161
#
# Stress axis : x y z
#
# Youngs Moduli (GPa) = 95.81538 48.74218 55.43992
#
# Poissons Ratio (x) = 0.18749 0.20306
# Poissons Ratio (y) = 0.36856 0.25697
# Poissons Ratio (z) = 0.35094 0.22593
#
# Static dielectric constant tensor:
#      x y z
#    x 3.749690 0.000000 0.060440 
#    y 0.000000 3.595040 0.000000 
#    z 0.060440 0.000000 3.666680 
# 
# 
# High freq. dielectric constant tensor:
#      x y z
#    x 1.787970 0.000000 -0.005930 
#    y 0.000000 1.778600 0.000000 
#    z -0.005930 0.000000 1.789430 
# 
# From -- ./inp_files/378376.got.cif
#   From: 2010.06.25/outbox.cif.g09.slc.cpg/sg12_190_cif.got.tgz:378376.got - 2010.06.28 00:19:55.
