data_PCOD8109634
_publ_section_title
;
Structure prediction by ZEFSAII (Michael W. Deem and Ramdas Pophale) SiO2 
 PCOD8109634
Probable space group: C 2/M
;
_chemical_formula_sum "Si O2"
_cell_formula_units_Z 32
_cell_length_a 13.885696
_cell_length_b 18.727839
_cell_length_c 10.790718
_cell_angle_alpha 90.000000
_cell_angle_beta 31.348509
_cell_angle_gamma 90.000000
_cell_volume 1459.860516
_symmetry_space_group_name_H-M "C 2/M"
_symmetry_group_IT_number 12
_symmetry_cell_setting 'monoclinic'
loop_
_space_group_symop_operation_xyz
x,y,z
-x,y,-z
-x,-y,-z
x,-y,z
1/2+x,1/2+y,z
1/2-x,1/2+y,-z
1/2-x,1/2-y,-z
1/2+x,1/2-y,z
loop_
_atom_site_type_symbol
_atom_site_label
_atom_site_fract_x
_atom_site_fract_y
_atom_site_fract_z
Si Si1 0.433402 0.262193 0.376830
Si Si2 0.191138 0.119300 0.325247
Si Si3 0.398168 0.000000 0.741603
Si Si4 0.125182 0.500000 0.742161
Si Si5 0.718990 0.143652 0.042800
O O1 0.250000 0.250000 0.500000
O O2 0.354321 0.298836 0.587575
O O3 0.541122 0.188518 0.285493
O O4 0.586952 0.315569 0.146718
O O5 0.264681 0.074384 0.361375
O O6 0.000000 0.079986 0.500000
O O7 0.318899 0.124271 0.061620
O O8 0.500000 0.000000 0.500000
O O9 0.541752 0.000000 0.697854
O O10 0.271396 0.070528 0.889814
O O11 0.000000 0.500000 0.000000
#
# Coordination Sequence:
#
# PCOD8109634 Si02
#       5
#     8   8   4   4   8
#     4  10  22  37  64  96 130 168 222 273 331 396
#     4  10  21  39  67  97 126 168 232 279 326 389
#     4  12  26  42  66  98 143 178 222 279 348 401
#     4  12  21  38  71  95 124 174 226 270 323 396
#     4  10  22  43  63  93 132 175 216 280 334 386
#
# _framework density 21.919900999999999
#
# number of rings (size 3 to 8) (size 9 to 14) (size 15 to 20)
#    0.000    1.500    2.500    1.875    0.000    8.000 
#    0.000    3.750    0.000   18.000    0.000    0.000 
#    0.000    0.000    0.000    0.000    0.000    0.000 
#
# Total GULP energy -198216.530535 kJ/mol
# GULP energy per Si atom -12388.533158 kJ/mol
# Density = 2.187001 g / cm^3
# Si number density = 21.919901 Si / 1000 Ang^3
#
#
#
# Elastic Constant Matrix: (Units=GPa)
#
#
# Indices 1 2 3 4 5 6 
#
# 1 101.0009 26.5698 34.8210 -0.0054 -6.2455 0.0262
# 2 26.5698 150.9909 53.8912 -0.0033 1.4070 0.0406
# 3 34.8210 53.8912 96.8344 0.0062 7.2231 0.0813
# 4 -0.0054 -0.0033 0.0062 42.9856 0.0037 10.5696
# 5 -6.2455 1.4070 7.2231 0.0037 46.8516 -0.0341
# 6 0.0262 0.0406 0.0813 10.5696 -0.0341 43.1286
#
#
#
# Elastic Compliance Matrix: (Units=1/GPa)
#
#
# Indices 1 2 3 4 5 6 
#
# 1 0.011571 -0.000641 -0.003966 0.000001 0.002173 0.000002
# 2 -0.000641 0.008310 -0.004420 0.000001 0.000347 0.000001
# 3 -0.003966 -0.004420 0.014408 0.000003 -0.002617 -0.000023
# 4 0.000001 0.000001 0.000003 0.024755 -0.000007 -0.006067
# 5 0.002173 0.000347 -0.002617 -0.000007 0.022027 0.000022
# 6 0.000002 0.000001 -0.000023 -0.006067 0.000022 0.024673
#
#
# Mechanical properties :
#
#
# Convention : Reuss Voigt Hill
#
# Bulk Modulus (GPa) = 61.59552 64.37665 62.98608
# Shear Modulus (GPa) = 38.69607 42.16277 40.42942
#
# Velocity S-wave (km/s) = 4.20615 4.39052 4.29933
# Velocity P-wave (km/s) = 7.19376 7.42530 7.31045
#
# Compressibility (1/GPa) = 0.01623495
#
# Stress axis : x y z
#
# Youngs Moduli (GPa) = 86.42051 120.33544 69.40350
#
# Poissons Ratio (x) = 0.07710 0.27529
# Poissons Ratio (y) = 0.05537 0.30678
# Poissons Ratio (z) = 0.34279 0.53191
#
# Static dielectric constant tensor:
#      x y z
#    x 2.738080 -0.001090 0.194280 
#    y -0.001090 4.623210 0.000670 
#    z 0.194280 0.000670 3.909620 
# 
# 
# High freq. dielectric constant tensor:
#      x y z
#    x 1.837210 0.000000 -0.012830 
#    y 0.000000 1.880250 0.000010 
#    z -0.012830 0.000010 1.857870 
# 
# From -- ./inp_files/146821.got.cif
#   From: 2010.06.25/outbox.cif.g09.slc.cpg/sg12_74_cif.got.tgz:146821.got - 2010.06.28 00:19:55.
