data_PCOD8109956
_publ_section_title
;
Structure prediction by ZEFSAII (Michael W. Deem and Ramdas Pophale) SiO2 
 PCOD8109956
Probable space group: C 2/M
;
_chemical_formula_sum "Si O2"
_cell_formula_units_Z 56
_cell_length_a 19.044956
_cell_length_b 8.932498
_cell_length_c 26.360962
_cell_angle_alpha 90.000000
_cell_angle_beta 140.735941
_cell_angle_gamma 90.000000
_cell_volume 2838.219929
_symmetry_space_group_name_H-M "C 2/M"
_symmetry_group_IT_number 12
_symmetry_cell_setting 'monoclinic'
loop_
_space_group_symop_operation_xyz
x,y,z
-x,y,-z
-x,-y,-z
x,-y,z
1/2+x,1/2+y,z
1/2-x,1/2+y,-z
1/2-x,1/2-y,-z
1/2+x,1/2-y,z
loop_
_atom_site_type_symbol
_atom_site_label
_atom_site_fract_x
_atom_site_fract_y
_atom_site_fract_z
Si Si1 0.912382 0.677753 0.724933
Si Si2 0.522407 0.673592 0.068914
Si Si3 0.647915 0.675755 0.415032
Si Si4 0.211037 0.825886 0.250683
Si Si5 0.091783 0.172751 0.686201
Si Si6 0.821195 0.669577 0.998558
Si Si7 0.626293 0.329456 0.818889
O O1 0.903749 0.500000 0.716698
O O2 0.865363 0.749697 0.647219
O O3 0.841731 0.733719 0.733017
O O4 0.041097 0.727153 0.803596
O O5 0.492326 0.500000 0.051539
O O6 0.644343 0.703040 0.160407
O O7 0.500000 0.740450 0.000000
O O8 0.439419 0.753520 0.060866
O O9 0.668247 0.500000 0.418495
O O10 0.750000 0.750000 0.500000
O O11 0.540208 0.702878 0.390752
O O12 0.338137 0.772157 0.314189
O O13 0.209817 0.000000 0.264450
O O14 0.129804 0.223452 0.763179
O O15 0.119956 0.000000 0.691215
O O16 0.841005 0.500000 0.025983
O O17 0.752222 0.684404 0.907984
O O18 0.750000 0.750000 0.000000
O O19 0.581895 0.500000 0.798038
#
# Coordination Sequence:
#
# PCOD8109956 Si02
#       7
#     8   8   8   8   8   8   8
#     4  11  22  36  58  85 113 149 190 230 277 332
#     4  10  22  38  54  76 109 148 190 239 291 338
#     4  10  21  40  65  92 121 148 179 221 270 327
#     4  11  22  36  55  80 113 150 189 235 283 333
#     4   9  19  36  58  82 109 142 179 222 270 325
#     4  11  22  34  51  75 104 141 185 235 287 336
#     4   9  19  36  54  75 106 142 184 234 284 333
#
# _framework density 19.730677
#
# number of rings (size 3 to 8) (size 9 to 14) (size 15 to 20)
#    0.000    1.857    0.000    5.143    0.000    8.857 
#    0.000    0.714    0.000    4.286    0.000    0.000 
#    0.000    0.000    0.000    0.000    0.000    0.000 
#
# Total GULP energy -347189.860050 kJ/mol
# GULP energy per Si atom -12399.637859 kJ/mol
# Density = 1.968577 g / cm^3
# Si number density = 19.730677 Si / 1000 Ang^3
#
#
#
# Elastic Constant Matrix: (Units=GPa)
#
#
# Indices 1 2 3 4 5 6 
#
# 1 103.4874 53.4740 22.1076 0.0000 16.0955 0.0000
# 2 53.4740 109.3168 36.0105 0.0000 9.5626 0.0001
# 3 22.1076 36.0105 63.0350 0.0000 12.6693 0.0000
# 4 0.0000 0.0000 0.0000 31.1730 0.0000 3.5805
# 5 16.0955 9.5626 12.6693 0.0000 26.2087 0.0000
# 6 0.0000 0.0001 0.0000 3.5805 0.0000 37.7044
#
#
#
# Elastic Compliance Matrix: (Units=1/GPa)
#
#
# Indices 1 2 3 4 5 6 
#
# 1 0.013852 -0.006213 -0.000061 0.000000 -0.006211 0.000000
# 2 -0.006213 0.014084 -0.006204 0.000000 0.001676 0.000000
# 3 -0.000061 -0.006204 0.021008 0.000000 -0.007855 0.000000
# 4 0.000000 0.000000 0.000000 0.032433 0.000000 -0.003080
# 5 -0.006211 0.001676 -0.007855 0.000000 0.045155 0.000000
# 6 0.000000 0.000000 0.000000 -0.003080 0.000000 0.026815
#
#
# Mechanical properties :
#
#
# Convention : Reuss Voigt Hill
#
# Bulk Modulus (GPa) = 41.68396 55.44706 48.56551
# Shear Modulus (GPa) = 26.83882 29.96703 28.40292
#
# Velocity S-wave (km/s) = 3.69217 3.90141 3.79823
# Velocity P-wave (km/s) = 6.27284 6.96115 6.62594
#
# Compressibility (1/GPa) = 0.02399004
#
# Stress axis : x y z
#
# Youngs Moduli (GPa) = 72.19071 71.00382 47.60049
#
# Poissons Ratio (x) = 0.44113 0.00289
# Poissons Ratio (y) = 0.44850 0.29529
# Poissons Ratio (z) = 0.00438 0.44048
#
# Static dielectric constant tensor:
#      x y z
#    x 3.525590 0.000000 0.106590 
#    y 0.000000 3.639700 0.000000 
#    z 0.106590 0.000000 4.056930 
# 
# 
# High freq. dielectric constant tensor:
#      x y z
#    x 1.768620 0.000000 0.007020 
#    y 0.000000 1.773770 0.000000 
#    z 0.007020 0.000000 1.759060 
# 
# From -- ./inp_files/363167.got.cif
#   From: 2010.06.25/outbox.cif.g09.slc.cpg/sg12_182_cif.got.tgz:363167.got - 2010.06.28 00:19:55.
