data_PCOD8109202
_publ_section_title
;
Structure prediction by ZEFSAII (Michael W. Deem and Ramdas Pophale) SiO2 
 PCOD8109202
Probable space group: C 2/M
;
_chemical_formula_sum "Si O2"
_cell_formula_units_Z 56
_cell_length_a 19.302214
_cell_length_b 8.981520
_cell_length_c 18.987681
_cell_angle_alpha 90.000000
_cell_angle_beta 121.327590
_cell_angle_gamma 90.000000
_cell_volume 2811.854313
_symmetry_space_group_name_H-M "C 2/M"
_symmetry_group_IT_number 12
_symmetry_cell_setting 'monoclinic'
loop_
_space_group_symop_operation_xyz
x,y,z
-x,y,-z
-x,-y,-z
x,-y,z
1/2+x,1/2+y,z
1/2-x,1/2+y,-z
1/2-x,1/2-y,-z
1/2+x,1/2-y,z
loop_
_atom_site_type_symbol
_atom_site_label
_atom_site_fract_x
_atom_site_fract_y
_atom_site_fract_z
Si Si1 0.798096 0.830058 0.315957
Si Si2 0.424133 0.829367 0.649582
Si Si3 0.633472 0.324079 0.245236
Si Si4 0.995318 0.325000 0.079891
Si Si5 0.921841 0.171277 0.501894
Si Si6 0.168490 0.328830 0.935565
Si Si7 0.889182 0.667021 0.248368
O O1 0.722041 0.722320 0.264903
O O2 0.840135 0.809897 0.413739
O O3 0.864535 0.788246 0.292654
O O4 0.770545 0.000000 0.290022
O O5 0.373109 0.736621 0.678957
O O6 0.408308 0.769202 0.563454
O O7 0.517109 0.812373 0.720794
O O8 0.395146 0.000000 0.637141
O O9 0.624987 0.500000 0.240793
O O10 0.567244 0.257786 0.157775
O O11 0.004903 0.500000 0.100489
O O12 0.909364 0.264395 0.063754
O O13 0.000000 0.288026 0.000000
O O14 0.000000 0.230829 0.500000
O O15 0.936871 0.000000 0.531309
O O16 0.177199 0.500000 0.960425
O O17 0.160267 0.303289 0.848363
O O18 0.250000 0.250000 0.000000
O O19 0.873399 0.500000 0.268914
#
# Coordination Sequence:
#
# PCOD8109202 Si02
#       7
#     8   8   8   8   8   8   8
#     4  11  24  41  64  91 126 166 207 255 312 373
#     4  11  22  40  67  92 123 167 210 253 311 373
#     4  12  26  43  64  91 127 165 210 260 309 370
#     4  10  22  43  67  91 124 166 208 252 309 372
#     4  10  21  39  62  94 128 160 207 261 311 366
#     4  10  22  40  61  92 128 161 203 254 304 364
#     4  10  21  39  62  90 126 162 205 257 305 364
#
# _framework density 19.915683000000001
#
# number of rings (size 3 to 8) (size 9 to 14) (size 15 to 20)
#    0.000    1.429    2.857    2.143    2.000    4.000 
#    0.000    0.000    0.000    0.000    0.000    0.000 
#    0.000    0.000    0.000    0.000    0.000    0.000 
#
# Total GULP energy -347348.748460 kJ/mol
# GULP energy per Si atom -12405.312445 kJ/mol
# Density = 1.987035 g / cm^3
# Si number density = 19.915683 Si / 1000 Ang^3
#
#
#
# Elastic Constant Matrix: (Units=GPa)
#
#
# Indices 1 2 3 4 5 6 
#
# 1 64.4412 33.8604 22.5336 0.0000 3.4606 0.0000
# 2 33.8604 95.4640 47.8428 0.0000 0.0024 0.0000
# 3 22.5336 47.8428 77.1393 0.0000 5.3852 0.0000
# 4 0.0000 0.0000 0.0000 32.3507 0.0000 1.0478
# 5 3.4606 0.0024 5.3852 0.0000 34.4471 0.0000
# 6 0.0000 0.0000 0.0000 1.0478 0.0000 33.5842
#
#
#
# Elastic Compliance Matrix: (Units=1/GPa)
#
#
# Indices 1 2 3 4 5 6 
#
# 1 0.019379 -0.005941 -0.001861 0.000000 -0.001656 0.000000
# 2 -0.005941 0.017097 -0.009008 0.000000 0.002004 0.000000
# 3 -0.001861 -0.009008 0.019291 0.000000 -0.002828 0.000000
# 4 0.000000 0.000000 0.000000 0.030943 0.000000 -0.000965
# 5 -0.001656 0.002004 -0.002828 0.000000 0.029638 0.000000
# 6 0.000000 0.000000 0.000000 -0.000965 0.000000 0.029806
#
#
# Mechanical properties :
#
#
# Convention : Reuss Voigt Hill
#
# Bulk Modulus (GPa) = 45.15108 49.50202 47.32655
# Shear Modulus (GPa) = 26.71552 28.93024 27.82288
#
# Velocity S-wave (km/s) = 3.66653 3.81548 3.74175
# Velocity P-wave (km/s) = 6.37534 6.65735 6.51787
#
# Compressibility (1/GPa) = 0.02214786
#
# Stress axis : x y z
#
# Youngs Moduli (GPa) = 51.60143 58.49007 51.83635
#
# Poissons Ratio (x) = 0.34750 0.09645
# Poissons Ratio (y) = 0.30657 0.46695
# Poissons Ratio (z) = 0.09601 0.52689
#
# Static dielectric constant tensor:
#      x y z
#    x 3.732460 0.000000 -0.054510 
#    y 0.000000 3.588750 0.000000 
#    z -0.054510 0.000000 3.638590 
# 
# 
# High freq. dielectric constant tensor:
#      x y z
#    x 1.782500 0.000000 0.000050 
#    y 0.000000 1.773020 0.000000 
#    z 0.000050 0.000000 1.786200 
# 
# From -- ./inp_files/275570.got.cif
#   From: 2010.06.25/outbox.cif.g09.slc.cpg/sg12_138_cif.got.tgz:275570.got - 2010.06.28 00:19:55.
