data_PCOD8109189
_publ_section_title
;
Structure prediction by ZEFSAII (Michael W. Deem and Ramdas Pophale) SiO2 
 PCOD8109189
Probable space group: C 2/M
;
_chemical_formula_sum "Si O2"
_cell_formula_units_Z 56
_cell_length_a 9.313820
_cell_length_b 23.599002
_cell_length_c 13.790760
_cell_angle_alpha 90.000000
_cell_angle_beta 116.372957
_cell_angle_gamma 90.000000
_cell_volume 2715.686593
_symmetry_space_group_name_H-M "C 2/M"
_symmetry_group_IT_number 12
_symmetry_cell_setting 'monoclinic'
loop_
_space_group_symop_operation_xyz
x,y,z
-x,y,-z
-x,-y,-z
x,-y,z
1/2+x,1/2+y,z
1/2-x,1/2+y,-z
1/2-x,1/2-y,-z
1/2+x,1/2-y,z
loop_
_atom_site_type_symbol
_atom_site_label
_atom_site_fract_x
_atom_site_fract_y
_atom_site_fract_z
Si Si1 0.886936 0.277711 0.605013
Si Si2 0.208536 0.567407 0.944996
Si Si3 0.670550 0.369085 0.834369
Si Si4 0.501040 0.100126 0.394549
Si Si5 0.224163 0.240908 0.751988
Si Si6 0.683042 0.367575 0.198934
Si Si7 0.364925 0.062780 0.756691
O O1 0.750000 0.250000 0.500000
O O2 0.914618 0.339308 0.569624
O O3 0.846498 0.280783 0.706926
O O4 0.051175 0.242322 0.647426
O O5 0.243024 0.500000 0.960269
O O6 0.328906 0.597581 0.905081
O O7 0.027893 0.581191 0.859505
O O8 0.232105 0.597128 0.055050
O O9 0.721631 0.302940 0.841734
O O10 0.481811 0.374230 0.793259
O O11 0.719167 0.396962 0.745716
O O12 0.500000 0.070566 0.500000
O O13 0.317866 0.104538 0.306093
O O14 0.605528 0.064161 0.349955
O O15 0.276247 0.301821 0.810303
O O16 0.315790 0.000000 0.772783
#
# Coordination Sequence:
#
# PCOD8109189 Si02
#       7
#     8   8   8   8   8   8   8
#     4  11  20  37  60  90 119 165 206 248 299 369
#     4  10  23  43  67  90 116 162 212 250 307 370
#     4  12  22  38  62  91 126 159 203 262 299 358
#     4  10  21  39  62  90 122 162 204 248 304 374
#     4  11  22  37  57  91 129 158 201 249 309 365
#     4  10  23  40  60  91 127 160 204 251 303 368
#     4  10  22  42  65  90 120 157 206 261 308 364
#
# _framework density 20.620937000000001
#
# number of rings (size 3 to 8) (size 9 to 14) (size 15 to 20)
#    0.000    1.429    2.857    3.429    0.000    3.714 
#    0.000    2.143    0.000    0.857    0.000    0.000 
#    0.000    0.000    0.000    0.000    0.000    0.000 
#
# Total GULP energy -347213.724475 kJ/mol
# GULP energy per Si atom -12400.490160 kJ/mol
# Density = 2.057400 g / cm^3
# Si number density = 20.620937 Si / 1000 Ang^3
#
#
#
# Elastic Constant Matrix: (Units=GPa)
#
#
# Indices 1 2 3 4 5 6 
#
# 1 131.9363 47.0525 27.4360 0.0000 -10.5161 0.0000
# 2 47.0525 96.1291 35.2735 0.0000 -3.4485 0.0000
# 3 27.4360 35.2735 75.2076 0.0000 -15.8008 0.0000
# 4 0.0000 0.0000 0.0000 19.2630 0.0000 -5.7602
# 5 -10.5161 -3.4485 -15.8008 0.0000 28.8878 0.0000
# 6 0.0000 0.0000 0.0000 -5.7602 0.0000 27.0486
#
#
#
# Elastic Compliance Matrix: (Units=1/GPa)
#
#
# Indices 1 2 3 4 5 6 
#
# 1 0.009469 -0.004187 -0.000984 0.000000 0.002409 0.000000
# 2 -0.004187 0.014515 -0.005916 0.000000 -0.003028 0.000000
# 3 -0.000984 -0.005916 0.018311 0.000000 0.008951 0.000000
# 4 0.000000 0.000000 0.000000 0.055444 0.000000 0.011807
# 5 0.002409 -0.003028 0.008951 0.000000 0.040028 0.000000
# 6 0.000000 0.000000 0.000000 0.011807 0.000000 0.039485
#
#
# Mechanical properties :
#
#
# Convention : Reuss Voigt Hill
#
# Bulk Modulus (GPa) = 49.70387 58.08856 53.89622
# Shear Modulus (GPa) = 24.25612 27.94063 26.09838
#
# Velocity S-wave (km/s) = 3.43342 3.68498 3.56142
# Velocity P-wave (km/s) = 6.31457 6.80707 6.56544
#
# Compressibility (1/GPa) = 0.02011916
#
# Stress axis : x y z
#
# Youngs Moduli (GPa) = 105.60239 68.89658 54.61218
#
# Poissons Ratio (x) = 0.28850 0.05376
# Poissons Ratio (y) = 0.44220 0.32309
# Poissons Ratio (z) = 0.10396 0.40759
#
# Static dielectric constant tensor:
#      x y z
#    x 3.955250 0.000000 -0.156070 
#    y 0.000000 3.773420 0.000000 
#    z -0.156070 0.000000 3.512040 
# 
# 
# High freq. dielectric constant tensor:
#      x y z
#    x 1.824170 0.000000 -0.011900 
#    y 0.000000 1.806110 0.000000 
#    z -0.011900 0.000000 1.785330 
# 
# From -- ./inp_files/198979.got.cif
#   From: 2010.06.25/outbox.cif.g09.slc.cpg/sg12_100_cif.got.tgz:198979.got - 2010.06.28 00:19:55.
