data_PCOD8109807
_publ_section_title
;
Structure prediction by ZEFSAII (Michael W. Deem and Ramdas Pophale) SiO2 
 PCOD8109807
Probable space group: C 2/M
;
_chemical_formula_sum "Si O2"
_cell_formula_units_Z 48
_cell_length_a 24.472354
_cell_length_b 8.802458
_cell_length_c 11.586549
_cell_angle_alpha 90.000000
_cell_angle_beta 111.106682
_cell_angle_gamma 90.000000
_cell_volume 2328.489468
_symmetry_space_group_name_H-M "C 2/M"
_symmetry_group_IT_number 12
_symmetry_cell_setting 'monoclinic'
loop_
_space_group_symop_operation_xyz
x,y,z
-x,y,-z
-x,-y,-z
x,-y,z
1/2+x,1/2+y,z
1/2-x,1/2+y,-z
1/2-x,1/2-y,-z
1/2+x,1/2-y,z
loop_
_atom_site_type_symbol
_atom_site_label
_atom_site_fract_x
_atom_site_fract_y
_atom_site_fract_z
Si Si1 0.874640 0.177651 0.657816
Si Si2 0.914869 0.174357 0.202617
Si Si3 0.774846 0.680304 0.711061
Si Si4 0.800361 0.825082 0.963914
Si Si5 0.016228 0.320857 0.139994
Si Si6 0.857096 0.177615 0.388581
O O1 0.810320 0.246118 0.632192
O O2 0.889190 0.210931 0.534335
O O3 0.921664 0.253091 0.776922
O O4 0.873238 0.000000 0.682426
O O5 0.968293 0.272713 0.196917
O O6 0.895935 0.243401 0.313015
O O7 0.935907 0.000000 0.229554
O O8 0.861236 0.189369 0.075386
O O9 0.776538 0.500000 0.700312
O O10 0.807483 0.732524 0.851772
O O11 0.708641 0.745607 0.661260
O O12 0.784384 0.000000 0.927484
O O13 0.750000 0.750000 0.000000
O O14 0.022062 0.500000 0.143426
O O15 0.000000 0.259317 0.000000
O O16 0.849949 0.000000 0.359147
#
# Coordination Sequence:
#
# PCOD8109807 Si02
#       6
#     8   8   8   8   8   8
#     4  11  23  40  63  89 118 159 207 247 296 362
#     4  10  21  40  63  88 120 159 200 244 295 356
#     4  11  21  38  61  88 127 163 199 250 301 353
#     4  11  21  35  59  90 123 158 199 244 296 354
#     4  11  25  44  63  86 118 156 197 249 308 359
#     4   9  20  39  61  88 123 161 198 243 302 359
#
# _framework density 20.614222000000002
#
# number of rings (size 3 to 8) (size 9 to 14) (size 15 to 20)
#    0.000    1.500    1.667    3.500    0.000    6.000 
#    0.000    7.500    0.000    0.000    0.000    0.000 
#    0.000    0.000    0.000    0.000    0.000    0.000 
#
# Total GULP energy -297673.580474 kJ/mol
# GULP energy per Si atom -12403.065853 kJ/mol
# Density = 2.056730 g / cm^3
# Si number density = 20.614222 Si / 1000 Ang^3
#
#
#
# Elastic Constant Matrix: (Units=GPa)
#
#
# Indices 1 2 3 4 5 6 
#
# 1 120.2652 33.4850 42.3688 0.0000 -14.4460 0.0000
# 2 33.4850 66.6784 29.1487 0.0000 -0.1203 0.0000
# 3 42.3688 29.1487 112.8070 0.0000 -9.9911 0.0000
# 4 0.0000 0.0000 0.0000 25.5981 0.0000 -3.5910
# 5 -14.4460 -0.1203 -9.9911 0.0000 33.0555 0.0000
# 6 0.0000 0.0000 0.0000 -3.5910 0.0000 36.5223
#
#
#
# Elastic Compliance Matrix: (Units=1/GPa)
#
#
# Indices 1 2 3 4 5 6 
#
# 1 0.010923 -0.004327 -0.002634 0.000000 0.003962 0.000000
# 2 -0.004327 0.018675 -0.003454 0.000000 -0.002867 0.000000
# 3 -0.002634 -0.003454 0.010936 0.000000 0.002142 0.000000
# 4 0.000000 0.000000 0.000000 0.039612 0.000000 0.003895
# 5 0.003962 -0.002867 0.002142 0.000000 0.032621 0.000000
# 6 0.000000 0.000000 0.000000 0.003895 0.000000 0.027764
#
#
# Mechanical properties :
#
#
# Convention : Reuss Voigt Hill
#
# Bulk Modulus (GPa) = 50.74949 56.63950 53.69449
# Shear Modulus (GPa) = 29.77441 32.01837 30.89639
#
# Velocity S-wave (km/s) = 3.80460 3.94536 3.87562
# Velocity P-wave (km/s) = 6.63115 6.94911 6.79199
#
# Compressibility (1/GPa) = 0.01970463
#
# Stress axis : x y z
#
# Youngs Moduli (GPa) = 91.54576 53.54667 91.43976
#
# Poissons Ratio (x) = 0.23170 0.24082
# Poissons Ratio (y) = 0.39613 0.31586
# Poissons Ratio (z) = 0.24110 0.18497
#
# Static dielectric constant tensor:
#      x y z
#    x 4.217340 0.000000 0.206560 
#    y 0.000000 3.618830 0.000000 
#    z 0.206560 0.000000 4.091540 
# 
# 
# High freq. dielectric constant tensor:
#      x y z
#    x 1.813430 0.000000 -0.009320 
#    y 0.000000 1.791930 0.000000 
#    z -0.009320 0.000000 1.817480 
# 
# From -- ./inp_files/173039.got.cif
#   From: 2010.06.25/outbox.cif.g09.slc.cpg/sg12_87_cif.got.tgz:173039.got - 2010.06.28 00:19:55.
