data_PCOD8109735
_publ_section_title
;
Structure prediction by ZEFSAII (Michael W. Deem and Ramdas Pophale) SiO2 
 PCOD8109735
Probable space group: C 2/M
;
_chemical_formula_sum "Si O2"
_cell_formula_units_Z 64
_cell_length_a 11.684301
_cell_length_b 30.985987
_cell_length_c 16.809076
_cell_angle_alpha 90.000000
_cell_angle_beta 30.897177
_cell_angle_gamma 90.000000
_cell_volume 3125.010577
_symmetry_space_group_name_H-M "C 2/M"
_symmetry_group_IT_number 12
_symmetry_cell_setting 'monoclinic'
loop_
_space_group_symop_operation_xyz
x,y,z
-x,y,-z
-x,-y,-z
x,-y,z
1/2+x,1/2+y,z
1/2-x,1/2+y,-z
1/2-x,1/2-y,-z
1/2+x,1/2-y,z
loop_
_atom_site_type_symbol
_atom_site_label
_atom_site_fract_x
_atom_site_fract_y
_atom_site_fract_z
Si Si1 0.523162 0.606200 0.343964
Si Si2 0.613039 0.048962 0.598276
Si Si3 0.790924 0.902960 0.935189
Si Si4 0.118234 0.050270 0.848613
Si Si5 0.748637 0.748020 0.127330
Si Si6 0.384036 0.185001 0.913475
Si Si7 0.607581 0.695745 0.354915
Si Si8 0.866580 0.548984 0.227367
O O1 0.295111 0.582195 0.457080
O O2 0.668258 0.612820 0.178550
O O3 0.468516 0.653395 0.412077
O O4 0.656304 0.578031 0.329201
O O5 0.380010 0.060565 0.695531
O O6 0.584635 0.054216 0.709030
O O7 0.684010 0.000000 0.534386
O O8 0.014340 0.923576 0.837466
O O9 0.717420 0.862575 0.033346
O O10 0.592682 0.937670 0.048044
O O11 0.072386 0.000000 0.861469
O O12 0.000000 0.065394 0.000000
O O13 0.634211 0.790930 0.160410
O O14 0.603483 0.732994 0.290123
O O15 0.744743 0.710537 0.063567
O O16 0.000000 0.760123 0.000000
O O17 0.639790 0.180322 0.784970
O O18 0.500000 0.714781 0.500000
O O19 0.807228 0.500000 0.239696
#
# Coordination Sequence:
#
# PCOD8109735 Si02
#       8
#     8   8   8   8   8   8   8   8
#     4  12  24  37  57  94 132 161 207 260 320 381
#     4  10  22  41  61  84 125 175 216 260 315 377
#     4  12  23  37  63  91 123 162 212 268 313 370
#     4  10  21  40  62  85 119 169 223 265 312 372
#     4   9  20  41  66  90 121 159 205 252 314 388
#     4  10  21  40  63  91 123 160 206 256 317 381
#     4  11  22  38  65  94 127 165 201 254 326 383
#     4  11  22  37  60  89 124 169 211 256 310 375
#
# _framework density 20.479931000000001
#
# number of rings (size 3 to 8) (size 9 to 14) (size 15 to 20)
#    0.000    1.375    3.750    2.250    0.000    5.000 
#    0.000    1.250    0.000    0.000    0.000    0.000 
#    0.000    0.000    0.000    0.000    0.000    0.000 
#
# Total GULP energy -396978.832792 kJ/mol
# GULP energy per Si atom -12405.588525 kJ/mol
# Density = 2.043332 g / cm^3
# Si number density = 20.479931 Si / 1000 Ang^3
#
#
#
# Elastic Constant Matrix: (Units=GPa)
#
#
# Indices 1 2 3 4 5 6 
#
# 1 77.5705 33.6521 16.5217 0.0000 -0.7210 0.0000
# 2 33.6521 85.1542 26.3140 0.0000 2.5432 0.0000
# 3 16.5217 26.3140 80.4684 0.0001 9.7644 0.0000
# 4 0.0000 0.0000 0.0001 26.7339 0.0000 2.2030
# 5 -0.7210 2.5432 9.7644 0.0000 40.2458 0.0000
# 6 0.0000 0.0000 0.0000 2.2030 0.0000 26.8514
#
#
#
# Elastic Compliance Matrix: (Units=1/GPa)
#
#
# Indices 1 2 3 4 5 6 
#
# 1 0.015724 -0.005794 -0.001455 0.000000 0.001001 0.000000
# 2 -0.005794 0.015201 -0.003763 0.000000 -0.000151 0.000000
# 3 -0.001455 -0.003763 0.014353 0.000000 -0.003271 0.000000
# 4 0.000000 0.000000 0.000000 0.037660 0.000000 -0.003090
# 5 0.001001 -0.000151 -0.003271 0.000000 0.025668 0.000000
# 6 0.000000 0.000000 0.000000 -0.003090 0.000000 0.037496
#
#
# Mechanical properties :
#
#
# Convention : Reuss Voigt Hill
#
# Bulk Modulus (GPa) = 43.00349 44.01874 43.51112
# Shear Modulus (GPa) = 28.42877 29.87991 29.15434
#
# Velocity S-wave (km/s) = 3.72980 3.82381 3.77710
# Velocity P-wave (km/s) = 6.29222 6.40591 6.34932
#
# Compressibility (1/GPa) = 0.02325393
#
# Stress axis : x y z
#
# Youngs Moduli (GPa) = 63.59511 65.78723 69.67028
#
# Poissons Ratio (x) = 0.38120 0.10138
# Poissons Ratio (y) = 0.36849 0.26215
# Poissons Ratio (z) = 0.09254 0.24753
#
# Static dielectric constant tensor:
#      x y z
#    x 3.714270 0.000000 0.004050 
#    y 0.000000 3.642320 0.000000 
#    z 0.004050 0.000000 3.603170 
# 
# 
# High freq. dielectric constant tensor:
#      x y z
#    x 1.799360 0.000000 -0.000220 
#    y 0.000000 1.792810 0.000000 
#    z -0.000220 0.000000 1.793680 
# 
# From -- ./inp_files/80795.got.cif
#   From: 2010.06.25/outbox.cif.g09.slc.cpg/sg12_41_cif.got.tgz:80795.got - 2010.06.28 00:19:55.
