data_PCOD8109282
_publ_section_title
;
Structure prediction by ZEFSAII (Michael W. Deem and Ramdas Pophale) SiO2 
 PCOD8109282
Probable space group: C 2/M
;
_chemical_formula_sum "Si O2"
_cell_formula_units_Z 64
_cell_length_a 9.583846
_cell_length_b 13.194039
_cell_length_c 25.275621
_cell_angle_alpha 90.000000
_cell_angle_beta 89.010952
_cell_angle_gamma 90.000000
_cell_volume 3195.616946
_symmetry_space_group_name_H-M "C 2/M"
_symmetry_group_IT_number 12
_symmetry_cell_setting 'monoclinic'
loop_
_space_group_symop_operation_xyz
x,y,z
-x,y,-z
-x,-y,-z
x,-y,z
1/2+x,1/2+y,z
1/2-x,1/2+y,-z
1/2-x,1/2-y,-z
1/2+x,1/2-y,z
loop_
_atom_site_type_symbol
_atom_site_label
_atom_site_fract_x
_atom_site_fract_y
_atom_site_fract_z
Si Si1 0.718704 0.273249 0.212624
Si Si2 0.657562 0.111040 0.698415
Si Si3 0.005154 0.880381 0.562422
Si Si4 0.901656 0.119077 0.046254
Si Si5 0.657415 0.112892 0.292743
Si Si6 0.243106 0.742145 0.387640
Si Si7 0.089982 0.619653 0.049195
Si Si8 0.527895 0.252124 0.860154
O O1 0.736638 0.363842 0.254454
O O2 0.743078 0.170478 0.246415
O O3 0.564838 0.279733 0.189790
O O4 0.822000 0.279892 0.162597
O O5 0.503324 0.113936 0.723937
O O6 0.662847 0.185485 0.648914
O O7 0.696668 0.000000 0.677004
O O8 0.871627 0.813220 0.582299
O O9 0.000000 0.882221 0.500000
O O10 0.150388 0.823103 0.576650
O O11 0.000999 0.000000 0.582691
O O12 0.745875 0.161685 0.039345
O O13 0.960754 0.149612 0.102901
O O14 0.902460 0.000000 0.042594
O O15 0.000000 0.166067 0.000000
O O16 0.665049 0.162621 0.350513
O O17 0.718973 0.000000 0.295726
O O18 0.088316 0.500000 0.054058
O O19 0.029746 0.659372 0.104922
O O20 0.000000 0.657420 0.000000
#
# Coordination Sequence:
#
# PCOD8109282 Si02
#       8
#     8   8   8   8   8   8   8   8
#     4  11  24  38  57  89 118 150 194 245 301 367
#     4  10  21  39  63  89 120 160 208 261 311 367
#     4  11  24  41  64  98 139 179 220 274 334 384
#     4  10  23  41  60  84 113 145 188 240 290 352
#     4  10  21  39  64  88 119 163 208 256 310 373
#     4  11  21  42  65  95 128 172 225 269 317 385
#     4  10  23  41  61  84 111 151 196 236 292 364
#     4  12  23  39  60  84 116 153 189 236 298 363
#
# _framework density 20.027431
#
# number of rings (size 3 to 8) (size 9 to 14) (size 15 to 20)
#    0.000    1.375    3.750    1.500    1.750    3.000 
#    0.000    1.250    0.000    3.000    0.000    0.000 
#    0.000    0.000    0.000    0.000    0.000    0.000 
#
# Total GULP energy -396670.455067 kJ/mol
# GULP energy per Si atom -12395.951721 kJ/mol
# Density = 1.998185 g / cm^3
# Si number density = 20.027431 Si / 1000 Ang^3
#
#
#
# Elastic Constant Matrix: (Units=GPa)
#
#
# Indices 1 2 3 4 5 6 
#
# 1 85.5475 44.6008 34.3665 0.0000 0.2755 0.0000
# 2 44.6008 105.9664 35.3087 0.0000 3.8866 0.0000
# 3 34.3665 35.3087 98.8755 0.0000 8.7212 0.0000
# 4 0.0000 0.0000 0.0000 29.0123 0.0000 -0.1999
# 5 0.2755 3.8866 8.7212 0.0000 40.9763 0.0000
# 6 0.0000 0.0000 0.0000 -0.1999 0.0000 28.7719
#
#
#
# Elastic Compliance Matrix: (Units=1/GPa)
#
#
# Indices 1 2 3 4 5 6 
#
# 1 0.016082 -0.005579 -0.003704 0.000000 0.001209 0.000000
# 2 -0.005579 0.012649 -0.002523 0.000000 -0.000625 0.000000
# 3 -0.003704 -0.002523 0.012514 0.000000 -0.002399 0.000000
# 4 0.000000 0.000000 0.000000 0.034470 0.000000 0.000240
# 5 0.001209 -0.000625 -0.002399 0.000000 0.024966 0.000000
# 6 0.000000 0.000000 0.000000 0.000240 0.000000 0.034758
#
#
# Mechanical properties :
#
#
# Convention : Reuss Voigt Hill
#
# Bulk Modulus (GPa) = 56.71199 57.66015 57.18607
# Shear Modulus (GPa) = 30.31638 31.49301 30.90469
#
# Velocity S-wave (km/s) = 3.89491 3.96977 3.93252
# Velocity P-wave (km/s) = 6.97178 7.06153 7.01680
#
# Compressibility (1/GPa) = 0.01763296
#
# Stress axis : x y z
#
# Youngs Moduli (GPa) = 62.18042 79.05994 79.91297
#
# Poissons Ratio (x) = 0.44108 0.29601
# Poissons Ratio (y) = 0.34691 0.20159
# Poissons Ratio (z) = 0.23032 0.19943
#
# Static dielectric constant tensor:
#      x y z
#    x 3.867270 0.000000 0.011560 
#    y 0.000000 3.775030 0.000000 
#    z 0.011560 0.000000 3.586480 
# 
# 
# High freq. dielectric constant tensor:
#      x y z
#    x 1.786200 0.000000 0.002720 
#    y 0.000000 1.789560 0.000000 
#    z 0.002720 0.000000 1.782090 
# 
# From -- ./inp_files/332959.got.cif
#   From: 2010.06.25/outbox.cif.g09.slc.cpg/sg12_167_cif.got.tgz:332959.got - 2010.06.28 00:19:55.
