data_PCOD8109471
_publ_section_title
;
Structure prediction by ZEFSAII (Michael W. Deem and Ramdas Pophale) SiO2 
 PCOD8109471
Probable space group: C 2/M
;
_chemical_formula_sum "Si O2"
_cell_formula_units_Z 48
_cell_length_a 27.332754
_cell_length_b 13.668782
_cell_length_c 9.798590
_cell_angle_alpha 90.000000
_cell_angle_beta 39.184685
_cell_angle_gamma 90.000000
_cell_volume 2312.978712
_symmetry_space_group_name_H-M "C 2/M"
_symmetry_group_IT_number 12
_symmetry_cell_setting 'monoclinic'
loop_
_space_group_symop_operation_xyz
x,y,z
-x,y,-z
-x,-y,-z
x,-y,z
1/2+x,1/2+y,z
1/2-x,1/2+y,-z
1/2-x,1/2-y,-z
1/2+x,1/2-y,z
loop_
_atom_site_type_symbol
_atom_site_label
_atom_site_fract_x
_atom_site_fract_y
_atom_site_fract_z
Si Si1 0.270134 0.390728 0.569553
Si Si2 0.208292 0.385517 0.421211
Si Si3 0.965249 0.684734 0.226358
Si Si4 0.715011 0.237204 0.926810
Si Si5 0.058484 0.104045 0.753127
Si Si6 0.936019 0.388243 0.750787
O O1 0.238787 0.500000 0.656154
O O2 0.224412 0.344148 0.539392
O O3 0.260327 0.339742 0.736024
O O4 0.360555 0.383850 0.342887
O O5 0.223433 0.500000 0.380980
O O6 0.120009 0.361097 0.574765
O O7 0.271892 0.340118 0.179588
O O8 0.960578 0.797681 0.291429
O O9 0.024241 0.622078 0.188219
O O10 0.000000 0.680701 0.000000
O O11 0.750000 0.250000 0.000000
O O12 0.628010 0.196433 0.128121
O O13 0.058179 0.000000 0.668037
O O14 0.000000 0.092360 0.000000
O O15 0.903408 0.500000 0.807830
O O16 0.000000 0.366904 0.500000
#
# Coordination Sequence:
#
# PCOD8109471 Si02
#       6
#     8   8   8   8   8   8
#     4  10  21  39  64  93 125 167 216 268 323 381
#     4  11  24  41  65  97 132 168 216 272 326 382
#     4  11  22  38  67  98 129 166 212 267 317 376
#     4  12  25  41  64  93 127 171 214 263 323 383
#     4   9  19  34  58  92 130 169 208 255 316 377
#     4  11  26  46  67  91 127 170 212 260 321 386
#
# _framework density 20.752462000000001
#
# number of rings (size 3 to 8) (size 9 to 14) (size 15 to 20)
#    0.000    1.333    1.667    3.500    4.667    5.333 
#    0.000    0.000    0.000    1.000    0.000    0.000 
#    0.000    0.000    0.000    0.000    0.000    0.000 
#
# Total GULP energy -297346.538921 kJ/mol
# GULP energy per Si atom -12389.439122 kJ/mol
# Density = 2.070523 g / cm^3
# Si number density = 20.752462 Si / 1000 Ang^3
#
#
#
# Elastic Constant Matrix: (Units=GPa)
#
#
# Indices 1 2 3 4 5 6 
#
# 1 120.6230 44.7352 61.2451 0.0000 8.5063 0.0000
# 2 44.7352 125.3892 48.0719 0.0000 2.9331 0.0000
# 3 61.2451 48.0719 118.1488 0.0000 -3.6365 0.0000
# 4 0.0000 0.0000 0.0000 83.0800 0.0000 -40.7361
# 5 8.5063 2.9331 -3.6365 0.0000 41.2183 0.0000
# 6 0.0000 0.0000 0.0000 -40.7361 0.0000 73.0295
#
#
#
# Elastic Compliance Matrix: (Units=1/GPa)
#
#
# Indices 1 2 3 4 5 6 
#
# 1 0.012059 -0.002140 -0.005467 0.000000 -0.002819 0.000000
# 2 -0.002140 0.009872 -0.002923 0.000000 -0.000519 0.000000
# 3 -0.005467 -0.002923 0.012562 0.000000 0.002444 0.000000
# 4 0.000000 0.000000 0.000000 0.016568 0.000000 0.009242
# 5 -0.002819 -0.000519 0.002444 0.000000 0.025095 0.000000
# 6 0.000000 0.000000 0.000000 0.009242 0.000000 0.018848
#
#
# Mechanical properties :
#
#
# Convention : Reuss Voigt Hill
#
# Bulk Modulus (GPa) = 74.44777 74.69616 74.57196
# Shear Modulus (GPa) = 41.47965 53.47282 47.47623
#
# Velocity S-wave (km/s) = 4.47562 5.08163 4.78822
# Velocity P-wave (km/s) = 7.91583 8.39658 8.15975
#
# Compressibility (1/GPa) = 0.01343224
#
# Stress axis : x y z
#
# Youngs Moduli (GPa) = 82.92904 101.30153 79.60390
#
# Poissons Ratio (x) = 0.21682 0.43517
# Poissons Ratio (y) = 0.17750 0.23268
# Poissons Ratio (z) = 0.45335 0.29610
#
# Static dielectric constant tensor:
#      x y z
#    x 3.420430 0.000000 -0.125340 
#    y 0.000000 4.437370 0.000000 
#    z -0.125340 0.000000 3.823670 
# 
# 
# High freq. dielectric constant tensor:
#      x y z
#    x 1.793110 0.000000 -0.015940 
#    y 0.000000 1.835110 0.000000 
#    z -0.015940 0.000000 1.813380 
# 
# From -- ./inp_files/104973.got.cif
#   From: 2010.06.25/outbox.cif.g09.slc.cpg/sg12_53_cif.got.tgz:104973.got - 2010.06.28 00:19:55.
