data_PCOD8109864
_publ_section_title
;
Structure prediction by ZEFSAII (Michael W. Deem and Ramdas Pophale) SiO2 
 PCOD8109864
Probable space group: C 2/M
;
_chemical_formula_sum "Si O2"
_cell_formula_units_Z 64
_cell_length_a 30.453566
_cell_length_b 8.606244
_cell_length_c 23.413669
_cell_angle_alpha 90.000000
_cell_angle_beta 149.709595
_cell_angle_gamma 90.000000
_cell_volume 3095.150340
_symmetry_space_group_name_H-M "C 2/M"
_symmetry_group_IT_number 12
_symmetry_cell_setting 'monoclinic'
loop_
_space_group_symop_operation_xyz
x,y,z
-x,y,-z
-x,-y,-z
x,-y,z
1/2+x,1/2+y,z
1/2-x,1/2+y,-z
1/2-x,1/2-y,-z
1/2+x,1/2-y,z
loop_
_atom_site_type_symbol
_atom_site_label
_atom_site_fract_x
_atom_site_fract_y
_atom_site_fract_z
Si Si1 0.486119 0.185348 0.161080
Si Si2 0.837389 0.684675 0.447817
Si Si3 0.195588 0.679139 0.991208
Si Si4 0.761105 0.319101 0.759556
Si Si5 0.001179 0.319791 0.439176
Si Si6 0.839673 0.683662 0.578583
Si Si7 0.442265 0.680761 0.990908
Si Si8 0.309430 0.177627 0.212229
O O1 0.403322 0.240103 0.107567
O O2 0.575147 0.241987 0.291432
O O3 0.487868 0.265561 0.100803
O O4 0.482707 0.000000 0.149225
O O5 0.828806 0.500000 0.436191
O O6 0.754211 0.759334 0.322321
O O7 0.844739 0.745848 0.520004
O O8 0.924043 0.753786 0.515597
O O9 0.189932 0.500000 0.970457
O O10 0.250000 0.750000 0.000000
O O11 0.248108 0.708317 0.108138
O O12 0.741458 0.500000 0.742488
O O13 0.695700 0.222856 0.726883
O O14 0.858125 0.285907 0.888572
O O15 0.023688 0.500000 0.472720
O O16 0.908758 0.299249 0.303585
O O17 0.000000 0.238400 0.500000
O O18 0.836538 0.500000 0.577909
O O19 0.750000 0.750000 0.500000
O O20 0.416966 0.500000 0.967432
O O21 0.500000 0.711518 0.000000
O O22 0.279309 0.000000 0.169279
#
# Coordination Sequence:
#
# PCOD8109864 Si02
#       8
#     8   8   8   8   8   8   8   8
#     4  10  23  44  67  95 131 168 211 260 320 386
#     4  10  21  40  64  89 121 166 217 259 305 369
#     4  11  24  41  63  92 127 169 214 260 317 381
#     4  12  24  39  61  92 130 166 203 256 319 380
#     4   9  17  32  58  89 118 157 203 247 298 363
#     4  10  24  44  67  91 123 167 214 266 314 374
#     4  11  25  43  67  96 123 158 208 262 319 380
#     4  11  21  37  63  90 123 164 209 259 311 373
#
# _framework density 20.677509000000001
#
# number of rings (size 3 to 8) (size 9 to 14) (size 15 to 20)
#    0.000    1.500    2.500    2.250    3.500    2.500 
#    0.000    1.875    0.000    0.000    0.000    0.000 
#    0.000    0.000    0.000    0.000    0.000    0.000 
#
# Total GULP energy -396736.696479 kJ/mol
# GULP energy per Si atom -12398.021765 kJ/mol
# Density = 2.063045 g / cm^3
# Si number density = 20.677509 Si / 1000 Ang^3
#
#
#
# Elastic Constant Matrix: (Units=GPa)
#
#
# Indices 1 2 3 4 5 6 
#
# 1 154.5760 28.9033 72.9579 0.0000 -3.3055 0.0000
# 2 28.9033 41.9449 23.5207 0.0000 0.0306 0.0000
# 3 72.9579 23.5207 144.6406 0.0000 -10.2376 0.0000
# 4 0.0000 0.0000 0.0000 29.6962 0.0000 -2.8531
# 5 -3.3055 0.0306 -10.2376 0.0000 33.7211 0.0000
# 6 0.0000 0.0000 0.0000 -2.8531 0.0000 28.7596
#
#
#
# Elastic Compliance Matrix: (Units=1/GPa)
#
#
# Indices 1 2 3 4 5 6 
#
# 1 0.009081 -0.004046 -0.003944 0.000000 -0.000304 0.000000
# 2 -0.004046 0.028095 -0.002614 0.000000 -0.001216 0.000000
# 3 -0.003944 -0.002614 0.009505 0.000000 0.002502 0.000000
# 4 0.000000 0.000000 0.000000 0.033998 0.000000 0.003373
# 5 -0.000304 -0.001216 0.002502 0.000000 0.030386 0.000000
# 6 0.000000 0.000000 0.000000 0.003373 0.000000 0.035106
#
#
# Mechanical properties :
#
#
# Convention : Reuss Voigt Hill
#
# Bulk Modulus (GPa) = 39.25592 65.76948 52.51270
# Shear Modulus (GPa) = 28.43010 32.82068 30.62539
#
# Velocity S-wave (km/s) = 3.71203 3.98837 3.85268
# Velocity P-wave (km/s) = 6.11541 7.28600 6.72622
#
# Compressibility (1/GPa) = 0.02547386
#
# Stress axis : x y z
#
# Youngs Moduli (GPa) = 110.12233 35.59317 105.20487
#
# Poissons Ratio (x) = 0.14399 0.41493
# Poissons Ratio (y) = 0.44550 0.27502
# Poissons Ratio (z) = 0.43433 0.09305
#
# Static dielectric constant tensor:
#      x y z
#    x 4.138960 0.000000 -0.002130 
#    y 0.000000 3.493230 0.000000 
#    z -0.002130 0.000000 3.821850 
# 
# 
# High freq. dielectric constant tensor:
#      x y z
#    x 1.816710 0.000000 0.001300 
#    y 0.000000 1.787320 0.000000 
#    z 0.001300 0.000000 1.820700 
# 
# From -- ./inp_files/353469.got.cif
#   From: 2010.06.25/outbox.cif.g09.slc.cpg/sg12_177_cif.got.tgz:353469.got - 2010.06.28 00:19:55.
