data_PCOD8109923
_publ_section_title
;
Structure prediction by ZEFSAII (Michael W. Deem and Ramdas Pophale) SiO2 
 PCOD8109923
Probable space group: C 2/M
;
_chemical_formula_sum "Si O2"
_cell_formula_units_Z 64
_cell_length_a 19.624285
_cell_length_b 8.630266
_cell_length_c 31.287540
_cell_angle_alpha 90.000000
_cell_angle_beta 142.958574
_cell_angle_gamma 90.000000
_cell_volume 3192.043863
_symmetry_space_group_name_H-M "C 2/M"
_symmetry_group_IT_number 12
_symmetry_cell_setting 'monoclinic'
loop_
_space_group_symop_operation_xyz
x,y,z
-x,y,-z
-x,-y,-z
x,-y,z
1/2+x,1/2+y,z
1/2-x,1/2+y,-z
1/2-x,1/2-y,-z
1/2+x,1/2-y,z
loop_
_atom_site_type_symbol
_atom_site_label
_atom_site_fract_x
_atom_site_fract_y
_atom_site_fract_z
Si Si1 0.952421 0.679847 0.772635
Si Si2 0.915827 0.681796 0.372764
Si Si3 0.323913 0.816913 0.498620
Si Si4 0.270184 0.319382 0.226089
Si Si5 0.328772 0.183592 0.169444
Si Si6 0.539561 0.319844 0.132538
Si Si7 0.730109 0.181185 0.621517
Si Si8 0.406486 0.682600 0.984844
O O1 0.928641 0.500000 0.754379
O O2 0.972600 0.714127 0.832243
O O3 0.845894 0.769940 0.701319
O O4 0.063632 0.735169 0.803856
O O5 0.896250 0.500000 0.353754
O O6 0.840736 0.783161 0.303609
O O7 0.875822 0.724403 0.400907
O O8 0.045325 0.730125 0.430481
O O9 0.250000 0.750000 0.500000
O O10 0.283529 0.745536 0.432728
O O11 0.310263 0.000000 0.492576
O O12 0.239925 0.500000 0.210325
O O13 0.342891 0.270445 0.221447
O O14 0.156664 0.217629 0.167397
O O15 0.324917 0.000000 0.174930
O O16 0.217756 0.246022 0.088895
O O17 0.537688 0.500000 0.144438
O O18 0.437195 0.276690 0.049203
O O19 0.732653 0.000000 0.616248
O O20 0.407783 0.500000 0.978899
O O21 0.500000 0.757570 0.000000
#
# Coordination Sequence:
#
# PCOD8109923 Si02
#       8
#     8   8   8   8   8   8   8   8
#     4  11  24  39  59  90 126 158 197 249 303 355
#     4  10  21  40  65  88 116 161 206 244 292 353
#     4  10  23  41  62  92 124 157 199 244 299 354
#     4  12  24  37  59  92 124 154 201 256 302 352
#     4  10  22  41  61  85 120 162 202 246 305 363
#     4  11  21  38  64  88 117 159 204 247 300 361
#     4  10  21  40  65  87 116 160 205 244 288 351
#     4   9  17  34  62  87 111 153 208 250 291 361
#
# _framework density 20.049848999999998
#
# number of rings (size 3 to 8) (size 9 to 14) (size 15 to 20)
#    0.000    1.625    2.500    2.250    1.750    4.000 
#    0.000    1.875    0.000    2.250    0.000    0.000 
#    0.000    0.000    0.000    0.000    0.000    0.000 
#
# Total GULP energy -396851.834046 kJ/mol
# GULP energy per Si atom -12401.619814 kJ/mol
# Density = 2.000421 g / cm^3
# Si number density = 20.049849 Si / 1000 Ang^3
#
#
#
# Elastic Constant Matrix: (Units=GPa)
#
#
# Indices 1 2 3 4 5 6 
#
# 1 130.9432 9.1256 60.5467 0.0001 12.9194 0.0001
# 2 9.1256 -17.1280 48.6476 0.0003 8.2714 0.0002
# 3 60.5467 48.6476 72.7897 0.0001 -8.5909 -0.0003
# 4 0.0001 0.0003 0.0001 15.3270 0.0000 -3.1435
# 5 12.9194 8.2714 -8.5909 0.0000 28.9269 0.0000
# 6 0.0001 0.0002 -0.0003 -3.1435 0.0000 29.0553
#
#
#
# Elastic Compliance Matrix: (Units=1/GPa)
#
#
# Indices 1 2 3 4 5 6 
#
# 1 0.010372 -0.007579 -0.003993 0.000000 -0.003651 0.000000
# 2 -0.007579 -0.012107 0.015755 0.000000 0.011526 0.000000
# 3 -0.003993 0.015755 0.006434 0.000000 -0.000811 0.000000
# 4 0.000000 0.000000 0.000000 0.066725 0.000000 0.007219
# 5 -0.003651 0.011526 -0.000811 0.000000 0.032664 0.000000
# 6 0.000000 0.000000 0.000000 0.007219 0.000000 0.035198
#
#
# Mechanical properties :
#
#
# Convention : Reuss Voigt Hill
#
# Bulk Modulus (GPa) = 76.53050 47.02720 61.77885
# Shear Modulus (GPa) = 36.96192 19.21417 28.08805
#
# Velocity S-wave (km/s) = 4.29826 3.09903 3.74693
# Velocity P-wave (km/s) = 7.93009 6.02589 7.04265
#
# Compressibility (1/GPa) = 0.01306669
#
# Stress axis : x y z
#
# Youngs Moduli (GPa) = 96.41668 -82.59957 155.42103
#
# Poissons Ratio (x) = -0.62599 0.62061
# Poissons Ratio (y) = 0.73070 -2.44872
# Poissons Ratio (z) = 0.38500 1.30139
#
# Static dielectric constant tensor:
#      x y z
#    x 3.838140 0.000000 -0.020440 
#    y 0.000000 3.348040 0.000000 
#    z -0.020440 0.000000 3.795480 
# 
# 
# High freq. dielectric constant tensor:
#      x y z
#    x 1.792270 0.000000 -0.005700 
#    y 0.000000 1.759210 0.000000 
#    z -0.005700 0.000000 1.793110 
# 
# From -- ./inp_files/378542.got.cif
#   From: 2010.06.25/outbox.cif.g09.slc.cpg/sg12_190_cif.got.tgz:378542.got - 2010.06.28 00:19:55.
