data_PCOD8109421
_publ_section_title
;
Structure prediction by ZEFSAII (Michael W. Deem and Ramdas Pophale) SiO2 
 PCOD8109421
Probable space group: C 2/M
;
_chemical_formula_sum "Si O2"
_cell_formula_units_Z 56
_cell_length_a 14.728252
_cell_length_b 14.277698
_cell_length_c 19.964990
_cell_angle_alpha 90.000000
_cell_angle_beta 39.292784
_cell_angle_gamma 90.000000
_cell_volume 2658.744500
_symmetry_space_group_name_H-M "C 2/M"
_symmetry_group_IT_number 12
_symmetry_cell_setting 'monoclinic'
loop_
_space_group_symop_operation_xyz
x,y,z
-x,y,-z
-x,-y,-z
x,-y,z
1/2+x,1/2+y,z
1/2-x,1/2+y,-z
1/2-x,1/2-y,-z
1/2+x,1/2-y,z
loop_
_atom_site_type_symbol
_atom_site_label
_atom_site_fract_x
_atom_site_fract_y
_atom_site_fract_z
Si Si1 0.887126 0.789749 0.853739
Si Si2 0.434932 0.223250 0.969420
Si Si3 0.033957 0.203729 0.407775
Si Si4 0.599344 0.392466 0.636468
Si Si5 0.179386 0.394963 0.773090
Si Si6 0.577392 0.103977 0.550972
Si Si7 0.511905 0.102505 0.739684
O O1 0.925810 0.794382 0.911190
O O2 0.996844 0.857720 0.754287
O O3 0.896689 0.682948 0.821128
O O4 0.724314 0.820581 0.930338
O O5 0.541862 0.137372 0.893765
O O6 0.500000 0.272123 0.000000
O O7 0.187300 0.173709 0.290688
O O8 0.000000 0.159378 0.500000
O O9 0.917132 0.168257 0.421473
O O10 0.028597 0.317044 0.417601
O O11 0.563262 0.500000 0.640742
O O12 0.762250 0.380571 0.568552
O O13 0.220537 0.500000 0.771932
O O14 0.144869 0.389821 0.714267
O O15 0.583289 0.114869 0.627252
O O16 0.520685 0.000000 0.563005
O O17 0.436621 0.000000 0.789757
#
# Coordination Sequence:
#
# PCOD8109421 Si02
#       7
#     8   8   8   8   8   8   8
#     4  10  21  39  64  91 121 164 211 254 316 375
#     4  10  22  38  61  90 122 163 204 261 313 373
#     4  12  24  35  61  91 126 166 197 251 309 371
#     4  11  23  39  61  90 123 160 208 253 306 375
#     4  10  22  38  59  92 125 157 199 253 317 371
#     4  10  22  39  60  87 122 164 205 245 296 364
#     4   9  18  37  64  87 117 160 208 251 299 366
#
# _framework density 21.062571999999999
#
# number of rings (size 3 to 8) (size 9 to 14) (size 15 to 20)
#    0.000    1.714    1.429    2.571    4.000    3.429 
#    0.000    2.143    0.000    2.571    0.000    0.000 
#    0.000    0.000    0.000    0.000    0.000    0.000 
#
# Total GULP energy -347136.561066 kJ/mol
# GULP energy per Si atom -12397.734324 kJ/mol
# Density = 2.101463 g / cm^3
# Si number density = 21.062572 Si / 1000 Ang^3
#
#
#
# Elastic Constant Matrix: (Units=GPa)
#
#
# Indices 1 2 3 4 5 6 
#
# 1 94.2291 30.7855 37.1037 -0.0001 1.8818 0.0000
# 2 30.7855 132.3871 52.6535 0.0000 -22.4742 0.0000
# 3 37.1037 52.6535 118.7730 -0.0001 -12.6385 0.0001
# 4 -0.0001 0.0000 -0.0001 22.7190 0.0001 -5.4329
# 5 1.8818 -22.4742 -12.6385 0.0001 38.3763 -0.0001
# 6 0.0000 0.0000 0.0001 -5.4329 -0.0001 22.8776
#
#
#
# Elastic Compliance Matrix: (Units=1/GPa)
#
#
# Indices 1 2 3 4 5 6 
#
# 1 0.012679 -0.002126 -0.003334 0.000000 -0.002965 0.000000
# 2 -0.002126 0.010222 -0.003336 0.000000 0.004992 0.000000
# 3 -0.003334 -0.003336 0.011140 0.000000 0.001878 0.000000
# 4 0.000000 0.000000 0.000000 0.046666 0.000000 0.011082
# 5 -0.002965 0.004992 0.001878 0.000000 0.029745 0.000000
# 6 0.000000 0.000000 0.000000 0.011082 0.000000 0.046343
#
#
# Mechanical properties :
#
#
# Convention : Reuss Voigt Hill
#
# Bulk Modulus (GPa) = 60.79383 65.16384 62.97883
# Shear Modulus (GPa) = 27.79787 31.78434 29.79111
#
# Velocity S-wave (km/s) = 3.63681 3.88886 3.76494
# Velocity P-wave (km/s) = 6.82359 7.15330 6.99038
#
# Compressibility (1/GPa) = 0.01644904
#
# Stress axis : x y z
#
# Youngs Moduli (GPa) = 78.87139 97.82505 89.76775
#
# Poissons Ratio (x) = 0.20794 0.29928
# Poissons Ratio (y) = 0.16765 0.29951
# Poissons Ratio (z) = 0.26295 0.32639
#
# Static dielectric constant tensor:
#      x y z
#    x 3.839150 0.000000 0.189950 
#    y 0.000000 3.862870 0.000000 
#    z 0.189950 0.000000 3.797560 
# 
# 
# High freq. dielectric constant tensor:
#      x y z
#    x 1.823110 0.000000 0.011870 
#    y 0.000000 1.810550 0.000000 
#    z 0.011870 0.000000 1.828740 
# 
# From -- ./inp_files/310761.got.cif
#   From: 2010.06.25/outbox.cif.g09.slc.cpg/sg12_156_cif.got.tgz:310761.got - 2010.06.28 00:19:55.
