data_PCOD8109253
_publ_section_title
;
Structure prediction by ZEFSAII (Michael W. Deem and Ramdas Pophale) SiO2 
 PCOD8109253
Probable space group: C 2/M
;
_chemical_formula_sum "Si O2"
_cell_formula_units_Z 56
_cell_length_a 18.503785
_cell_length_b 8.489639
_cell_length_c 18.165280
_cell_angle_alpha 90.000000
_cell_angle_beta 75.584139
_cell_angle_gamma 90.000000
_cell_volume 2763.744695
_symmetry_space_group_name_H-M "C 2/M"
_symmetry_group_IT_number 12
_symmetry_cell_setting 'monoclinic'
loop_
_space_group_symop_operation_xyz
x,y,z
-x,y,-z
-x,-y,-z
x,-y,z
1/2+x,1/2+y,z
1/2-x,1/2+y,-z
1/2-x,1/2-y,-z
1/2+x,1/2-y,z
loop_
_atom_site_type_symbol
_atom_site_label
_atom_site_fract_x
_atom_site_fract_y
_atom_site_fract_z
Si Si1 0.024709 0.683786 0.074664
Si Si2 0.257116 0.818171 0.802980
Si Si3 0.418663 0.318371 0.495108
Si Si4 0.403425 0.682917 0.210056
Si Si5 0.684478 0.683481 0.066356
Si Si6 0.146580 0.680844 0.631931
Si Si7 0.198978 0.319704 0.371688
O O1 0.009673 0.500000 0.090577
O O2 0.110874 0.721513 0.064021
O O3 0.977033 0.780575 0.145564
O O4 0.000000 0.737976 0.000000
O O5 0.170169 0.770101 0.817830
O O6 0.295565 0.708121 0.853417
O O7 0.299328 0.786040 0.715765
O O8 0.264541 0.000000 0.825108
O O9 0.500000 0.265140 0.500000
O O10 0.416974 0.500000 0.471694
O O11 0.398046 0.211223 0.431206
O O12 0.362432 0.292219 0.576957
O O13 0.399948 0.500000 0.231469
O O14 0.406288 0.778727 0.285508
O O15 0.672124 0.500000 0.053492
O O16 0.750000 0.750000 0.000000
O O17 0.170911 0.500000 0.629702
O O18 0.220396 0.787241 0.613548
O O19 0.178394 0.500000 0.393520
#
# Coordination Sequence:
#
# PCOD8109253 Si02
#       7
#     8   8   8   8   8   8   8
#     4  11  24  41  62  88 118 154 197 242 289 345
#     4   9  20  39  62  88 119 152 190 240 292 346
#     4  11  24  40  58  83 118 156 196 244 294 346
#     4  10  21  39  63  90 120 153 192 239 291 345
#     4  12  25  40  61  87 119 157 196 241 291 346
#     4  11  22  38  62  88 118 155 195 239 288 347
#     4  10  21  39  63  88 116 152 195 241 290 347
#
# _framework density 20.262363000000001
#
# number of rings (size 3 to 8) (size 9 to 14) (size 15 to 20)
#    0.000    1.429    0.000    6.429    0.000    9.143 
#    0.000    2.857    0.000    0.000    0.000    0.000 
#    0.000    0.000    0.000    0.000    0.000    0.000 
#
# Total GULP energy -347409.201711 kJ/mol
# GULP energy per Si atom -12407.471490 kJ/mol
# Density = 2.021625 g / cm^3
# Si number density = 20.262363 Si / 1000 Ang^3
#
#
#
# Elastic Constant Matrix: (Units=GPa)
#
#
# Indices 1 2 3 4 5 6 
#
# 1 106.1181 11.2733 60.8786 0.0000 -1.2906 0.0000
# 2 11.2733 60.1777 22.4699 0.0000 9.0561 0.0000
# 3 60.8786 22.4699 114.5960 0.0000 -0.5601 0.0000
# 4 0.0000 0.0000 0.0000 35.6046 0.0000 -2.8271
# 5 -1.2906 9.0561 -0.5601 0.0000 34.9063 0.0000
# 6 0.0000 0.0000 0.0000 -2.8271 0.0000 23.2768
#
#
#
# Elastic Compliance Matrix: (Units=1/GPa)
#
#
# Indices 1 2 3 4 5 6 
#
# 1 0.013560 0.000102 -0.007222 0.000000 0.000359 0.000000
# 2 0.000102 0.018740 -0.003753 0.000000 -0.004918 0.000000
# 3 -0.007222 -0.003753 0.013303 0.000000 0.000920 0.000000
# 4 0.000000 0.000000 0.000000 0.028360 0.000000 0.003444
# 5 0.000359 -0.004918 0.000920 0.000000 0.029952 0.000000
# 6 0.000000 0.000000 0.000000 0.003444 0.000000 0.043380
#
#
# Mechanical properties :
#
#
# Convention : Reuss Voigt Hill
#
# Bulk Modulus (GPa) = 41.91459 52.23727 47.07593
# Shear Modulus (GPa) = 28.24975 31.17554 29.71265
#
# Velocity S-wave (km/s) = 3.73795 3.92675 3.83351
# Velocity P-wave (km/s) = 6.27380 6.81143 6.54813
#
# Compressibility (1/GPa) = 0.02385804
#
# Stress axis : x y z
#
# Youngs Moduli (GPa) = 73.74540 53.36258 75.16885
#
# Poissons Ratio (x) = -0.00546 0.54288
# Poissons Ratio (y) = -0.00755 0.28210
# Poissons Ratio (z) = 0.53260 0.20027
#
# Static dielectric constant tensor:
#      x y z
#    x 3.598560 0.000000 0.003700 
#    y 0.000000 3.642740 0.000000 
#    z 0.003700 0.000000 3.785530 
# 
# 
# High freq. dielectric constant tensor:
#      x y z
#    x 1.787670 0.000000 -0.000220 
#    y 0.000000 1.798890 0.000000 
#    z -0.000220 0.000000 1.802970 
# 
# From -- ./inp_files/275347.got.cif
#   From: 2010.06.25/outbox.cif.g09.slc.cpg/sg12_138_cif.got.tgz:275347.got - 2010.06.28 00:19:55.
