data_PCOD8109852
_publ_section_title
;
Structure prediction by ZEFSAII (Michael W. Deem and Ramdas Pophale) SiO2 
 PCOD8109852
Probable space group: C 2/M
;
_chemical_formula_sum "Si O2"
_cell_formula_units_Z 56
_cell_length_a 17.748144
_cell_length_b 8.824012
_cell_length_c 18.468494
_cell_angle_alpha 90.000000
_cell_angle_beta 104.082856
_cell_angle_gamma 90.000000
_cell_volume 2805.417909
_symmetry_space_group_name_H-M "C 2/M"
_symmetry_group_IT_number 12
_symmetry_cell_setting 'monoclinic'
loop_
_space_group_symop_operation_xyz
x,y,z
-x,y,-z
-x,-y,-z
x,-y,z
1/2+x,1/2+y,z
1/2-x,1/2+y,-z
1/2-x,1/2-y,-z
1/2+x,1/2-y,z
loop_
_atom_site_type_symbol
_atom_site_label
_atom_site_fract_x
_atom_site_fract_y
_atom_site_fract_z
Si Si1 0.971548 0.323534 0.572874
Si Si2 0.889118 0.324048 0.857929
Si Si3 0.950402 0.176404 0.138896
Si Si4 0.832079 0.322022 0.002014
Si Si5 0.089366 0.825217 0.706416
Si Si6 0.690792 0.677459 0.430512
Si Si7 0.235253 0.673448 0.293924
O O1 0.951315 0.500000 0.574220
O O2 0.895791 0.228733 0.573054
O O3 0.000000 0.278833 0.500000
O O4 0.038628 0.283484 0.644777
O O5 0.914253 0.500000 0.864040
O O6 0.859733 0.270842 0.929268
O O7 0.820427 0.292148 0.786007
O O8 0.960870 0.220684 0.852468
O O9 0.927437 0.216651 0.215021
O O10 0.938298 0.000000 0.119364
O O11 0.896231 0.272179 0.074000
O O12 0.821418 0.500000 0.003034
O O13 0.750000 0.250000 0.000000
O O14 0.178524 0.789257 0.711689
O O15 0.068655 0.000000 0.685163
O O16 0.696115 0.500000 0.441872
O O17 0.750000 0.750000 0.500000
O O18 0.713049 0.718397 0.354262
O O19 0.227300 0.500000 0.317999
#
# Coordination Sequence:
#
# PCOD8109852 Si02
#       7
#     8   8   8   8   8   8   8
#     4  11  24  41  62  90 121 154 197 246 294 349
#     4  10  22  40  61  87 120 158 198 242 295 353
#     4  11  23  39  60  89 122 156 199 246 292 348
#     4  11  23  40  62  88 119 156 199 245 296 354
#     4  10  22  40  62  89 121 158 198 242 294 351
#     4  12  25  41  62  89 121 156 197 243 293 351
#     4  10  21  40  64  88 119 157 196 242 296 350
#
# _framework density 19.961375
#
# number of rings (size 3 to 8) (size 9 to 14) (size 15 to 20)
#    0.000    1.286    0.000    5.571    0.000   13.143 
#    0.000    1.429    0.000    0.000    0.000    0.000 
#    0.000    0.000    0.000    0.000    0.000    0.000 
#
# Total GULP energy -347403.345702 kJ/mol
# GULP energy per Si atom -12407.262347 kJ/mol
# Density = 1.991594 g / cm^3
# Si number density = 19.961375 Si / 1000 Ang^3
#
#
#
# Elastic Constant Matrix: (Units=GPa)
#
#
# Indices 1 2 3 4 5 6 
#
# 1 159.0642 61.8141 71.4337 0.0000 -6.2239 0.0000
# 2 61.8141 85.3432 55.3128 0.0000 -11.9232 0.0000
# 3 71.4337 55.3128 142.4760 0.0000 -9.4115 0.0000
# 4 0.0000 0.0000 0.0000 23.7393 0.0000 21.8717
# 5 -6.2239 -11.9232 -9.4115 0.0000 43.9043 0.0000
# 6 0.0000 0.0000 0.0000 21.8717 0.0000 11.1242
#
#
#
# Elastic Compliance Matrix: (Units=1/GPa)
#
#
# Indices 1 2 3 4 5 6 
#
# 1 0.009536 -0.005174 -0.002816 0.000000 -0.000657 0.000000
# 2 -0.005174 0.018861 -0.004502 0.000000 0.003424 0.000000
# 3 -0.002816 -0.004502 0.010216 0.000000 0.000568 0.000000
# 4 0.000000 0.000000 0.000000 -0.051912 0.000000 0.102066
# 5 -0.000657 0.003424 0.000568 0.000000 0.023735 0.000000
# 6 0.000000 0.000000 0.000000 0.102066 0.000000 -0.110781
#
#
# Mechanical properties :
#
#
# Convention : Reuss Voigt Hill
#
# Bulk Modulus (GPa) = 73.37120 84.88939 79.13030
# Shear Modulus (GPa) = -70.60377 28.97509 -20.81434
#
# Velocity S-wave (km/s) = -5.95374 3.81406 -3.23264
# Velocity P-wave (km/s) = 3.22897 7.87498 5.07883
#
# Compressibility (1/GPa) = 0.01362933
#
# Stress axis : x y z
#
# Youngs Moduli (GPa) = 104.86249 53.01934 97.88561
#
# Poissons Ratio (x) = 0.27431 0.27565
# Poissons Ratio (y) = 0.54253 0.44070
# Poissons Ratio (z) = 0.29530 0.23870
#
# Static dielectric constant tensor:
#      x y z
#    x 3.256060 0.000000 0.069040 
#    y 0.000000 3.637840 0.000000 
#    z 0.069040 0.000000 3.811330 
# 
# 
# High freq. dielectric constant tensor:
#      x y z
#    x 1.799070 0.000000 -0.000410 
#    y 0.000000 1.781540 0.000000 
#    z -0.000410 0.000000 1.798150 
# 
# From -- ./inp_files/275574.got.cif
#   From: 2010.06.25/outbox.cif.g09.slc.cpg/sg12_138_cif.got.tgz:275574.got - 2010.06.28 00:19:55.
