data_PCOD8109896
_publ_section_title
;
Structure prediction by ZEFSAII (Michael W. Deem and Ramdas Pophale) SiO2 
 PCOD8109896
Probable space group: C 2/M
;
_chemical_formula_sum "Si O2"
_cell_formula_units_Z 64
_cell_length_a 31.593838
_cell_length_b 15.721886
_cell_length_c 9.127781
_cell_angle_alpha 90.000000
_cell_angle_beta 40.718005
_cell_angle_gamma 90.000000
_cell_volume 2957.631041
_symmetry_space_group_name_H-M "C 2/M"
_symmetry_group_IT_number 12
_symmetry_cell_setting 'monoclinic'
loop_
_space_group_symop_operation_xyz
x,y,z
-x,y,-z
-x,-y,-z
x,-y,z
1/2+x,1/2+y,z
1/2-x,1/2+y,-z
1/2-x,1/2-y,-z
1/2+x,1/2-y,z
loop_
_atom_site_type_symbol
_atom_site_label
_atom_site_fract_x
_atom_site_fract_y
_atom_site_fract_z
Si Si1 0.887315 0.402278 0.628822
Si Si2 0.154850 0.320724 0.540231
Si Si3 0.735620 0.602231 0.545856
Si Si4 0.356067 0.666118 0.627756
Si Si5 0.769338 0.595804 0.135080
Si Si6 0.392663 0.287155 0.080454
Si Si7 0.928448 0.747639 0.682223
Si Si8 0.989244 0.091683 0.193498
O O1 0.904820 0.500000 0.614001
O O2 0.880702 0.390383 0.470148
O O3 0.941432 0.339403 0.554130
O O4 0.824386 0.366567 0.884051
O O5 0.215948 0.365611 0.455767
O O6 0.175721 0.246261 0.374348
O O7 0.106425 0.280754 0.789092
O O8 0.726544 0.500000 0.576588
O O9 0.762473 0.635088 0.317458
O O10 0.667095 0.647918 0.750373
O O11 0.298117 0.598177 0.778942
O O12 0.379104 0.688485 0.730034
O O13 0.417736 0.630888 0.380867
O O14 0.789842 0.500000 0.108517
O O15 0.393556 0.231382 0.929534
O O16 0.458136 0.341233 0.889851
O O17 0.000000 0.790376 0.500000
O O18 0.992892 0.000000 0.269624
O O19 0.000000 0.069396 0.000000
#
# Coordination Sequence:
#
# PCOD8109896 Si02
#       8
#     8   8   8   8   8   8   8   8
#     4  10  24  44  66  93 124 163 208 263 322 376
#     4  11  23  38  65  91 125 160 206 265 309 367
#     4  11  23  40  62  95 131 167 208 257 315 374
#     4  11  22  39  59  95 124 165 212 255 303 370
#     4  10  21  40  64  91 126 164 205 253 316 380
#     4  12  23  40  63  95 125 166 214 255 312 373
#     4  11  25  42  65  91 126 167 214 260 311 373
#     4  11  21  38  64  92 130 171 207 257 313 372
#
# _framework density 21.638940000000002
#
# number of rings (size 3 to 8) (size 9 to 14) (size 15 to 20)
#    0.000    1.125    3.750    2.250    3.500    3.250 
#    0.000    3.125    0.000    0.750    0.000    0.000 
#    0.000    0.000    0.000    0.000    0.000    0.000 
#
# Total GULP energy -396519.595964 kJ/mol
# GULP energy per Si atom -12391.237374 kJ/mol
# Density = 2.158969 g / cm^3
# Si number density = 21.638940 Si / 1000 Ang^3
#
#
#
# Elastic Constant Matrix: (Units=GPa)
#
#
# Indices 1 2 3 4 5 6 
#
# 1 107.9609 23.2960 26.7266 0.0000 18.0648 0.0000
# 2 23.2960 76.1260 16.6648 0.0000 7.5175 0.0000
# 3 26.7266 16.6648 75.6007 0.0000 17.4864 0.0000
# 4 0.0000 0.0000 0.0000 26.5668 0.0000 -3.4326
# 5 18.0648 7.5175 17.4864 0.0000 33.6870 0.0000
# 6 0.0000 0.0000 0.0000 -3.4326 0.0000 24.2018
#
#
#
# Elastic Compliance Matrix: (Units=1/GPa)
#
#
# Indices 1 2 3 4 5 6 
#
# 1 0.011084 -0.002453 -0.002420 0.000000 -0.004140 0.000000
# 2 -0.002453 0.014432 -0.002129 0.000000 -0.000800 0.000000
# 3 -0.002420 -0.002129 0.016072 0.000000 -0.006570 0.000000
# 4 0.000000 0.000000 0.000000 0.038344 0.000000 0.005438
# 5 -0.004140 -0.000800 -0.006570 0.000000 0.035494 0.000000
# 6 0.000000 0.000000 0.000000 0.005438 0.000000 0.042091
#
#
# Mechanical properties :
#
#
# Convention : Reuss Voigt Hill
#
# Bulk Modulus (GPa) = 36.25410 43.67360 39.96385
# Shear Modulus (GPa) = 27.66793 29.75778 28.71286
#
# Velocity S-wave (km/s) = 3.57966 3.71239 3.64662
# Velocity P-wave (km/s) = 5.82029 6.21309 6.01989
#
# Compressibility (1/GPa) = 0.02758308
#
# Stress axis : x y z
#
# Youngs Moduli (GPa) = 90.22150 69.29095 62.22082
#
# Poissons Ratio (x) = 0.16999 0.15057
# Poissons Ratio (y) = 0.22134 0.13247
# Poissons Ratio (z) = 0.21834 0.14752
#
# Static dielectric constant tensor:
#      x y z
#    x 4.059540 0.000000 0.128470 
#    y 0.000000 3.928800 0.000000 
#    z 0.128470 0.000000 3.920840 
# 
# 
# High freq. dielectric constant tensor:
#      x y z
#    x 1.854530 0.000000 0.009400 
#    y 0.000000 1.848160 0.000000 
#    z 0.009400 0.000000 1.842050 
# 
# From -- ./inp_files/112855.got.cif
#   From: 2010.06.25/outbox.cif.g09.slc.cpg/sg12_57_cif.got.tgz:112855.got - 2010.06.28 00:19:55.
