data_PCOD8109102
_publ_section_title
;
Structure prediction by ZEFSAII (Michael W. Deem and Ramdas Pophale) SiO2 
 PCOD8109102
Probable space group: C 2/M
;
_chemical_formula_sum "Si O2"
_cell_formula_units_Z 40
_cell_length_a 16.832969
_cell_length_b 14.710020
_cell_length_c 12.737038
_cell_angle_alpha 90.000000
_cell_angle_beta 144.363021
_cell_angle_gamma 90.000000
_cell_volume 1837.589135
_symmetry_space_group_name_H-M "C 2/M"
_symmetry_group_IT_number 12
_symmetry_cell_setting 'monoclinic'
loop_
_space_group_symop_operation_xyz
x,y,z
-x,y,-z
-x,-y,-z
x,-y,z
1/2+x,1/2+y,z
1/2-x,1/2+y,-z
1/2-x,1/2-y,-z
1/2+x,1/2-y,z
loop_
_atom_site_type_symbol
_atom_site_label
_atom_site_fract_x
_atom_site_fract_y
_atom_site_fract_z
Si Si1 0.265899 0.273512 0.842724
Si Si2 0.039968 0.400695 0.663769
Si Si3 0.013608 0.899145 0.835106
Si Si4 0.266861 0.176505 0.428446
Si Si5 0.391387 0.396796 0.295568
O O1 0.163216 0.330178 0.807577
O O2 0.234446 0.277700 0.686531
O O3 0.243386 0.167518 0.848555
O O4 0.414059 0.315969 0.025346
O O5 0.090695 0.500000 0.756357
O O6 0.000000 0.405864 0.500000
O O7 0.912431 0.372382 0.599223
O O8 0.030272 0.886214 0.729375
O O9 0.854118 0.896406 0.691956
O O10 0.067190 0.000000 0.927380
O O11 0.250000 0.250000 0.500000
O O12 0.500000 0.364480 0.500000
O O13 0.342688 0.500000 0.264081
#
# Coordination Sequence:
#
# PCOD8109102 Si02
#       5
#     8   8   8   8   8
#     4  11  21  37  60  86 118 152 193 245 294 345
#     4   9  18  33  55  82 114 154 196 237 286 346
#     4  11  23  38  61  91 120 152 193 245 302 350
#     4  11  22  36  56  83 120 162 198 235 287 348
#     4  10  21  39  62  86 115 155 201 242 285 350
#
# _framework density 21.767651000000001
#
# number of rings (size 3 to 8) (size 9 to 14) (size 15 to 20)
#    0.000    1.600    0.000    6.600    0.000    3.200 
#    0.000    1.000    0.000    3.600    0.000    0.000 
#    0.000    0.000    0.000    0.000    0.000    0.000 
#
# Total GULP energy -247975.754940 kJ/mol
# GULP energy per Si atom -12398.787747 kJ/mol
# Density = 2.171811 g / cm^3
# Si number density = 21.767651 Si / 1000 Ang^3
#
#
#
# Elastic Constant Matrix: (Units=GPa)
#
#
# Indices 1 2 3 4 5 6 
#
# 1 103.0172 47.9626 23.5083 0.0000 14.3724 0.0000
# 2 47.9626 146.1037 32.4730 0.0000 8.5283 0.0000
# 3 23.5083 32.4730 63.1885 0.0000 12.3782 0.0000
# 4 0.0000 0.0000 0.0000 30.2796 0.0000 2.3369
# 5 14.3724 8.5283 12.3782 0.0000 33.3591 0.0000
# 6 0.0000 0.0000 0.0000 2.3369 0.0000 27.0396
#
#
#
# Elastic Compliance Matrix: (Units=1/GPa)
#
#
# Indices 1 2 3 4 5 6 
#
# 1 0.012254 -0.003337 -0.002132 0.000000 -0.003635 0.000000
# 2 -0.003337 0.008645 -0.003289 0.000000 0.000448 0.000000
# 3 -0.002132 -0.003289 0.019373 0.000000 -0.005429 0.000000
# 4 0.000000 0.000000 0.000000 0.033247 0.000000 -0.002873
# 5 -0.003635 0.000448 -0.005429 0.000000 0.033443 0.000000
# 6 0.000000 0.000000 0.000000 -0.002873 0.000000 0.037231
#
#
# Mechanical properties :
#
#
# Convention : Reuss Voigt Hill
#
# Bulk Modulus (GPa) = 43.94434 57.79970 50.87202
# Shear Modulus (GPa) = 29.53443 32.02671 30.78057
#
# Velocity S-wave (km/s) = 3.68748 3.83991 3.76447
# Velocity P-wave (km/s) = 6.19368 6.80225 6.50509
#
# Compressibility (1/GPa) = 0.02275606
#
# Stress axis : x y z
#
# Youngs Moduli (GPa) = 81.60355 115.67805 51.61935
#
# Poissons Ratio (x) = 0.38599 0.11006
# Poissons Ratio (y) = 0.27229 0.16977
# Poissons Ratio (z) = 0.17399 0.38046
#
# Static dielectric constant tensor:
#      x y z
#    x 4.032420 0.000000 0.159050 
#    y 0.000000 4.128510 0.000000 
#    z 0.159050 0.000000 3.778410 
# 
# 
# High freq. dielectric constant tensor:
#      x y z
#    x 1.857960 0.000000 0.003730 
#    y 0.000000 1.861700 0.000000 
#    z 0.003730 0.000000 1.834020 
# 
# From -- ./inp_files/225820.got.cif
#   From: 2010.06.25/outbox.cif.g09.slc.cpg/sg12_113_cif.got.tgz:225820.got - 2010.06.28 00:19:55.
