data_PCOD8109190
_publ_section_title
;
Structure prediction by ZEFSAII (Michael W. Deem and Ramdas Pophale) SiO2 
 PCOD8109190
Probable space group: C 2/M
;
_chemical_formula_sum "Si O2"
_cell_formula_units_Z 64
_cell_length_a 16.369654
_cell_length_b 15.248329
_cell_length_c 14.372366
_cell_angle_alpha 90.000000
_cell_angle_beta 55.856418
_cell_angle_gamma 90.000000
_cell_volume 2969.122797
_symmetry_space_group_name_H-M "C 2/M"
_symmetry_group_IT_number 12
_symmetry_cell_setting 'monoclinic'
loop_
_space_group_symop_operation_xyz
x,y,z
-x,y,-z
-x,-y,-z
x,-y,z
1/2+x,1/2+y,z
1/2-x,1/2+y,-z
1/2-x,1/2-y,-z
1/2+x,1/2-y,z
loop_
_atom_site_type_symbol
_atom_site_label
_atom_site_fract_x
_atom_site_fract_y
_atom_site_fract_z
Si Si1 0.431256 0.841720 0.893485
Si Si2 0.103611 0.175966 0.959597
Si Si3 0.142875 0.402261 0.716900
Si Si4 0.540807 0.600151 0.574404
Si Si5 0.721552 0.403513 0.051474
Si Si6 0.248237 0.901073 0.529435
Si Si7 0.108494 0.776822 0.247110
Si Si8 0.257100 0.272790 0.292041
O O1 0.532944 0.895326 0.828747
O O2 0.338885 0.906612 0.961077
O O3 0.429494 0.799318 0.793504
O O4 0.425662 0.770139 0.978607
O O5 0.165288 0.118465 0.992232
O O6 0.166055 0.180892 0.825445
O O7 0.000000 0.128719 0.000000
O O8 0.181902 0.500000 0.720088
O O9 0.153027 0.393142 0.597313
O O10 0.210678 0.327433 0.716312
O O11 0.500000 0.629060 0.500000
O O12 0.513017 0.500000 0.611012
O O13 0.656970 0.617080 0.516312
O O14 0.483209 0.658265 0.685449
O O15 0.688314 0.500000 0.106230
O O16 0.699333 0.329489 0.142146
O O17 0.249667 0.828613 0.609073
O O18 0.239787 0.000000 0.577108
O O19 0.148124 0.732730 0.316622
#
# Coordination Sequence:
#
# PCOD8109190 Si02
#       8
#     8   8   8   8   8   8   8   8
#     4  11  21  42  63  86 128 168 208 260 311 381
#     4  11  22  41  63  92 127 165 213 260 319 392
#     4  11  24  41  64  93 125 169 217 264 319 381
#     4  10  21  39  62  90 123 159 206 268 322 375
#     4  11  23  40  62  91 127 166 213 266 319 379
#     4  10  24  44  65  95 129 166 221 271 319 382
#     4  11  22  38  62  89 123 165 212 254 321 386
#     4  12  22  41  66  91 132 170 207 268 326 376
#
# _framework density 21.555188000000001
#
# number of rings (size 3 to 8) (size 9 to 14) (size 15 to 20)
#    0.000    1.125    3.750    3.375    1.750    3.750 
#    0.000    0.625    0.000    1.500    0.000    0.000 
#    0.000    0.000    0.000    0.000    0.000    0.000 
#
# Total GULP energy -396712.133047 kJ/mol
# GULP energy per Si atom -12397.254158 kJ/mol
# Density = 2.150613 g / cm^3
# Si number density = 21.555188 Si / 1000 Ang^3
#
#
#
# Elastic Constant Matrix: (Units=GPa)
#
#
# Indices 1 2 3 4 5 6 
#
# 1 39.8364 -7.2348 14.2997 0.0000 5.0078 0.0000
# 2 -7.2348 57.7399 3.4347 0.0000 6.1961 0.0000
# 3 14.2997 3.4347 59.6644 0.0000 -7.2852 0.0000
# 4 0.0000 0.0000 0.0000 24.6101 0.0000 -16.8464
# 5 5.0078 6.1961 -7.2852 0.0000 39.0063 0.0000
# 6 0.0000 0.0000 0.0000 -16.8464 0.0000 -0.6705
#
#
#
# Elastic Compliance Matrix: (Units=1/GPa)
#
#
# Indices 1 2 3 4 5 6 
#
# 1 0.029672 0.004857 -0.008136 0.000000 -0.006100 0.000000
# 2 0.004857 0.018527 -0.002728 0.000000 -0.004076 0.000000
# 3 -0.008136 -0.002728 0.019492 0.000000 0.005118 0.000000
# 4 0.000000 0.000000 0.000000 0.002233 0.000000 -0.056098
# 5 -0.006100 -0.004076 0.005118 0.000000 0.028024 0.000000
# 6 0.000000 0.000000 0.000000 -0.056098 0.000000 -0.081952
#
#
# Mechanical properties :
#
#
# Convention : Reuss Voigt Hill
#
# Bulk Modulus (GPa) = 17.96091 19.80443 18.88267
# Shear Modulus (GPa) = 107.36443 22.37193 64.86818
#
# Velocity S-wave (km/s) = 7.06521 3.22513 5.49175
# Velocity P-wave (km/s) = 8.65488 4.80378 6.99940
#
# Compressibility (1/GPa) = 0.05567647
#
# Stress axis : x y z
#
# Youngs Moduli (GPa) = 33.70173 53.97452 51.30210
#
# Poissons Ratio (x) = -0.26213 0.41739
# Poissons Ratio (y) = -0.16367 0.13996
# Poissons Ratio (z) = 0.27419 0.14725
#
# Static dielectric constant tensor:
#      x y z
#    x 3.900870 0.000000 -0.104180 
#    y 0.000000 3.752990 0.000000 
#    z -0.104180 0.000000 3.998250 
# 
# 
# High freq. dielectric constant tensor:
#      x y z
#    x 1.843530 0.000000 -0.005200 
#    y 0.000000 1.838620 0.000000 
#    z -0.005200 0.000000 1.851360 
# 
# From -- ./inp_files/225275.got.cif
#   From: 2010.06.25/outbox.cif.g09.slc.cpg/sg12_113_cif.got.tgz:225275.got - 2010.06.28 00:19:55.
