data_PCOD8109132
_publ_section_title
;
Structure prediction by ZEFSAII (Michael W. Deem and Ramdas Pophale) SiO2 
 PCOD8109132
Probable space group: C 2/M
;
_chemical_formula_sum "Si O2"
_cell_formula_units_Z 56
_cell_length_a 19.491439
_cell_length_b 8.785025
_cell_length_c 16.914342
_cell_angle_alpha 90.000000
_cell_angle_beta 73.238195
_cell_angle_gamma 90.000000
_cell_volume 2773.232112
_symmetry_space_group_name_H-M "C 2/M"
_symmetry_group_IT_number 12
_symmetry_cell_setting 'monoclinic'
loop_
_space_group_symop_operation_xyz
x,y,z
-x,y,-z
-x,-y,-z
x,-y,z
1/2+x,1/2+y,z
1/2-x,1/2+y,-z
1/2-x,1/2-y,-z
1/2+x,1/2-y,z
loop_
_atom_site_type_symbol
_atom_site_label
_atom_site_fract_x
_atom_site_fract_y
_atom_site_fract_z
Si Si1 0.716364 0.674193 0.690212
Si Si2 0.713318 0.820645 0.859932
Si Si3 0.856870 0.679511 0.858629
Si Si4 0.076872 0.680908 0.000941
Si Si5 0.151033 0.821856 0.430362
Si Si6 0.561080 0.822035 0.326234
Si Si7 0.913042 0.826303 0.380769
O O1 0.732291 0.500000 0.708092
O O2 0.719002 0.774429 0.767285
O O3 0.776892 0.729251 0.609744
O O4 0.639971 0.692872 0.674935
O O5 0.778283 0.751934 0.888950
O O6 0.718522 0.000000 0.865283
O O7 0.638307 0.760489 0.920616
O O8 0.847475 0.500000 0.865855
O O9 0.903911 0.737737 0.917156
O O10 0.896258 0.730898 0.765597
O O11 0.072776 0.500000 0.000161
O O12 0.000000 0.750094 0.000000
O O13 0.088731 0.774366 0.390920
O O14 0.126210 0.776769 0.526041
O O15 0.166794 0.000000 0.417197
O O16 0.477932 0.786616 0.341584
O O17 0.571936 0.000000 0.339057
O O18 0.940427 0.000000 0.378781
#
# Coordination Sequence:
#
# PCOD8109132 Si02
#       7
#     8   8   8   8   8   8   8
#     4  11  23  40  61  87 122 159 198 249 305 356
#     4  11  22  37  63  91 117 158 203 243 291 354
#     4  10  21  39  62  87 121 159 195 244 294 346
#     4   9  20  38  62  91 121 153 194 243 293 349
#     4  11  22  40  63  87 117 156 204 252 300 356
#     4  11  23  37  60  91 122 160 201 244 297 358
#     4  10  24  41  59  85 121 161 199 251 307 353
#
# _framework density 20.193045000000001
#
# number of rings (size 3 to 8) (size 9 to 14) (size 15 to 20)
#    0.000    1.571    1.429    3.000    2.000    4.571 
#    0.000    0.714    0.000    2.143    0.000    0.000 
#    0.000    0.000    0.000    0.000    0.000    0.000 
#
# Total GULP energy -347344.682778 kJ/mol
# GULP energy per Si atom -12405.167242 kJ/mol
# Density = 2.014708 g / cm^3
# Si number density = 20.193045 Si / 1000 Ang^3
#
#
#
# Elastic Constant Matrix: (Units=GPa)
#
#
# Indices 1 2 3 4 5 6 
#
# 1 125.4140 21.7649 43.1101 0.0000 0.0829 0.0000
# 2 21.7649 26.0516 17.9347 0.0000 0.5661 0.0000
# 3 43.1101 17.9347 90.8602 0.0000 3.6808 0.0000
# 4 0.0000 0.0000 0.0000 9.3519 0.0000 -2.3230
# 5 0.0829 0.5661 3.6808 0.0000 34.5351 0.0000
# 6 0.0000 0.0000 0.0000 -2.3230 0.0000 33.1448
#
#
#
# Elastic Compliance Matrix: (Units=1/GPa)
#
#
# Indices 1 2 3 4 5 6 
#
# 1 0.010300 -0.006062 -0.003710 0.000000 0.000470 0.000000
# 2 -0.006062 0.047991 -0.006594 0.000000 -0.000069 0.000000
# 3 -0.003710 -0.006594 0.014124 0.000000 -0.001388 0.000000
# 4 0.000000 0.000000 0.000000 0.108824 0.000000 0.007627
# 5 0.000470 -0.000069 -0.001388 0.000000 0.029104 0.000000
# 6 0.000000 0.000000 0.000000 0.007627 0.000000 0.030705
#
#
# Mechanical properties :
#
#
# Convention : Reuss Voigt Hill
#
# Bulk Modulus (GPa) = 25.19901 45.32724 35.26313
# Shear Modulus (GPa) = 17.42117 26.04079 21.73098
#
# Velocity S-wave (km/s) = 2.94041 3.59498 3.28405
# Velocity P-wave (km/s) = 4.90247 6.30298 5.64632
#
# Compressibility (1/GPa) = 0.03968410
#
# Stress axis : x y z
#
# Youngs Moduli (GPa) = 97.08279 20.83743 70.80238
#
# Poissons Ratio (x) = 0.12631 0.26266
# Poissons Ratio (y) = 0.58851 0.46685
# Poissons Ratio (z) = 0.36015 0.13740
#
# Static dielectric constant tensor:
#      x y z
#    x 3.846860 0.000000 -0.016680 
#    y 0.000000 3.494500 0.000000 
#    z -0.016680 0.000000 3.782770 
# 
# 
# High freq. dielectric constant tensor:
#      x y z
#    x 1.802890 0.000000 0.000930 
#    y 0.000000 1.774730 0.000000 
#    z 0.000930 0.000000 1.798170 
# 
# From -- ./inp_files/275121.got.cif
#   From: 2010.06.25/outbox.cif.g09.slc.cpg/sg12_138_cif.got.tgz:275121.got - 2010.06.28 00:19:55.
