data_PCOD8109384
_publ_section_title
;
Structure prediction by ZEFSAII (Michael W. Deem and Ramdas Pophale) SiO2 
 PCOD8109384
Probable space group: C 2/M
;
_chemical_formula_sum "Si O2"
_cell_formula_units_Z 56
_cell_length_a 17.749295
_cell_length_b 23.446418
_cell_length_c 6.687543
_cell_angle_alpha 90.000000
_cell_angle_beta 107.296632
_cell_angle_gamma 90.000000
_cell_volume 2657.215202
_symmetry_space_group_name_H-M "C 2/M"
_symmetry_group_IT_number 12
_symmetry_cell_setting 'monoclinic'
loop_
_space_group_symop_operation_xyz
x,y,z
-x,y,-z
-x,-y,-z
x,-y,z
1/2+x,1/2+y,z
1/2-x,1/2+y,-z
1/2-x,1/2-y,-z
1/2+x,1/2-y,z
loop_
_atom_site_type_symbol
_atom_site_label
_atom_site_fract_x
_atom_site_fract_y
_atom_site_fract_z
Si Si1 0.909644 0.233722 0.385511
Si Si2 0.695464 0.062558 0.962547
Si Si3 0.680666 0.353003 0.422491
Si Si4 0.136228 0.065087 0.725044
Si Si5 0.645164 0.858336 0.570089
Si Si6 0.917754 0.155575 0.041025
Si Si7 0.571159 0.935202 0.196037
O O1 0.852804 0.203388 0.499751
O O2 0.894832 0.300359 0.390681
O O3 0.890719 0.211155 0.146755
O O4 0.000000 0.218167 0.500000
O O5 0.664018 0.108585 0.786029
O O6 0.680380 0.000000 0.856271
O O7 0.786968 0.070784 0.077639
O O8 0.652199 0.067783 0.139443
O O9 0.652286 0.409448 0.518126
O O10 0.775415 0.348614 0.494962
O O11 0.649674 0.357441 0.172714
O O12 0.071545 0.102429 0.795208
O O13 0.107105 0.000000 0.678230
O O14 0.580306 0.893421 0.392069
O O15 0.000000 0.168105 0.000000
O O16 0.553907 0.000000 0.255771
O O17 0.500000 0.913237 0.000000
#
# Coordination Sequence:
#
# PCOD8109384 Si02
#       7
#     8   8   8   8   8   8   8
#     4  11  26  44  64  93 126 167 220 272 315 376
#     4  10  21  39  63  96 132 164 206 262 318 378
#     4  11  23  44  66  92 129 172 207 264 329 374
#     4  10  22  40  67 102 130 161 213 260 310 393
#     4  12  24  40  67  99 123 169 224 261 311 385
#     4  11  23  45  68  90 131 173 207 262 335 378
#     4  10  23  42  63  93 137 174 204 260 324 375
#
# _framework density 21.074694999999998
#
# number of rings (size 3 to 8) (size 9 to 14) (size 15 to 20)
#    0.000    1.286    4.286    0.857    2.000    3.143 
#    0.000    2.857    0.000    0.000    0.000    0.000 
#    0.000    0.000    0.000    0.000    0.000    0.000 
#
# Total GULP energy -347274.159389 kJ/mol
# GULP energy per Si atom -12402.648550 kJ/mol
# Density = 2.102673 g / cm^3
# Si number density = 21.074695 Si / 1000 Ang^3
#
#
#
# Elastic Constant Matrix: (Units=GPa)
#
#
# Indices 1 2 3 4 5 6 
#
# 1 56.3882 24.7120 19.9175 0.0000 -4.4376 0.0000
# 2 24.7120 160.5133 70.2522 0.0000 -8.4361 0.0000
# 3 19.9175 70.2522 118.4768 0.0000 -2.8811 0.0000
# 4 0.0000 0.0000 0.0000 47.3697 0.0000 11.0285
# 5 -4.4376 -8.4361 -2.8811 0.0000 31.8619 0.0000
# 6 0.0000 0.0000 0.0000 11.0285 0.0000 31.9070
#
#
#
# Elastic Compliance Matrix: (Units=1/GPa)
#
#
# Indices 1 2 3 4 5 6 
#
# 1 0.019490 -0.002002 -0.002041 0.000000 0.002000 0.000000
# 2 -0.002002 0.008721 -0.004796 0.000000 0.001597 0.000000
# 3 -0.002041 -0.004796 0.011615 0.000000 -0.000504 0.000000
# 4 0.000000 0.000000 0.000000 0.022958 0.000000 -0.007935
# 5 0.002000 0.001597 -0.000504 0.000000 0.032041 0.000000
# 6 0.000000 0.000000 0.000000 -0.007935 0.000000 0.034084
#
#
# Mechanical properties :
#
#
# Convention : Reuss Voigt Hill
#
# Bulk Modulus (GPa) = 45.14975 62.79350 53.97163
# Shear Modulus (GPa) = 32.47391 36.92750 34.70070
#
# Velocity S-wave (km/s) = 3.92968 4.19049 4.06218
# Velocity P-wave (km/s) = 6.48537 7.29891 6.90413
#
# Compressibility (1/GPa) = 0.02214852
#
# Stress axis : x y z
#
# Youngs Moduli (GPa) = 51.30866 114.66257 86.09522
#
# Poissons Ratio (x) = 0.22960 0.17568
# Poissons Ratio (y) = 0.10274 0.41290
# Poissons Ratio (z) = 0.10470 0.54991
#
# Static dielectric constant tensor:
#      x y z
#    x 3.808550 0.000000 -0.024400 
#    y 0.000000 3.809740 0.000000 
#    z -0.024400 0.000000 3.753370 
# 
# 
# High freq. dielectric constant tensor:
#      x y z
#    x 1.830270 0.000000 -0.004380 
#    y 0.000000 1.825510 0.000000 
#    z -0.004380 0.000000 1.827730 
# 
# From -- ./inp_files/21909.got.cif
#   From: 2010.06.25/outbox.cif.g09.slc.cpg/sg12_11_cif.got.tgz:21909.got - 2010.06.28 00:19:55.
