data_PCOD8109371
_publ_section_title
;
Structure prediction by ZEFSAII (Michael W. Deem and Ramdas Pophale) SiO2 
 PCOD8109371
Probable space group: C 2/M
;
_chemical_formula_sum "Si O2"
_cell_formula_units_Z 56
_cell_length_a 21.329664
_cell_length_b 17.998080
_cell_length_c 17.963401
_cell_angle_alpha 90.000000
_cell_angle_beta 21.196427
_cell_angle_gamma 90.000000
_cell_volume 2493.370730
_symmetry_space_group_name_H-M "C 2/M"
_symmetry_group_IT_number 12
_symmetry_cell_setting 'monoclinic'
loop_
_space_group_symop_operation_xyz
x,y,z
-x,y,-z
-x,-y,-z
x,-y,z
1/2+x,1/2+y,z
1/2-x,1/2+y,-z
1/2-x,1/2-y,-z
1/2+x,1/2-y,z
loop_
_atom_site_type_symbol
_atom_site_label
_atom_site_fract_x
_atom_site_fract_y
_atom_site_fract_z
Si Si1 0.744738 0.810852 0.851320
Si Si2 0.592192 0.844300 0.323701
Si Si3 0.103810 0.918043 0.213560
Si Si4 0.038354 0.913298 0.120006
Si Si5 0.133546 0.316548 0.712734
Si Si6 0.305573 0.165940 0.521789
Si Si7 0.726435 0.416420 0.321160
O O1 0.880724 0.744062 0.700054
O O2 0.756035 0.857615 0.916009
O O3 0.776636 0.864509 0.746795
O O4 0.551423 0.777240 0.067332
O O5 0.500000 0.873815 0.500000
O O6 0.774928 0.885415 0.113944
O O7 0.462752 0.862939 0.398926
O O8 0.964008 0.918578 0.433905
O O9 0.188561 0.000000 0.111449
O O10 0.018917 0.894252 0.229312
O O11 0.025732 0.000000 0.117448
O O12 0.876067 0.875117 0.257634
O O13 0.281348 0.254435 0.561929
O O14 0.143719 0.350777 0.619205
O O15 0.145211 0.383538 0.758656
O O16 0.787092 0.500000 0.232911
#
# Coordination Sequence:
#
# PCOD8109371 Si02
#       7
#     8   8   8   8   8   8   8
#     4  12  23  38  64 101 144 187 228 277 334 408
#     4  12  27  45  71 103 137 177 233 292 351 418
#     4  10  21  39  63  93 135 181 228 277 334 409
#     4  11  25  48  73 100 134 175 230 294 357 412
#     4  11  23  39  66  98 137 183 237 281 333 403
#     4  11  24  45  71 100 134 181 231 291 346 402
#     4  11  23  40  63  98 145 190 226 270 336 415
#
# _framework density 22.459555999999999
#
# number of rings (size 3 to 8) (size 9 to 14) (size 15 to 20)
#    0.000    0.857    2.857    4.714    2.000    5.429 
#    0.000    0.714    0.000    0.000    0.000    0.000 
#    0.000    0.000    0.000    0.000    0.000    0.000 
#
# Total GULP energy -347248.166011 kJ/mol
# GULP energy per Si atom -12401.720215 kJ/mol
# Density = 2.240844 g / cm^3
# Si number density = 22.459556 Si / 1000 Ang^3
#
#
#
# Elastic Constant Matrix: (Units=GPa)
#
#
# Indices 1 2 3 4 5 6 
#
# 1 112.7022 47.6892 38.7580 -0.0262 -12.9427 0.0093
# 2 47.6892 95.0882 29.4360 -0.0231 -4.2063 0.0154
# 3 38.7580 29.4360 111.8397 -0.0533 -12.7574 0.0297
# 4 -0.0262 -0.0231 -0.0533 27.1962 0.0205 -0.9888
# 5 -12.9427 -4.2063 -12.7574 0.0205 30.4443 -0.0092
# 6 0.0093 0.0154 0.0297 -0.9888 -0.0092 31.3945
#
#
#
# Elastic Compliance Matrix: (Units=1/GPa)
#
#
# Indices 1 2 3 4 5 6 
#
# 1 0.012363 -0.005273 -0.002500 0.000000 0.003480 0.000002
# 2 -0.005273 0.013701 -0.001910 0.000004 -0.001149 -0.000004
# 3 -0.002500 -0.001910 0.010669 0.000014 0.003144 -0.000007
# 4 0.000000 0.000004 0.000014 0.036812 -0.000018 0.001159
# 5 0.003480 -0.001149 0.003144 -0.000018 0.035485 0.000006
# 6 0.000002 -0.000004 -0.000007 0.001159 0.000006 0.031889
#
#
# Mechanical properties :
#
#
# Convention : Reuss Voigt Hill
#
# Bulk Modulus (GPa) = 57.57451 61.26627 59.42039
# Shear Modulus (GPa) = 30.10690 31.39013 30.74851
#
# Velocity S-wave (km/s) = 3.66525 3.74254 3.70410
# Velocity P-wave (km/s) = 6.60322 6.78330 6.69387
#
# Compressibility (1/GPa) = 0.01736880
#
# Stress axis : x y z
#
# Youngs Moduli (GPa) = 80.88389 72.98510 93.72932
#
# Poissons Ratio (x) = 0.38483 0.23430
# Poissons Ratio (y) = 0.42648 0.17902
# Poissons Ratio (z) = 0.20219 0.13940
#
# Static dielectric constant tensor:
#      x y z
#    x 4.038020 -0.000030 -0.048870 
#    y -0.000030 3.985480 0.000110 
#    z -0.048870 0.000110 4.032640 
# 
# 
# High freq. dielectric constant tensor:
#      x y z
#    x 1.883950 -0.000010 -0.003790 
#    y -0.000010 1.878560 0.000020 
#    z -0.003790 0.000020 1.891330 
# 
# From -- ./inp_files/286019.got.cif
#   From: 2010.06.25/outbox.cif.g09.slc.cpg/sg12_144_cif.got.tgz:286019.got - 2010.06.28 00:19:55.
