data_PCOD8109846
_publ_section_title
;
Structure prediction by ZEFSAII (Michael W. Deem and Ramdas Pophale) SiO2 
 PCOD8109846
Probable space group: C 2/M
;
_chemical_formula_sum "Si O2"
_cell_formula_units_Z 56
_cell_length_a 9.419881
_cell_length_b 16.735004
_cell_length_c 27.165643
_cell_angle_alpha 90.000000
_cell_angle_beta 38.279622
_cell_angle_gamma 90.000000
_cell_volume 2652.970679
_symmetry_space_group_name_H-M "C 2/M"
_symmetry_group_IT_number 12
_symmetry_cell_setting 'monoclinic'
loop_
_space_group_symop_operation_xyz
x,y,z
-x,y,-z
-x,-y,-z
x,-y,z
1/2+x,1/2+y,z
1/2-x,1/2+y,-z
1/2-x,1/2-y,-z
1/2+x,1/2-y,z
loop_
_atom_site_type_symbol
_atom_site_label
_atom_site_fract_x
_atom_site_fract_y
_atom_site_fract_z
Si Si1 0.547279 0.686458 0.544002
Si Si2 0.052887 0.686683 0.722316
Si Si3 0.250299 0.407145 0.430577
Si Si4 0.893615 0.822468 0.216883
Si Si5 0.029671 0.406107 0.162587
Si Si6 0.542466 0.409116 0.262563
Si Si7 0.750044 0.244422 0.057094
O O1 0.500000 0.668967 0.500000
O O2 0.750000 0.750000 0.500000
O O3 0.302506 0.705992 0.633741
O O4 0.626906 0.606087 0.550414
O O5 0.005605 0.760273 0.770773
O O6 0.018280 0.607291 0.765606
O O7 0.870911 0.684648 0.726934
O O8 0.217983 0.500000 0.429692
O O9 0.387730 0.366615 0.347325
O O10 0.000000 0.364773 0.500000
O O11 0.934829 0.903694 0.236759
O O12 0.059919 0.809833 0.125460
O O13 0.095695 0.500000 0.136568
O O14 0.802294 0.377361 0.195034
O O15 0.218521 0.345439 0.088698
O O16 0.555330 0.500000 0.275244
O O17 0.750000 0.250000 0.000000
O O18 0.000000 0.277346 0.000000
#
# Coordination Sequence:
#
# PCOD8109846 Si02
#       7
#     8   8   8   8   8   8   8
#     4  12  26  39  59  92 125 163 210 265 316 361
#     4  11  23  39  61  88 123 164 208 263 305 361
#     4  10  23  42  62  86 122 167 208 254 313 368
#     4  11  23  39  63  90 120 162 210 249 309 373
#     4  10  21  41  66  91 121 164 209 247 303 373
#     4  10  21  40  64  87 121 165 210 256 303 365
#     4  11  22  40  63  92 126 160 196 248 311 372
#
# _framework density 21.108412999999999
#
# number of rings (size 3 to 8) (size 9 to 14) (size 15 to 20)
#    0.000    1.286    1.429    5.571    6.000    1.143 
#    0.000    0.714    0.000    2.571    0.000    0.000 
#    0.000    0.000    0.000    0.000    0.000    0.000 
#
# Total GULP energy -346883.153865 kJ/mol
# GULP energy per Si atom -12388.684067 kJ/mol
# Density = 2.106037 g / cm^3
# Si number density = 21.108413 Si / 1000 Ang^3
#
#
#
# Elastic Constant Matrix: (Units=GPa)
#
#
# Indices 1 2 3 4 5 6 
#
# 1 157.4077 6.8282 41.0781 0.0019 0.4327 -0.0052
# 2 6.8282 34.2874 14.9440 0.0017 1.8267 0.0001
# 3 41.0781 14.9440 124.7439 -0.0043 2.0579 0.0058
# 4 0.0019 0.0017 -0.0043 12.0309 0.0065 3.0088
# 5 0.4327 1.8267 2.0579 0.0065 47.9557 -0.0013
# 6 -0.0052 0.0001 0.0058 3.0088 -0.0013 30.1546
#
#
#
# Elastic Compliance Matrix: (Units=1/GPa)
#
#
# Indices 1 2 3 4 5 6 
#
# 1 0.006956 -0.000411 -0.002242 -0.000002 0.000049 0.000002
# 2 -0.000411 0.030846 -0.003543 -0.000005 -0.001019 0.000001
# 3 -0.002242 -0.003543 0.009183 0.000005 -0.000239 -0.000003
# 4 -0.000002 -0.000005 0.000005 0.085247 -0.000012 -0.008506
# 5 0.000049 -0.001019 -0.000239 -0.000012 0.020901 0.000002
# 6 0.000002 0.000001 -0.000003 -0.008506 0.000002 0.034011
#
#
# Mechanical properties :
#
#
# Convention : Reuss Voigt Hill
#
# Bulk Modulus (GPa) = 28.90789 49.12663 39.01726
# Shear Modulus (GPa) = 23.68921 34.93414 29.31168
#
# Velocity S-wave (km/s) = 3.35366 4.07257 3.73047
# Velocity P-wave (km/s) = 5.35917 6.74080 6.08930
#
# Compressibility (1/GPa) = 0.03459264
#
# Stress axis : x y z
#
# Youngs Moduli (GPa) = 143.76641 32.41951 108.89487
#
# Poissons Ratio (x) = 0.01331 0.24416
# Poissons Ratio (y) = 0.05903 0.38584
# Poissons Ratio (z) = 0.32234 0.11487
#
# Static dielectric constant tensor:
#      x y z
#    x 4.434600 -0.000110 0.050360 
#    y -0.000110 3.810540 0.000030 
#    z 0.050360 0.000030 4.252410 
# 
# 
# High freq. dielectric constant tensor:
#      x y z
#    x 1.840500 0.000000 -0.004340 
#    y 0.000000 1.803760 0.000000 
#    z -0.004340 0.000000 1.836080 
# 
# From -- ./inp_files/257019.got.cif
#   From: 2010.06.25/outbox.cif.g09.slc.cpg/sg12_129_cif.got.tgz:257019.got - 2010.06.28 00:19:55.
