data_PCOD8109251
_publ_section_title
;
Structure prediction by ZEFSAII (Michael W. Deem and Ramdas Pophale) SiO2 
 PCOD8109251
Probable space group: C 2/M
;
_chemical_formula_sum "Si O2"
_cell_formula_units_Z 48
_cell_length_a 20.473255
_cell_length_b 8.471188
_cell_length_c 14.691721
_cell_angle_alpha 90.000000
_cell_angle_beta 99.573116
_cell_angle_gamma 90.000000
_cell_volume 2512.542836
_symmetry_space_group_name_H-M "C 2/M"
_symmetry_group_IT_number 12
_symmetry_cell_setting 'monoclinic'
loop_
_space_group_symop_operation_xyz
x,y,z
-x,y,-z
-x,-y,-z
x,-y,z
1/2+x,1/2+y,z
1/2-x,1/2+y,-z
1/2-x,1/2-y,-z
1/2+x,1/2-y,z
loop_
_atom_site_type_symbol
_atom_site_label
_atom_site_fract_x
_atom_site_fract_y
_atom_site_fract_z
Si Si1 0.730704 0.816780 0.260563
Si Si2 0.701514 0.684265 0.064464
Si Si3 0.938256 0.314255 0.924743
Si Si4 0.906445 0.816439 0.728467
Si Si5 0.442608 0.185249 0.553202
Si Si6 0.198327 0.685396 0.559740
O O1 0.735127 0.715934 0.169611
O O2 0.661323 0.783069 0.295262
O O3 0.790581 0.767087 0.340027
O O4 0.735708 0.000000 0.236899
O O5 0.690528 0.500000 0.047532
O O6 0.630175 0.768767 0.041282
O O7 0.750000 0.750000 0.000000
O O8 0.939379 0.500000 0.907770
O O9 0.945450 0.227900 0.829398
O O10 0.000000 0.258879 0.000000
O O11 0.950838 0.774398 0.651313
O O12 0.888457 0.000000 0.726242
O O13 0.500000 0.245484 0.500000
O O14 0.374325 0.232211 0.489579
O O15 0.448212 0.000000 0.573321
O O16 0.207841 0.500000 0.572595
O O17 0.250000 0.750000 0.500000
#
# Coordination Sequence:
#
# PCOD8109251 Si02
#       6
#     8   8   8   8   8   8
#     4  11  21  36  59  86 116 152 194 238 284 342
#     4  11  22  39  62  88 120 153 191 241 295 347
#     4  10  21  39  63  88 115 153 196 237 286 348
#     4  11  21  35  59  86 115 151 191 239 288 340
#     4  10  22  40  59  81 114 155 192 232 286 343
#     4  11  21  35  59  87 114 149 192 239 282 339
#
# _framework density 19.104151999999999
#
# number of rings (size 3 to 8) (size 9 to 14) (size 15 to 20)
#    0.000    1.333    1.667    7.500    0.000    2.333 
#    3.000    0.000    0.000    0.000    0.000    0.000 
#    0.000    0.000    0.000    0.000    0.000    0.000 
#
# Total GULP energy -297717.028410 kJ/mol
# GULP energy per Si atom -12404.876184 kJ/mol
# Density = 1.906067 g / cm^3
# Si number density = 19.104152 Si / 1000 Ang^3
#
#
#
# Elastic Constant Matrix: (Units=GPa)
#
#
# Indices 1 2 3 4 5 6 
#
# 1 111.8493 24.2859 74.2128 0.0000 -2.5812 0.0000
# 2 24.2859 72.3459 23.0173 0.0000 2.8285 0.0000
# 3 74.2128 23.0173 128.4770 0.0000 -3.9669 0.0000
# 4 0.0000 0.0000 0.0000 36.1050 0.0000 -0.2392
# 5 -2.5812 2.8285 -3.9669 0.0000 37.1321 0.0000
# 6 0.0000 0.0000 0.0000 -0.2392 0.0000 26.4701
#
#
#
# Elastic Compliance Matrix: (Units=1/GPa)
#
#
# Indices 1 2 3 4 5 6 
#
# 1 0.014883 -0.002416 -0.008153 0.000000 0.000348 0.000000
# 2 -0.002416 0.015123 -0.001359 0.000000 -0.001465 0.000000
# 3 -0.008153 -0.001359 0.012765 0.000000 0.000900 0.000000
# 4 0.000000 0.000000 0.000000 0.027699 0.000000 0.000250
# 5 0.000348 -0.001465 0.000900 0.000000 0.027163 0.000000
# 6 0.000000 0.000000 0.000000 0.000250 0.000000 0.037781
#
#
# Mechanical properties :
#
#
# Convention : Reuss Voigt Hill
#
# Bulk Modulus (GPa) = 52.87092 61.74492 57.30792
# Shear Modulus (GPa) = 30.19795 32.68520 31.44157
#
# Velocity S-wave (km/s) = 3.98012 4.14078 4.06124
# Velocity P-wave (km/s) = 6.98977 7.43315 7.21487
#
# Compressibility (1/GPa) = 0.01891399
#
# Stress axis : x y z
#
# Youngs Moduli (GPa) = 67.19079 66.12385 78.34208
#
# Poissons Ratio (x) = 0.15973 0.63876
# Poissons Ratio (y) = 0.16231 0.10649
# Poissons Ratio (z) = 0.54784 0.08988
#
# Static dielectric constant tensor:
#      x y z
#    x 3.432090 0.000000 0.138300 
#    y 0.000000 3.564540 0.000000 
#    z 0.138300 0.000000 3.797460 
# 
# 
# High freq. dielectric constant tensor:
#      x y z
#    x 1.724680 0.000000 0.004610 
#    y 0.000000 1.755670 0.000000 
#    z 0.004610 0.000000 1.753990 
# 
# From -- ./inp_files/229279.got.cif
#   From: 2010.06.25/outbox.cif.g09.slc.cpg/sg12_115_cif.got.tgz:229279.got - 2010.06.28 00:19:55.
