data_PCOD8109794
_publ_section_title
;
Structure prediction by ZEFSAII (Michael W. Deem and Ramdas Pophale) SiO2 
 PCOD8109794
Probable space group: C 2/M
;
_chemical_formula_sum "Si O2"
_cell_formula_units_Z 64
_cell_length_a 28.486359
_cell_length_b 8.918490
_cell_length_c 23.884787
_cell_angle_alpha 90.000000
_cell_angle_beta 146.978272
_cell_angle_gamma 90.000000
_cell_volume 3306.830340
_symmetry_space_group_name_H-M "C 2/M"
_symmetry_group_IT_number 12
_symmetry_cell_setting 'monoclinic'
loop_
_space_group_symop_operation_xyz
x,y,z
-x,y,-z
-x,-y,-z
x,-y,z
1/2+x,1/2+y,z
1/2-x,1/2+y,-z
1/2-x,1/2-y,-z
1/2+x,1/2-y,z
loop_
_atom_site_type_symbol
_atom_site_label
_atom_site_fract_x
_atom_site_fract_y
_atom_site_fract_z
Si Si1 0.665876 0.821706 0.941975
Si Si2 0.178563 0.176709 0.178563
Si Si3 0.165876 0.678294 0.389778
Si Si4 0.860083 0.827032 0.360083
Si Si5 1.000000 0.676766 0.709044
Si Si6 0.099659 0.823339 0.215230
Si Si7 0.599658 0.323339 0.984087
Si Si8 0.500000 0.327144 0.590937
O O1 0.584575 0.761951 0.824955
O O2 0.656227 0.765573 0.995691
O O3 0.673881 0.000000 0.949192
O O4 0.750000 0.750000 0.000000
O O5 0.277151 0.224447 0.277151
O O6 0.129692 0.236562 0.184652
O O7 0.174495 0.000000 0.174495
O O8 0.129692 0.236562 0.074731
O O9 0.173881 0.500000 0.398570
O O10 0.250000 0.750000 0.500000
O O11 0.156227 0.734427 0.316764
O O12 0.084575 0.738049 0.344196
O O13 0.915355 0.789463 0.470406
O O14 0.915355 0.789463 0.360303
O O15 0.832401 0.000000 0.332401
O O16 1.000000 0.500000 0.711228
O O17 1.000000 0.725827 0.645210
O O18 0.000000 0.782444 0.123572
O O19 0.116167 0.000000 0.238587
O O20 0.616167 0.500000 0.993747
O O21 0.500000 0.500000 0.609002
#
# Coordination Sequence:
#
# PCOD8109794 Si02
#       8
#     8   8   8   8   8   8   8   8
#     4  11  24  42  62  89 123 159 200 249 299 355
#     4  10  22  37  59  89 118 150 193 244 293 347
#     4  11  24  42  62  89 123 159 200 249 299 355
#     4   9  20  39  57  84 118 152 192 241 288 345
#     4  10  23  41  61  87 121 154 196 248 297 350
#     4  10  21  40  63  87 118 156 197 242 295 353
#     4  10  21  40  63  87 118 156 197 242 295 353
#     4   9  20  38  60  82 115 155 195 236 288 349
#
# _framework density 19.353881999999999
#
# number of rings (size 3 to 8) (size 9 to 14) (size 15 to 20)
#    0.000    2.000    1.250    1.875    3.500    5.500 
#    0.000    1.250    0.000    2.250    0.000    0.000 
#    0.000    0.000    0.000    0.000    0.000    0.000 
#
# Total GULP energy -396915.481183 kJ/mol
# GULP energy per Si atom -12403.608787 kJ/mol
# Density = 1.930983 g / cm^3
# Si number density = 19.353882 Si / 1000 Ang^3
#
#
#
# Elastic Constant Matrix: (Units=GPa)
#
#
# Indices 1 2 3 4 5 6 
#
# 1 137.4039 35.7733 83.3111 0.0000 -11.5614 0.0000
# 2 35.7733 28.8609 35.4296 0.0000 -0.4130 0.0000
# 3 83.3111 35.4296 128.9782 0.0000 1.4361 0.0000
# 4 0.0000 0.0000 0.0000 33.8287 0.0000 -1.9096
# 5 -11.5614 -0.4130 1.4361 0.0000 37.8539 0.0000
# 6 0.0000 0.0000 0.0000 -1.9096 0.0000 35.4178
#
#
#
# Elastic Compliance Matrix: (Units=1/GPa)
#
#
# Indices 1 2 3 4 5 6 
#
# 1 0.014058 -0.009285 -0.006580 0.000000 0.004442 0.000000
# 2 -0.009285 0.058457 -0.010040 0.000000 -0.001817 0.000000
# 3 -0.006580 -0.010040 0.014791 0.000000 -0.002680 0.000000
# 4 0.000000 0.000000 0.000000 0.029651 0.000000 0.001599
# 5 0.004442 -0.001817 -0.002680 0.000000 0.027856 0.000000
# 6 0.000000 0.000000 0.000000 0.001599 0.000000 0.028321
#
#
# Mechanical properties :
#
#
# Convention : Reuss Voigt Hill
#
# Bulk Modulus (GPa) = 28.17139 67.14122 47.65630
# Shear Modulus (GPa) = 21.11707 30.80200 25.95954
#
# Velocity S-wave (km/s) = 3.30677 3.99371 3.66636
# Velocity P-wave (km/s) = 5.40066 7.48552 6.52687
#
# Compressibility (1/GPa) = 0.03549701
#
# Stress axis : x y z
#
# Youngs Moduli (GPa) = 71.13265 17.10665 67.60783
#
# Poissons Ratio (x) = 0.15883 0.44484
# Poissons Ratio (y) = 0.66043 0.67881
# Poissons Ratio (z) = 0.46803 0.17176
#
# Static dielectric constant tensor:
#      x y z
#    x 3.701840 0.000000 -0.041030 
#    y 0.000000 3.352510 0.000000 
#    z -0.041030 0.000000 3.667690 
# 
# 
# High freq. dielectric constant tensor:
#      x y z
#    x 1.767030 0.000000 -0.002360 
#    y 0.000000 1.742070 0.000000 
#    z -0.002360 0.000000 1.765060 
# 
# From -- ./inp_files/353503.got.cif
#   From: 2010.06.25/outbox.cif.g09.slc.cpg/sg12_177_cif.got.tgz:353503.got - 2010.06.28 00:19:55.
