data_PCOD8109674
_publ_section_title
;
Structure prediction by ZEFSAII (Michael W. Deem and Ramdas Pophale) SiO2 
 PCOD8109674
Probable space group: C 2/M
;
_chemical_formula_sum "Si O2"
_cell_formula_units_Z 56
_cell_length_a 15.670485
_cell_length_b 20.460062
_cell_length_c 17.379761
_cell_angle_alpha 90.000000
_cell_angle_beta 30.625676
_cell_angle_gamma 90.000000
_cell_volume 2838.672032
_symmetry_space_group_name_H-M "C 2/M"
_symmetry_group_IT_number 12
_symmetry_cell_setting 'monoclinic'
loop_
_space_group_symop_operation_xyz
x,y,z
-x,y,-z
-x,-y,-z
x,-y,z
1/2+x,1/2+y,z
1/2-x,1/2+y,-z
1/2-x,1/2-y,-z
1/2+x,1/2-y,z
loop_
_atom_site_type_symbol
_atom_site_label
_atom_site_fract_x
_atom_site_fract_y
_atom_site_fract_z
Si Si1 0.254059 0.682831 0.839545
Si Si2 0.461469 0.297613 0.267488
Si Si3 0.618595 0.925935 0.180330
Si Si4 0.829737 0.664119 0.406492
Si Si5 0.606242 0.323423 0.990656
Si Si6 0.315865 0.625758 0.635478
Si Si7 0.539011 0.071433 0.069998
O O1 0.405372 0.667079 0.780263
O O2 0.309360 0.681468 0.707298
O O3 0.183675 0.752980 0.915261
O O4 0.111530 0.627178 0.958462
O O5 0.273627 0.318979 0.436616
O O6 0.467937 0.219138 0.275353
O O7 0.494088 0.318130 0.154502
O O8 0.432219 0.901269 0.347104
O O9 0.634194 0.921980 0.076612
O O10 0.640884 0.000000 0.193286
O O11 0.756977 0.879837 0.109829
O O12 0.700637 0.658362 0.435528
O O13 0.500000 0.345272 0.000000
O O14 0.500000 0.591518 0.500000
O O15 0.162345 0.575672 0.764047
O O16 0.578156 0.000000 0.004069
#
# Coordination Sequence:
#
# PCOD8109674 Si02
#       7
#     8   8   8   8   8   8   8
#     4  12  21  38  60  91 123 154 197 242 293 353
#     4  11  21  37  63  88 118 156 195 246 298 345
#     4  10  21  40  63  85 117 161 198 238 297 353
#     4  10  21  40  59  86 122 157 196 238 293 357
#     4  12  23  39  62  93 117 146 198 254 297 345
#     4  11  22  36  56  89 123 156 195 241 288 346
#     4  10  22  39  59  84 122 164 200 238 287 353
#
# _framework density 19.727535
#
# number of rings (size 3 to 8) (size 9 to 14) (size 15 to 20)
#    0.000    1.143    4.286    4.286    0.000    1.714 
#    0.000    2.143    0.000    0.857    0.000    0.000 
#    0.000    0.000    0.000    0.000    0.000    0.000 
#
# Total GULP energy -347100.025090 kJ/mol
# GULP energy per Si atom -12396.429468 kJ/mol
# Density = 1.968263 g / cm^3
# Si number density = 19.727535 Si / 1000 Ang^3
#
#
#
# Elastic Constant Matrix: (Units=GPa)
#
#
# Indices 1 2 3 4 5 6 
#
# 1 125.1738 40.8643 52.1815 -0.0008 -0.8331 -0.0006
# 2 40.8643 134.5838 50.4988 0.0014 -7.8913 0.0000
# 3 52.1815 50.4988 89.5773 -0.0004 -7.5011 -0.0115
# 4 -0.0008 0.0014 -0.0004 20.8235 0.0035 -5.2774
# 5 -0.8331 -7.8913 -7.5011 0.0035 32.8124 0.0073
# 6 -0.0006 0.0000 -0.0115 -5.2774 0.0073 -35.7641
#
#
#
# Elastic Compliance Matrix: (Units=1/GPa)
#
#
# Indices 1 2 3 4 5 6 
#
# 1 0.010746 -0.001205 -0.005691 0.000001 -0.001318 0.000001
# 2 -0.001205 0.009596 -0.004605 -0.000001 0.001224 0.000002
# 3 -0.005691 -0.004605 0.017301 -0.000001 0.002703 -0.000005
# 4 0.000001 -0.000001 -0.000001 0.046292 -0.000004 -0.006831
# 5 -0.001318 0.001224 0.002703 -0.000004 0.031355 0.000006
# 6 0.000001 0.000002 -0.000005 -0.006831 0.000006 -0.026953
#
#
# Mechanical properties :
#
#
# Convention : Reuss Voigt Hill
#
# Bulk Modulus (GPa) = 68.30139 70.71379 69.50759
# Shear Modulus (GPa) = 43.02215 17.29370 30.15793
#
# Velocity S-wave (km/s) = 4.67499 2.96400 3.91413
# Velocity P-wave (km/s) = 7.98988 6.90194 7.46576
#
# Compressibility (1/GPa) = 0.01464099
#
# Stress axis : x y z
#
# Youngs Moduli (GPa) = 93.05943 104.21086 57.79905
#
# Poissons Ratio (x) = 0.12554 0.32893
# Poissons Ratio (y) = 0.11211 0.26619
# Poissons Ratio (z) = 0.52960 0.47993
#
# Static dielectric constant tensor:
#      x y z
#    x 3.760640 -0.000040 -0.037400 
#    y -0.000040 3.487220 0.000060 
#    z -0.037400 0.000060 3.564270 
# 
# 
# High freq. dielectric constant tensor:
#      x y z
#    x 1.775600 0.000000 -0.005120 
#    y 0.000000 1.749610 0.000010 
#    z -0.005120 0.000010 1.770130 
# 
# From -- ./inp_files/272347.got.cif
#   From: 2010.06.25/outbox.cif.g09.slc.cpg/sg12_137_cif.got.tgz:272347.got - 2010.06.28 00:19:55.
