data_PCOD8109313
_publ_section_title
;
Structure prediction by ZEFSAII (Michael W. Deem and Ramdas Pophale) SiO2 
 PCOD8109313
Probable space group: C 2/M
;
_chemical_formula_sum "Si O2"
_cell_formula_units_Z 64
_cell_length_a 12.169675
_cell_length_b 14.825602
_cell_length_c 26.681423
_cell_angle_alpha 90.000000
_cell_angle_beta 140.448948
_cell_angle_gamma 90.000000
_cell_volume 3065.348340
_symmetry_space_group_name_H-M "C 2/M"
_symmetry_group_IT_number 12
_symmetry_cell_setting 'monoclinic'
loop_
_space_group_symop_operation_xyz
x,y,z
-x,y,-z
-x,-y,-z
x,-y,z
1/2+x,1/2+y,z
1/2-x,1/2+y,-z
1/2-x,1/2-y,-z
1/2+x,1/2-y,z
loop_
_atom_site_type_symbol
_atom_site_label
_atom_site_fract_x
_atom_site_fract_y
_atom_site_fract_z
Si Si1 0.412678 0.786655 0.229900
Si Si2 0.360489 0.602765 0.521287
Si Si3 0.814714 0.636159 0.441205
Si Si4 0.329337 0.399151 0.790584
Si Si5 0.299751 0.605310 0.037492
Si Si6 0.197023 0.777653 0.056705
Si Si7 0.786961 0.829863 0.389272
Si Si8 0.965971 0.902669 0.730742
O O1 0.313884 0.829923 0.241664
O O2 0.318668 0.807450 0.144994
O O3 0.604891 0.829145 0.295981
O O4 0.407450 0.678963 0.239371
O O5 0.353629 0.500000 0.535571
O O6 0.245108 0.653744 0.522480
O O7 0.561030 0.633427 0.593022
O O8 0.276148 0.612361 0.436664
O O9 0.839859 0.730289 0.422556
O O10 0.671602 0.579537 0.361357
O O11 0.000000 0.586457 0.500000
O O12 0.252902 0.500000 0.765691
O O13 0.494781 0.392543 0.884716
O O14 0.374777 0.371957 0.750041
O O15 0.234094 0.500000 0.017970
O O16 0.220224 0.670826 0.052428
O O17 0.246058 0.652862 0.966736
O O18 0.000000 0.795575 0.000000
O O19 0.062183 0.000000 0.772732
#
# Coordination Sequence:
#
# PCOD8109313 Si02
#       8
#     8   8   8   8   8   8   8   8
#     4  11  23  38  65  95 122 165 213 261 309 376
#     4  11  23  42  63  90 128 166 210 267 322 373
#     4  11  23  39  65  92 123 164 217 263 315 376
#     4  10  21  39  63  90 123 162 206 255 313 373
#     4  10  22  41  64  91 127 163 199 256 318 372
#     4  11  22  40  65  93 125 161 212 256 306 378
#     4  10  23  40  64  88 126 169 211 253 321 382
#     4  10  23  41  60  88 126 165 205 259 322 371
#
# _framework density 20.878540999999998
#
# number of rings (size 3 to 8) (size 9 to 14) (size 15 to 20)
#    0.000    1.500    3.750    1.500    1.750    6.000 
#    0.000    0.000    0.000    0.750    0.000    0.000 
#    0.000    0.000    0.000    0.000    0.000    0.000 
#
# Total GULP energy -396656.913576 kJ/mol
# GULP energy per Si atom -12395.528549 kJ/mol
# Density = 2.083102 g / cm^3
# Si number density = 20.878541 Si / 1000 Ang^3
#
#
#
# Elastic Constant Matrix: (Units=GPa)
#
#
# Indices 1 2 3 4 5 6 
#
# 1 94.7504 28.6806 40.0104 0.0000 -3.1188 0.0000
# 2 28.6806 107.3056 18.3243 0.0000 -4.0374 0.0000
# 3 40.0104 18.3243 119.0395 0.0000 5.6181 0.0000
# 4 0.0000 0.0000 0.0000 24.3728 0.0000 -0.8466
# 5 -3.1188 -4.0374 5.6181 0.0000 22.9225 0.0000
# 6 0.0000 0.0000 0.0000 -0.8466 0.0000 14.8035
#
#
#
# Elastic Compliance Matrix: (Units=1/GPa)
#
#
# Indices 1 2 3 4 5 6 
#
# 1 0.013201 -0.002736 -0.004125 0.000000 0.002325 0.000000
# 2 -0.002736 0.010236 -0.000732 0.000000 0.001610 0.000000
# 3 -0.004125 -0.000732 0.010049 0.000000 -0.003153 0.000000
# 4 0.000000 0.000000 0.000000 0.041111 0.000000 0.002351
# 5 0.002325 0.001610 -0.003153 0.000000 0.044998 0.000000
# 6 0.000000 0.000000 0.000000 0.002351 0.000000 0.067686
#
#
# Mechanical properties :
#
#
# Convention : Reuss Voigt Hill
#
# Bulk Modulus (GPa) = 54.65041 55.01401 54.83221
# Shear Modulus (GPa) = 23.97299 28.02509 25.99904
#
# Velocity S-wave (km/s) = 3.39220 3.66770 3.53264
# Velocity P-wave (km/s) = 6.44786 6.65904 6.55430
#
# Compressibility (1/GPa) = 0.01829812
#
# Stress axis : x y z
#
# Youngs Moduli (GPa) = 75.75212 97.69319 99.51561
#
# Poissons Ratio (x) = 0.26732 0.41055
# Poissons Ratio (y) = 0.20729 0.07284
# Poissons Ratio (z) = 0.31251 0.07151
#
# Static dielectric constant tensor:
#      x y z
#    x 3.581240 0.000000 -0.046690 
#    y 0.000000 3.886820 0.000000 
#    z -0.046690 0.000000 4.015330 
# 
# 
# High freq. dielectric constant tensor:
#      x y z
#    x 1.803860 0.000000 -0.011500 
#    y 0.000000 1.828270 0.000000 
#    z -0.011500 0.000000 1.814800 
# 
# From -- ./inp_files/358459.got.cif
#   From: 2010.06.25/outbox.cif.g09.slc.cpg/sg12_180_cif.got.tgz:358459.got - 2010.06.28 00:19:55.
