data_PCOD8109878
_publ_section_title
;
Structure prediction by ZEFSAII (Michael W. Deem and Ramdas Pophale) SiO2 
 PCOD8109878
Probable space group: C 2/M
;
_chemical_formula_sum "Si O2"
_cell_formula_units_Z 56
_cell_length_a 33.680234
_cell_length_b 18.531013
_cell_length_c 9.127212
_cell_angle_alpha 90.000000
_cell_angle_beta 149.658860
_cell_angle_gamma 90.000000
_cell_volume 2877.600844
_symmetry_space_group_name_H-M "C 2/M"
_symmetry_group_IT_number 12
_symmetry_cell_setting 'monoclinic'
loop_
_space_group_symop_operation_xyz
x,y,z
-x,y,-z
-x,-y,-z
x,-y,z
1/2+x,1/2+y,z
1/2-x,1/2+y,-z
1/2-x,1/2-y,-z
1/2+x,1/2-y,z
loop_
_atom_site_type_symbol
_atom_site_label
_atom_site_fract_x
_atom_site_fract_y
_atom_site_fract_z
Si Si1 0.710245 0.828448 0.376727
Si Si2 0.666086 0.415483 0.401890
Si Si3 0.512416 0.336490 0.867285
Si Si4 0.548736 0.083257 0.296184
Si Si5 0.787070 0.416444 0.319612
Si Si6 0.139599 0.916777 0.650679
Si Si7 0.531782 0.807750 0.758922
O O1 0.750000 0.750000 0.500000
O O2 0.756030 0.882707 0.418324
O O3 0.708140 0.860502 0.533041
O O4 0.622901 0.827100 0.035040
O O5 0.665326 0.500000 0.370675
O O6 0.667845 0.395609 0.578514
O O7 0.590079 0.382553 0.078436
O O8 0.437535 0.372243 0.549247
O O9 0.522316 0.256297 0.843169
O O10 0.500000 0.335330 0.000000
O O11 0.640657 0.097526 0.560266
O O12 0.519782 0.125555 0.346931
O O13 0.531335 0.000000 0.273396
O O14 0.500000 0.109646 0.000000
O O15 0.788454 0.500000 0.378486
O O16 0.707805 0.398093 0.981229
O O17 0.115724 0.000000 0.579275
O O18 0.500000 0.784316 0.500000
#
# Coordination Sequence:
#
# PCOD8109878 Si02
#       7
#     8   8   8   8   8   8   8
#     4  12  25  41  59  87 127 165 201 246 303 363
#     4  10  21  40  65  92 123 160 200 252 306 358
#     4  10  21  40  64  90 123 165 200 243 303 369
#     4  10  21  42  66  85 113 158 207 253 301 356
#     4  10  22  41  66  92 119 156 204 256 305 362
#     4   9  20  38  65  96 121 151 203 255 301 362
#     4  12  27  41  59  90 128 163 204 250 301 360
#
# _framework density 19.460656
#
# number of rings (size 3 to 8) (size 9 to 14) (size 15 to 20)
#    0.000    1.571    2.857    1.286    4.000    2.571 
#    0.000    1.429    0.000    3.429    0.000    0.000 
#    0.000    0.000    0.000    0.000    0.000    0.000 
#
# Total GULP energy -347322.746047 kJ/mol
# GULP energy per Si atom -12404.383787 kJ/mol
# Density = 1.941636 g / cm^3
# Si number density = 19.460656 Si / 1000 Ang^3
#
#
#
# Elastic Constant Matrix: (Units=GPa)
#
#
# Indices 1 2 3 4 5 6 
#
# 1 52.9451 30.9102 35.2984 0.0000 19.3567 0.0000
# 2 30.9102 84.9157 39.0191 0.0000 11.7071 0.0000
# 3 35.2984 39.0191 142.0939 0.0000 18.1116 0.0000
# 4 0.0000 0.0000 0.0000 29.0923 0.0000 7.4557
# 5 19.3567 11.7071 18.1116 0.0000 31.1194 0.0000
# 6 0.0000 0.0000 0.0000 7.4557 0.0000 33.6153
#
#
#
# Elastic Compliance Matrix: (Units=1/GPa)
#
#
# Indices 1 2 3 4 5 6 
#
# 1 0.031076 -0.007593 -0.003818 0.000000 -0.014251 0.000000
# 2 -0.007593 0.015624 -0.002438 0.000000 0.000264 0.000000
# 3 -0.003818 -0.002438 0.008896 0.000000 -0.001885 0.000000
# 4 0.000000 0.000000 0.000000 0.036445 0.000000 -0.008083
# 5 -0.014251 0.000264 -0.001885 0.000000 0.041997 0.000000
# 6 0.000000 0.000000 0.000000 -0.008083 0.000000 0.031541
#
#
# Mechanical properties :
#
#
# Convention : Reuss Voigt Hill
#
# Bulk Modulus (GPa) = 35.84466 54.49002 45.16734
# Shear Modulus (GPa) = 24.68210 30.41387 27.54799
#
# Velocity S-wave (km/s) = 3.56519 3.95756 3.76649
# Velocity P-wave (km/s) = 5.95034 6.99600 6.49425
#
# Compressibility (1/GPa) = 0.02789816
#
# Stress axis : x y z
#
# Youngs Moduli (GPa) = 32.17906 64.00400 112.41158
#
# Poissons Ratio (x) = 0.48596 0.42923
# Poissons Ratio (y) = 0.24433 0.27404
# Poissons Ratio (z) = 0.12287 0.15603
#
# Static dielectric constant tensor:
#      x y z
#    x 3.486740 0.000000 0.196850 
#    y 0.000000 3.575900 0.000000 
#    z 0.196850 0.000000 3.769770 
# 
# 
# High freq. dielectric constant tensor:
#      x y z
#    x 1.752930 0.000000 0.013590 
#    y 0.000000 1.764440 0.000000 
#    z 0.013590 0.000000 1.769190 
# 
# From -- ./inp_files/75891.got.cif
#   From: 2010.06.25/outbox.cif.g09.slc.cpg/sg12_38_cif.got.tgz:75891.got - 2010.06.28 00:19:55.
