data_PCOD8109275
_publ_section_title
;
Structure prediction by ZEFSAII (Michael W. Deem and Ramdas Pophale) SiO2 
 PCOD8109275
Probable space group: C 2/M
;
_chemical_formula_sum "Si O2"
_cell_formula_units_Z 64
_cell_length_a 18.785540
_cell_length_b 8.961322
_cell_length_c 18.649847
_cell_angle_alpha 90.000000
_cell_angle_beta 90.426864
_cell_angle_gamma 90.000000
_cell_volume 3139.489152
_symmetry_space_group_name_H-M "C 2/M"
_symmetry_group_IT_number 12
_symmetry_cell_setting 'monoclinic'
loop_
_space_group_symop_operation_xyz
x,y,z
-x,y,-z
-x,-y,-z
x,-y,z
1/2+x,1/2+y,z
1/2-x,1/2+y,-z
1/2-x,1/2-y,-z
1/2+x,1/2-y,z
loop_
_atom_site_type_symbol
_atom_site_label
_atom_site_fract_x
_atom_site_fract_y
_atom_site_fract_z
Si Si1 0.263426 0.669452 0.832984
Si Si2 0.544297 0.322648 0.432917
Si Si3 0.289682 0.324198 0.305701
Si Si4 0.452770 0.323750 0.299298
Si Si5 0.208002 0.822161 0.434276
Si Si6 0.101161 0.830334 0.082069
Si Si7 0.847254 0.667681 0.053538
Si Si8 0.978809 0.331031 0.153522
O O1 0.245000 0.500000 0.807956
O O2 0.238672 0.786867 0.773584
O O3 0.347187 0.687300 0.848781
O O4 0.227929 0.703941 0.909918
O O5 0.500000 0.259021 0.500000
O O6 0.542911 0.500000 0.433813
O O7 0.504345 0.262132 0.361956
O O8 0.625926 0.267123 0.435987
O O9 0.281468 0.500000 0.320166
O O10 0.371709 0.272502 0.313762
O O11 0.242609 0.231970 0.360923
O O12 0.455656 0.500000 0.294666
O O13 0.483408 0.262707 0.225744
O O14 0.250000 0.750000 0.500000
O O15 0.212786 0.000000 0.439814
O O16 0.033052 0.728338 0.094263
O O17 0.076114 0.000000 0.073318
O O18 0.139070 0.784159 0.008862
O O19 0.849964 0.500000 0.021712
O O20 0.901408 0.684886 0.119689
O O21 0.998214 0.500000 0.172565
#
# Coordination Sequence:
#
# PCOD8109275 Si02
#       8
#     8   8   8   8   8   8   8   8
#     4  10  22  41  61  85 120 162 203 248 306 367
#     4   9  19  38  64  91 121 158 199 242 291 348
#     4  11  23  39  63  92 123 159 203 254 302 359
#     4  10  21  39  63  89 118 158 207 251 296 357
#     4  11  23  40  65  94 127 163 201 247 298 358
#     4  11  24  38  59  87 119 156 203 256 304 364
#     4  10  21  40  62  84 115 157 203 251 311 368
#     4  11  23  39  60  86 120 160 199 250 312 364
#
# _framework density 20.385483000000001
#
# number of rings (size 3 to 8) (size 9 to 14) (size 15 to 20)
#    0.000    1.625    1.250    3.000    1.750    6.500 
#    0.000    0.625    0.000    2.625    0.000    0.000 
#    0.000    0.000    0.000    0.000    0.000    0.000 
#
# Total GULP energy -396906.027014 kJ/mol
# GULP energy per Si atom -12403.313344 kJ/mol
# Density = 2.033908 g / cm^3
# Si number density = 20.385483 Si / 1000 Ang^3
#
#
#
# Elastic Constant Matrix: (Units=GPa)
#
#
# Indices 1 2 3 4 5 6 
#
# 1 83.5757 31.9155 31.8679 0.0000 -10.7227 0.0000
# 2 31.9155 46.0595 25.5847 0.0000 -0.2872 0.0000
# 3 31.8679 25.5847 102.7456 0.0000 -3.2960 0.0000
# 4 0.0000 0.0000 0.0000 39.2512 0.0000 -3.6349
# 5 -10.7227 -0.2872 -3.2960 0.0000 28.8647 0.0000
# 6 0.0000 0.0000 0.0000 -3.6349 0.0000 27.5315
#
#
#
# Elastic Compliance Matrix: (Units=1/GPa)
#
#
# Indices 1 2 3 4 5 6 
#
# 1 0.017951 -0.010930 -0.002645 0.000000 0.006257 0.000000
# 2 -0.010930 0.031858 -0.004680 0.000000 -0.004278 0.000000
# 3 -0.002645 -0.004680 0.011729 0.000000 0.000310 0.000000
# 4 0.000000 0.000000 0.000000 0.025792 0.000000 0.003405
# 5 0.006257 -0.004278 0.000310 0.000000 0.036962 0.000000
# 6 0.000000 0.000000 0.000000 0.003405 0.000000 0.036772
#
#
# Mechanical properties :
#
#
# Convention : Reuss Voigt Hill
#
# Bulk Modulus (GPa) = 39.95791 45.67969 42.81880
# Shear Modulus (GPa) = 24.28192 28.66368 26.47280
#
# Velocity S-wave (km/s) = 3.45503 3.75385 3.60753
# Velocity P-wave (km/s) = 5.96322 6.42223 6.19698
#
# Compressibility (1/GPa) = 0.02502633
#
# Stress axis : x y z
#
# Youngs Moduli (GPa) = 55.70868 31.38974 85.26211
#
# Poissons Ratio (x) = 0.34309 0.22553
# Poissons Ratio (y) = 0.60889 0.39903
# Poissons Ratio (z) = 0.14736 0.14690
#
# Static dielectric constant tensor:
#      x y z
#    x 3.894010 0.000000 0.029210 
#    y 0.000000 3.537510 0.000000 
#    z 0.029210 0.000000 3.649810 
# 
# 
# High freq. dielectric constant tensor:
#      x y z
#    x 1.811900 0.000000 0.000250 
#    y 0.000000 1.782500 0.000000 
#    z 0.000250 0.000000 1.802120 
# 
# From -- ./inp_files/281428.got.cif
#   From: 2010.06.25/outbox.cif.g09.slc.cpg/sg12_141_cif.got.tgz:281428.got - 2010.06.28 00:19:55.
