data_PCOD8109817
_publ_section_title
;
Structure prediction by ZEFSAII (Michael W. Deem and Ramdas Pophale) SiO2 
 PCOD8109817
Probable space group: C 2/M
;
_chemical_formula_sum "Si O2"
_cell_formula_units_Z 48
_cell_length_a 20.046641
_cell_length_b 8.505128
_cell_length_c 13.843162
_cell_angle_alpha 90.000000
_cell_angle_beta 89.774003
_cell_angle_gamma 90.000000
_cell_volume 2360.230346
_symmetry_space_group_name_H-M "C 2/M"
_symmetry_group_IT_number 12
_symmetry_cell_setting 'monoclinic'
loop_
_space_group_symop_operation_xyz
x,y,z
-x,y,-z
-x,-y,-z
x,-y,z
1/2+x,1/2+y,z
1/2-x,1/2+y,-z
1/2-x,1/2-y,-z
1/2+x,1/2-y,z
loop_
_atom_site_type_symbol
_atom_site_label
_atom_site_fract_x
_atom_site_fract_y
_atom_site_fract_z
Si Si1 0.872674 0.180592 0.881590
Si Si2 0.369479 0.180826 0.088420
Si Si3 0.449774 0.687147 0.420025
Si Si4 0.245835 0.816864 0.788288
Si Si5 0.014052 0.183310 0.793131
Si Si6 0.699672 0.685698 0.578647
O O1 0.810033 0.215197 0.814223
O O2 0.937583 0.217103 0.817860
O O3 0.871662 0.000000 0.915723
O O4 0.871295 0.291529 0.974321
O O5 0.312831 0.289598 0.134884
O O6 0.441228 0.221810 0.131665
O O7 0.351914 0.000000 0.108341
O O8 0.500000 0.757626 0.500000
O O9 0.451955 0.500000 0.422686
O O10 0.472577 0.746624 0.314710
O O11 0.375014 0.748911 0.442125
O O12 0.221567 0.756645 0.684205
O O13 0.264545 0.000000 0.787663
O O14 0.032536 0.000000 0.801846
O O15 0.700005 0.500000 0.574330
O O16 0.750000 0.750000 0.500000
#
# Coordination Sequence:
#
# PCOD8109817 Si02
#       6
#     8   8   8   8   8   8
#     4  11  24  39  62  93 123 160 206 254 300 364
#     4  12  24  40  63  89 122 162 205 254 306 365
#     4   9  18  36  63  90 117 154 198 245 296 354
#     4  11  23  42  63  87 125 165 203 252 305 360
#     4  10  21  40  63  89 123 161 203 249 302 362
#     4  10  22  39  63  90 122 157 197 248 301 360
#
# _framework density 20.336997
#
# number of rings (size 3 to 8) (size 9 to 14) (size 15 to 20)
#    0.000    1.500    1.667    3.500    2.333    4.667 
#    0.000    0.000    0.000    1.000    0.000    0.000 
#    0.000    0.000    0.000    0.000    0.000    0.000 
#
# Total GULP energy -297734.786447 kJ/mol
# GULP energy per Si atom -12405.616102 kJ/mol
# Density = 2.029071 g / cm^3
# Si number density = 20.336997 Si / 1000 Ang^3
#
#
#
# Elastic Constant Matrix: (Units=GPa)
#
#
# Indices 1 2 3 4 5 6 
#
# 1 167.8667 20.2852 79.6873 0.0000 5.2239 0.0000
# 2 20.2852 35.9116 20.6726 0.0000 1.1065 0.0000
# 3 79.6873 20.6726 138.2933 0.0000 2.8114 0.0000
# 4 0.0000 0.0000 0.0000 25.8708 0.0000 -1.1356
# 5 5.2239 1.1065 2.8114 0.0000 44.7326 0.0000
# 6 0.0000 0.0000 0.0000 -1.1356 0.0000 30.7977
#
#
#
# Elastic Compliance Matrix: (Units=1/GPa)
#
#
# Indices 1 2 3 4 5 6 
#
# 1 0.008365 -0.002121 -0.004490 0.000000 -0.000642 0.000000
# 2 -0.002121 0.031015 -0.003408 0.000000 -0.000305 0.000000
# 3 -0.004490 -0.003408 0.010328 0.000000 -0.000041 0.000000
# 4 0.000000 0.000000 0.000000 0.038716 0.000000 0.001428
# 5 -0.000642 -0.000305 -0.000041 0.000000 0.022440 0.000000
# 6 0.000000 0.000000 0.000000 0.001428 0.000000 0.032523
#
#
# Mechanical properties :
#
#
# Convention : Reuss Voigt Hill
#
# Bulk Modulus (GPa) = 33.70259 64.81800 49.26030
# Shear Modulus (GPa) = 28.84918 35.04198 31.94558
#
# Velocity S-wave (km/s) = 3.77046 4.15549 3.96765
# Velocity P-wave (km/s) = 5.96349 7.41385 6.72787
#
# Compressibility (1/GPa) = 0.02967131
#
# Stress axis : x y z
#
# Youngs Moduli (GPa) = 119.54990 32.24210 96.81997
#
# Poissons Ratio (x) = 0.06837 0.43471
# Poissons Ratio (y) = 0.25351 0.32998
# Poissons Ratio (z) = 0.53676 0.10989
#
# Static dielectric constant tensor:
#      x y z
#    x 3.807360 0.000000 0.119620 
#    y 0.000000 3.428010 0.000000 
#    z 0.119620 0.000000 3.825210 
# 
# 
# High freq. dielectric constant tensor:
#      x y z
#    x 1.811320 0.000000 0.001830 
#    y 0.000000 1.772670 0.000000 
#    z 0.001830 0.000000 1.803710 
# 
# From -- ./inp_files/221551.got.cif
#   From: 2010.06.25/outbox.cif.g09.slc.cpg/sg12_111_cif.got.tgz:221551.got - 2010.06.28 00:19:55.
