data_PCOD8109547
_publ_section_title
;
Structure prediction by ZEFSAII (Michael W. Deem and Ramdas Pophale) SiO2 
 PCOD8109547
Probable space group: C 2/M
;
_chemical_formula_sum "Si O2"
_cell_formula_units_Z 64
_cell_length_a 23.876878
_cell_length_b 22.310091
_cell_length_c 17.265283
_cell_angle_alpha 90.000000
_cell_angle_beta 160.819119
_cell_angle_gamma 90.000000
_cell_volume 3021.732654
_symmetry_space_group_name_H-M "C 2/M"
_symmetry_group_IT_number 12
_symmetry_cell_setting 'monoclinic'
loop_
_space_group_symop_operation_xyz
x,y,z
-x,y,-z
-x,-y,-z
x,-y,z
1/2+x,1/2+y,z
1/2-x,1/2+y,-z
1/2-x,1/2-y,-z
1/2+x,1/2-y,z
loop_
_atom_site_type_symbol
_atom_site_label
_atom_site_fract_x
_atom_site_fract_y
_atom_site_fract_z
Si Si1 0.790870 0.931606 0.570823
Si Si2 0.691168 0.643823 0.722129
Si Si3 0.049018 0.381051 0.815546
Si Si4 0.899787 0.250370 0.632740
Si Si5 0.408552 0.650265 0.029631
Si Si6 0.251336 0.430754 0.943891
Si Si7 0.372331 0.567100 0.506824
Si Si8 0.320404 0.749829 0.803554
O O1 0.607721 0.924169 0.369578
O O2 0.779222 0.914459 0.464892
O O3 0.929458 0.887548 0.790967
O O4 0.854544 0.000000 0.663250
O O5 0.500000 0.654542 0.500000
O O6 0.700370 0.608976 0.653949
O O7 0.783027 0.707198 0.827321
O O8 0.794466 0.606478 0.921517
O O9 0.998518 0.312455 0.758850
O O10 0.104300 0.398408 0.801106
O O11 0.750000 0.250000 0.500000
O O12 0.827103 0.241222 0.451896
O O13 0.030773 0.197612 0.825191
O O14 0.271670 0.605191 0.889471
O O15 0.326269 0.682893 0.847695
O O16 0.203914 0.500000 0.864441
O O17 0.425589 0.426543 0.219523
O O18 0.324034 0.500000 0.419685
O O19 0.500000 0.766399 0.000000
#
# Coordination Sequence:
#
# PCOD8109547 Si02
#       8
#     8   8   8   8   8   8   8   8
#     4  10  21  39  65  93 126 171 222 273 329 390
#     4  12  25  38  56  93 134 175 215 266 322 405
#     4  12  23  39  63  94 133 171 219 270 335 384
#     4  12  23  42  66  99 132 167 212 276 327 389
#     4  11  22  42  68  96 130 174 216 262 333 393
#     4  10  22  41  65  92 129 174 217 268 325 386
#     4   9  20  37  57  85 125 173 216 263 320 387
#     4  12  24  41  68  95 130 169 217 269 331 385
#
# _framework density 21.179901999999998
#
# number of rings (size 3 to 8) (size 9 to 14) (size 15 to 20)
#    0.000    1.000    5.000    3.000    1.750    2.750 
#    0.000    1.250    0.000    9.000    0.000    0.000 
#    0.000    0.000    0.000    0.000    0.000    0.000 
#
# Total GULP energy -396868.542384 kJ/mol
# GULP energy per Si atom -12402.141949 kJ/mol
# Density = 2.113170 g / cm^3
# Si number density = 21.179902 Si / 1000 Ang^3
#
#
#
# Elastic Constant Matrix: (Units=GPa)
#
#
# Indices 1 2 3 4 5 6 
#
# 1 95.5857 27.3819 34.9419 0.0000 24.6859 0.0000
# 2 27.3819 99.6355 15.4444 0.0000 10.6299 0.0000
# 3 34.9419 15.4444 45.7264 0.0000 14.3953 0.0000
# 4 0.0000 0.0000 0.0000 30.0794 0.0000 2.4523
# 5 24.6859 10.6299 14.3953 0.0000 43.3272 0.0000
# 6 0.0000 0.0000 0.0000 2.4523 0.0000 38.5134
#
#
#
# Elastic Compliance Matrix: (Units=1/GPa)
#
#
# Indices 1 2 3 4 5 6 
#
# 1 0.016104 -0.002331 -0.009839 0.000000 -0.005334 0.000000
# 2 -0.002331 0.011026 -0.001685 0.000000 -0.000817 0.000000
# 3 -0.009839 -0.001685 0.031340 0.000000 -0.004393 0.000000
# 4 0.000000 0.000000 0.000000 0.033419 0.000000 -0.002128
# 5 -0.005334 -0.000817 -0.004393 0.000000 0.027780 0.000000
# 6 0.000000 0.000000 0.000000 -0.002128 0.000000 0.026100
#
#
# Mechanical properties :
#
#
# Convention : Reuss Voigt Hill
#
# Bulk Modulus (GPa) = 32.51185 44.05377 38.28281
# Shear Modulus (GPa) = 27.21338 33.26263 30.23800
#
# Velocity S-wave (km/s) = 3.58839 3.96723 3.78256
# Velocity P-wave (km/s) = 5.70547 6.46762 6.09847
#
# Compressibility (1/GPa) = 0.03075802
#
# Stress axis : x y z
#
# Youngs Moduli (GPa) = 62.09595 90.69729 31.90809
#
# Poissons Ratio (x) = 0.21146 0.31395
# Poissons Ratio (y) = 0.14477 0.05377
# Poissons Ratio (z) = 0.61097 0.15285
#
# Static dielectric constant tensor:
#      x y z
#    x 3.862630 0.000000 0.062460 
#    y 0.000000 4.009090 0.000000 
#    z 0.062460 0.000000 3.673240 
# 
# 
# High freq. dielectric constant tensor:
#      x y z
#    x 1.828370 0.000000 0.009220 
#    y 0.000000 1.842900 0.000000 
#    z 0.009220 0.000000 1.811270 
# 
# From -- ./inp_files/290955.got.cif
#   From: 2010.06.25/outbox.cif.g09.slc.cpg/sg12_146_cif.got.tgz:290955.got - 2010.06.28 00:19:55.
