data_PCOD8109663
_publ_section_title
;
Structure prediction by ZEFSAII (Michael W. Deem and Ramdas Pophale) SiO2 
 PCOD8109663
Probable space group: C 2/M
;
_chemical_formula_sum "Si O2"
_cell_formula_units_Z 48
_cell_length_a 8.689422
_cell_length_b 24.940447
_cell_length_c 11.073206
_cell_angle_alpha 90.000000
_cell_angle_beta 115.026142
_cell_angle_gamma 90.000000
_cell_volume 2174.461675
_symmetry_space_group_name_H-M "C 2/M"
_symmetry_group_IT_number 12
_symmetry_cell_setting 'monoclinic'
loop_
_space_group_symop_operation_xyz
x,y,z
-x,y,-z
-x,-y,-z
x,-y,z
1/2+x,1/2+y,z
1/2-x,1/2+y,-z
1/2-x,1/2-y,-z
1/2+x,1/2-y,z
loop_
_atom_site_type_symbol
_atom_site_label
_atom_site_fract_x
_atom_site_fract_y
_atom_site_fract_z
Si Si1 0.771659 0.390414 0.772265
Si Si2 0.733457 0.500000 0.469083
Si Si3 0.310690 0.500000 0.810349
Si Si4 0.052975 0.500000 0.234394
Si Si5 0.261372 0.690227 0.646581
Si Si6 0.091479 0.304109 0.340597
Si Si7 0.000000 0.085828 0.500000
Si Si8 0.503603 0.388289 0.133886
O O1 0.864211 0.447722 0.798939
O O2 0.900157 0.343464 0.773661
O O3 0.617376 0.380252 0.627531
O O4 0.689523 0.385683 0.878108
O O5 0.789528 0.500000 0.349663
O O6 0.899012 0.500000 0.608186
O O7 0.617274 0.551316 0.451207
O O8 0.432012 0.448983 0.863786
O O9 0.151438 0.500000 0.851554
O O10 0.214700 0.677260 0.491639
O O11 0.366283 0.744855 0.689924
O O12 0.371558 0.641805 0.733762
O O13 0.098695 0.696101 0.676083
O O14 0.500000 0.360932 0.000000
#
# Coordination Sequence:
#
# PCOD8109663 Si02
#       8
#     8   4   4   4   8   8   4   8
#     4  11  20  38  58  89 122 164 206 256 314 367
#     4   9  17  31  53  89 123 155 194 256 315 367
#     4  12  22  41  58  88 126 170 213 254 302 373
#     4  10  23  34  60  93 128 156 204 261 330 370
#     4  10  22  42  63  98 128 157 204 252 319 373
#     4  10  21  39  70  96 125 157 195 264 324 376
#     4   9  16  30  56  88 120 154 196 251 314 366
#     4  12  26  43  63  87 125 174 218 254 298 369
#
# _framework density 22.074428999999999
#
# number of rings (size 3 to 8) (size 9 to 14) (size 15 to 20)
#    0.000    1.500    1.667    4.500    2.333    2.667 
#    0.000    7.500    0.000    0.000    0.000    0.000 
#    0.000    0.000    0.000    0.000    0.000    0.000 
#
# Total GULP energy -297530.079468 kJ/mol
# GULP energy per Si atom -12397.086644 kJ/mol
# Density = 2.202419 g / cm^3
# Si number density = 22.074429 Si / 1000 Ang^3
#
#
#
# Elastic Constant Matrix: (Units=GPa)
#
#
# Indices 1 2 3 4 5 6 
#
# 1 138.3679 52.1348 31.2226 0.0000 -31.7443 0.0000
# 2 52.1348 120.7087 22.3199 0.0000 -12.1816 0.0000
# 3 31.2226 22.3199 49.5454 0.0000 -21.2316 0.0000
# 4 0.0000 0.0000 0.0000 9.9296 0.0000 -2.1380
# 5 -31.7443 -12.1816 -21.2316 0.0000 30.6917 0.0000
# 6 0.0000 0.0000 0.0000 -2.1380 0.0000 32.8188
#
#
#
# Elastic Compliance Matrix: (Units=1/GPa)
#
#
# Indices 1 2 3 4 5 6 
#
# 1 0.010937 -0.003553 -0.001490 0.000000 0.008871 0.000000
# 2 -0.003553 0.010217 -0.003128 0.000000 -0.001784 0.000000
# 3 -0.001490 -0.003128 0.030331 0.000000 0.018199 0.000000
# 4 0.000000 0.000000 0.000000 0.102142 0.000000 0.006654
# 5 0.008871 -0.001784 0.018199 0.000000 0.053639 0.000000
# 6 0.000000 0.000000 0.000000 0.006654 0.000000 0.030904
#
#
# Mechanical properties :
#
#
# Convention : Reuss Voigt Hill
#
# Bulk Modulus (GPa) = 28.45560 57.77520 43.11540
# Shear Modulus (GPa) = 18.78092 28.21765 23.49928
#
# Velocity S-wave (km/s) = 2.92001 3.57920 3.26628
# Velocity P-wave (km/s) = 4.92822 6.58108 5.81369
#
# Compressibility (1/GPa) = 0.03514246
#
# Stress axis : x y z
#
# Youngs Moduli (GPa) = 91.42933 97.87200 32.97000
#
# Poissons Ratio (x) = 0.34775 0.04913
# Poissons Ratio (y) = 0.32486 0.10313
# Poissons Ratio (z) = 0.13625 0.30616
#
# Static dielectric constant tensor:
#      x y z
#    x 4.118010 0.000000 -0.228480 
#    y 0.000000 3.129460 0.000000 
#    z -0.228480 0.000000 3.811830 
# 
# 
# High freq. dielectric constant tensor:
#      x y z
#    x 1.888000 0.000000 -0.016140 
#    y 0.000000 1.861640 0.000000 
#    z -0.016140 0.000000 1.839060 
# 
# From -- ./inp_files/122537.got.cif
#   From: 2010.06.25/outbox.cif.g09.slc.cpg/sg12_62_cif.got.tgz:122537.got - 2010.06.28 00:19:55.
