data_PCOD8109857
_publ_section_title
;
Structure prediction by ZEFSAII (Michael W. Deem and Ramdas Pophale) SiO2 
 PCOD8109857
Probable space group: C 2/M
;
_chemical_formula_sum "Si O2"
_cell_formula_units_Z 40
_cell_length_a 25.153432
_cell_length_b 8.371077
_cell_length_c 19.189687
_cell_angle_alpha 90.000000
_cell_angle_beta 28.563044
_cell_angle_gamma 90.000000
_cell_volume 1931.916467
_symmetry_space_group_name_H-M "C 2/M"
_symmetry_group_IT_number 12
_symmetry_cell_setting 'monoclinic'
loop_
_space_group_symop_operation_xyz
x,y,z
-x,y,-z
-x,-y,-z
x,-y,z
1/2+x,1/2+y,z
1/2-x,1/2+y,-z
1/2-x,1/2-y,-z
1/2+x,1/2-y,z
loop_
_atom_site_type_symbol
_atom_site_label
_atom_site_fract_x
_atom_site_fract_y
_atom_site_fract_z
Si Si1 0.543776 0.314944 0.140148
Si Si2 0.226920 0.183646 0.168356
Si Si3 0.084438 0.189417 0.845696
Si Si4 0.036201 0.315382 0.298852
Si Si5 0.318810 0.810910 0.631347
O O1 0.527954 0.500000 0.177648
O O2 0.452710 0.256273 0.188570
O O3 0.525246 0.207674 0.229087
O O4 0.665540 0.292682 0.967115
O O5 0.139067 0.212438 0.207943
O O6 0.169718 0.228478 0.307038
O O7 0.263481 0.000000 0.124959
O O8 0.208434 0.251312 0.718882
O O9 0.079278 0.000000 0.856332
O O10 0.000000 0.263216 0.000000
O O11 0.058765 0.500000 0.289723
O O12 0.923283 0.256297 0.465240
O O13 0.315626 0.000000 0.645904
#
# Coordination Sequence:
#
# PCOD8109857 Si02
#       5
#     8   8   8   8   8
#     4  11  22  39  64  89 119 157 198 241 293 352
#     4  12  24  39  61  88 120 156 201 248 293 346
#     4   9  17  35  64  90 114 150 197 240 288 354
#     4  11  24  40  59  87 124 158 196 243 295 351
#     4  10  21  40  64  89 118 158 198 238 293 354
#
# _framework density 20.704830000000001
#
# number of rings (size 3 to 8) (size 9 to 14) (size 15 to 20)
#    0.000    1.400    2.000    4.200    0.000    4.800 
#    0.000    3.000    0.000    0.000    0.000    0.000 
#    0.000    0.000    0.000    0.000    0.000    0.000 
#
# Total GULP energy -248120.545181 kJ/mol
# GULP energy per Si atom -12406.027259 kJ/mol
# Density = 2.065770 g / cm^3
# Si number density = 20.704830 Si / 1000 Ang^3
#
#
#
# Elastic Constant Matrix: (Units=GPa)
#
#
# Indices 1 2 3 4 5 6 
#
# 1 124.9285 14.3585 17.3938 0.0016 4.9066 0.0005
# 2 14.3585 41.3242 10.8081 0.0107 -0.8314 -0.0009
# 3 17.3938 10.8081 70.6960 0.0052 10.5598 0.0006
# 4 0.0016 0.0107 0.0052 15.5818 -0.0007 6.1477
# 5 4.9066 -0.8314 10.5598 -0.0007 37.6737 -0.0009
# 6 0.0005 -0.0009 0.0006 6.1477 -0.0009 29.6007
#
#
#
# Elastic Compliance Matrix: (Units=1/GPa)
#
#
# Indices 1 2 3 4 5 6 
#
# 1 0.008551 -0.002566 -0.001604 0.000002 -0.000721 -0.000001
# 2 -0.002566 0.026083 -0.003645 -0.000018 0.001931 0.000005
# 3 -0.001604 -0.003645 0.015737 -0.000003 -0.004282 0.000000
# 4 0.000002 -0.000018 -0.000003 0.069906 0.000001 -0.014519
# 5 -0.000721 0.001931 -0.004282 0.000001 0.027881 0.000001
# 6 -0.000001 0.000005 0.000000 -0.014519 0.000001 0.036798
#
#
# Mechanical properties :
#
#
# Convention : Reuss Voigt Hill
#
# Bulk Modulus (GPa) = 28.78458 35.78550 32.28504
# Shear Modulus (GPa) = 23.56661 29.53046 26.54854
#
# Velocity S-wave (km/s) = 3.37741 3.78068 3.58472
# Velocity P-wave (km/s) = 5.39831 6.03152 5.72368
#
# Compressibility (1/GPa) = 0.03474082
#
# Stress axis : x y z
#
# Youngs Moduli (GPa) = 116.94343 38.33973 63.54632
#
# Poissons Ratio (x) = 0.09839 0.10192
# Poissons Ratio (y) = 0.30010 0.23160
# Poissons Ratio (z) = 0.18757 0.13973
#
# Static dielectric constant tensor:
#      x y z
#    x 3.937820 0.000000 -0.104560 
#    y 0.000000 3.398660 0.000010 
#    z -0.104560 0.000010 3.761900 
# 
# 
# High freq. dielectric constant tensor:
#      x y z
#    x 1.825630 0.000000 -0.000850 
#    y 0.000000 1.788250 0.000000 
#    z -0.000850 0.000000 1.811040 
# 
# From -- ./inp_files/151963.got.cif
#   From: 2010.06.25/outbox.cif.g09.slc.cpg/sg12_76_cif.got.tgz:151963.got - 2010.06.28 00:19:55.
