data_PCOD8109203
_publ_section_title
;
Structure prediction by ZEFSAII (Michael W. Deem and Ramdas Pophale) SiO2 
 PCOD8109203
Probable space group: C 2/M
;
_chemical_formula_sum "Si O2"
_cell_formula_units_Z 64
_cell_length_a 26.350651
_cell_length_b 13.363943
_cell_length_c 9.267377
_cell_angle_alpha 90.000000
_cell_angle_beta 94.264663
_cell_angle_gamma 90.000000
_cell_volume 3254.457813
_symmetry_space_group_name_H-M "C 2/M"
_symmetry_group_IT_number 12
_symmetry_cell_setting 'monoclinic'
loop_
_space_group_symop_operation_xyz
x,y,z
-x,y,-z
-x,-y,-z
x,-y,z
1/2+x,1/2+y,z
1/2-x,1/2+y,-z
1/2-x,1/2-y,-z
1/2+x,1/2-y,z
loop_
_atom_site_type_symbol
_atom_site_label
_atom_site_fract_x
_atom_site_fract_y
_atom_site_fract_z
Si Si1 0.159284 0.383659 0.633553
Si Si2 0.627944 0.612038 0.946173
Si Si3 0.029213 0.884724 0.371424
Si Si4 0.779358 0.224042 0.153638
Si Si5 0.959309 0.615194 0.366281
Si Si6 0.791415 0.712561 0.613604
Si Si7 0.864036 0.886549 0.710911
Si Si8 0.529244 0.724341 0.861856
O O1 0.167600 0.500000 0.677596
O O2 0.191729 0.316862 0.756884
O O3 0.099412 0.355281 0.614714
O O4 0.176032 0.368686 0.468854
O O5 0.612396 0.500000 0.893174
O O6 0.680105 0.639320 0.877468
O O7 0.587661 0.696056 0.894048
O O8 0.631554 0.615409 0.117502
O O9 0.085605 0.842293 0.356703
O O10 0.000000 0.831388 0.500000
O O11 0.996849 0.870442 0.220237
O O12 0.035219 0.000000 0.407398
O O13 0.736519 0.172481 0.247650
O O14 0.750000 0.250000 0.000000
O O15 0.962760 0.500000 0.324257
O O16 0.977685 0.676555 0.232622
O O17 0.000000 0.639942 0.500000
O O18 0.750000 0.750000 0.500000
O O19 0.820085 0.813912 0.656923
O O20 0.852228 0.000000 0.656931
O O21 0.500000 0.748717 0.000000
#
# Coordination Sequence:
#
# PCOD8109203 Si02
#       8
#     8   8   8   8   8   8   8   8
#     4  10  23  43  65  90 125 164 207 260 316 369
#     4  11  23  39  62  94 129 163 201 248 312 378
#     4  10  22  36  56  90 126 162 199 238 293 368
#     4  11  22  42  65  93 126 161 211 261 311 371
#     4  10  23  43  66  90 121 164 210 258 313 370
#     4  10  23  38  61  89 120 158 209 258 303 364
#     4  10  21  39  62  90 126 163 200 247 311 372
#     4  12  23  37  63  93 129 163 195 250 304 371
#
# _framework density 19.665334999999999
#
# number of rings (size 3 to 8) (size 9 to 14) (size 15 to 20)
#    0.000    1.500    3.750    0.750    3.500    3.750 
#    0.000    3.125    0.000    0.750    0.000    0.000 
#    0.000    0.000    0.000    0.000    0.000    0.000 
#
# Total GULP energy -396506.221796 kJ/mol
# GULP energy per Si atom -12390.819431 kJ/mol
# Density = 1.962058 g / cm^3
# Si number density = 19.665335 Si / 1000 Ang^3
#
#
#
# Elastic Constant Matrix: (Units=GPa)
#
#
# Indices 1 2 3 4 5 6 
#
# 1 98.5873 40.6289 3.3996 0.0000 -20.7118 0.0000
# 2 40.6289 77.8064 44.4555 0.0000 -1.1030 0.0000
# 3 3.3996 44.4555 18.2143 0.0000 -32.6166 0.0000
# 4 0.0000 0.0000 0.0000 35.4996 0.0000 -0.8927
# 5 -20.7118 -1.1030 -32.6166 0.0000 42.4324 0.0000
# 6 0.0000 0.0000 0.0000 -0.8927 0.0000 37.9956
#
#
#
# Elastic Compliance Matrix: (Units=1/GPa)
#
#
# Indices 1 2 3 4 5 6 
#
# 1 0.009351 0.001041 -0.010454 0.000000 -0.003444 0.000000
# 2 0.001041 0.002932 0.016745 0.000000 0.013456 0.000000
# 3 -0.010454 0.016745 -0.020255 0.000000 -0.020237 0.000000
# 4 0.000000 0.000000 0.000000 0.028186 0.000000 0.000662
# 5 -0.003444 0.013456 -0.020237 0.000000 0.006680 0.000000
# 6 0.000000 0.000000 0.000000 0.000662 0.000000 0.026334
#
#
# Mechanical properties :
#
#
# Convention : Reuss Voigt Hill
#
# Bulk Modulus (GPa) = 149.42324 41.28621 95.35473
# Shear Modulus (GPa) = 122.56649 30.26044 76.41347
#
# Velocity S-wave (km/s) = 7.90326 3.92697 6.24030
# Velocity P-wave (km/s) = 12.62656 6.44992 10.02575
#
# Compressibility (1/GPa) = 0.00669240
#
# Stress axis : x y z
#
# Youngs Moduli (GPa) = 106.93868 341.05769 -49.36952
#
# Poissons Ratio (x) = -0.35509 -0.51610
# Poissons Ratio (y) = -0.11134 0.82670
# Poissons Ratio (z) = 1.11792 -5.71103
#
# Static dielectric constant tensor:
#      x y z
#    x 3.872450 0.000000 -0.176480 
#    y 0.000000 3.369620 0.000000 
#    z -0.176480 0.000000 3.723060 
# 
# 
# High freq. dielectric constant tensor:
#      x y z
#    x 1.785530 0.000000 -0.007840 
#    y 0.000000 1.754540 0.000000 
#    z -0.007840 0.000000 1.772360 
# 
# From -- ./inp_files/96871.got.cif
#   From: 2010.06.25/outbox.cif.g09.slc.cpg/sg12_49_cif.got.tgz:96871.got - 2010.06.28 00:19:55.
