data_PCOD8109529
_publ_section_title
;
Structure prediction by ZEFSAII (Michael W. Deem and Ramdas Pophale) SiO2 
 PCOD8109529
Probable space group: C 2/M
;
_chemical_formula_sum "Si O2"
_cell_formula_units_Z 56
_cell_length_a 17.701902
_cell_length_b 10.819899
_cell_length_c 15.716929
_cell_angle_alpha 90.000000
_cell_angle_beta 58.139391
_cell_angle_gamma 90.000000
_cell_volume 2556.758708
_symmetry_space_group_name_H-M "C 2/M"
_symmetry_group_IT_number 12
_symmetry_cell_setting 'monoclinic'
loop_
_space_group_symop_operation_xyz
x,y,z
-x,y,-z
-x,-y,-z
x,-y,z
1/2+x,1/2+y,z
1/2-x,1/2+y,-z
1/2-x,1/2-y,-z
1/2+x,1/2-y,z
loop_
_atom_site_type_symbol
_atom_site_label
_atom_site_fract_x
_atom_site_fract_y
_atom_site_fract_z
Si Si1 0.087601 0.637370 0.287173
Si Si2 0.630235 0.638013 0.382863
Si Si3 0.762660 0.204052 0.086752
Si Si4 0.825415 0.142123 0.458832
Si Si5 0.045329 0.753768 0.750957
Si Si6 0.049470 0.866977 0.048307
Si Si7 0.321115 0.864170 0.202251
O O1 0.084163 0.500000 0.332121
O O2 0.086559 0.749744 0.355809
O O3 0.175611 0.639277 0.176525
O O4 0.998384 0.649808 0.283423
O O5 0.594501 0.500000 0.375698
O O6 0.613490 0.659551 0.493082
O O7 0.736185 0.640087 0.313913
O O8 0.792419 0.318302 0.127018
O O9 0.750000 0.250000 0.000000
O O10 0.846707 0.113207 0.034389
O O11 0.750000 0.250000 0.500000
O O12 0.893151 0.154508 0.340048
O O13 0.785869 0.000000 0.479914
O O14 0.102347 0.708794 0.796361
O O15 0.961723 0.814848 0.849247
O O16 0.002381 0.000000 0.079582
O O17 0.000000 0.792234 0.000000
O O18 0.358527 0.000000 0.166470
#
# Coordination Sequence:
#
# PCOD8109529 Si02
#       7
#     8   8   8   8   8   8   8
#     4  11  25  42  67 101 135 174 223 281 338 393
#     4   9  21  44  67  92 130 176 220 267 333 401
#     4  11  22  43  63  92 130 175 220 270 329 396
#     4  11  24  43  71 103 134 176 225 276 335 397
#     4  12  23  42  64  98 135 168 220 274 335 397
#     4  11  23  40  61  88 128 173 219 270 325 390
#     4  10  21  39  65  91 124 170 218 268 323 392
#
# _framework density 21.902732
#
# number of rings (size 3 to 8) (size 9 to 14) (size 15 to 20)
#    0.000    1.286    4.286    1.286    0.000    4.000 
#    0.000    2.857    0.000    0.000    0.000    0.000 
#    0.000    0.000    0.000    0.000    0.000    0.000 
#
# Total GULP energy -346865.772555 kJ/mol
# GULP energy per Si atom -12388.063306 kJ/mol
# Density = 2.185288 g / cm^3
# Si number density = 21.902732 Si / 1000 Ang^3
#
#
#
# Elastic Constant Matrix: (Units=GPa)
#
#
# Indices 1 2 3 4 5 6 
#
# 1 95.2912 34.2431 29.7832 0.0000 16.3913 0.0000
# 2 34.2431 144.3707 44.7463 0.0000 20.4650 0.0000
# 3 29.7832 44.7463 109.7646 0.0000 13.3610 0.0000
# 4 0.0000 0.0000 0.0000 17.8869 0.0000 2.4493
# 5 16.3913 20.4650 13.3610 0.0000 39.6253 0.0000
# 6 0.0000 0.0000 0.0000 2.4493 0.0000 23.9778
#
#
#
# Elastic Compliance Matrix: (Units=1/GPa)
#
#
# Indices 1 2 3 4 5 6 
#
# 1 0.012422 -0.001763 -0.002229 0.000000 -0.003477 0.000000
# 2 -0.001763 0.008570 -0.002675 0.000000 -0.002795 0.000000
# 3 -0.002229 -0.002675 0.010976 0.000000 -0.001397 0.000000
# 4 0.000000 0.000000 0.000000 0.056700 0.000000 -0.005792
# 5 -0.003477 -0.002795 -0.001397 0.000000 0.028589 0.000000
# 6 0.000000 0.000000 0.000000 -0.005792 0.000000 0.042297
#
#
# Mechanical properties :
#
#
# Convention : Reuss Voigt Hill
#
# Bulk Modulus (GPa) = 53.66358 62.99687 58.33023
# Shear Modulus (GPa) = 27.91752 32.34160 30.12956
#
# Velocity S-wave (km/s) = 3.57405 3.84683 3.71294
# Velocity P-wave (km/s) = 6.44870 6.96816 6.71346
#
# Compressibility (1/GPa) = 0.01863461
#
# Stress axis : x y z
#
# Youngs Moduli (GPa) = 80.50072 116.68557 91.10973
#
# Poissons Ratio (x) = 0.20569 0.20307
# Poissons Ratio (y) = 0.14191 0.24373
# Poissons Ratio (z) = 0.17942 0.31215
#
# Static dielectric constant tensor:
#      x y z
#    x 4.042930 0.000000 -0.023410 
#    y 0.000000 3.953090 0.000000 
#    z -0.023410 0.000000 4.114400 
# 
# 
# High freq. dielectric constant tensor:
#      x y z
#    x 1.861990 0.000000 0.003140 
#    y 0.000000 1.851270 0.000000 
#    z 0.003140 0.000000 1.870070 
# 
# From -- ./inp_files/223749.got.cif
#   From: 2010.06.25/outbox.cif.g09.slc.cpg/sg12_112_cif.got.tgz:223749.got - 2010.06.28 00:19:55.
