data_PCOD8109483
_publ_section_title
;
Structure prediction by ZEFSAII (Michael W. Deem and Ramdas Pophale) SiO2 
 PCOD8109483
Probable space group: C 2/M
;
_chemical_formula_sum "Si O2"
_cell_formula_units_Z 48
_cell_length_a 29.748524
_cell_length_b 8.767763
_cell_length_c 14.606494
_cell_angle_alpha 90.000000
_cell_angle_beta 140.166996
_cell_angle_gamma 90.000000
_cell_volume 2440.364508
_symmetry_space_group_name_H-M "C 2/M"
_symmetry_group_IT_number 12
_symmetry_cell_setting 'monoclinic'
loop_
_space_group_symop_operation_xyz
x,y,z
-x,y,-z
-x,-y,-z
x,-y,z
1/2+x,1/2+y,z
1/2-x,1/2+y,-z
1/2-x,1/2-y,-z
1/2+x,1/2-y,z
loop_
_atom_site_type_symbol
_atom_site_label
_atom_site_fract_x
_atom_site_fract_y
_atom_site_fract_z
Si Si1 0.820725 0.678887 0.648679
Si Si2 0.573112 0.822528 0.658711
Si Si3 0.679699 0.822369 0.665502
Si Si4 0.323378 0.821131 0.863584
Si Si5 0.594923 0.321162 0.371407
Si Si6 0.936834 0.821225 0.166222
O O1 0.815764 0.500000 0.627887
O O2 0.750000 0.750000 0.500000
O O3 0.831339 0.725229 0.770341
O O4 0.887398 0.741543 0.697111
O O5 0.500000 0.769250 0.500000
O O6 0.635497 0.785725 0.686735
O O7 0.588667 0.724138 0.772770
O O8 0.569850 0.000000 0.680489
O O9 0.758861 0.769547 0.808265
O O10 0.650510 0.728840 0.534386
O O11 0.676380 0.000000 0.635680
O O12 0.310552 0.000000 0.856155
O O13 0.394037 0.771630 0.024136
O O14 0.601709 0.500000 0.368101
O O15 0.517596 0.271896 0.281418
O O16 0.925541 0.000000 0.133261
#
# Coordination Sequence:
#
# PCOD8109483 Si02
#       6
#     8   8   8   8   8   8
#     4  11  23  39  64  94 123 162 208 258 309 367
#     4  10  21  39  64  94 124 161 208 255 309 370
#     4  11  22  38  65  94 123 162 207 255 308 369
#     4  11  25  43  63  90 127 164 205 258 313 369
#     4  11  23  39  62  93 126 162 207 255 306 368
#     4  11  25  42  63  92 127 166 207 256 312 367
#
# _framework density 19.669191999999999
#
# number of rings (size 3 to 8) (size 9 to 14) (size 15 to 20)
#    0.000    1.167    3.333    2.500    0.000    7.000 
#    0.000    3.333    0.000    0.000    0.000    0.000 
#    0.000    0.000    0.000    0.000    0.000    0.000 
#
# Total GULP energy -297789.215311 kJ/mol
# GULP energy per Si atom -12407.883971 kJ/mol
# Density = 1.962442 g / cm^3
# Si number density = 19.669192 Si / 1000 Ang^3
#
#
#
# Elastic Constant Matrix: (Units=GPa)
#
#
# Indices 1 2 3 4 5 6 
#
# 1 121.1109 47.0378 30.0289 0.0000 -7.5650 0.0000
# 2 47.0378 65.1677 24.5060 0.0000 -6.8652 0.0000
# 3 30.0289 24.5060 82.9692 0.0000 -12.9460 0.0000
# 4 0.0000 0.0000 0.0000 32.7427 0.0000 -0.2714
# 5 -7.5650 -6.8652 -12.9460 0.0000 30.9481 0.0000
# 6 0.0000 0.0000 0.0000 -0.2714 0.0000 36.7549
#
#
#
# Elastic Compliance Matrix: (Units=1/GPa)
#
#
# Indices 1 2 3 4 5 6 
#
# 1 0.011755 -0.007727 -0.001917 0.000000 0.000358 0.000000
# 2 -0.007727 0.022437 -0.003582 0.000000 0.001590 0.000000
# 3 -0.001917 -0.003582 0.014558 0.000000 0.004826 0.000000
# 4 0.000000 0.000000 0.000000 0.030543 0.000000 0.000226
# 5 0.000358 0.001590 0.004826 0.000000 0.034771 0.000000
# 6 0.000000 0.000000 0.000000 0.000226 0.000000 0.027209
#
#
# Mechanical properties :
#
#
# Convention : Reuss Voigt Hill
#
# Bulk Modulus (GPa) = 44.84636 52.48813 48.66724
# Shear Modulus (GPa) = 28.54587 31.26747 29.90667
#
# Velocity S-wave (km/s) = 3.81372 3.99139 3.90357
# Velocity P-wave (km/s) = 6.49942 6.92712 6.71667
#
# Compressibility (1/GPa) = 0.02229835
#
# Stress axis : x y z
#
# Youngs Moduli (GPa) = 85.06778 44.56996 68.69282
#
# Poissons Ratio (x) = 0.34437 0.13166
# Poissons Ratio (y) = 0.65728 0.24609
# Poissons Ratio (z) = 0.16304 0.15967
#
# Static dielectric constant tensor:
#      x y z
#    x 3.821780 0.000000 -0.003300 
#    y 0.000000 3.605980 0.000000 
#    z -0.003300 0.000000 3.512280 
# 
# 
# High freq. dielectric constant tensor:
#      x y z
#    x 1.782190 0.000000 0.002080 
#    y 0.000000 1.776230 0.000000 
#    z 0.002080 0.000000 1.762380 
# 
# From -- ./inp_files/230363.got.cif
#   From: 2010.06.25/outbox.cif.g09.slc.cpg/sg12_116_cif.got.tgz:230363.got - 2010.06.28 00:19:55.
