data_PCOD8109495
_publ_section_title
;
Structure prediction by ZEFSAII (Michael W. Deem and Ramdas Pophale) SiO2 
 PCOD8109495
Probable space group: C 2/M
;
_chemical_formula_sum "Si O2"
_cell_formula_units_Z 56
_cell_length_a 19.696635
_cell_length_b 8.845888
_cell_length_c 16.091087
_cell_angle_alpha 90.000000
_cell_angle_beta 91.265755
_cell_angle_gamma 90.000000
_cell_volume 2802.933999
_symmetry_space_group_name_H-M "C 2/M"
_symmetry_group_IT_number 12
_symmetry_cell_setting 'monoclinic'
loop_
_space_group_symop_operation_xyz
x,y,z
-x,y,-z
-x,-y,-z
x,-y,z
1/2+x,1/2+y,z
1/2-x,1/2+y,-z
1/2-x,1/2-y,-z
1/2+x,1/2-y,z
loop_
_atom_site_type_symbol
_atom_site_label
_atom_site_fract_x
_atom_site_fract_y
_atom_site_fract_z
Si Si1 0.742236 0.322397 0.244515
Si Si2 0.624018 0.326478 0.689576
Si Si3 0.979921 0.827274 0.758527
Si Si4 0.293869 0.826461 0.930249
Si Si5 0.449074 0.827382 0.926470
Si Si6 0.869044 0.672693 0.651762
Si Si7 0.575497 0.826409 0.524227
O O1 0.739019 0.500000 0.232533
O O2 0.817999 0.275869 0.269530
O O3 0.718478 0.247606 0.158890
O O4 0.692456 0.274536 0.317601
O O5 0.648015 0.500000 0.687983
O O6 0.559560 0.303632 0.747073
O O7 0.607030 0.277229 0.595887
O O8 0.961383 0.784512 0.851201
O O9 0.940267 0.721768 0.693350
O O10 0.958121 0.000000 0.742171
O O11 0.372521 0.808886 0.957356
O O12 0.271924 0.000000 0.923446
O O13 0.250000 0.750000 0.000000
O O14 0.462914 0.000000 0.898710
O O15 0.500000 0.777544 0.000000
O O16 0.854830 0.500000 0.677065
O O17 0.874796 0.690442 0.553074
O O18 0.500000 0.768322 0.500000
O O19 0.571843 0.000000 0.554603
#
# Coordination Sequence:
#
# PCOD8109495 Si02
#       7
#     8   8   8   8   8   8   8
#     4  12  26  44  66  92 127 170 216 262 317 381
#     4  11  25  42  63  95 131 167 213 266 317 375
#     4  11  23  39  63  95 127 165 211 258 313 373
#     4  11  24  43  66  94 130 169 209 259 316 375
#     4  10  23  42  65  94 126 165 211 256 310 372
#     4  11  22  40  67  93 126 168 210 260 315 378
#     4  10  21  39  64  95 127 166 213 260 317 379
#
# _framework density 19.979064999999999
#
# number of rings (size 3 to 8) (size 9 to 14) (size 15 to 20)
#    0.000    1.143    2.857    3.000    2.000    4.571 
#    0.000    0.000    0.000    0.000    0.000    0.000 
#    0.000    0.000    0.000    0.000    0.000    0.000 
#
# Total GULP energy -347392.670773 kJ/mol
# GULP energy per Si atom -12406.881099 kJ/mol
# Density = 1.993359 g / cm^3
# Si number density = 19.979065 Si / 1000 Ang^3
#
#
#
# Elastic Constant Matrix: (Units=GPa)
#
#
# Indices 1 2 3 4 5 6 
#
# 1 101.9755 49.0477 30.4996 0.0000 0.0184 0.0000
# 2 49.0477 118.1598 41.2938 0.0000 -7.0223 0.0000
# 3 30.4996 41.2938 76.2187 0.0000 -7.5118 0.0000
# 4 0.0000 0.0000 0.0000 33.7088 0.0000 -2.9508
# 5 0.0184 -7.0223 -7.5118 0.0000 35.8479 0.0000
# 6 0.0000 0.0000 0.0000 -2.9508 0.0000 32.9776
#
#
#
# Elastic Compliance Matrix: (Units=1/GPa)
#
#
# Indices 1 2 3 4 5 6 
#
# 1 0.012777 -0.004384 -0.002883 0.000000 -0.001469 0.000000
# 2 -0.004384 0.011971 -0.004595 0.000000 0.001384 0.000000
# 3 -0.002883 -0.004595 0.017026 0.000000 0.002669 0.000000
# 4 0.000000 0.000000 0.000000 0.029900 0.000000 0.002675
# 5 -0.001469 0.001384 0.002669 0.000000 0.028727 0.000000
# 6 0.000000 0.000000 0.000000 0.002675 0.000000 0.030563
#
#
# Mechanical properties :
#
#
# Convention : Reuss Voigt Hill
#
# Bulk Modulus (GPa) = 55.39699 59.78179 57.58939
# Shear Modulus (GPa) = 31.11310 32.20773 31.66041
#
# Velocity S-wave (km/s) = 3.95053 4.01942 3.98512
# Velocity P-wave (km/s) = 6.97113 7.17831 7.07548
#
# Compressibility (1/GPa) = 0.01805152
#
# Stress axis : x y z
#
# Youngs Moduli (GPa) = 78.26476 83.53632 58.73290
#
# Poissons Ratio (x) = 0.36619 0.16931
# Poissons Ratio (y) = 0.34308 0.26988
# Poissons Ratio (z) = 0.22562 0.38385
#
# Static dielectric constant tensor:
#      x y z
#    x 3.925040 0.000000 0.075550 
#    y 0.000000 3.766650 0.000000 
#    z 0.075550 0.000000 3.796590 
# 
# 
# High freq. dielectric constant tensor:
#      x y z
#    x 1.788600 0.000000 -0.005110 
#    y 0.000000 1.789380 0.000000 
#    z -0.005110 0.000000 1.783210 
# 
# From -- ./inp_files/230974.got.cif
#   From: 2010.06.25/outbox.cif.g09.slc.cpg/sg12_116_cif.got.tgz:230974.got - 2010.06.28 00:19:55.
