data_PCOD8109877
_publ_section_title
;
Structure prediction by ZEFSAII (Michael W. Deem and Ramdas Pophale) SiO2 
 PCOD8109877
Probable space group: C 2/M
;
_chemical_formula_sum "Si O2"
_cell_formula_units_Z 56
_cell_length_a 19.697647
_cell_length_b 24.017935
_cell_length_c 6.819929
_cell_angle_alpha 90.000000
_cell_angle_beta 121.293894
_cell_angle_gamma 90.000000
_cell_volume 2757.078604
_symmetry_space_group_name_H-M "C 2/M"
_symmetry_group_IT_number 12
_symmetry_cell_setting 'monoclinic'
loop_
_space_group_symop_operation_xyz
x,y,z
-x,y,-z
-x,-y,-z
x,-y,z
1/2+x,1/2+y,z
1/2-x,1/2+y,-z
1/2-x,1/2-y,-z
1/2+x,1/2-y,z
loop_
_atom_site_type_symbol
_atom_site_label
_atom_site_fract_x
_atom_site_fract_y
_atom_site_fract_z
Si Si1 0.913450 0.243300 0.308318
Si Si2 0.587339 0.663975 0.042740
Si Si3 0.688060 0.060586 0.528111
Si Si4 0.795344 0.798634 0.457710
Si Si5 0.715294 0.099816 0.155525
Si Si6 0.164408 0.937304 0.981663
Si Si7 0.911002 0.626145 0.343286
O O1 0.849146 0.226711 0.370079
O O2 0.911898 0.309402 0.291645
O O3 0.000000 0.221314 0.500000
O O4 0.893827 0.216676 0.068398
O O5 0.651512 0.665631 0.312704
O O6 0.594844 0.606899 0.927383
O O7 0.500000 0.668194 0.000000
O O8 0.696449 0.059951 0.307629
O O9 0.774510 0.067971 0.749231
O O10 0.632015 0.111154 0.516098
O O11 0.653173 0.000000 0.538288
O O12 0.750000 0.750000 0.500000
O O13 0.730417 0.838050 0.258108
O O14 0.793401 0.078342 0.159514
O O15 0.637775 0.095834 0.901637
O O16 0.129039 0.000000 0.913652
O O17 0.000000 0.602911 0.500000
#
# Coordination Sequence:
#
# PCOD8109877 Si02
#       7
#     8   8   8   8   8   8   8
#     4  11  23  42  62  91 133 167 200 258 318 376
#     4  12  24  41  65  95 129 165 208 255 316 372
#     4  10  21  40  64  90 122 164 211 258 312 369
#     4  12  24  37  65  95 124 165 214 255 313 376
#     4  11  21  39  64  90 122 162 212 256 309 370
#     4  10  22  40  63  91 125 163 210 262 306 367
#     4  10  24  41  60  91 128 163 207 258 316 370
#
# _framework density 20.311354000000001
#
# number of rings (size 3 to 8) (size 9 to 14) (size 15 to 20)
#    0.000    1.143    4.286    2.143    2.000    2.857 
#    0.000    0.714    0.000    1.286    0.000    0.000 
#    0.000    0.000    0.000    0.000    0.000    0.000 
#
# Total GULP energy -347218.481810 kJ/mol
# GULP energy per Si atom -12400.660065 kJ/mol
# Density = 2.026512 g / cm^3
# Si number density = 20.311354 Si / 1000 Ang^3
#
#
#
# Elastic Constant Matrix: (Units=GPa)
#
#
# Indices 1 2 3 4 5 6 
#
# 1 114.4193 49.7232 41.5733 0.0000 -20.2918 0.0000
# 2 49.7232 93.8658 10.8167 0.0000 -13.0472 0.0000
# 3 41.5733 10.8167 88.5514 0.0000 -19.4726 0.0000
# 4 0.0000 0.0000 0.0000 -36.5324 0.0000 -133.0681
# 5 -20.2918 -13.0472 -19.4726 0.0000 33.5565 0.0000
# 6 0.0000 0.0000 0.0000 -133.0681 0.0000 -281.5757
#
#
#
# Elastic Compliance Matrix: (Units=1/GPa)
#
#
# Indices 1 2 3 4 5 6 
#
# 1 0.013874 -0.006351 -0.005085 0.000000 0.002970 0.000000
# 2 -0.006351 0.014186 0.001854 0.000000 0.002751 0.000000
# 3 -0.005085 0.001854 0.014828 0.000000 0.006251 0.000000
# 4 0.000000 0.000000 0.000000 0.037946 0.000000 -0.017933
# 5 0.002970 0.002751 0.006251 0.000000 0.036293 0.000000
# 6 0.000000 0.000000 0.000000 -0.017933 0.000000 0.004923
#
#
# Mechanical properties :
#
#
# Convention : Reuss Voigt Hill
#
# Bulk Modulus (GPa) = 42.14974 55.67366 48.91170
# Shear Modulus (GPa) = 33.52960 -43.92878 -5.19959
#
# Velocity S-wave (km/s) = 4.06739 -4.65560 -1.60172
# Velocity P-wave (km/s) = 6.54638 1.19579 4.55111
#
# Compressibility (1/GPa) = 0.02372494
#
# Stress axis : x y z
#
# Youngs Moduli (GPa) = 72.07888 70.49014 67.43939
#
# Poissons Ratio (x) = 0.44765 0.34291
# Poissons Ratio (y) = 0.45774 -0.12500
# Poissons Ratio (z) = 0.36650 -0.13066
#
# Static dielectric constant tensor:
#      x y z
#    x 3.650690 0.000000 -0.030130 
#    y 0.000000 3.871520 0.000000 
#    z -0.030130 0.000000 3.679740 
# 
# 
# High freq. dielectric constant tensor:
#      x y z
#    x 1.788330 0.000000 -0.013600 
#    y 0.000000 1.799680 0.000000 
#    z -0.013600 0.000000 1.796860 
# 
# From -- ./inp_files/17702.got.cif
#   From: 2010.06.25/outbox.cif.g09.slc.cpg/sg12_9_cif.got.tgz:17702.got - 2010.06.28 00:19:55.
