data_PCOD8109978
_publ_section_title
;
Structure prediction by ZEFSAII (Michael W. Deem and Ramdas Pophale) SiO2 
 PCOD8109978
Probable space group: C 2/M
;
_chemical_formula_sum "Si O2"
_cell_formula_units_Z 40
_cell_length_a 22.380054
_cell_length_b 8.902584
_cell_length_c 14.963941
_cell_angle_alpha 90.000000
_cell_angle_beta 40.738926
_cell_angle_gamma 90.000000
_cell_volume 1945.714569
_symmetry_space_group_name_H-M "C 2/M"
_symmetry_group_IT_number 12
_symmetry_cell_setting 'monoclinic'
loop_
_space_group_symop_operation_xyz
x,y,z
-x,y,-z
-x,-y,-z
x,-y,z
1/2+x,1/2+y,z
1/2-x,1/2+y,-z
1/2-x,1/2-y,-z
1/2+x,1/2-y,z
loop_
_atom_site_type_symbol
_atom_site_label
_atom_site_fract_x
_atom_site_fract_y
_atom_site_fract_z
Si Si1 0.047827 0.322477 0.038022
Si Si2 0.989480 0.828052 0.278459
Si Si3 0.924648 0.323802 0.656904
Si Si4 0.767575 0.823245 0.212135
Si Si5 0.717140 0.672090 0.448543
O O1 0.058152 0.500000 0.031415
O O2 0.986686 0.264508 0.189474
O O3 0.147223 0.247592 0.936589
O O4 0.000000 0.271775 0.000000
O O5 0.063525 0.761227 0.262870
O O6 0.891684 0.813322 0.437011
O O7 0.014315 0.000000 0.228897
O O8 0.935831 0.500000 0.661822
O O9 0.824392 0.280566 0.736026
O O10 0.000000 0.268577 0.500000
O O11 0.766063 0.755117 0.312250
O O12 0.780284 0.000000 0.205810
O O13 0.749550 0.500000 0.411724
O O14 0.750000 0.750000 0.500000
#
# Coordination Sequence:
#
# PCOD8109978 Si02
#       5
#     8   8   8   8   8
#     4  11  25  44  65  90 125 168 210 257 312 372
#     4  11  24  40  63  93 125 164 208 258 310 366
#     4  10  21  40  65  93 126 164 206 255 310 369
#     4  11  23  40  65  93 124 163 206 256 312 368
#     4  11  23  38  60  91 124 161 208 258 309 367
#
# _framework density 20.557998999999999
#
# number of rings (size 3 to 8) (size 9 to 14) (size 15 to 20)
#    0.000    1.200    2.000    3.600    0.000   10.000 
#    0.000    0.000    0.000    0.000    0.000    0.000 
#    0.000    0.000    0.000    0.000    0.000    0.000 
#
# Total GULP energy -248155.450831 kJ/mol
# GULP energy per Si atom -12407.772542 kJ/mol
# Density = 2.051121 g / cm^3
# Si number density = 20.557999 Si / 1000 Ang^3
#
#
#
# Elastic Constant Matrix: (Units=GPa)
#
#
# Indices 1 2 3 4 5 6 
#
# 1 95.2861 43.1091 6.5041 -0.0021 8.2391 0.0013
# 2 43.1091 87.1217 19.5708 -0.0058 0.0949 0.0045
# 3 6.5041 19.5708 62.0953 -0.0020 1.0460 0.0016
# 4 -0.0021 -0.0058 -0.0020 40.3471 0.0008 3.7604
# 5 8.2391 0.0949 1.0460 0.0008 39.5804 -0.0005
# 6 0.0013 0.0045 0.0016 3.7604 -0.0005 34.3927
#
#
#
# Elastic Compliance Matrix: (Units=1/GPa)
#
#
# Indices 1 2 3 4 5 6 
#
# 1 0.013877 -0.007047 0.000816 0.000000 -0.002893 0.000000
# 2 -0.007047 0.015931 -0.004309 0.000002 0.001543 -0.000002
# 3 0.000816 -0.004309 0.017387 0.000000 -0.000619 0.000000
# 4 0.000000 0.000002 0.000000 0.025040 0.000000 -0.002738
# 5 -0.002893 0.001543 -0.000619 0.000000 0.025880 0.000000
# 6 0.000000 -0.000002 0.000000 -0.002738 0.000000 0.029375
#
#
# Mechanical properties :
#
#
# Convention : Reuss Voigt Hill
#
# Bulk Modulus (GPa) = 38.28994 42.54124 40.41559
# Shear Modulus (GPa) = 31.79120 34.55200 33.17160
#
# Velocity S-wave (km/s) = 3.93671 4.10409 4.02127
# Velocity P-wave (km/s) = 6.27131 6.57239 6.42362
#
# Compressibility (1/GPa) = 0.02611652
#
# Stress axis : x y z
#
# Youngs Moduli (GPa) = 72.06007 62.76923 57.51327
#
# Poissons Ratio (x) = 0.44233 -0.04694
# Poissons Ratio (y) = 0.50780 0.24782
# Poissons Ratio (z) = -0.05881 0.27047
#
# Static dielectric constant tensor:
#      x y z
#    x 3.725480 0.000000 -0.103140 
#    y 0.000000 3.769850 0.000000 
#    z -0.103140 0.000000 3.749580 
# 
# 
# High freq. dielectric constant tensor:
#      x y z
#    x 1.812290 0.000000 -0.000790 
#    y 0.000000 1.812470 0.000000 
#    z -0.000790 0.000000 1.806770 
# 
# From -- ./inp_files/220592.got.cif
#   From: 2010.06.25/outbox.cif.g09.slc.cpg/sg12_111_cif.got.tgz:220592.got - 2010.06.28 00:19:55.
