data_PCOD8109654
_publ_section_title
;
Structure prediction by ZEFSAII (Michael W. Deem and Ramdas Pophale) SiO2 
 PCOD8109654
Probable space group: C 2/M
;
_chemical_formula_sum "Si O2"
_cell_formula_units_Z 56
_cell_length_a 8.949178
_cell_length_b 17.758123
_cell_length_c 27.287555
_cell_angle_alpha 90.000000
_cell_angle_beta 142.873994
_cell_angle_gamma 90.000000
_cell_volume 2617.414073
_symmetry_space_group_name_H-M "C 2/M"
_symmetry_group_IT_number 12
_symmetry_cell_setting 'monoclinic'
loop_
_space_group_symop_operation_xyz
x,y,z
-x,y,-z
-x,-y,-z
x,-y,z
1/2+x,1/2+y,z
1/2-x,1/2+y,-z
1/2-x,1/2-y,-z
1/2+x,1/2-y,z
loop_
_atom_site_type_symbol
_atom_site_label
_atom_site_fract_x
_atom_site_fract_y
_atom_site_fract_z
Si Si1 0.104965 0.825041 0.400330
Si Si2 0.206367 0.586585 0.720923
Si Si3 0.419607 0.723767 0.086744
Si Si4 0.931385 0.639161 0.746839
Si Si5 0.509411 0.165882 0.582245
Si Si6 0.377439 0.413515 0.915566
Si Si7 0.887722 0.205694 0.184170
O O1 0.238396 0.821604 0.382586
O O2 0.286474 0.860296 0.488679
O O3 0.048608 0.740678 0.402557
O O4 0.862369 0.879410 0.331812
O O5 0.266897 0.500000 0.745111
O O6 0.469840 0.627073 0.778654
O O7 0.065164 0.617848 0.731234
O O8 0.038950 0.598655 0.629095
O O9 0.517163 0.639966 0.099605
O O10 0.642749 0.785008 0.153206
O O11 0.277671 0.721438 0.100791
O O12 0.250000 0.750000 0.000000
O O13 0.077934 0.599021 0.831216
O O14 0.922798 0.729301 0.750672
O O15 0.446210 0.500000 0.922368
O O16 0.500000 0.390555 0.000000
#
# Coordination Sequence:
#
# PCOD8109654 Si02
#       7
#     8   8   8   8   8   8   8
#     4  10  21  39  69 101 128 169 228 276 317 397
#     4  12  25  43  64  96 141 177 212 275 345 392
#     4  11  22  39  65  96 125 163 224 282 324 388
#     4  11  22  39  67  97 125 176 229 268 320 402
#     4  10  22  40  65  99 136 171 215 275 337 385
#     4  10  21  40  61  88 131 174 213 269 335 392
#     4  11  22  38  64  94 126 168 221 267 323 391
#
# _framework density 21.395164000000001
#
# number of rings (size 3 to 8) (size 9 to 14) (size 15 to 20)
#    0.000    1.286    4.286    3.429    2.000    1.714 
#    0.000    5.714    0.000    1.714    0.000    0.000 
#    0.000    0.000    0.000    0.000    0.000    0.000 
#
# Total GULP energy -346933.193791 kJ/mol
# GULP energy per Si atom -12390.471207 kJ/mol
# Density = 2.134647 g / cm^3
# Si number density = 21.395164 Si / 1000 Ang^3
#
#
#
# Elastic Constant Matrix: (Units=GPa)
#
#
# Indices 1 2 3 4 5 6 
#
# 1 73.1739 30.9151 32.5450 0.0000 -8.3242 0.0001
# 2 30.9151 99.6513 24.7633 0.0000 -2.1588 0.0001
# 3 32.5450 24.7633 136.5188 -0.0003 -0.2958 0.0002
# 4 0.0000 0.0000 -0.0003 29.5252 -0.0001 -0.3579
# 5 -8.3242 -2.1588 -0.2958 -0.0001 35.1269 0.0002
# 6 0.0001 0.0001 0.0002 -0.3579 0.0002 14.7468
#
#
#
# Elastic Compliance Matrix: (Units=1/GPa)
#
#
# Indices 1 2 3 4 5 6 
#
# 1 0.017497 -0.004514 -0.003344 0.000000 0.003841 0.000000
# 2 -0.004514 0.011687 -0.001045 0.000000 -0.000360 0.000000
# 3 -0.003344 -0.001045 0.008310 0.000000 -0.000787 0.000000
# 4 0.000000 0.000000 0.000000 0.033879 0.000000 0.000822
# 5 0.003841 -0.000360 -0.000787 0.000000 0.029350 0.000000
# 6 0.000000 0.000000 0.000000 0.000822 0.000000 0.067831
#
#
# Mechanical properties :
#
#
# Convention : Reuss Voigt Hill
#
# Bulk Modulus (GPa) = 50.78967 53.97674 52.38321
# Shear Modulus (GPa) = 25.91699 30.62116 28.26908
#
# Velocity S-wave (km/s) = 3.48422 3.78725 3.63889
# Velocity P-wave (km/s) = 6.32272 6.66390 6.49555
#
# Compressibility (1/GPa) = 0.01968904
#
# Stress axis : x y z
#
# Youngs Moduli (GPa) = 57.15110 85.56384 120.33710
#
# Poissons Ratio (x) = 0.38624 0.40242
# Poissons Ratio (y) = 0.25798 0.12571
# Poissons Ratio (z) = 0.19112 0.08938
#
# Static dielectric constant tensor:
#      x y z
#    x 3.853470 0.000000 -0.105680 
#    y 0.000000 3.625100 0.000000 
#    z -0.105680 0.000000 4.327260 
# 
# 
# High freq. dielectric constant tensor:
#      x y z
#    x 1.832750 0.000000 -0.012650 
#    y 0.000000 1.803660 0.000000 
#    z -0.012650 0.000000 1.869790 
# 
# From -- ./inp_files/356727.got.cif
#   From: 2010.06.25/outbox.cif.g09.slc.cpg/sg12_179_cif.got.tgz:356727.got - 2010.06.28 00:19:55.
