data_PCOD8109782
_publ_section_title
;
Structure prediction by ZEFSAII (Michael W. Deem and Ramdas Pophale) SiO2 
 PCOD8109782
Probable space group: C 2/M
;
_chemical_formula_sum "Si O2"
_cell_formula_units_Z 28
_cell_length_a 11.239471
_cell_length_b 16.719777
_cell_length_c 11.285292
_cell_angle_alpha 90.000000
_cell_angle_beta 39.912826
_cell_angle_gamma 90.000000
_cell_volume 1360.717465
_symmetry_space_group_name_H-M "C 2/M"
_symmetry_group_IT_number 12
_symmetry_cell_setting 'monoclinic'
loop_
_space_group_symop_operation_xyz
x,y,z
-x,y,-z
-x,-y,-z
x,-y,z
1/2+x,1/2+y,z
1/2-x,1/2+y,-z
1/2-x,1/2-y,-z
1/2+x,1/2-y,z
loop_
_atom_site_type_symbol
_atom_site_label
_atom_site_fract_x
_atom_site_fract_y
_atom_site_fract_z
Si Si1 0.500000 0.174334 0.000000
Si Si2 0.819203 0.705424 0.700360
Si Si3 0.147151 0.592834 0.107966
Si Si4 0.448042 0.413155 0.177820
O O1 0.314025 0.227097 0.145092
O O2 0.509131 0.118909 0.108850
O O3 0.892266 0.646476 0.747009
O O4 0.706508 0.654928 0.685409
O O5 0.000000 0.743955 0.500000
O O6 0.112451 0.500000 0.166898
O O7 0.360201 0.605673 0.900029
O O8 0.369249 0.500000 0.276973
O O9 0.500000 0.413909 0.000000
#
# Coordination Sequence:
#
# PCOD8109782 Si02
#       4
#     4   8   8   8
#     4  12  23  40  59  86 126 156 188 242 293 354
#     4  11  22  36  64  90 117 150 198 245 295 339
#     4  10  21  40  63  85 116 160 197 235 294 350
#     4   8  15  32  56  82 110 145 191 237 278 331
#
# _framework density 20.577379000000001
#
# number of rings (size 3 to 8) (size 9 to 14) (size 15 to 20)
#    0.000    2.000    4.286    3.857    0.000    3.429 
#    0.000    0.000    0.000    1.714    0.000    0.000 
#    0.000    0.000    0.000    0.000    0.000    0.000 
#
# Total GULP energy -173519.537856 kJ/mol
# GULP energy per Si atom -12394.252704 kJ/mol
# Density = 2.053054 g / cm^3
# Si number density = 20.577379 Si / 1000 Ang^3
#
#
#
# Elastic Constant Matrix: (Units=GPa)
#
#
# Indices 1 2 3 4 5 6 
#
# 1 90.4339 38.5060 12.2482 0.0010 6.4844 -0.0015
# 2 38.5060 69.0882 23.2285 0.0008 -1.0223 -0.0024
# 3 12.2482 23.2285 86.6488 0.0043 -16.8493 -0.0005
# 4 0.0010 0.0008 0.0043 3.4662 -0.0022 5.3046
# 5 6.4844 -1.0223 -16.8493 -0.0022 17.5558 0.0012
# 6 -0.0015 -0.0024 -0.0005 5.3046 0.0012 24.8731
#
#
#
# Elastic Compliance Matrix: (Units=1/GPa)
#
#
# Indices 1 2 3 4 5 6 
#
# 1 0.015249 -0.008129 -0.001431 -0.000009 -0.007479 0.000002
# 2 -0.008129 0.020460 -0.004328 0.000002 0.000040 0.000001
# 3 -0.001431 -0.004328 0.015930 -0.000011 0.015566 0.000001
# 4 -0.000009 0.000002 -0.000011 0.428277 0.000052 -0.091337
# 5 -0.007479 0.000040 0.015566 0.000052 0.074665 -0.000015
# 6 0.000002 0.000001 0.000001 -0.091337 -0.000015 0.059683
#
#
# Mechanical properties :
#
#
# Convention : Reuss Voigt Hill
#
# Bulk Modulus (GPa) = 41.90318 43.79294 42.84806
# Shear Modulus (GPa) = 7.69237 20.65824 14.17531
#
# Velocity S-wave (km/s) = 1.93556 3.17192 2.62750
# Velocity P-wave (km/s) = 5.04015 5.89432 5.48389
#
# Compressibility (1/GPa) = 0.02386454
#
# Stress axis : x y z
#
# Youngs Moduli (GPa) = 65.57847 48.87478 62.77392
#
# Poissons Ratio (x) = 0.39728 0.08981
# Poissons Ratio (y) = 0.53306 0.27170
# Poissons Ratio (z) = 0.09383 0.21154
#
# Static dielectric constant tensor:
#      x y z
#    x 3.916400 -0.000010 -0.432890 
#    y -0.000010 3.791920 0.000000 
#    z -0.432890 0.000000 3.255860 
# 
# 
# High freq. dielectric constant tensor:
#      x y z
#    x 1.800740 0.000000 -0.026210 
#    y 0.000000 1.806660 0.000000 
#    z -0.026210 0.000000 1.752920 
# 
# From -- ./inp_files/45016.got.cif
#   From: 2010.06.25/outbox.cif.g09.slc.cpg/sg12_23_cif.got.tgz:45016.got - 2010.06.28 00:19:55.
