data_PCOD8109758
_publ_section_title
;
Structure prediction by ZEFSAII (Michael W. Deem and Ramdas Pophale) SiO2 
 PCOD8109758
Probable space group: C 2/M
;
_chemical_formula_sum "Si O2"
_cell_formula_units_Z 40
_cell_length_a 7.167675
_cell_length_b 30.767425
_cell_length_c 11.199578
_cell_angle_alpha 90.000000
_cell_angle_beta 129.583513
_cell_angle_gamma 90.000000
_cell_volume 1903.507425
_symmetry_space_group_name_H-M "C 2/M"
_symmetry_group_IT_number 12
_symmetry_cell_setting 'monoclinic'
loop_
_space_group_symop_operation_xyz
x,y,z
-x,y,-z
-x,-y,-z
x,-y,z
1/2+x,1/2+y,z
1/2-x,1/2+y,-z
1/2-x,1/2-y,-z
1/2+x,1/2-y,z
loop_
_atom_site_type_symbol
_atom_site_label
_atom_site_fract_x
_atom_site_fract_y
_atom_site_fract_z
Si Si1 0.060764 0.594059 0.653424
Si Si2 0.601280 0.373992 0.851238
Si Si3 0.852309 0.297962 0.054429
Si Si4 0.266332 0.047322 0.058382
Si Si5 0.254554 0.660989 0.346875
O O1 0.317995 0.617758 0.748591
O O2 0.059762 0.558745 0.758807
O O3 0.000000 0.572438 0.500000
O O4 0.847819 0.627943 0.596603
O O5 0.679481 0.363400 0.748728
O O6 0.644070 0.334729 0.965166
O O7 0.766038 0.415652 0.956163
O O8 0.042844 0.302607 0.241730
O O9 0.750000 0.250000 0.000000
O O10 0.000000 0.310589 0.000000
O O11 0.346191 0.000000 0.039227
O O12 0.000000 0.043782 0.000000
O O13 0.500000 0.682677 0.500000
#
# Coordination Sequence:
#
# PCOD8109758 Si02
#       5
#     8   8   8   8   8
#     4  11  21  36  64  88 121 169 200 249 314 365
#     4  10  21  40  62  89 120 163 209 252 303 364
#     4  10  23  39  63  91 119 157 205 254 302 368
#     4   9  19  36  62  93 122 160 212 258 300 363
#     4  11  22  40  61  90 127 159 204 253 308 366
#
# _framework density 21.013839999999998
#
# number of rings (size 3 to 8) (size 9 to 14) (size 15 to 20)
#    0.000    1.800    4.000    0.000    2.800    0.400 
#    0.000    7.000    0.000    1.200    0.000    0.000 
#    0.000    0.000    0.000    0.000    0.000    0.000 
#
# Total GULP energy -247772.200100 kJ/mol
# GULP energy per Si atom -12388.610005 kJ/mol
# Density = 2.096601 g / cm^3
# Si number density = 21.013840 Si / 1000 Ang^3
#
#
#
# Elastic Constant Matrix: (Units=GPa)
#
#
# Indices 1 2 3 4 5 6 
#
# 1 56.3019 6.6823 22.7183 0.0000 0.2845 0.0000
# 2 6.6823 138.6326 57.4635 0.0000 5.1566 0.0000
# 3 22.7183 57.4635 160.6767 0.0000 6.0328 0.0000
# 4 0.0000 0.0000 0.0000 22.4112 0.0000 26.5050
# 5 0.2845 5.1566 6.0328 0.0000 34.1265 0.0000
# 6 0.0000 0.0000 0.0000 26.5050 0.0000 176.9212
#
#
#
# Elastic Compliance Matrix: (Units=1/GPa)
#
#
# Indices 1 2 3 4 5 6 
#
# 1 0.018845 0.000223 -0.002755 0.000000 0.000296 0.000000
# 2 0.000223 0.008490 -0.003040 0.000000 -0.000747 0.000000
# 3 -0.002755 -0.003040 0.007734 0.000000 -0.000885 0.000000
# 4 0.000000 0.000000 0.000000 0.054229 0.000000 -0.008124
# 5 0.000296 -0.000747 -0.000885 0.000000 0.029570 0.000000
# 6 0.000000 0.000000 0.000000 -0.008124 0.000000 0.006869
#
#
# Mechanical properties :
#
#
# Convention : Reuss Voigt Hill
#
# Bulk Modulus (GPa) = 41.79856 58.81549 50.30702
# Shear Modulus (GPa) = 34.51683 64.60825 49.56254
#
# Velocity S-wave (km/s) = 4.05727 5.55088 4.86178
# Velocity P-wave (km/s) = 6.47168 8.31461 7.45035
#
# Compressibility (1/GPa) = 0.02392427
#
# Stress axis : x y z
#
# Youngs Moduli (GPa) = 53.06379 117.77983 129.30517
#
# Poissons Ratio (x) = -0.02623 0.35628
# Poissons Ratio (y) = -0.01182 0.39307
# Poissons Ratio (z) = 0.14621 0.35804
#
# Static dielectric constant tensor:
#      x y z
#    x 4.533190 0.000000 0.932990 
#    y 0.000000 3.570240 0.000000 
#    z 0.932990 0.000000 5.147610 
# 
# 
# High freq. dielectric constant tensor:
#      x y z
#    x 1.828450 0.000000 0.005040 
#    y 0.000000 1.794490 0.000000 
#    z 0.005040 0.000000 1.831580 
# 
# From -- ./inp_files/124712.got.cif
#   From: 2010.06.25/outbox.cif.g09.slc.cpg/sg12_63_cif.got.tgz:124712.got - 2010.06.28 00:19:55.
