data_PCOD8109234
_publ_section_title
;
Structure prediction by ZEFSAII (Michael W. Deem and Ramdas Pophale) SiO2 
 PCOD8109234
Probable space group: C 2/M
;
_chemical_formula_sum "Si O2"
_cell_formula_units_Z 56
_cell_length_a 12.949123
_cell_length_b 23.571637
_cell_length_c 9.003363
_cell_angle_alpha 90.000000
_cell_angle_beta 96.106894
_cell_angle_gamma 90.000000
_cell_volume 2732.519600
_symmetry_space_group_name_H-M "C 2/M"
_symmetry_group_IT_number 12
_symmetry_cell_setting 'monoclinic'
loop_
_space_group_symop_operation_xyz
x,y,z
-x,y,-z
-x,-y,-z
x,-y,z
1/2+x,1/2+y,z
1/2-x,1/2+y,-z
1/2-x,1/2-y,-z
1/2+x,1/2-y,z
loop_
_atom_site_type_symbol
_atom_site_label
_atom_site_fract_x
_atom_site_fract_y
_atom_site_fract_z
Si Si1 0.147960 0.934899 0.383677
Si Si2 0.757766 0.339752 0.217160
Si Si3 0.562003 0.938098 0.157833
Si Si4 0.745199 0.363306 0.870834
Si Si5 0.014857 0.338974 0.662142
Si Si6 0.187467 0.733466 0.339385
Si Si7 0.409518 0.565040 0.295205
O O1 0.227870 0.897318 0.299805
O O2 0.152460 0.921995 0.560382
O O3 0.030738 0.921988 0.319353
O O4 0.177964 0.000000 0.356214
O O5 0.674741 0.291448 0.245407
O O6 0.869254 0.315939 0.291167
O O7 0.760349 0.343833 0.040920
O O8 0.675979 0.913854 0.152087
O O9 0.495591 0.891978 0.232965
O O10 0.571236 0.000000 0.239208
O O11 0.500000 0.947975 0.000000
O O12 0.752942 0.312293 0.753616
O O13 0.633058 0.392519 0.836528
O O14 0.930458 0.288320 0.657978
O O15 0.000000 0.366610 0.500000
O O16 0.250000 0.750000 0.500000
O O17 0.391775 0.500000 0.247107
#
# Coordination Sequence:
#
# PCOD8109234 Si02
#       7
#     8   8   8   8   8   8   8
#     4   9  21  40  65  93 128 167 214 264 315 380
#     4  12  24  42  63  98 124 164 213 263 326 383
#     4  10  21  39  62  94 134 176 207 246 318 388
#     4  11  23  39  64  94 130 167 212 263 320 380
#     4  11  24  43  66  91 130 162 215 272 315 373
#     4  11  24  43  65  88 120 168 215 264 322 378
#     4   9  19  40  64  91 126 169 211 260 315 375
#
# _framework density 20.493905999999999
#
# number of rings (size 3 to 8) (size 9 to 14) (size 15 to 20)
#    0.000    1.571    2.857    2.571    2.000    3.714 
#    2.571    2.857    0.000    0.000    0.000    0.000 
#    0.000    0.000    0.000    0.000    0.000    0.000 
#
# Total GULP energy -347017.005022 kJ/mol
# GULP energy per Si atom -12393.464465 kJ/mol
# Density = 2.044726 g / cm^3
# Si number density = 20.493906 Si / 1000 Ang^3
#
#
#
# Elastic Constant Matrix: (Units=GPa)
#
#
# Indices 1 2 3 4 5 6 
#
# 1 91.9075 53.5220 44.9980 0.0000 4.1742 0.0000
# 2 53.5220 119.5846 33.4027 0.0000 3.9962 0.0000
# 3 44.9980 33.4027 90.6923 0.0000 12.6155 0.0000
# 4 0.0000 0.0000 0.0000 22.1823 0.0000 11.2788
# 5 4.1742 3.9962 12.6155 0.0000 31.4301 0.0000
# 6 0.0000 0.0000 0.0000 11.2788 0.0000 19.8594
#
#
#
# Elastic Compliance Matrix: (Units=1/GPa)
#
#
# Indices 1 2 3 4 5 6 
#
# 1 0.017625 -0.006063 -0.006665 0.000000 0.001105 0.000000
# 2 -0.006063 0.011408 -0.001169 0.000000 -0.000176 0.000000
# 3 -0.006665 -0.001169 0.015485 0.000000 -0.005181 0.000000
# 4 0.000000 0.000000 0.000000 0.063385 0.000000 -0.035998
# 5 0.001105 -0.000176 -0.005181 0.000000 0.033772 0.000000
# 6 0.000000 0.000000 0.000000 -0.035998 0.000000 0.070799
#
#
# Mechanical properties :
#
#
# Convention : Reuss Voigt Hill
#
# Bulk Modulus (GPa) = 59.79938 62.89220 61.34579
# Shear Modulus (GPa) = 20.33826 26.04513 23.19170
#
# Velocity S-wave (km/s) = 3.15366 3.56880 3.36763
# Velocity P-wave (km/s) = 6.51945 6.90917 6.71714
#
# Compressibility (1/GPa) = 0.01672258
#
# Stress axis : x y z
#
# Youngs Moduli (GPa) = 56.73900 87.65460 64.58030
#
# Poissons Ratio (x) = 0.53148 0.43044
# Poissons Ratio (y) = 0.34403 0.07549
# Poissons Ratio (z) = 0.37818 0.10246
#
# Static dielectric constant tensor:
#      x y z
#    x 3.701760 0.000000 0.020080 
#    y 0.000000 3.778360 0.000000 
#    z 0.020080 0.000000 3.668530 
# 
# 
# High freq. dielectric constant tensor:
#      x y z
#    x 1.800890 0.000000 0.007120 
#    y 0.000000 1.809220 0.000000 
#    z 0.007120 0.000000 1.801260 
# 
# From -- ./inp_files/64083.got.cif
#   From: 2010.06.25/outbox.cif.g09.slc.cpg/sg12_33_cif.got.tgz:64083.got - 2010.06.28 00:19:55.
