data_PCOD8109073
_publ_section_title
;
Structure prediction by ZEFSAII (Michael W. Deem and Ramdas Pophale) SiO2 
 PCOD8109073
Probable space group: C 2/M
;
_chemical_formula_sum "Si O2"
_cell_formula_units_Z 52
_cell_length_a 17.030849
_cell_length_b 18.126351
_cell_length_c 8.803244
_cell_angle_alpha 90.000000
_cell_angle_beta 100.769448
_cell_angle_gamma 90.000000
_cell_volume 2669.758899
_symmetry_space_group_name_H-M "C 2/M"
_symmetry_group_IT_number 12
_symmetry_cell_setting 'monoclinic'
loop_
_space_group_symop_operation_xyz
x,y,z
-x,y,-z
-x,-y,-z
x,-y,z
1/2+x,1/2+y,z
1/2-x,1/2+y,-z
1/2-x,1/2-y,-z
1/2+x,1/2-y,z
loop_
_atom_site_type_symbol
_atom_site_label
_atom_site_fract_x
_atom_site_fract_y
_atom_site_fract_z
Si Si1 0.801694 0.729621 0.373807
Si Si2 0.024031 0.247959 0.177030
Si Si3 0.828361 0.000000 0.669669
Si Si4 0.849370 0.000000 0.341661
Si Si5 0.874734 0.848739 0.198110
Si Si6 0.929277 0.366096 0.574701
Si Si7 0.315038 0.000000 0.583405
Si Si8 0.330605 0.648924 0.837076
O O1 0.750000 0.750000 0.500000
O O2 0.816050 0.804720 0.287931
O O3 0.884489 0.693301 0.453610
O O4 0.757607 0.671881 0.247521
O O5 0.029757 0.323690 0.270962
O O6 0.109295 0.208462 0.210976
O O7 0.960075 0.191106 0.222904
O O8 0.000000 0.271597 0.000000
O O9 0.853055 0.930287 0.778273
O O10 0.877774 0.000000 0.528550
O O11 0.732987 0.000000 0.594858
O O12 0.885920 0.070073 0.269502
O O13 0.751190 0.000000 0.304493
O O14 0.833811 0.854108 0.019293
O O15 0.869654 0.427771 0.616874
O O16 0.000000 0.402669 0.500000
#
# Coordination Sequence:
#
# PCOD8109073 Si02
#       8
#     8   8   4   4   8   8   4   8
#     4  12  21  37  64  93 120 168 216 264 313 373
#     4  10  24  41  63  94 131 167 210 262 326 381
#     4  10  21  39  61  92 120 163 215 252 325 366
#     4  10  23  41  63  90 132 163 216 265 307 393
#     4  11  23  41  60  96 128 167 214 260 324 380
#     4  12  22  40  67  90 129 162 216 264 315 380
#     4  10  23  42  63  95 123 166 211 264 317 364
#     4  11  22  39  64  89 131 168 207 271 318 382
#
# _framework density 19.477415000000001
#
# number of rings (size 3 to 8) (size 9 to 14) (size 15 to 20)
#    0.462    0.615    4.615    3.000    0.000    0.615 
#    0.000    3.462    0.000    0.000    0.000    0.000 
#    0.000    0.000    0.000    0.000    0.000    0.000 
#
# Total GULP energy -322472.248005 kJ/mol
# GULP energy per Si atom -12402.778769 kJ/mol
# Density = 1.943308 g / cm^3
# Si number density = 19.477415 Si / 1000 Ang^3
#
#
#
# Elastic Constant Matrix: (Units=GPa)
#
#
# Indices 1 2 3 4 5 6 
#
# 1 65.4264 8.8990 36.1107 0.0000 -6.2118 0.0000
# 2 8.8990 101.4585 52.8165 0.0000 -5.2196 0.0000
# 3 36.1107 52.8165 109.0756 0.0000 -6.8804 0.0000
# 4 0.0000 0.0000 0.0000 30.3215 0.0000 -2.8806
# 5 -6.2118 -5.2196 -6.8804 0.0000 31.7794 0.0000
# 6 0.0000 0.0000 0.0000 -2.8806 0.0000 31.9191
#
#
#
# Elastic Compliance Matrix: (Units=1/GPa)
#
#
# Indices 1 2 3 4 5 6 
#
# 1 0.019249 0.002242 -0.007297 0.000000 0.002551 0.000000
# 2 0.002242 0.013459 -0.007190 0.000000 0.001092 0.000000
# 3 -0.007297 -0.007190 0.015107 0.000000 0.000664 0.000000
# 4 0.000000 0.000000 0.000000 0.033265 0.000000 0.003002
# 5 0.002551 0.001092 0.000664 0.000000 0.032288 0.000000
# 6 0.000000 0.000000 0.000000 0.003002 0.000000 0.031600
#
#
# Mechanical properties :
#
#
# Convention : Reuss Voigt Hill
#
# Bulk Modulus (GPa) = 42.87500 52.40143 47.63821
# Shear Modulus (GPa) = 28.21111 30.67965 29.44538
#
# Velocity S-wave (km/s) = 3.80992 3.97311 3.89237
# Velocity P-wave (km/s) = 6.43540 6.92889 6.68670
#
# Compressibility (1/GPa) = 0.02332362
#
# Stress axis : x y z
#
# Youngs Moduli (GPa) = 51.95031 74.30050 66.19333
#
# Poissons Ratio (x) = -0.16655 0.48302
# Poissons Ratio (y) = -0.11645 0.47595
# Poissons Ratio (z) = 0.37909 0.53424
#
# Static dielectric constant tensor:
#      x y z
#    x 3.572610 0.000000 0.023750 
#    y 0.000000 3.453620 0.000000 
#    z 0.023750 0.000000 3.579840 
# 
# 
# High freq. dielectric constant tensor:
#      x y z
#    x 1.759080 0.000000 -0.001270 
#    y 0.000000 1.759890 0.000000 
#    z -0.001270 0.000000 1.761140 
# 
# From -- ./inp_files/75342.got.cif
#   From: 2010.06.25/outbox.cif.g09.slc.cpg/sg12_38_cif.got.tgz:75342.got - 2010.06.28 00:19:55.
