data_PCOD8109729
_publ_section_title
;
Structure prediction by ZEFSAII (Michael W. Deem and Ramdas Pophale) SiO2 
 PCOD8109729
Probable space group: C 2/M
;
_chemical_formula_sum "Si O2"
_cell_formula_units_Z 48
_cell_length_a 31.298192
_cell_length_b 7.621440
_cell_length_c 20.872601
_cell_angle_alpha 90.000000
_cell_angle_beta 151.608748
_cell_angle_gamma 90.000000
_cell_volume 2367.413669
_symmetry_space_group_name_H-M "C 2/M"
_symmetry_group_IT_number 12
_symmetry_cell_setting 'monoclinic'
loop_
_space_group_symop_operation_xyz
x,y,z
-x,y,-z
-x,-y,-z
x,-y,z
1/2+x,1/2+y,z
1/2-x,1/2+y,-z
1/2-x,1/2-y,-z
1/2+x,1/2-y,z
loop_
_atom_site_type_symbol
_atom_site_label
_atom_site_fract_x
_atom_site_fract_y
_atom_site_fract_z
Si Si1 0.102602 0.500000 0.555393
Si Si2 0.510034 0.703512 0.773296
Si Si3 0.604311 0.000000 0.695820
Si Si4 0.656384 0.707312 0.530067
Si Si5 0.979364 0.700190 0.068307
Si Si6 0.357850 0.207519 0.796642
Si Si7 0.850225 0.205748 0.149831
O O1 0.152785 0.500000 0.690156
O O2 0.122985 0.319915 0.545731
O O3 0.001274 0.500000 0.443063
O O4 0.522705 0.500000 0.799933
O O5 0.408867 0.749732 0.616388
O O6 0.531908 0.786523 0.870752
O O7 0.582318 0.772338 0.817127
O O8 0.633842 0.181658 0.766457
O O9 0.650650 0.500000 0.539781
O O10 0.757346 0.775996 0.648739
O O11 0.984371 0.500000 0.054398
O O12 0.073974 0.782440 0.167995
O O13 0.894753 0.775593 0.915220
O O14 0.350144 0.000000 0.784765
O O15 0.865211 0.000000 0.183935
O O16 0.750000 0.250000 0.000000
#
# Coordination Sequence:
#
# PCOD8109729 Si02
#       7
#     4   8   4   8   8   8   8
#     4  11  24  40  64  89 118 162 208 249 298 376
#     4  10  22  37  56  86 118 153 197 244 299 358
#     4  11  24  42  62  92 122 153 210 254 300 362
#     4  10  21  40  62  84 123 160 199 253 300 354
#     4   9  18  34  61  85 114 157 199 242 299 360
#     4   8  17  37  57  84 120 156 196 245 297 356
#     4  11  23  41  64  89 124 161 196 253 306 358
#
# _framework density 20.275289999999998
#
# number of rings (size 3 to 8) (size 9 to 14) (size 15 to 20)
#    0.000    2.167    2.500    1.000    2.333    2.667 
#    3.000    4.167    0.000    0.000    0.000    0.000 
#    0.000    0.000    0.000    0.000    0.000    0.000 
#
# Total GULP energy -297355.285441 kJ/mol
# GULP energy per Si atom -12389.803560 kJ/mol
# Density = 2.022914 g / cm^3
# Si number density = 20.275290 Si / 1000 Ang^3
#
#
#
# Elastic Constant Matrix: (Units=GPa)
#
#
# Indices 1 2 3 4 5 6 
#
# 1 59.5317 17.9818 47.0951 0.0000 -15.3329 0.0000
# 2 17.9818 64.4834 12.3690 0.0000 -9.6760 -0.0001
# 3 47.0951 12.3690 121.5861 0.0000 6.0069 0.0000
# 4 0.0000 0.0000 0.0000 -2.3557 0.0000 43.0264
# 5 -15.3329 -9.6760 6.0069 0.0000 43.4649 0.0000
# 6 0.0000 -0.0001 0.0000 43.0264 0.0000 -60.4446
#
#
#
# Elastic Compliance Matrix: (Units=1/GPa)
#
#
# Indices 1 2 3 4 5 6 
#
# 1 0.030546 -0.004515 -0.011936 0.000000 0.011420 0.000000
# 2 -0.004515 0.017122 -0.000103 0.000000 0.002233 0.000000
# 3 -0.011936 -0.000103 0.013158 0.000000 -0.006052 0.000000
# 4 0.000000 0.000000 0.000000 0.035371 0.000000 0.025178
# 5 0.011420 0.002233 -0.006052 0.000000 0.028369 0.000000
# 6 0.000000 0.000000 0.000000 0.025178 0.000000 0.001379
#
#
# Mechanical properties :
#
#
# Convention : Reuss Voigt Hill
#
# Bulk Modulus (GPa) = 36.08040 44.49923 40.28981
# Shear Modulus (GPa) = 29.71037 7.34326 18.52681
#
# Velocity S-wave (km/s) = 3.83214 1.90516 3.02613
# Velocity P-wave (km/s) = 6.11672 5.18022 5.66785
#
# Compressibility (1/GPa) = 0.02771588
#
# Stress axis : x y z
#
# Youngs Moduli (GPa) = 32.73787 58.40519 76.00156
#
# Poissons Ratio (x) = 0.26368 0.90719
# Poissons Ratio (y) = 0.14780 0.00786
# Poissons Ratio (z) = 0.39077 0.00604
#
# Static dielectric constant tensor:
#      x y z
#    x 3.800530 0.000000 0.265240 
#    y 0.000000 3.524090 0.000000 
#    z 0.265240 0.000000 3.716720 
# 
# 
# High freq. dielectric constant tensor:
#      x y z
#    x 1.783490 0.000000 0.007040 
#    y 0.000000 1.784640 0.000000 
#    z 0.007040 0.000000 1.802670 
# 
# From -- ./inp_files/295919.got.cif
#   From: 2010.06.25/outbox.cif.g09.slc.cpg/sg12_148_cif.got.tgz:295919.got - 2010.06.28 00:19:55.
