data_PCOD8109121
_publ_section_title
;
Structure prediction by ZEFSAII (Michael W. Deem and Ramdas Pophale) SiO2 
 PCOD8109121
Probable space group: C 2/M
;
_chemical_formula_sum "Si O2"
_cell_formula_units_Z 48
_cell_length_a 26.908264
_cell_length_b 8.889783
_cell_length_c 15.273888
_cell_angle_alpha 90.000000
_cell_angle_beta 139.570629
_cell_angle_gamma 90.000000
_cell_volume 2369.426548
_symmetry_space_group_name_H-M "C 2/M"
_symmetry_group_IT_number 12
_symmetry_cell_setting 'monoclinic'
loop_
_space_group_symop_operation_xyz
x,y,z
-x,y,-z
-x,-y,-z
x,-y,z
1/2+x,1/2+y,z
1/2-x,1/2+y,-z
1/2-x,1/2-y,-z
1/2+x,1/2-y,z
loop_
_atom_site_type_symbol
_atom_site_label
_atom_site_fract_x
_atom_site_fract_y
_atom_site_fract_z
Si Si1 0.468584 0.676006 0.053118
Si Si2 0.450994 0.827259 0.348404
Si Si3 0.307644 0.177774 0.830804
Si Si4 0.209434 0.176114 0.864107
Si Si5 0.271325 0.175264 0.438058
Si Si6 0.552986 0.826039 0.319690
O O1 0.451205 0.500000 0.038056
O O2 0.532338 0.723818 0.209018
O O3 0.500000 0.718439 0.000000
O O4 0.391958 0.768293 0.970440
O O5 0.500000 0.798879 0.500000
O O6 0.378694 0.720097 0.256938
O O7 0.500323 0.780440 0.330554
O O8 0.423931 0.000000 0.305657
O O9 0.250164 0.230267 0.829886
O O10 0.282179 0.254214 0.707245
O O11 0.307838 0.000000 0.818218
O O12 0.217604 0.000000 0.886214
O O13 0.250000 0.250000 0.000000
O O14 0.250000 0.250000 0.500000
O O15 0.359982 0.206290 0.535050
O O16 0.252589 0.000000 0.418243
O O17 0.542016 0.000000 0.278956
#
# Coordination Sequence:
#
# PCOD8109121 Si02
#       6
#     8   8   8   8   8   8
#     4  11  24  40  60  87 117 152 196 244 294 348
#     4  10  21  39  62  87 117 154 195 238 289 351
#     4  11  24  41  61  87 120 157 198 243 292 350
#     4  11  24  40  60  88 120 155 197 245 295 348
#     4  11  23  40  63  90 121 157 197 242 293 349
#     4  10  22  39  60  87 118 154 194 238 291 349
#
# _framework density 20.258067
#
# number of rings (size 3 to 8) (size 9 to 14) (size 15 to 20)
#    0.000    1.333    0.000    5.000    0.000   14.333 
#    0.000    0.000    0.000    0.000    0.000    0.000 
#    0.000    0.000    0.000    0.000    0.000    0.000 
#
# Total GULP energy -297785.302161 kJ/mol
# GULP energy per Si atom -12407.720923 kJ/mol
# Density = 2.021196 g / cm^3
# Si number density = 20.258067 Si / 1000 Ang^3
#
#
#
# Elastic Constant Matrix: (Units=GPa)
#
#
# Indices 1 2 3 4 5 6 
#
# 1 100.8318 39.7257 10.2552 0.0000 -2.7477 0.0000
# 2 39.7257 69.8166 27.1927 0.0000 -5.0946 0.0000
# 3 10.2552 27.1927 71.7050 0.0000 -8.5471 0.0000
# 4 0.0000 0.0000 0.0000 32.5166 0.0000 3.8445
# 5 -2.7477 -5.0946 -8.5471 0.0000 43.4800 0.0000
# 6 0.0000 0.0000 0.0000 3.8445 0.0000 32.8695
#
#
#
# Elastic Compliance Matrix: (Units=1/GPa)
#
#
# Indices 1 2 3 4 5 6 
#
# 1 0.012857 -0.007739 0.001111 0.000000 0.000124 0.000000
# 2 -0.007739 0.021487 -0.006963 0.000000 0.000660 0.000000
# 3 0.001111 -0.006963 0.016731 0.000000 0.002543 0.000000
# 4 0.000000 0.000000 0.000000 0.031185 0.000000 -0.003647
# 5 0.000124 0.000660 0.002543 0.000000 0.023584 0.000000
# 6 0.000000 0.000000 0.000000 -0.003647 0.000000 0.030850
#
#
# Mechanical properties :
#
#
# Convention : Reuss Voigt Hill
#
# Bulk Modulus (GPa) = 41.85461 44.07784 42.96622
# Shear Modulus (GPa) = 29.09673 32.78521 30.94097
#
# Velocity S-wave (km/s) = 3.79397 4.02727 3.91236
# Velocity P-wave (km/s) = 6.31647 6.59019 6.45478
#
# Compressibility (1/GPa) = 0.02389223
#
# Stress axis : x y z
#
# Youngs Moduli (GPa) = 77.77855 46.53964 59.76978
#
# Poissons Ratio (x) = 0.36018 -0.06640
# Poissons Ratio (y) = 0.60195 0.41618
# Poissons Ratio (z) = -0.08641 0.32406
#
# Static dielectric constant tensor:
#      x y z
#    x 3.869840 0.000000 0.035860 
#    y 0.000000 3.706720 0.000000 
#    z 0.035860 0.000000 3.704670 
# 
# 
# High freq. dielectric constant tensor:
#      x y z
#    x 1.808760 0.000000 -0.000730 
#    y 0.000000 1.795010 0.000000 
#    z -0.000730 0.000000 1.806170 
# 
# From -- ./inp_files/244913.got.cif
#   From: 2010.06.25/outbox.cif.g09.slc.cpg/sg12_123_cif.got.tgz:244913.got - 2010.06.28 00:19:55.
