data_PCOD8109156
_publ_section_title
;
Structure prediction by ZEFSAII (Michael W. Deem and Ramdas Pophale) SiO2 
 PCOD8109156
Probable space group: C 2/M
;
_chemical_formula_sum "Si O2"
_cell_formula_units_Z 48
_cell_length_a 19.874727
_cell_length_b 8.986194
_cell_length_c 32.698547
_cell_angle_alpha 90.000000
_cell_angle_beta 155.451908
_cell_angle_gamma 90.000000
_cell_volume 2426.226698
_symmetry_space_group_name_H-M "C 2/M"
_symmetry_group_IT_number 12
_symmetry_cell_setting 'monoclinic'
loop_
_space_group_symop_operation_xyz
x,y,z
-x,y,-z
-x,-y,-z
x,-y,z
1/2+x,1/2+y,z
1/2-x,1/2+y,-z
1/2-x,1/2-y,-z
1/2+x,1/2-y,z
loop_
_atom_site_type_symbol
_atom_site_label
_atom_site_fract_x
_atom_site_fract_y
_atom_site_fract_z
Si Si1 0.669040 0.672750 0.573411
Si Si2 0.051210 0.327352 0.208261
Si Si3 0.406708 0.674859 0.853799
Si Si4 0.674694 0.324819 0.786027
Si Si5 0.695894 0.675027 0.428572
Si Si6 0.231580 0.173512 0.080216
O O1 0.500000 0.718491 0.500000
O O2 0.672168 0.500000 0.562789
O O3 0.811015 0.712085 0.683167
O O4 0.687870 0.768783 0.543076
O O5 0.056643 0.500000 0.198392
O O6 0.078988 0.225442 0.184714
O O7 0.879677 0.283256 0.132826
O O8 0.377656 0.500000 0.839074
O O9 0.253621 0.754966 0.789331
O O10 0.568740 0.720639 0.967291
O O11 0.697524 0.500000 0.796822
O O12 0.487273 0.278024 0.683263
O O13 0.763090 0.263691 0.874947
O O14 0.714393 0.500000 0.443619
O O15 0.750000 0.750000 0.500000
O O16 0.235495 0.000000 0.093638
#
# Coordination Sequence:
#
# PCOD8109156 Si02
#       6
#     8   8   8   8   8   8
#     4  10  22  41  66  93 122 157 196 245 305 363
#     4  10  21  39  62  88 124 162 198 247 303 357
#     4  11  24  38  59  91 125 161 204 250 296 355
#     4  11  24  41  62  89 122 159 202 250 301 357
#     4  11  25  43  65  92 121 157 201 248 300 360
#     4  10  21  40  63  88 120 162 205 247 302 358
#
# _framework density 19.783806999999999
#
# number of rings (size 3 to 8) (size 9 to 14) (size 15 to 20)
#    0.000    1.500    1.667    2.500    2.333    7.000 
#    0.000    0.000    0.000    0.000    0.000    0.000 
#    0.000    0.000    0.000    0.000    0.000    0.000 
#
# Total GULP energy -297784.565351 kJ/mol
# GULP energy per Si atom -12407.690223 kJ/mol
# Density = 1.973878 g / cm^3
# Si number density = 19.783807 Si / 1000 Ang^3
#
#
#
# Elastic Constant Matrix: (Units=GPa)
#
#
# Indices 1 2 3 4 5 6 
#
# 1 129.4167 53.5530 52.8518 -0.0005 0.4326 0.0011
# 2 53.5530 64.1094 44.4943 -0.0022 1.1855 0.0016
# 3 52.8518 44.4943 83.7862 -0.0026 3.1349 0.0007
# 4 -0.0005 -0.0022 -0.0026 23.5532 0.0004 -5.6920
# 5 0.4326 1.1855 3.1349 0.0004 33.3179 -0.0004
# 6 0.0011 0.0016 0.0007 -5.6920 -0.0004 44.9573
#
#
#
# Elastic Compliance Matrix: (Units=1/GPa)
#
#
# Indices 1 2 3 4 5 6 
#
# 1 0.012502 -0.007866 -0.003727 -0.000001 0.000468 0.000000
# 2 -0.007866 0.029656 -0.010789 0.000001 0.000062 0.000000
# 3 -0.003727 -0.010789 0.020070 0.000001 -0.001456 0.000000
# 4 -0.000001 0.000001 0.000001 0.043797 -0.000001 0.005545
# 5 0.000468 0.000062 -0.001456 -0.000001 0.030143 0.000000
# 6 0.000000 0.000000 0.000000 0.005545 0.000000 0.022945
#
#
# Mechanical properties :
#
#
# Convention : Reuss Voigt Hill
#
# Bulk Modulus (GPa) = 57.25881 64.34562 60.80221
# Shear Modulus (GPa) = 23.84373 28.79321 26.31847
#
# Velocity S-wave (km/s) = 3.47539 3.81910 3.65129
# Velocity P-wave (km/s) = 6.71636 7.21404 6.96964
#
# Compressibility (1/GPa) = 0.01746456
#
# Stress axis : x y z
#
# Youngs Moduli (GPa) = 79.98562 33.72003 49.82539
#
# Poissons Ratio (x) = 0.26523 0.18569
# Poissons Ratio (y) = 0.62915 0.53758
# Poissons Ratio (z) = 0.29809 0.36382
#
# Static dielectric constant tensor:
#      x y z
#    x 3.665250 0.000000 0.116550 
#    y 0.000000 3.540520 0.000000 
#    z 0.116550 0.000000 3.790190 
# 
# 
# High freq. dielectric constant tensor:
#      x y z
#    x 1.786870 0.000000 0.003470 
#    y 0.000000 1.770760 0.000000 
#    z 0.003470 0.000000 1.781930 
# 
# From -- ./inp_files/244748.got.cif
#   From: 2010.06.25/outbox.cif.g09.slc.cpg/sg12_123_cif.got.tgz:244748.got - 2010.06.28 00:19:55.
