data_PCOD8109511
_publ_section_title
;
Structure prediction by ZEFSAII (Michael W. Deem and Ramdas Pophale) SiO2 
 PCOD8109511
Probable space group: C 2/M
;
_chemical_formula_sum "Si O2"
_cell_formula_units_Z 48
_cell_length_a 11.296236
_cell_length_b 22.617790
_cell_length_c 11.462392
_cell_angle_alpha 90.000000
_cell_angle_beta 132.785698
_cell_angle_gamma 90.000000
_cell_volume 2149.293566
_symmetry_space_group_name_H-M "C 2/M"
_symmetry_group_IT_number 12
_symmetry_cell_setting 'monoclinic'
loop_
_space_group_symop_operation_xyz
x,y,z
-x,y,-z
-x,-y,-z
x,-y,z
1/2+x,1/2+y,z
1/2-x,1/2+y,-z
1/2-x,1/2-y,-z
1/2+x,1/2-y,z
loop_
_atom_site_type_symbol
_atom_site_label
_atom_site_fract_x
_atom_site_fract_y
_atom_site_fract_z
Si Si1 0.939944 0.566043 0.146286
Si Si2 0.804343 0.934824 0.406778
Si Si3 0.113068 0.929129 0.288396
Si Si4 0.858789 0.358627 0.311027
Si Si5 0.312456 0.618432 0.182306
Si Si6 0.691903 0.246045 0.096166
O O1 0.889260 0.500000 0.154800
O O2 0.924005 0.615060 0.235228
O O3 0.125408 0.566522 0.234727
O O4 0.845442 0.584299 0.966996
O O5 0.807701 0.906043 0.537064
O O6 0.899404 0.906600 0.359374
O O7 0.872682 0.000000 0.470334
O O8 0.227462 0.906488 0.263539
O O9 0.942600 0.893773 0.165888
O O10 0.091386 0.000000 0.261972
O O11 0.775113 0.296162 0.229733
O O12 0.000000 0.349975 0.500000
O O13 0.268689 0.684676 0.187675
O O14 0.500000 0.247130 0.000000
O O15 0.750000 0.250000 0.000000
#
# Coordination Sequence:
#
# PCOD8109511 Si02
#       6
#     8   8   8   8   8   8
#     4  11  22  39  67  99 135 179 227 286 351 418
#     4  10  21  39  64  98 138 179 223 282 354 422
#     4  11  24  43  69 104 146 184 230 297 365 428
#     4  12  26  45  69 102 138 185 241 293 355 427
#     4  12  24  42  68 100 138 183 239 291 352 428
#     4  12  27  50  74 100 145 194 244 303 360 422
#
# _framework density 22.332919
#
# number of rings (size 3 to 8) (size 9 to 14) (size 15 to 20)
#    0.000    0.667    3.333    5.000    0.000    4.667 
#    0.000    4.167    0.000    0.000    0.000    0.000 
#    0.000    0.000    0.000    0.000    0.000    0.000 
#
# Total GULP energy -297400.263423 kJ/mol
# GULP energy per Si atom -12391.677643 kJ/mol
# Density = 2.228209 g / cm^3
# Si number density = 22.332919 Si / 1000 Ang^3
#
#
#
# Elastic Constant Matrix: (Units=GPa)
#
#
# Indices 1 2 3 4 5 6 
#
# 1 105.9458 23.4320 4.2238 0.0000 5.2130 0.0000
# 2 23.4320 124.4855 18.0783 0.0000 12.2597 0.0000
# 3 4.2238 18.0783 60.3691 0.0000 -2.5545 0.0000
# 4 0.0000 0.0000 0.0000 34.0544 0.0000 1.1792
# 5 5.2130 12.2597 -2.5545 0.0000 35.2816 0.0000
# 6 0.0000 0.0000 0.0000 1.1792 0.0000 34.9838
#
#
#
# Elastic Compliance Matrix: (Units=1/GPa)
#
#
# Indices 1 2 3 4 5 6 
#
# 1 0.009875 -0.001743 -0.000206 0.000000 -0.000868 0.000000
# 2 -0.001743 0.009061 -0.002722 0.000000 -0.003088 0.000000
# 3 -0.000206 -0.002722 0.017489 0.000000 0.002242 0.000000
# 4 0.000000 0.000000 0.000000 0.029399 0.000000 -0.000991
# 5 -0.000868 -0.003088 0.002242 0.000000 0.029707 0.000000
# 6 0.000000 0.000000 0.000000 -0.000991 0.000000 0.028618
#
#
# Mechanical properties :
#
#
# Convention : Reuss Voigt Hill
#
# Bulk Modulus (GPa) = 36.92347 42.47427 39.69887
# Shear Modulus (GPa) = 35.08304 37.20172 36.14238
#
# Velocity S-wave (km/s) = 3.96777 4.08582 4.02723
# Velocity P-wave (km/s) = 6.12863 6.42795 6.28007
#
# Compressibility (1/GPa) = 0.02708304
#
# Stress axis : x y z
#
# Youngs Moduli (GPa) = 101.26267 110.36745 57.17821
#
# Poissons Ratio (x) = 0.19242 0.01175
# Poissons Ratio (y) = 0.17655 0.15564
# Poissons Ratio (z) = 0.02082 0.30042
#
# Static dielectric constant tensor:
#      x y z
#    x 4.165000 0.000000 0.171940 
#    y 0.000000 4.107700 0.000000 
#    z 0.171940 0.000000 4.131060 
# 
# 
# High freq. dielectric constant tensor:
#      x y z
#    x 1.901550 0.000000 0.007680 
#    y 0.000000 1.871320 0.000000 
#    z 0.007680 0.000000 1.895010 
# 
# From -- ./inp_files/133740.got.cif
#   From: 2010.06.25/outbox.cif.g09.slc.cpg/sg12_67_cif.got.tgz:133740.got - 2010.06.28 00:19:55.
