data_PCOD8109670
_publ_section_title
;
Structure prediction by ZEFSAII (Michael W. Deem and Ramdas Pophale) SiO2 
 PCOD8109670
Probable space group: C 2/M
;
_chemical_formula_sum "Si O2"
_cell_formula_units_Z 56
_cell_length_a 8.287975
_cell_length_b 23.405375
_cell_length_c 15.377108
_cell_angle_alpha 90.000000
_cell_angle_beta 116.192864
_cell_angle_gamma 90.000000
_cell_volume 2676.596035
_symmetry_space_group_name_H-M "C 2/M"
_symmetry_group_IT_number 12
_symmetry_cell_setting 'monoclinic'
loop_
_space_group_symop_operation_xyz
x,y,z
-x,y,-z
-x,-y,-z
x,-y,z
1/2+x,1/2+y,z
1/2-x,1/2+y,-z
1/2-x,1/2-y,-z
1/2+x,1/2-y,z
loop_
_atom_site_type_symbol
_atom_site_label
_atom_site_fract_x
_atom_site_fract_y
_atom_site_fract_z
Si Si1 0.389472 0.266795 0.885945
Si Si2 0.886070 0.179846 0.604672
Si Si3 0.224954 0.435570 0.874120
Si Si4 0.013592 0.670546 0.808361
Si Si5 0.022217 0.128691 0.199562
Si Si6 0.797666 0.435374 0.939596
Si Si7 0.258903 0.804993 0.607501
O O1 0.195571 0.292875 0.857904
O O2 0.375923 0.203236 0.840577
O O3 0.495263 0.308006 0.844162
O O4 0.500000 0.263050 0.000000
O O5 0.779838 0.160705 0.491726
O O6 0.785512 0.237523 0.606376
O O7 0.884076 0.133473 0.682653
O O8 0.093264 0.189932 0.633318
O O9 0.167810 0.500000 0.835550
O O10 0.047032 0.395642 0.839260
O O11 0.357687 0.411877 0.832735
O O12 0.306674 0.434408 0.991498
O O13 0.936512 0.668344 0.692316
O O14 0.821371 0.101786 0.156086
O O15 0.810844 0.500000 0.906673
O O16 0.000000 0.410561 0.000000
#
# Coordination Sequence:
#
# PCOD8109670 Si02
#       7
#     8   8   8   8   8   8   8
#     4  11  23  36  51  91 129 162 200 238 318 369
#     4  10  22  37  62  89 123 161 207 254 321 377
#     4  10  23  41  60  86 122 171 214 248 300 364
#     4  11  22  37  61  84 123 165 200 254 303 371
#     4  11  21  37  61  88 121 164 205 257 311 378
#     4  10  22  39  60  89 121 164 217 259 300 361
#     4  10  21  40  58  89 125 161 204 260 310 384
#
# _framework density 20.922094999999999
#
# number of rings (size 3 to 8) (size 9 to 14) (size 15 to 20)
#    0.000    1.571    1.429    3.857    4.000    1.714 
#    0.000    0.000    0.000    2.571    0.000    5.000 
#    0.000    0.000    0.000    0.000    0.000    0.000 
#
# Total GULP energy -347020.844587 kJ/mol
# GULP energy per Si atom -12393.601592 kJ/mol
# Density = 2.087448 g / cm^3
# Si number density = 20.922095 Si / 1000 Ang^3
#
#
#
# Elastic Constant Matrix: (Units=GPa)
#
#
# Indices 1 2 3 4 5 6 
#
# 1 40.6317 19.1730 33.4120 0.0000 -10.5511 0.0000
# 2 19.1730 105.3833 40.4784 0.0000 -2.3295 0.0000
# 3 33.4120 40.4784 164.5192 0.0000 3.0128 0.0000
# 4 0.0000 0.0000 0.0000 27.8161 0.0000 -5.2613
# 5 -10.5511 -2.3295 3.0128 0.0000 24.9514 0.0000
# 6 0.0000 0.0000 0.0000 -5.2613 0.0000 32.5353
#
#
#
# Elastic Compliance Matrix: (Units=1/GPa)
#
#
# Indices 1 2 3 4 5 6 
#
# 1 0.035873 -0.003614 -0.006683 0.000000 0.015639 0.000000
# 2 -0.003614 0.010885 -0.001939 0.000000 -0.000278 0.000000
# 3 -0.006683 -0.001939 0.007985 0.000000 -0.003971 0.000000
# 4 0.000000 0.000000 0.000000 0.037085 0.000000 0.005997
# 5 0.015639 -0.000278 -0.003971 0.000000 0.047145 0.000000
# 6 0.000000 0.000000 0.000000 0.005997 0.000000 0.031706
#
#
# Mechanical properties :
#
#
# Convention : Reuss Voigt Hill
#
# Bulk Modulus (GPa) = 33.03383 55.18457 44.10920
# Shear Modulus (GPa) = 24.36161 31.55861 27.96011
#
# Velocity S-wave (km/s) = 3.41603 3.88801 3.65963
# Velocity P-wave (km/s) = 5.60198 6.82561 6.24384
#
# Compressibility (1/GPa) = 0.03027200
#
# Stress axis : x y z
#
# Youngs Moduli (GPa) = 27.87616 91.86609 125.22990
#
# Poissons Ratio (x) = 0.33201 0.83686
# Poissons Ratio (y) = 0.10075 0.24284
# Poissons Ratio (z) = 0.18628 0.17815
#
# Static dielectric constant tensor:
#      x y z
#    x 3.870020 0.000000 -0.092490 
#    y 0.000000 3.737090 0.000000 
#    z -0.092490 0.000000 4.061410 
# 
# 
# High freq. dielectric constant tensor:
#      x y z
#    x 1.830070 0.000000 -0.001940 
#    y 0.000000 1.791550 0.000000 
#    z -0.001940 0.000000 1.815720 
# 
# From -- ./inp_files/258998.got.cif
#   From: 2010.06.25/outbox.cif.g09.slc.cpg/sg12_130_cif.got.tgz:258998.got - 2010.06.28 00:19:55.
