data_PCOD8109291
_publ_section_title
;
Structure prediction by ZEFSAII (Michael W. Deem and Ramdas Pophale) SiO2 
 PCOD8109291
Probable space group: C 2/M
;
_chemical_formula_sum "Si O2"
_cell_formula_units_Z 56
_cell_length_a 9.184798
_cell_length_b 17.939831
_cell_length_c 17.445080
_cell_angle_alpha 90.000000
_cell_angle_beta 73.665871
_cell_angle_gamma 90.000000
_cell_volume 2758.470422
_symmetry_space_group_name_H-M "C 2/M"
_symmetry_group_IT_number 12
_symmetry_cell_setting 'monoclinic'
loop_
_space_group_symop_operation_xyz
x,y,z
-x,y,-z
-x,-y,-z
x,-y,z
1/2+x,1/2+y,z
1/2-x,1/2+y,-z
1/2-x,1/2-y,-z
1/2+x,1/2-y,z
loop_
_atom_site_type_symbol
_atom_site_label
_atom_site_fract_x
_atom_site_fract_y
_atom_site_fract_z
Si Si1 0.318318 0.914494 0.128151
Si Si2 0.876066 0.411540 0.581187
Si Si3 0.956138 0.680607 0.718267
Si Si4 0.788390 0.831028 0.708153
Si Si5 0.084978 0.687008 0.100821
Si Si6 0.043858 0.913329 0.578946
Si Si7 0.876989 0.154057 0.962450
O O1 0.260465 0.885689 0.217447
O O2 0.455333 0.861912 0.077713
O O3 0.179841 0.907506 0.088963
O O4 0.371640 0.000000 0.126057
O O5 0.885648 0.500000 0.588955
O O6 0.903096 0.377645 0.661478
O O7 0.711973 0.384237 0.575235
O O8 0.000000 0.384130 0.500000
O O9 0.865543 0.756415 0.724460
O O10 0.915821 0.656861 0.811235
O O11 0.138100 0.689682 0.681422
O O12 0.913636 0.874842 0.644652
O O13 0.049460 0.775233 0.094649
O O14 0.246142 0.676717 0.039904
O O15 0.000000 0.892919 0.500000
O O16 0.036290 0.000000 0.597193
O O17 0.000000 0.116685 0.000000
#
# Coordination Sequence:
#
# PCOD8109291 Si02
#       7
#     8   8   8   8   8   8   8
#     4  11  24  42  64  93 130 170 214 272 334 393
#     4  10  22  41  65  96 133 170 214 269 329 389
#     4  11  23  38  64  91 126 167 214 264 321 390
#     4  11  23  40  62  92 126 165 216 270 324 393
#     4  10  22  40  62  92 124 171 215 263 320 400
#     4  10  21  39  63  89 124 168 210 258 321 387
#     4  11  22  38  66  91 126 166 218 264 325 388
#
# _framework density 20.301106000000001
#
# number of rings (size 3 to 8) (size 9 to 14) (size 15 to 20)
#    0.000    1.429    1.429    4.286    2.000    7.143 
#    0.000    2.857    0.000    0.000    0.000    0.000 
#    0.000    0.000    0.000    0.000    0.000    0.000 
#
# Total GULP energy -347060.303046 kJ/mol
# GULP energy per Si atom -12395.010823 kJ/mol
# Density = 2.025490 g / cm^3
# Si number density = 20.301106 Si / 1000 Ang^3
#
#
#
# Elastic Constant Matrix: (Units=GPa)
#
#
# Indices 1 2 3 4 5 6 
#
# 1 163.9394 37.7489 54.8566 0.0000 7.2456 0.0000
# 2 37.7489 80.8222 27.6453 0.0000 -4.0384 0.0000
# 3 54.8566 27.6453 108.3565 0.0000 1.0782 0.0000
# 4 0.0000 0.0000 0.0000 34.4406 0.0000 -0.1347
# 5 7.2456 -4.0384 1.0782 0.0000 38.8477 0.0000
# 6 0.0000 0.0000 0.0000 -0.1347 0.0000 37.0022
#
#
#
# Elastic Compliance Matrix: (Units=1/GPa)
#
#
# Indices 1 2 3 4 5 6 
#
# 1 0.007885 -0.002636 -0.003303 0.000000 -0.001653 0.000000
# 2 -0.002636 0.014525 -0.002392 0.000000 0.002068 0.000000
# 3 -0.003303 -0.002392 0.011511 0.000000 0.000048 0.000000
# 4 0.000000 0.000000 0.000000 0.029036 0.000000 0.000106
# 5 -0.001653 0.002068 0.000048 0.000000 0.026263 0.000000
# 6 0.000000 0.000000 0.000000 0.000106 0.000000 0.027026
#
#
# Mechanical properties :
#
#
# Convention : Reuss Voigt Hill
#
# Bulk Modulus (GPa) = 57.93848 65.95775 61.94812
# Shear Modulus (GPa) = 36.05914 37.58258 36.82086
#
# Velocity S-wave (km/s) = 4.21909 4.30729 4.26342
# Velocity P-wave (km/s) = 7.23435 7.56950 7.40382
#
# Compressibility (1/GPa) = 0.01725969
#
# Stress axis : x y z
#
# Youngs Moduli (GPa) = 126.82365 68.84499 86.87482
#
# Poissons Ratio (x) = 0.18145 0.28695
# Poissons Ratio (y) = 0.33425 0.20782
# Poissons Ratio (z) = 0.41890 0.16469
#
# Static dielectric constant tensor:
#      x y z
#    x 3.863170 0.000000 0.053500 
#    y 0.000000 4.121640 0.000000 
#    z 0.053500 0.000000 2.663470 
# 
# 
# High freq. dielectric constant tensor:
#      x y z
#    x 1.812960 0.000000 0.001790 
#    y 0.000000 1.773880 0.000000 
#    z 0.001790 0.000000 1.803050 
# 
# From -- ./inp_files/257053.got.cif
#   From: 2010.06.25/outbox.cif.g09.slc.cpg/sg12_129_cif.got.tgz:257053.got - 2010.06.28 00:19:55.
