data_PCOD8109781
_publ_section_title
;
Structure prediction by ZEFSAII (Michael W. Deem and Ramdas Pophale) SiO2 
 PCOD8109781
Probable space group: C 2/M
;
_chemical_formula_sum "Si O2"
_cell_formula_units_Z 64
_cell_length_a 30.392506
_cell_length_b 9.183158
_cell_length_c 14.065937
_cell_angle_alpha 90.000000
_cell_angle_beta 123.524417
_cell_angle_gamma 90.000000
_cell_volume 3272.738222
_symmetry_space_group_name_H-M "C 2/M"
_symmetry_group_IT_number 12
_symmetry_cell_setting 'monoclinic'
loop_
_space_group_symop_operation_xyz
x,y,z
-x,y,-z
-x,-y,-z
x,-y,z
1/2+x,1/2+y,z
1/2-x,1/2+y,-z
1/2-x,1/2-y,-z
1/2+x,1/2-y,z
loop_
_atom_site_type_symbol
_atom_site_label
_atom_site_fract_x
_atom_site_fract_y
_atom_site_fract_z
Si Si1 0.151199 0.671434 0.469052
Si Si2 0.557168 0.670573 0.030389
Si Si3 0.228301 0.329601 0.065737
Si Si4 0.255990 0.167783 0.280626
Si Si5 0.059111 0.832495 0.684753
Si Si6 0.152494 0.166837 0.277113
Si Si7 0.563169 0.667220 0.472547
Si Si8 0.605842 0.170187 0.913366
O O1 0.147244 0.500000 0.456004
O O2 0.198888 0.720277 0.593626
O O3 0.162678 0.732823 0.379110
O O4 0.096451 0.731118 0.443533
O O5 0.560065 0.500000 0.010397
O O6 0.598645 0.714181 0.161265
O O7 0.500000 0.717382 0.000000
O O8 0.568988 0.754242 0.947311
O O9 0.239412 0.500000 0.068861
O O10 0.260551 0.268092 0.193629
O O11 0.250000 0.250000 0.000000
O O12 0.166712 0.295197 0.007052
O O13 0.199476 0.192337 0.260074
O O14 0.263998 0.000000 0.260376
O O15 0.074187 0.790679 0.594993
O O16 0.092451 0.730015 0.793180
O O17 0.997292 0.806246 0.627006
O O18 0.073504 0.000000 0.722636
O O19 0.149741 0.000000 0.307967
O O20 0.578661 0.500000 0.473069
O O21 0.594019 0.000000 0.901204
#
# Coordination Sequence:
#
# PCOD8109781 Si02
#       8
#     8   8   8   8   8   8   8   8
#     4  11  24  37  58  90 122 152 191 248 304 353
#     4  10  22  40  64  91 119 159 206 248 295 357
#     4  11  25  42  63  91 124 161 202 249 301 360
#     4  10  22  42  63  86 118 157 200 245 298 355
#     4   9  20  39  63  85 115 157 201 243 286 348
#     4  10  21  40  63  85 116 157 199 245 293 354
#     4   9  20  40  61  86 116 154 202 245 287 348
#     4  11  24  40  61  93 126 157 195 248 309 362
#
# _framework density 19.555489000000001
#
# number of rings (size 3 to 8) (size 9 to 14) (size 15 to 20)
#    0.000    1.875    1.250    2.250    3.500    4.750 
#    0.000    1.250    0.000    0.000    0.000    0.000 
#    0.000    0.000    0.000    0.000    0.000    0.000 
#
# Total GULP energy -396979.102064 kJ/mol
# GULP energy per Si atom -12405.596939 kJ/mol
# Density = 1.951098 g / cm^3
# Si number density = 19.555489 Si / 1000 Ang^3
#
#
#
# Elastic Constant Matrix: (Units=GPa)
#
#
# Indices 1 2 3 4 5 6 
#
# 1 53.4683 28.4735 9.0200 0.0000 -8.2992 0.0000
# 2 28.4735 73.1057 42.6033 0.0000 -12.5972 0.0000
# 3 9.0200 42.6033 91.2605 0.0000 -16.1922 0.0000
# 4 0.0000 0.0000 0.0000 37.0417 0.0000 -5.0576
# 5 -8.2992 -12.5972 -16.1922 0.0000 28.7914 0.0000
# 6 0.0000 0.0000 0.0000 -5.0576 0.0000 30.1898
#
#
#
# Elastic Compliance Matrix: (Units=1/GPa)
#
#
# Indices 1 2 3 4 5 6 
#
# 1 0.024538 -0.010785 0.003363 0.000000 0.004245 0.000000
# 2 -0.010785 0.023884 -0.009755 0.000000 0.001855 0.000000
# 3 0.003363 -0.009755 0.016211 0.000000 0.005819 0.000000
# 4 0.000000 0.000000 0.000000 0.027629 0.000000 0.004628
# 5 0.004245 0.001855 0.005819 0.000000 0.040040 0.000000
# 6 0.000000 0.000000 0.000000 0.004628 0.000000 0.033899
#
#
# Mechanical properties :
#
#
# Convention : Reuss Voigt Hill
#
# Bulk Modulus (GPa) = 33.02610 42.00313 37.51461
# Shear Modulus (GPa) = 23.73628 28.38710 26.06169
#
# Velocity S-wave (km/s) = 3.48773 3.81414 3.65458
# Velocity P-wave (km/s) = 5.75709 6.39707 6.08550
#
# Compressibility (1/GPa) = 0.03027909
#
# Stress axis : x y z
#
# Youngs Moduli (GPa) = 40.75346 41.86946 61.68506
#
# Poissons Ratio (x) = 0.45157 -0.20744
# Poissons Ratio (y) = 0.43954 0.60171
# Poissons Ratio (z) = -0.13705 0.40842
#
# Static dielectric constant tensor:
#      x y z
#    x 3.555730 0.000000 0.081050 
#    y 0.000000 3.532280 0.000000 
#    z 0.081050 0.000000 3.646950 
# 
# 
# High freq. dielectric constant tensor:
#      x y z
#    x 1.768510 0.000000 -0.000580 
#    y 0.000000 1.758090 0.000000 
#    z -0.000580 0.000000 1.772860 
# 
# From -- ./inp_files/249909.got.cif
#   From: 2010.06.25/outbox.cif.g09.slc.cpg/sg12_125_cif.got.tgz:249909.got - 2010.06.28 00:19:55.
