data_PCOD8109117
_publ_section_title
;
Structure prediction by ZEFSAII (Michael W. Deem and Ramdas Pophale) SiO2 
 PCOD8109117
Probable space group: C 2/M
;
_chemical_formula_sum "Si O2"
_cell_formula_units_Z 48
_cell_length_a 30.464334
_cell_length_b 8.692165
_cell_length_c 17.917502
_cell_angle_alpha 90.000000
_cell_angle_beta 148.704836
_cell_angle_gamma 90.000000
_cell_volume 2464.554042
_symmetry_space_group_name_H-M "C 2/M"
_symmetry_group_IT_number 12
_symmetry_cell_setting 'monoclinic'
loop_
_space_group_symop_operation_xyz
x,y,z
-x,y,-z
-x,-y,-z
x,-y,z
1/2+x,1/2+y,z
1/2-x,1/2+y,-z
1/2-x,1/2-y,-z
1/2+x,1/2-y,z
loop_
_atom_site_type_symbol
_atom_site_label
_atom_site_fract_x
_atom_site_fract_y
_atom_site_fract_z
Si Si1 0.333845 0.179947 0.088525
Si Si2 0.077001 0.180209 0.918630
Si Si3 0.588944 0.819078 0.096318
Si Si4 0.592624 0.324529 0.413929
Si Si5 0.744153 0.320427 0.410135
Si Si6 0.480164 0.323429 0.386659
O O1 0.353570 0.266323 0.040045
O O2 0.407790 0.208094 0.255456
O O3 0.323331 0.000000 0.057847
O O4 0.250000 0.250000 0.000000
O O5 0.983589 0.219378 0.752556
O O6 0.087700 0.000000 0.949273
O O7 0.094547 0.273729 0.018552
O O8 0.662835 0.740960 0.249725
O O9 0.599193 0.000000 0.119610
O O10 0.500000 0.761156 0.000000
O O11 0.620872 0.500000 0.441389
O O12 0.671681 0.215326 0.514370
O O13 0.563449 0.299651 0.457019
O O14 0.734065 0.500000 0.404466
O O15 0.750000 0.250000 0.500000
O O16 0.500000 0.281129 0.500000
O O17 0.448636 0.500000 0.332204
#
# Coordination Sequence:
#
# PCOD8109117 Si02
#       6
#     8   8   8   8   8   8
#     4  11  22  37  58  84 118 156 196 241 288 342
#     4  10  21  39  62  87 116 151 192 238 291 344
#     4  11  24  41  62  88 117 151 192 236 286 345
#     4   9  19  37  60  85 116 151 189 236 288 343
#     4  12  25  40  60  85 116 152 192 238 287 342
#     4   9  19  37  60  85 115 152 192 236 288 342
#
# _framework density 19.476140000000001
#
# number of rings (size 3 to 8) (size 9 to 14) (size 15 to 20)
#    0.000    1.667    0.000    6.000    0.000    9.000 
#    0.000    5.000    0.000    0.000    0.000    0.000 
#    0.000    0.000    0.000    0.000    0.000    0.000 
#
# Total GULP energy -297711.246911 kJ/mol
# GULP energy per Si atom -12404.635288 kJ/mol
# Density = 1.943181 g / cm^3
# Si number density = 19.476140 Si / 1000 Ang^3
#
#
#
# Elastic Constant Matrix: (Units=GPa)
#
#
# Indices 1 2 3 4 5 6 
#
# 1 136.1114 36.7123 78.2405 0.0000 -1.8346 0.0000
# 2 36.7123 89.5425 46.6633 0.0000 8.9625 0.0000
# 3 78.2405 46.6633 111.0180 0.0000 1.6617 0.0000
# 4 0.0000 0.0000 0.0000 32.0016 0.0000 -3.1993
# 5 -1.8346 8.9625 1.6617 0.0000 40.7708 0.0000
# 6 0.0000 0.0000 0.0000 -3.1993 0.0000 32.4554
#
#
#
# Elastic Compliance Matrix: (Units=1/GPa)
#
#
# Indices 1 2 3 4 5 6 
#
# 1 0.012428 -0.000808 -0.008436 0.000000 0.001081 0.000000
# 2 -0.000808 0.014704 -0.005566 0.000000 -0.003042 0.000000
# 3 -0.008436 -0.005566 0.017290 0.000000 0.000139 0.000000
# 4 0.000000 0.000000 0.000000 0.031559 0.000000 0.003111
# 5 0.001081 -0.003042 0.000139 0.000000 0.025239 0.000000
# 6 0.000000 0.000000 0.000000 0.003111 0.000000 0.031118
#
#
# Mechanical properties :
#
#
# Convention : Reuss Voigt Hill
#
# Bulk Modulus (GPa) = 67.54820 73.32268 70.43544
# Shear Modulus (GPa) = 29.95961 32.71597 31.33779
#
# Velocity S-wave (km/s) = 3.92634 4.10298 4.01563
# Velocity P-wave (km/s) = 7.43725 7.75726 7.59894
#
# Compressibility (1/GPa) = 0.01480424
#
# Stress axis : x y z
#
# Youngs Moduli (GPa) = 80.46102 68.00912 57.83729
#
# Poissons Ratio (x) = 0.05493 0.48789
# Poissons Ratio (y) = 0.06499 0.32190
# Poissons Ratio (z) = 0.67874 0.37851
#
# Static dielectric constant tensor:
#      x y z
#    x 3.687820 0.000000 0.083020 
#    y 0.000000 3.608040 0.000000 
#    z 0.083020 0.000000 3.397640 
# 
# 
# High freq. dielectric constant tensor:
#      x y z
#    x 1.774900 0.000000 -0.000320 
#    y 0.000000 1.764740 0.000000 
#    z -0.000320 0.000000 1.755980 
# 
# From -- ./inp_files/295894.got.cif
#   From: 2010.06.25/outbox.cif.g09.slc.cpg/sg12_148_cif.got.tgz:295894.got - 2010.06.28 00:19:55.
