data_PCOD8109211
_publ_section_title
;
Structure prediction by ZEFSAII (Michael W. Deem and Ramdas Pophale) SiO2 
 PCOD8109211
Probable space group: C 2/M
;
_chemical_formula_sum "Si O2"
_cell_formula_units_Z 48
_cell_length_a 14.918061
_cell_length_b 8.563458
_cell_length_c 18.967049
_cell_angle_alpha 90.000000
_cell_angle_beta 90.273296
_cell_angle_gamma 90.000000
_cell_volume 2423.016526
_symmetry_space_group_name_H-M "C 2/M"
_symmetry_group_IT_number 12
_symmetry_cell_setting 'monoclinic'
loop_
_space_group_symop_operation_xyz
x,y,z
-x,y,-z
-x,-y,-z
x,-y,z
1/2+x,1/2+y,z
1/2-x,1/2+y,-z
1/2-x,1/2-y,-z
1/2+x,1/2-y,z
loop_
_atom_site_type_symbol
_atom_site_label
_atom_site_fract_x
_atom_site_fract_y
_atom_site_fract_z
Si Si1 0.257186 0.683120 0.077246
Si Si2 0.579120 0.316972 0.827076
Si Si3 0.496495 0.819257 0.581855
Si Si4 0.840301 0.818504 0.665562
Si Si5 0.609471 0.183032 0.185166
Si Si6 0.150273 0.818764 0.674450
O O1 0.248339 0.500000 0.072128
O O2 0.351866 0.731139 0.111553
O O3 0.176725 0.746756 0.125655
O O4 0.250000 0.750000 0.000000
O O5 0.555741 0.500000 0.828305
O O6 0.490700 0.216642 0.841333
O O7 0.621558 0.268816 0.752646
O O8 0.500000 0.778325 0.500000
O O9 0.398029 0.778488 0.609668
O O10 0.569877 0.714439 0.621001
O O11 0.517654 0.000000 0.596536
O O12 0.871394 0.776631 0.743929
O O13 0.736589 0.779898 0.652185
O O14 0.857467 0.000000 0.652461
O O15 0.624084 0.000000 0.199851
O O16 0.176058 0.000000 0.672421
#
# Coordination Sequence:
#
# PCOD8109211 Si02
#       6
#     8   8   8   8   8   8
#     4  10  23  42  61  87 126 163 202 253 311 365
#     4  10  21  39  62  91 123 160 204 254 309 366
#     4  11  25  44  65  93 129 165 205 257 315 370
#     4  12  24  39  64  95 126 165 211 255 308 371
#     4  11  22  39  63  91 124 161 207 259 307 366
#     4  11  22  40  66  94 126 163 209 258 308 369
#
# _framework density 19.810019
#
# number of rings (size 3 to 8) (size 9 to 14) (size 15 to 20)
#    0.000    1.167    3.333    3.000    0.000    5.333 
#    0.000    3.333    0.000    0.000    0.000    0.000 
#    0.000    0.000    0.000    0.000    0.000    0.000 
#
# Total GULP energy -297762.152385 kJ/mol
# GULP energy per Si atom -12406.756349 kJ/mol
# Density = 1.976493 g / cm^3
# Si number density = 19.810019 Si / 1000 Ang^3
#
#
#
# Elastic Constant Matrix: (Units=GPa)
#
#
# Indices 1 2 3 4 5 6 
#
# 1 81.9798 17.8897 9.3709 0.0000 -9.5601 0.0000
# 2 17.8897 42.2054 30.3029 0.0000 0.4697 0.0000
# 3 9.3709 30.3029 96.7039 0.0000 -9.2731 0.0000
# 4 0.0000 0.0000 0.0000 28.4900 0.0000 2.0737
# 5 -9.5601 0.4697 -9.2731 0.0000 32.8540 0.0000
# 6 0.0000 0.0000 0.0000 2.0737 0.0000 37.4772
#
#
#
# Elastic Compliance Matrix: (Units=1/GPa)
#
#
# Indices 1 2 3 4 5 6 
#
# 1 0.014096 -0.006913 0.001237 0.000000 0.004550 0.000000
# 2 -0.006913 0.034299 -0.010605 0.000000 -0.005495 0.000000
# 3 0.001237 -0.010605 0.013971 0.000000 0.004455 0.000000
# 4 0.000000 0.000000 0.000000 0.035242 0.000000 -0.001950
# 5 0.004550 -0.005495 0.004455 0.000000 0.033098 0.000000
# 6 0.000000 0.000000 0.000000 -0.001950 0.000000 0.026791
#
#
# Mechanical properties :
#
#
# Convention : Reuss Voigt Hill
#
# Bulk Modulus (GPa) = 33.55336 37.33511 35.44424
# Shear Modulus (GPa) = 25.00062 30.65261 27.82661
#
# Velocity S-wave (km/s) = 3.55634 3.93788 3.75196
# Velocity P-wave (km/s) = 5.81703 6.28994 6.05810
#
# Compressibility (1/GPa) = 0.02980327
#
# Stress axis : x y z
#
# Youngs Moduli (GPa) = 70.94216 29.15499 71.57504
#
# Poissons Ratio (x) = 0.20156 -0.08852
# Poissons Ratio (y) = 0.49046 0.75905
# Poissons Ratio (z) = -0.08774 0.30919
#
# Static dielectric constant tensor:
#      x y z
#    x 4.027920 0.000000 -0.024030 
#    y 0.000000 3.609130 0.000000 
#    z -0.024030 0.000000 3.419020 
# 
# 
# High freq. dielectric constant tensor:
#      x y z
#    x 1.789270 0.000000 -0.001430 
#    y 0.000000 1.773510 0.000000 
#    z -0.001430 0.000000 1.769980 
# 
# From -- ./inp_files/267676.got.cif
#   From: 2010.06.25/outbox.cif.g09.slc.cpg/sg12_134_cif.got.tgz:267676.got - 2010.06.28 00:19:55.
