data_PCOD8109295
_publ_section_title
;
Structure prediction by ZEFSAII (Michael W. Deem and Ramdas Pophale) SiO2 
 PCOD8109295
Probable space group: C 2/M
;
_chemical_formula_sum "Si O2"
_cell_formula_units_Z 40
_cell_length_a 17.553184
_cell_length_b 14.148807
_cell_length_c 27.197838
_cell_angle_alpha 90.000000
_cell_angle_beta 162.733925
_cell_angle_gamma 90.000000
_cell_volume 2004.877840
_symmetry_space_group_name_H-M "C 2/M"
_symmetry_group_IT_number 12
_symmetry_cell_setting 'monoclinic'
loop_
_space_group_symop_operation_xyz
x,y,z
-x,y,-z
-x,-y,-z
x,-y,z
1/2+x,1/2+y,z
1/2-x,1/2+y,-z
1/2-x,1/2-y,-z
1/2+x,1/2-y,z
loop_
_atom_site_type_symbol
_atom_site_label
_atom_site_fract_x
_atom_site_fract_y
_atom_site_fract_z
Si Si1 0.795426 0.214704 0.839217
Si Si2 0.164635 0.107669 0.814386
Si Si3 0.584646 0.609746 0.604471
Si Si4 0.731951 0.106926 0.476643
Si Si5 0.590333 0.199843 0.943015
O O1 0.802540 0.326527 0.858813
O O2 0.516288 0.172004 0.672592
O O3 0.915359 0.215919 0.858750
O O4 0.000000 0.159314 0.000000
O O5 0.866582 0.108707 0.613323
O O6 0.270172 0.000000 0.876553
O O7 0.206200 0.151281 0.894205
O O8 0.500000 0.655806 0.500000
O O9 0.526615 0.500000 0.567606
O O10 0.417362 0.649823 0.547704
O O11 0.889950 0.623983 0.798331
O O12 0.648331 0.000000 0.412238
O O13 0.750000 0.250000 0.000000
#
# Coordination Sequence:
#
# PCOD8109295 Si02
#       5
#     8   8   8   8   8
#     4  10  22  37  61  90 118 156 203 253 310 362
#     4  10  21  39  66  91 116 154 209 261 299 355
#     4  10  22  37  58  86 118 157 202 253 307 361
#     4  10  21  39  63  90 118 160 211 258 306 361
#     4  11  24  37  57  89 125 159 197 247 315 368
#
# _framework density 19.951339999999998
#
# number of rings (size 3 to 8) (size 9 to 14) (size 15 to 20)
#    0.000    1.800    2.000    1.200    5.600    4.000 
#    0.000    2.000    0.000    2.400    0.000    0.000 
#    0.000    0.000    0.000    0.000    0.000    0.000 
#
# Total GULP energy -247761.481051 kJ/mol
# GULP energy per Si atom -12388.074053 kJ/mol
# Density = 1.990593 g / cm^3
# Si number density = 19.951340 Si / 1000 Ang^3
#
#
#
# Elastic Constant Matrix: (Units=GPa)
#
#
# Indices 1 2 3 4 5 6 
#
# 1 145.2709 51.5898 78.5963 -0.1181 -0.0464 -0.0334
# 2 51.5898 74.6714 43.7586 0.0211 9.8480 -0.0369
# 3 78.5963 43.7586 143.9514 -0.1042 -1.8133 0.0796
# 4 -0.1181 0.0211 -0.1042 14.4800 0.0976 -12.8773
# 5 -0.0464 9.8480 -1.8133 0.0976 40.4864 -0.0106
# 6 -0.0334 -0.0369 0.0796 -12.8773 -0.0106 11.5836
#
#
#
# Elastic Compliance Matrix: (Units=1/GPa)
#
#
# Indices 1 2 3 4 5 6 
#
# 1 0.011187 -0.005227 -0.004505 0.008947 0.001064 0.009994
# 2 -0.005227 0.019481 -0.003130 -0.000320 -0.004884 -0.000291
# 3 -0.004505 -0.003130 0.010373 -0.004286 0.001230 -0.004858
# 4 0.008947 -0.000320 -0.004286 6.099563 -0.013026 6.780873
# 5 0.001064 -0.004884 0.001230 -0.013026 0.025972 -0.014478
# 6 0.009994 -0.000291 -0.004858 6.780873 -0.014478 7.624615
#
#
# Mechanical properties :
#
#
# Convention : Reuss Voigt Hill
#
# Bulk Modulus (GPa) = 65.28124 79.08702 72.18413
# Shear Modulus (GPa) = 0.36174 25.97325 13.16750
#
# Velocity S-wave (km/s) = 0.42627 3.61200 2.57180
# Velocity P-wave (km/s) = 5.74748 7.55787 6.71398
#
# Compressibility (1/GPa) = 0.01531834
#
# Stress axis : x y z
#
# Youngs Moduli (GPa) = 89.38858 51.33086 96.40594
#
# Poissons Ratio (x) = 0.26831 0.43429
# Poissons Ratio (y) = 0.46724 0.30172
# Poissons Ratio (z) = 0.40268 0.16065
#
# Static dielectric constant tensor:
#      x y z
#    x 3.764910 0.000080 -0.413140 
#    y 0.000080 3.435740 -0.000440 
#    z -0.413140 -0.000440 3.879480 
# 
# 
# High freq. dielectric constant tensor:
#      x y z
#    x 1.763600 0.000000 -0.018440 
#    y 0.000000 1.753290 -0.000030 
#    z -0.018440 -0.000030 1.798090 
# 
# From -- ./inp_files/142513.got.cif
#   From: 2010.06.25/outbox.cif.g09.slc.cpg/sg12_72_cif.got.tgz:142513.got - 2010.06.28 00:19:55.
