data_PCOD8109661
_publ_section_title
;
Structure prediction by ZEFSAII (Michael W. Deem and Ramdas Pophale) SiO2 
 PCOD8109661
Probable space group: C 2/M
;
_chemical_formula_sum "Si O2"
_cell_formula_units_Z 64
_cell_length_a 10.034441
_cell_length_b 27.544294
_cell_length_c 18.515263
_cell_angle_alpha 90.000000
_cell_angle_beta 143.730911
_cell_angle_gamma 90.000000
_cell_volume 3027.380059
_symmetry_space_group_name_H-M "C 2/M"
_symmetry_group_IT_number 12
_symmetry_cell_setting 'monoclinic'
loop_
_space_group_symop_operation_xyz
x,y,z
-x,y,-z
-x,-y,-z
x,-y,z
1/2+x,1/2+y,z
1/2-x,1/2+y,-z
1/2-x,1/2-y,-z
1/2+x,1/2-y,z
loop_
_atom_site_type_symbol
_atom_site_label
_atom_site_fract_x
_atom_site_fract_y
_atom_site_fract_z
Si Si1 0.124968 0.426703 0.482868
Si Si2 0.146878 0.687184 0.497998
Si Si3 0.944790 0.723746 0.130445
Si Si4 0.310205 0.945435 0.216031
Si Si5 0.372265 0.554862 0.270921
Si Si6 0.363052 0.557068 0.101982
Si Si7 0.037631 0.608933 0.857273
Si Si8 0.062313 0.753540 0.708745
O O1 0.115629 0.369346 0.478066
O O2 0.377355 0.445895 0.588517
O O3 0.000000 0.446972 0.500000
O O4 0.008620 0.447180 0.360768
O O5 0.409990 0.698965 0.626472
O O6 0.000000 0.708793 0.500000
O O7 0.057312 0.708996 0.384087
O O8 0.922836 0.665911 0.117765
O O9 0.925726 0.742262 0.202582
O O10 0.185931 0.738707 0.206537
O O11 0.750000 0.750000 0.000000
O O12 0.355951 0.908703 0.171147
O O13 0.085906 0.926181 0.157104
O O14 0.277190 0.000000 0.170581
O O15 0.273708 0.500000 0.233074
O O16 0.383136 0.573639 0.193414
O O17 0.223190 0.592203 0.253104
O O18 0.326704 0.500000 0.080230
O O19 0.150064 0.583639 0.975233
#
# Coordination Sequence:
#
# PCOD8109661 Si02
#       8
#     8   8   8   8   8   8   8   8
#     4  11  22  38  64  99 129 172 219 265 315 389
#     4  10  21  39  70  94 125 168 217 274 325 378
#     4  12  28  45  66  93 133 172 214 274 337 392
#     4  11  23  41  66  96 133 173 213 268 323 382
#     4  11  23  41  66  96 133 173 213 268 323 382
#     4  10  22  41  66  93 125 172 222 264 311 386
#     4  12  26  43  64  97 129 170 216 270 327 394
#     4  11  23  46  66  96 125 167 218 274 328 399
#
# _framework density 21.140391000000001
#
# number of rings (size 3 to 8) (size 9 to 14) (size 15 to 20)
#    0.000    1.000    2.500    4.125    0.000    9.000 
#    0.000    3.750    0.000    0.000    0.000    0.000 
#    0.000    0.000    0.000    0.000    0.000    0.000 
#
# Total GULP energy -396962.666536 kJ/mol
# GULP energy per Si atom -12405.083329 kJ/mol
# Density = 2.109227 g / cm^3
# Si number density = 21.140391 Si / 1000 Ang^3
#
#
#
# Elastic Constant Matrix: (Units=GPa)
#
#
# Indices 1 2 3 4 5 6 
#
# 1 112.9899 39.2994 30.2451 0.0042 8.8132 0.0040
# 2 39.2994 92.6393 21.2844 -0.0108 2.0608 0.0038
# 3 30.2451 21.2844 112.6806 0.0452 6.3205 0.0032
# 4 0.0042 -0.0108 0.0452 19.9347 0.0024 3.1021
# 5 8.8132 2.0608 6.3205 0.0024 45.5306 -0.0001
# 6 0.0040 0.0038 0.0032 3.1021 -0.0001 32.0506
#
#
#
# Elastic Compliance Matrix: (Units=1/GPa)
#
#
# Indices 1 2 3 4 5 6 
#
# 1 0.010974 -0.004143 -0.002071 0.000000 -0.001649 -0.000001
# 2 -0.004143 0.012851 -0.001338 0.000011 0.000406 -0.000002
# 3 -0.002071 -0.001338 0.009733 -0.000023 -0.000890 0.000002
# 4 0.000000 0.000011 -0.000023 0.050931 0.000000 -0.004929
# 5 -0.001649 0.000406 -0.000890 0.000000 0.022388 0.000000
# 6 -0.000001 -0.000002 0.000002 -0.004929 0.000000 0.031678
#
#
# Mechanical properties :
#
#
# Convention : Reuss Voigt Hill
#
# Bulk Modulus (GPa) = 54.18745 55.55197 54.86971
# Shear Modulus (GPa) = 31.28732 34.66856 32.97794
#
# Velocity S-wave (km/s) = 3.85122 4.05399 3.95390
# Velocity P-wave (km/s) = 6.74268 6.94606 6.84513
#
# Compressibility (1/GPa) = 0.01845446
#
# Stress axis : x y z
#
# Youngs Moduli (GPa) = 91.12236 77.81782 102.74247
#
# Poissons Ratio (x) = 0.32241 0.21273
# Poissons Ratio (y) = 0.37753 0.13748
# Poissons Ratio (z) = 0.18867 0.10413
#
# Static dielectric constant tensor:
#      x y z
#    x 3.965720 -0.000010 0.054980 
#    y -0.000010 3.777980 -0.000030 
#    z 0.054980 -0.000030 3.935120 
# 
# 
# High freq. dielectric constant tensor:
#      x y z
#    x 1.838420 0.000000 0.003080 
#    y 0.000000 1.828000 0.000000 
#    z 0.003080 0.000000 1.842070 
# 
# From -- ./inp_files/260383.got.cif
#   From: 2010.06.25/outbox.cif.g09.slc.cpg/sg12_131_cif.got.tgz:260383.got - 2010.06.28 00:19:55.
