data_PCOD8109300
_publ_section_title
;
Structure prediction by ZEFSAII (Michael W. Deem and Ramdas Pophale) SiO2 
 PCOD8109300
Probable space group: C 2/M
;
_chemical_formula_sum "Si O2"
_cell_formula_units_Z 64
_cell_length_a 34.289912
_cell_length_b 9.000385
_cell_length_c 15.297844
_cell_angle_alpha 90.000000
_cell_angle_beta 43.017386
_cell_angle_gamma 90.000000
_cell_volume 3220.937470
_symmetry_space_group_name_H-M "C 2/M"
_symmetry_group_IT_number 12
_symmetry_cell_setting 'monoclinic'
loop_
_space_group_symop_operation_xyz
x,y,z
-x,y,-z
-x,-y,-z
x,-y,z
1/2+x,1/2+y,z
1/2-x,1/2+y,-z
1/2-x,1/2-y,-z
1/2+x,1/2-y,z
loop_
_atom_site_type_symbol
_atom_site_label
_atom_site_fract_x
_atom_site_fract_y
_atom_site_fract_z
Si Si1 0.646681 0.175106 0.254512
Si Si2 0.747120 0.328810 0.177998
Si Si3 0.541270 0.826277 0.852131
Si Si4 0.015481 0.175376 0.218924
Si Si5 0.542694 0.674564 0.505586
Si Si6 0.372047 0.173542 0.912525
Si Si7 0.755377 0.829781 0.618804
Si Si8 0.839995 0.171918 0.328459
O O1 0.710110 0.229626 0.173216
O O2 0.603019 0.244927 0.395274
O O3 0.630788 0.227907 0.183053
O O4 0.644944 0.000000 0.264971
O O5 0.736383 0.500000 0.171118
O O6 0.729133 0.294213 0.306789
O O7 0.813169 0.287427 0.057062
O O8 0.519650 0.739915 0.803371
O O9 0.604074 0.770860 0.773820
O O10 0.542963 0.000000 0.828382
O O11 0.500000 0.789650 0.000000
O O12 0.079407 0.238506 0.115097
O O13 0.983167 0.223782 0.359894
O O14 0.018736 0.000000 0.204104
O O15 0.500000 0.729037 0.500000
O O16 0.553601 0.500000 0.482238
O O17 0.386230 0.000000 0.894878
O O18 0.812581 0.801384 0.468998
O O19 0.704953 0.721353 0.671416
O O20 0.734454 0.000000 0.642080
O O21 0.855638 0.000000 0.288320
#
# Coordination Sequence:
#
# PCOD8109300 Si02
#       8
#     8   8   8   8   8   8   8   8
#     4  11  23  37  58  90 124 158 204 256 298 346
#     4  10  22  39  61  85 118 162 204 245 297 364
#     4  11  26  45  65  89 124 166 201 243 305 372
#     4  11  24  41  65  93 121 158 205 256 304 359
#     4  10  21  40  63  88 121 164 205 245 305 370
#     4  10  22  40  60  86 123 164 202 246 303 360
#     4   9  20  39  62  88 117 156 199 243 302 363
#     4  10  21  39  63  90 121 153 195 250 299 350
#
# _framework density 19.869990999999999
#
# number of rings (size 3 to 8) (size 9 to 14) (size 15 to 20)
#    0.000    1.750    1.250    1.875    3.500    4.250 
#    0.000    0.000    0.000    0.000    0.000    0.000 
#    0.000    0.000    0.000    0.000    0.000    0.000 
#
# Total GULP energy -397005.656617 kJ/mol
# GULP energy per Si atom -12406.426769 kJ/mol
# Density = 1.982477 g / cm^3
# Si number density = 19.869991 Si / 1000 Ang^3
#
#
#
# Elastic Constant Matrix: (Units=GPa)
#
#
# Indices 1 2 3 4 5 6 
#
# 1 60.7705 21.5949 21.1932 0.0000 -3.7563 0.0000
# 2 21.5949 49.6882 34.6318 0.0003 -0.8258 -0.0003
# 3 21.1932 34.6318 90.1719 0.0002 -7.2682 0.0001
# 4 0.0000 0.0003 0.0002 29.3713 0.0001 -4.8016
# 5 -3.7563 -0.8258 -7.2682 0.0001 28.9966 -0.0001
# 6 0.0000 -0.0003 0.0001 -4.8016 -0.0001 40.7965
#
#
#
# Elastic Compliance Matrix: (Units=1/GPa)
#
#
# Indices 1 2 3 4 5 6 
#
# 1 0.019786 -0.007421 -0.001644 0.000000 0.001940 0.000000
# 2 -0.007421 0.030369 -0.010132 0.000000 -0.002636 0.000000
# 3 -0.001644 -0.010132 0.015643 0.000000 0.003420 0.000000
# 4 0.000000 0.000000 0.000000 0.034715 0.000000 0.004086
# 5 0.001940 -0.002636 0.003420 0.000000 0.035520 0.000000
# 6 0.000000 0.000000 0.000000 0.004086 0.000000 0.024993
#
#
# Mechanical properties :
#
#
# Convention : Reuss Voigt Hill
#
# Bulk Modulus (GPa) = 36.49082 39.49672 37.99377
# Shear Modulus (GPa) = 23.97473 28.04692 26.01083
#
# Velocity S-wave (km/s) = 3.47735 3.76110 3.62201
# Velocity P-wave (km/s) = 5.87599 6.22751 6.05430
#
# Compressibility (1/GPa) = 0.02740415
#
# Stress axis : x y z
#
# Youngs Moduli (GPa) = 50.54193 32.92875 63.92579
#
# Poissons Ratio (x) = 0.24437 0.10508
# Poissons Ratio (y) = 0.37508 0.64768
# Poissons Ratio (z) = 0.08308 0.33363
#
# Static dielectric constant tensor:
#      x y z
#    x 3.525610 0.000000 0.047580 
#    y 0.000000 3.567210 0.000000 
#    z 0.047580 0.000000 3.757640 
# 
# 
# High freq. dielectric constant tensor:
#      x y z
#    x 1.777910 0.000000 -0.001150 
#    y 0.000000 1.774700 0.000000 
#    z -0.001150 0.000000 1.785950 
# 
# From -- ./inp_files/249822.got.cif
#   From: 2010.06.25/outbox.cif.g09.slc.cpg/sg12_125_cif.got.tgz:249822.got - 2010.06.28 00:19:55.
