data_PCOD8109476
_publ_section_title
;
Structure prediction by ZEFSAII (Michael W. Deem and Ramdas Pophale) SiO2 
 PCOD8109476
Probable space group: C 2/M
;
_chemical_formula_sum "Si O2"
_cell_formula_units_Z 56
_cell_length_a 15.875609
_cell_length_b 8.739834
_cell_length_c 19.651278
_cell_angle_alpha 90.000000
_cell_angle_beta 77.997033
_cell_angle_gamma 90.000000
_cell_volume 2667.005988
_symmetry_space_group_name_H-M "C 2/M"
_symmetry_group_IT_number 12
_symmetry_cell_setting 'monoclinic'
loop_
_space_group_symop_operation_xyz
x,y,z
-x,y,-z
-x,-y,-z
x,-y,z
1/2+x,1/2+y,z
1/2-x,1/2+y,-z
1/2-x,1/2-y,-z
1/2+x,1/2-y,z
loop_
_atom_site_type_symbol
_atom_site_label
_atom_site_fract_x
_atom_site_fract_y
_atom_site_fract_z
Si Si1 0.270621 0.328495 0.797983
Si Si2 0.477939 0.677608 0.928087
Si Si3 0.124654 0.181193 0.348347
Si Si4 0.447726 0.180262 0.347339
Si Si5 0.232889 0.182316 0.576309
Si Si6 0.419663 0.171299 0.200393
Si Si7 0.301095 0.823114 0.930079
O O1 0.287021 0.500000 0.822779
O O2 0.346071 0.280375 0.733733
O O3 0.182421 0.318868 0.770450
O O4 0.262025 0.217805 0.863648
O O5 0.454486 0.500000 0.932982
O O6 0.555502 0.710165 0.863170
O O7 0.399205 0.773112 0.912861
O O8 0.500000 0.735007 0.000000
O O9 0.190492 0.260431 0.388442
O O10 0.028858 0.249414 0.374545
O O11 0.124306 0.000000 0.362068
O O12 0.360542 0.262146 0.384257
O O13 0.463686 0.212639 0.264586
O O14 0.440195 0.000000 0.363694
O O15 0.250000 0.250000 0.500000
O O16 0.233875 0.000000 0.574471
O O17 0.446200 0.000000 0.172833
O O18 0.292456 0.000000 0.943186
O O19 0.250000 0.750000 0.000000
#
# Coordination Sequence:
#
# PCOD8109476 Si02
#       7
#     8   8   8   8   8   8   8
#     4  10  21  40  65  93 128 168 211 267 326 385
#     4  11  24  40  58  85 119 160 211 268 324 388
#     4  11  23  43  69 102 138 177 223 275 332 399
#     4  11  23  43  68 101 138 176 224 276 331 399
#     4  12  26  46  72 102 137 180 223 276 337 399
#     4  10  21  39  64  93 126 167 211 265 326 386
#     4  12  25  40  59  85 119 162 211 266 326 392
#
# _framework density 20.997326999999999
#
# number of rings (size 3 to 8) (size 9 to 14) (size 15 to 20)
#    0.000    1.000    1.429    5.571    0.000    9.143 
#    0.000    2.857    0.000    0.000    0.000    0.000 
#    0.000    0.000    0.000    0.000    0.000    0.000 
#
# Total GULP energy -347302.611028 kJ/mol
# GULP energy per Si atom -12403.664680 kJ/mol
# Density = 2.094954 g / cm^3
# Si number density = 20.997327 Si / 1000 Ang^3
#
#
#
# Elastic Constant Matrix: (Units=GPa)
#
#
# Indices 1 2 3 4 5 6 
#
# 1 137.6001 55.4576 52.5068 0.0000 11.5213 0.0000
# 2 55.4576 144.5383 63.5327 0.0000 3.9189 0.0000
# 3 52.5068 63.5327 110.3002 0.0000 0.7119 0.0000
# 4 0.0000 0.0000 0.0000 35.3681 0.0000 -1.3507
# 5 11.5213 3.9189 0.7119 0.0000 21.3609 0.0000
# 6 0.0000 0.0000 0.0000 -1.3507 0.0000 35.0937
#
#
#
# Elastic Compliance Matrix: (Units=1/GPa)
#
#
# Indices 1 2 3 4 5 6 
#
# 1 0.009837 -0.002142 -0.003418 0.000000 -0.004799 0.000000
# 2 -0.002142 0.009780 -0.004611 0.000000 -0.000485 0.000000
# 3 -0.003418 -0.004611 0.013335 0.000000 0.002245 0.000000
# 4 0.000000 0.000000 0.000000 0.028316 0.000000 0.001090
# 5 -0.004799 -0.000485 0.002245 0.000000 0.049417 0.000000
# 6 0.000000 0.000000 0.000000 0.001090 0.000000 0.028537
#
#
# Mechanical properties :
#
#
# Convention : Reuss Voigt Hill
#
# Bulk Modulus (GPa) = 79.29874 81.71475 80.50674
# Shear Modulus (GPa) = 30.53145 33.09397 31.81271
#
# Velocity S-wave (km/s) = 3.81736 3.97432 3.89663
# Velocity P-wave (km/s) = 7.56820 7.74994 7.65961
#
# Compressibility (1/GPa) = 0.01261054
#
# Stress axis : x y z
#
# Youngs Moduli (GPa) = 101.66008 102.24793 74.99324
#
# Poissons Ratio (x) = 0.21898 0.25633
# Poissons Ratio (y) = 0.21773 0.34577
# Poissons Ratio (z) = 0.34748 0.47143
#
# Static dielectric constant tensor:
#      x y z
#    x 4.012490 0.000000 -0.862130 
#    y 0.000000 3.855790 0.000000 
#    z -0.862130 0.000000 9.092850 
# 
# 
# High freq. dielectric constant tensor:
#      x y z
#    x 1.836270 0.000000 0.001500 
#    y 0.000000 1.828310 0.000000 
#    z 0.001500 0.000000 1.824760 
# 
# From -- ./inp_files/308898.got.cif
#   From: 2010.06.25/outbox.cif.g09.slc.cpg/sg12_155_cif.got.tgz:308898.got - 2010.06.28 00:19:55.
