data_PCOD8109546
_publ_section_title
;
Structure prediction by ZEFSAII (Michael W. Deem and Ramdas Pophale) SiO2 
 PCOD8109546
Probable space group: C 2/M
;
_chemical_formula_sum "Si O2"
_cell_formula_units_Z 64
_cell_length_a 19.873608
_cell_length_b 8.506348
_cell_length_c 30.771676
_cell_angle_alpha 90.000000
_cell_angle_beta 143.412768
_cell_angle_gamma 90.000000
_cell_volume 3100.635843
_symmetry_space_group_name_H-M "C 2/M"
_symmetry_group_IT_number 12
_symmetry_cell_setting 'monoclinic'
loop_
_space_group_symop_operation_xyz
x,y,z
-x,y,-z
-x,-y,-z
x,-y,z
1/2+x,1/2+y,z
1/2-x,1/2+y,-z
1/2-x,1/2-y,-z
1/2+x,1/2-y,z
loop_
_atom_site_type_symbol
_atom_site_label
_atom_site_fract_x
_atom_site_fract_y
_atom_site_fract_z
Si Si1 0.559810 0.181202 0.437762
Si Si2 0.534193 0.682638 0.331183
Si Si3 0.248615 0.817514 0.593618
Si Si4 0.840559 0.817472 0.359357
Si Si5 0.174539 0.183012 0.203981
Si Si6 0.217640 0.182780 0.821353
Si Si7 0.758889 0.318136 0.074174
Si Si8 0.919967 0.183661 0.090784
O O1 0.552701 0.288228 0.391604
O O2 0.676138 0.215299 0.522562
O O3 0.455919 0.219792 0.415685
O O4 0.556769 0.000000 0.422096
O O5 0.552127 0.500000 0.330267
O O6 0.620406 0.782451 0.346762
O O7 0.410122 0.739509 0.253184
O O8 0.220587 0.766241 0.628106
O O9 0.222046 0.000000 0.572161
O O10 0.759353 0.783558 0.276998
O O11 0.872689 0.000000 0.376066
O O12 0.199230 0.218923 0.166498
O O13 0.047744 0.236046 0.148859
O O14 0.192708 0.000000 0.223177
O O15 0.252259 0.214805 0.888626
O O16 0.231284 0.000000 0.817630
O O17 0.759169 0.500000 0.087312
O O18 0.874328 0.278202 0.108662
O O19 0.652148 0.272522 0.989147
O O20 0.909264 0.000000 0.095646
#
# Coordination Sequence:
#
# PCOD8109546 Si02
#       8
#     8   8   8   8   8   8   8   8
#     4  12  24  41  66  91 121 160 205 252 304 366
#     4  11  24  42  63  88 123 162 204 256 308 363
#     4  11  25  42  63  90 123 160 203 254 308 368
#     4  11  24  42  62  90 125 160 201 251 307 362
#     4  11  23  40  64  90 122 162 205 252 303 362
#     4  11  24  41  62  89 125 164 205 254 305 360
#     4  10  21  39  65  93 126 164 205 250 300 361
#     4   9  21  41  63  93 128 163 202 250 305 359
#
# _framework density 20.640927999999999
#
# number of rings (size 3 to 8) (size 9 to 14) (size 15 to 20)
#    0.000    1.250    1.250    4.125    1.750    7.000 
#    0.000    2.500    0.000    0.000    0.000    0.000 
#    0.000    0.000    0.000    0.000    0.000    0.000 
#
# Total GULP energy -397079.614280 kJ/mol
# GULP energy per Si atom -12408.737946 kJ/mol
# Density = 2.059395 g / cm^3
# Si number density = 20.640928 Si / 1000 Ang^3
#
#
#
# Elastic Constant Matrix: (Units=GPa)
#
#
# Indices 1 2 3 4 5 6 
#
# 1 74.6515 10.9477 -1.0081 -0.0002 0.7380 0.0003
# 2 10.9477 47.5355 10.8649 -0.0001 3.8893 0.0004
# 3 -1.0081 10.8649 43.7275 0.0000 1.1376 0.0002
# 4 -0.0002 -0.0001 0.0000 30.2698 0.0000 0.1118
# 5 0.7380 3.8893 1.1376 0.0000 40.8901 -0.0001
# 6 0.0003 0.0004 0.0002 0.1118 -0.0001 35.8152
#
#
#
# Elastic Compliance Matrix: (Units=1/GPa)
#
#
# Indices 1 2 3 4 5 6 
#
# 1 0.013922 -0.003481 0.001185 0.000000 0.000047 0.000000
# 2 -0.003481 0.023333 -0.005826 0.000000 -0.001994 0.000000
# 3 0.001185 -0.005826 0.024348 0.000000 -0.000145 0.000000
# 4 0.000000 0.000000 0.000000 0.033037 0.000000 -0.000103
# 5 0.000047 -0.001994 -0.000145 0.000000 0.024649 0.000000
# 6 0.000000 0.000000 0.000000 -0.000103 0.000000 0.027921
#
#
# Mechanical properties :
#
#
# Convention : Reuss Voigt Hill
#
# Bulk Modulus (GPa) = 22.04678 23.05819 22.55249
# Shear Modulus (GPa) = 27.99975 31.06901 29.53438
#
# Velocity S-wave (km/s) = 3.68709 3.88392 3.78678
# Velocity P-wave (km/s) = 5.36940 5.59539 5.48356
#
# Compressibility (1/GPa) = 0.04535809
#
# Stress axis : x y z
#
# Youngs Moduli (GPa) = 71.83097 42.85711 41.07187
#
# Poissons Ratio (x) = 0.14918 -0.04865
# Poissons Ratio (y) = 0.25003 0.23928
# Poissons Ratio (z) = -0.08509 0.24968
#
# Static dielectric constant tensor:
#      x y z
#    x 3.849890 0.000000 0.090940 
#    y 0.000000 3.642910 0.000000 
#    z 0.090940 0.000000 3.714590 
# 
# 
# High freq. dielectric constant tensor:
#      x y z
#    x 1.819630 0.000000 0.001740 
#    y 0.000000 1.811270 0.000000 
#    z 0.001740 0.000000 1.807500 
# 
# From -- ./inp_files/378357.got.cif
#   From: 2010.06.25/outbox.cif.g09.slc.cpg/sg12_190_cif.got.tgz:378357.got - 2010.06.28 00:19:55.
