data_PCOD8109426
_publ_section_title
;
Structure prediction by ZEFSAII (Michael W. Deem and Ramdas Pophale) SiO2 
 PCOD8109426
Probable space group: C 2/M
;
_chemical_formula_sum "Si O2"
_cell_formula_units_Z 64
_cell_length_a 32.361147
_cell_length_b 8.654276
_cell_length_c 15.082035
_cell_angle_alpha 90.000000
_cell_angle_beta 46.870351
_cell_angle_gamma 90.000000
_cell_volume 3082.645404
_symmetry_space_group_name_H-M "C 2/M"
_symmetry_group_IT_number 12
_symmetry_cell_setting 'monoclinic'
loop_
_space_group_symop_operation_xyz
x,y,z
-x,y,-z
-x,-y,-z
x,-y,z
1/2+x,1/2+y,z
1/2-x,1/2+y,-z
1/2-x,1/2-y,-z
1/2+x,1/2-y,z
loop_
_atom_site_type_symbol
_atom_site_label
_atom_site_fract_x
_atom_site_fract_y
_atom_site_fract_z
Si Si1 0.312342 0.817926 0.909657
Si Si2 0.001525 0.818088 0.221144
Si Si3 0.176706 0.319360 0.761220
Si Si4 0.205370 0.317544 0.410433
Si Si5 0.109622 0.680382 0.685280
Si Si6 0.026488 0.176566 0.548002
Si Si7 0.155025 0.176797 0.317902
Si Si8 0.371351 0.319336 0.992648
O O1 0.346936 0.748039 0.776860
O O2 0.308874 0.000000 0.904862
O O3 0.250000 0.750000 0.000000
O O4 0.344207 0.775822 0.952789
O O5 0.952373 0.754110 0.230317
O O6 0.995893 0.745458 0.328541
O O7 0.992964 0.000000 0.238731
O O8 0.062742 0.772540 0.092959
O O9 0.176089 0.500000 0.785232
O O10 0.238642 0.268612 0.637131
O O11 0.132852 0.278594 0.748067
O O12 0.160459 0.220837 0.870681
O O13 0.213678 0.500000 0.407873
O O14 0.152997 0.256466 0.546803
O O15 0.196761 0.272787 0.320076
O O16 0.102892 0.500000 0.681180
O O17 0.093490 0.189639 0.450097
O O18 0.000000 0.260663 0.500000
O O19 0.005268 0.000000 0.577962
O O20 0.176072 0.000000 0.282178
O O21 0.364639 0.500000 0.981451
#
# Coordination Sequence:
#
# PCOD8109426 Si02
#       8
#     8   8   8   8   8   8   8   8
#     4  12  25  42  63  89 124 165 209 255 306 366
#     4  10  21  39  64  91 123 164 207 254 305 366
#     4  11  24  42  63  89 121 164 211 256 315 375
#     4  11  22  39  62  92 127 160 203 260 314 369
#     4  10  23  41  63  91 126 163 203 258 316 371
#     4   9  17  32  56  86 117 152 195 241 291 351
#     4  11  21  36  61  90 123 160 199 246 303 366
#     4  11  24  43  65  92 125 163 210 261 308 363
#
# _framework density 20.761386999999999
#
# number of rings (size 3 to 8) (size 9 to 14) (size 15 to 20)
#    0.000    1.375    1.250    4.500    0.000    5.000 
#    0.000    2.500    0.000    1.875    0.000    0.000 
#    0.000    0.000    0.000    0.000    0.000    0.000 
#
# Total GULP energy -396930.653384 kJ/mol
# GULP energy per Si atom -12404.082918 kJ/mol
# Density = 2.071413 g / cm^3
# Si number density = 20.761387 Si / 1000 Ang^3
#
#
#
# Elastic Constant Matrix: (Units=GPa)
#
#
# Indices 1 2 3 4 5 6 
#
# 1 110.0523 27.2642 20.2964 0.0000 -9.5487 0.0000
# 2 27.2642 61.8103 21.5883 0.0003 -2.0166 -0.0001
# 3 20.2964 21.5883 80.1371 0.0000 -0.5001 -0.0001
# 4 0.0000 0.0003 0.0000 26.7366 0.0000 -1.0372
# 5 -9.5487 -2.0166 -0.5001 0.0000 34.8634 0.0001
# 6 0.0000 -0.0001 -0.0001 -1.0372 0.0001 32.3870
#
#
#
# Elastic Compliance Matrix: (Units=1/GPa)
#
#
# Indices 1 2 3 4 5 6 
#
# 1 0.010609 -0.004041 -0.001582 0.000000 0.002649 0.000000
# 2 -0.004041 0.019430 -0.004211 0.000000 -0.000043 0.000000
# 3 -0.001582 -0.004211 0.014011 0.000000 -0.000476 0.000000
# 4 0.000000 0.000000 0.000000 0.037448 0.000000 0.001199
# 5 0.002649 -0.000043 -0.000476 0.000000 0.029400 0.000000
# 6 0.000000 0.000000 0.000000 0.001199 0.000000 0.030915
#
#
# Mechanical properties :
#
#
# Convention : Reuss Voigt Hill
#
# Bulk Modulus (GPa) = 41.01300 43.36640 42.18970
# Shear Modulus (GPa) = 29.47961 30.98746 30.23354
#
# Velocity S-wave (km/s) = 3.77228 3.86755 3.82021
# Velocity P-wave (km/s) = 6.22662 6.39353 6.31063
#
# Compressibility (1/GPa) = 0.02438251
#
# Stress axis : x y z
#
# Youngs Moduli (GPa) = 94.25733 51.46596 71.37364
#
# Poissons Ratio (x) = 0.20796 0.11291
# Poissons Ratio (y) = 0.38087 0.30057
# Poissons Ratio (z) = 0.14911 0.21674
#
# Static dielectric constant tensor:
#      x y z
#    x 3.862960 0.000000 0.009550 
#    y 0.000000 3.628420 0.000000 
#    z 0.009550 0.000000 3.836530 
# 
# 
# High freq. dielectric constant tensor:
#      x y z
#    x 1.825950 0.000000 -0.000240 
#    y 0.000000 1.799220 0.000000 
#    z -0.000240 0.000000 1.819020 
# 
# From -- ./inp_files/249852.got.cif
#   From: 2010.06.25/outbox.cif.g09.slc.cpg/sg12_125_cif.got.tgz:249852.got - 2010.06.28 00:19:55.
