data_PCOD8109935
_publ_section_title
;
Structure prediction by ZEFSAII (Michael W. Deem and Ramdas Pophale) SiO2 
 PCOD8109935
Probable space group: C 2/M
;
_chemical_formula_sum "Si O2"
_cell_formula_units_Z 40
_cell_length_a 18.937386
_cell_length_b 8.967770
_cell_length_c 28.306419
_cell_angle_alpha 90.000000
_cell_angle_beta 24.754898
_cell_angle_gamma 90.000000
_cell_volume 2012.941457
_symmetry_space_group_name_H-M "C 2/M"
_symmetry_group_IT_number 12
_symmetry_cell_setting 'monoclinic'
loop_
_space_group_symop_operation_xyz
x,y,z
-x,y,-z
-x,-y,-z
x,-y,z
1/2+x,1/2+y,z
1/2-x,1/2+y,-z
1/2-x,1/2-y,-z
1/2+x,1/2-y,z
loop_
_atom_site_type_symbol
_atom_site_label
_atom_site_fract_x
_atom_site_fract_y
_atom_site_fract_z
Si Si1 0.336592 0.828349 0.310068
Si Si2 0.773914 0.172217 0.726781
Si Si3 0.028597 0.831611 0.037626
Si Si4 0.149732 0.825077 0.518512
Si Si5 0.814046 0.824442 0.913684
O O1 0.227815 0.805245 0.328718
O O2 0.225356 0.778146 0.422096
O O3 0.497363 0.722356 0.212389
O O4 0.395514 0.000000 0.278724
O O5 0.632070 0.272039 0.836679
O O6 0.954366 0.224879 0.637373
O O7 0.739007 0.000000 0.760612
O O8 0.062382 0.000000 0.034793
O O9 0.191784 0.729707 0.946441
O O10 0.000000 0.827122 0.000000
O O11 0.250000 0.750000 0.500000
O O12 0.164175 0.000000 0.517102
O O13 0.802628 0.000000 0.925776
O O14 0.750000 0.750000 0.000000
#
# Coordination Sequence:
#
# PCOD8109935 Si02
#       5
#     8   8   8   8   8
#     4  10  21  40  65  90 122 164 207 255 305 361
#     4  10  21  40  65  90 119 162 211 254 303 364
#     4  11  25  42  62  91 128 166 205 253 312 368
#     4  10  23  41  62  91 124 161 206 254 312 368
#     4  12  24  40  64  94 127 162 206 254 307 370
#
# _framework density 19.871417000000001
#
# number of rings (size 3 to 8) (size 9 to 14) (size 15 to 20)
#    0.000    1.400    2.000    3.000    2.800    5.600 
#    0.000    0.000    0.000    3.600    0.000    0.000 
#    0.000    0.000    0.000    0.000    0.000    0.000 
#
# Total GULP energy -248073.188845 kJ/mol
# GULP energy per Si atom -12403.659442 kJ/mol
# Density = 1.982619 g / cm^3
# Si number density = 19.871417 Si / 1000 Ang^3
#
#
#
# Elastic Constant Matrix: (Units=GPa)
#
#
# Indices 1 2 3 4 5 6 
#
# 1 115.0517 45.5368 39.3625 0.0003 -11.7089 0.0001
# 2 45.5368 108.6915 36.4926 0.0016 -8.0922 0.0003
# 3 39.3625 36.4926 71.1190 -0.0023 -11.9296 0.0005
# 4 0.0003 0.0016 -0.0023 33.6622 0.0012 -4.0457
# 5 -11.7089 -8.0922 -11.9296 0.0012 42.4670 0.0001
# 6 0.0001 0.0003 0.0005 -4.0457 0.0001 34.0470
#
#
#
# Elastic Compliance Matrix: (Units=1/GPa)
#
#
# Indices 1 2 3 4 5 6 
#
# 1 0.011680 -0.003261 -0.004571 0.000000 0.001315 0.000000
# 2 -0.003261 0.012038 -0.004343 -0.000001 0.000175 0.000000
# 3 -0.004571 -0.004343 0.019382 0.000001 0.003357 0.000000
# 4 0.000000 -0.000001 0.000001 0.030137 -0.000001 0.003581
# 5 0.001315 0.000175 0.003357 -0.000001 0.024887 0.000000
# 6 0.000000 0.000000 0.000000 0.003581 0.000000 0.029797
#
#
# Mechanical properties :
#
#
# Convention : Reuss Voigt Hill
#
# Bulk Modulus (GPa) = 53.32988 59.73842 56.53415
# Shear Modulus (GPa) = 31.54193 33.59990 32.57091
#
# Velocity S-wave (km/s) = 3.98842 4.11647 4.05295
# Velocity P-wave (km/s) = 6.93583 7.26096 7.10026
#
# Compressibility (1/GPa) = 0.01875121
#
# Stress axis : x y z
#
# Youngs Moduli (GPa) = 85.61636 83.07361 51.59399
#
# Poissons Ratio (x) = 0.27089 0.23582
# Poissons Ratio (y) = 0.27918 0.22405
# Poissons Ratio (z) = 0.39133 0.36075
#
# Static dielectric constant tensor:
#      x y z
#    x 4.231240 -0.000390 -0.147610 
#    y -0.000390 3.255180 0.000030 
#    z -0.147610 0.000030 3.578410 
# 
# 
# High freq. dielectric constant tensor:
#      x y z
#    x 1.789410 0.000000 -0.004080 
#    y 0.000000 1.772990 0.000000 
#    z -0.004080 0.000000 1.782490 
# 
# From -- ./inp_files/221223.got.cif
#   From: 2010.06.25/outbox.cif.g09.slc.cpg/sg12_111_cif.got.tgz:221223.got - 2010.06.28 00:19:55.
