data_PCOD8109443
_publ_section_title
;
Structure prediction by ZEFSAII (Michael W. Deem and Ramdas Pophale) SiO2 
 PCOD8109443
Probable space group: C 2/M
;
_chemical_formula_sum "Si O2"
_cell_formula_units_Z 48
_cell_length_a 17.691954
_cell_length_b 8.647182
_cell_length_c 30.530354
_cell_angle_alpha 90.000000
_cell_angle_beta 149.741626
_cell_angle_gamma 90.000000
_cell_volume 2353.568231
_symmetry_space_group_name_H-M "C 2/M"
_symmetry_group_IT_number 12
_symmetry_cell_setting 'monoclinic'
loop_
_space_group_symop_operation_xyz
x,y,z
-x,y,-z
-x,-y,-z
x,-y,z
1/2+x,1/2+y,z
1/2-x,1/2+y,-z
1/2-x,1/2-y,-z
1/2+x,1/2-y,z
loop_
_atom_site_type_symbol
_atom_site_label
_atom_site_fract_x
_atom_site_fract_y
_atom_site_fract_z
Si Si1 0.595274 0.320041 0.590282
Si Si2 0.587335 0.178961 0.423433
Si Si3 0.085762 0.680635 0.916999
Si Si4 0.082851 0.181633 0.085458
Si Si5 0.073640 0.322928 0.749090
Si Si6 0.918211 0.179055 0.752152
O O1 0.500000 0.277424 0.500000
O O2 0.639407 0.500000 0.612985
O O3 0.498287 0.279483 0.583809
O O4 0.743655 0.218199 0.664412
O O5 0.750000 0.250000 0.500000
O O6 0.499594 0.197497 0.334541
O O7 0.596978 0.000000 0.442652
O O8 0.104765 0.500000 0.929004
O O9 0.988692 0.734609 0.909276
O O10 0.003448 0.722818 0.831103
O O11 0.250000 0.750000 0.000000
O O12 0.255045 0.231964 0.167834
O O13 0.065747 0.000000 0.084629
O O14 0.000000 0.235733 0.000000
O O15 0.062857 0.500000 0.759926
O O16 0.986825 0.214239 0.739191
O O17 0.938338 0.000000 0.773537
#
# Coordination Sequence:
#
# PCOD8109443 Si02
#       6
#     8   8   8   8   8   8
#     4  11  24  42  64  91 125 164 207 256 310 366
#     4  11  23  39  61  89 123 162 205 254 307 365
#     4  12  25  42  65  92 126 164 206 255 306 364
#     4  10  21  39  64  92 123 159 200 249 305 363
#     4  10  22  40  61  88 123 160 199 249 307 362
#     4  12  25  41  64  93 125 162 207 255 306 367
#
# _framework density 20.394566000000001
#
# number of rings (size 3 to 8) (size 9 to 14) (size 15 to 20)
#    0.000    1.000    0.000    7.000    0.000   10.333 
#    0.000    0.000    0.000    0.000    0.000    0.000 
#    0.000    0.000    0.000    0.000    0.000    0.000 
#
# Total GULP energy -297784.823874 kJ/mol
# GULP energy per Si atom -12407.700995 kJ/mol
# Density = 2.034815 g / cm^3
# Si number density = 20.394566 Si / 1000 Ang^3
#
#
#
# Elastic Constant Matrix: (Units=GPa)
#
#
# Indices 1 2 3 4 5 6 
#
# 1 130.7245 25.3108 43.0163 0.0000 13.2455 -0.0002
# 2 25.3108 29.1192 3.4207 0.0000 5.9246 -0.0005
# 3 43.0163 3.4207 119.9595 0.0000 17.1643 -0.0002
# 4 0.0000 0.0000 0.0000 36.5439 0.0000 6.8749
# 5 13.2455 5.9246 17.1643 0.0000 40.4616 0.0001
# 6 -0.0002 -0.0005 -0.0002 6.8749 0.0001 48.2958
#
#
#
# Elastic Compliance Matrix: (Units=1/GPa)
#
#
# Indices 1 2 3 4 5 6 
#
# 1 0.010512 -0.008586 -0.003420 0.000000 -0.000733 0.000000
# 2 -0.008586 0.042418 0.002508 0.000000 -0.004464 0.000000
# 3 -0.003420 0.002508 0.009990 0.000000 -0.003485 0.000000
# 4 0.000000 0.000000 0.000000 0.028117 0.000000 -0.004002
# 5 -0.000733 -0.004464 -0.003485 0.000000 0.027087 0.000000
# 6 0.000000 0.000000 0.000000 -0.004002 0.000000 0.021275
#
#
# Mechanical properties :
#
#
# Convention : Reuss Voigt Hill
#
# Bulk Modulus (GPa) = 22.76631 47.03320 34.89976
# Shear Modulus (GPa) = 28.89569 38.93061 33.91315
#
# Velocity S-wave (km/s) = 3.76817 4.37380 4.08223
# Velocity P-wave (km/s) = 5.48810 6.97270 6.27447
#
# Compressibility (1/GPa) = 0.04392455
#
# Stress axis : x y z
#
# Youngs Moduli (GPa) = 95.13256 23.57466 100.10418
#
# Poissons Ratio (x) = 0.20241 0.34232
# Poissons Ratio (y) = 0.81681 -0.25107
# Poissons Ratio (z) = 0.32532 -0.05913
#
# Static dielectric constant tensor:
#      x y z
#    x 4.608170 0.000000 0.783480 
#    y 0.000000 3.784460 0.000000 
#    z 0.783480 0.000000 4.686830 
# 
# 
# High freq. dielectric constant tensor:
#      x y z
#    x 1.815260 0.000000 0.001730 
#    y 0.000000 1.802140 0.000000 
#    z 0.001730 0.000000 1.819290 
# 
# From -- ./inp_files/378554.got.cif
#   From: 2010.06.25/outbox.cif.g09.slc.cpg/sg12_190_cif.got.tgz:378554.got - 2010.06.28 00:19:55.
