data_PCOD8109014
_publ_section_title
;
Structure prediction by ZEFSAII (Michael W. Deem and Ramdas Pophale) SiO2 
 PCOD8109014
Probable space group: C 2/M
;
_chemical_formula_sum "Si O2"
_cell_formula_units_Z 56
_cell_length_a 25.470320
_cell_length_b 17.626549
_cell_length_c 9.522299
_cell_angle_alpha 90.000000
_cell_angle_beta 39.028690
_cell_angle_gamma 90.000000
_cell_volume 2692.053728
_symmetry_space_group_name_H-M "C 2/M"
_symmetry_group_IT_number 12
_symmetry_cell_setting 'monoclinic'
loop_
_space_group_symop_operation_xyz
x,y,z
-x,y,-z
-x,-y,-z
x,-y,z
1/2+x,1/2+y,z
1/2-x,1/2+y,-z
1/2-x,1/2-y,-z
1/2+x,1/2-y,z
loop_
_atom_site_type_symbol
_atom_site_label
_atom_site_fract_x
_atom_site_fract_y
_atom_site_fract_z
Si Si1 0.177892 0.084809 0.117381
Si Si2 0.597140 0.264374 0.310684
Si Si3 0.613035 0.813715 0.557397
Si Si4 0.019551 0.585806 0.297337
Si Si5 0.731494 0.585307 0.693581
Si Si6 0.192424 0.648645 0.948729
Si Si7 0.308363 0.309014 0.453613
O O1 0.106821 0.145118 0.307004
O O2 0.265364 0.110776 0.002488
O O3 0.153901 0.000000 0.220016
O O4 0.182789 0.085214 0.939975
O O5 0.500000 0.245054 0.500000
O O6 0.639356 0.221309 0.353354
O O7 0.649984 0.230971 0.069407
O O8 0.526580 0.858743 0.717924
O O9 0.681190 0.871683 0.473395
O O10 0.609458 0.739195 0.667954
O O11 0.989295 0.500000 0.333510
O O12 0.000000 0.609165 0.500000
O O13 0.117483 0.592394 0.061345
O O14 0.750775 0.500000 0.604138
O O15 0.672036 0.624330 0.698502
O O16 0.260217 0.655136 0.686243
O O17 0.250000 0.250000 0.500000
#
# Coordination Sequence:
#
# PCOD8109014 Si02
#       7
#     8   8   8   8   8   8   8
#     4  11  23  38  63  92 118 155 202 253 302 349
#     4  12  21  36  62  92 123 154 194 249 303 352
#     4  11  18  38  57  86 120 159 194 236 294 360
#     4  11  21  34  57  94 132 156 187 243 313 366
#     4  10  21  39  61  86 121 158 197 247 302 353
#     4  12  20  37  64  93 120 151 203 248 294 359
#     4  10  23  37  59  83 120 161 205 241 285 351
#
# _framework density 20.801962
#
# number of rings (size 3 to 8) (size 9 to 14) (size 15 to 20)
#    0.000    1.000    5.714    3.000    0.000    3.714 
#    0.000    2.857    0.000    4.286    0.000    2.000 
#    0.000    0.000    0.000    0.000    0.000    0.000 
#
# Total GULP energy -346990.053400 kJ/mol
# GULP energy per Si atom -12392.501907 kJ/mol
# Density = 2.075462 g / cm^3
# Si number density = 20.801962 Si / 1000 Ang^3
#
#
#
# Elastic Constant Matrix: (Units=GPa)
#
#
# Indices 1 2 3 4 5 6 
#
# 1 116.7121 67.0310 28.2465 0.0000 6.3491 0.0000
# 2 67.0310 170.6597 30.9105 0.0000 5.5743 0.0000
# 3 28.2465 30.9105 37.5229 0.0000 4.5749 0.0000
# 4 0.0000 0.0000 0.0000 29.0267 0.0000 4.2138
# 5 6.3491 5.5743 4.5749 0.0000 19.8213 0.0000
# 6 0.0000 0.0000 0.0000 4.2138 0.0000 37.3747
#
#
#
# Elastic Compliance Matrix: (Units=1/GPa)
#
#
# Indices 1 2 3 4 5 6 
#
# 1 0.012200 -0.003658 -0.005988 0.000000 -0.001497 0.000000
# 2 -0.003658 0.007992 -0.003806 0.000000 -0.000197 0.000000
# 3 -0.005988 -0.003806 0.034911 0.000000 -0.005069 0.000000
# 4 0.000000 0.000000 0.000000 0.035024 0.000000 -0.003949
# 5 -0.001497 -0.000197 -0.005069 0.000000 0.052156 0.000000
# 6 0.000000 0.000000 0.000000 -0.003949 0.000000 0.027201
#
#
# Mechanical properties :
#
#
# Convention : Reuss Voigt Hill
#
# Bulk Modulus (GPa) = 35.46161 64.14117 49.80139
# Shear Modulus (GPa) = 24.29686 30.49165 27.39426
#
# Velocity S-wave (km/s) = 3.42132 3.83274 3.63286
# Velocity P-wave (km/s) = 5.71765 7.10547 6.44900
#
# Compressibility (1/GPa) = 0.02819951
#
# Stress axis : x y z
#
# Youngs Moduli (GPa) = 81.96904 125.12023 28.64427
#
# Poissons Ratio (x) = 0.45774 0.17151
# Poissons Ratio (y) = 0.29987 0.10902
# Poissons Ratio (z) = 0.49079 0.47619
#
# Static dielectric constant tensor:
#      x y z
#    x 3.844920 0.000000 0.061680 
#    y 0.000000 4.254910 0.000000 
#    z 0.061680 0.000000 3.119260 
# 
# 
# High freq. dielectric constant tensor:
#      x y z
#    x 1.815130 0.000000 0.013500 
#    y 0.000000 1.833900 0.000000 
#    z 0.013500 0.000000 1.761200 
# 
# From -- ./inp_files/105977.got.cif
#   From: 2010.06.25/outbox.cif.g09.slc.cpg/sg12_53_cif.got.tgz:105977.got - 2010.06.28 00:19:55.
