data_PCOD8109992
_publ_section_title
;
Structure prediction by ZEFSAII (Michael W. Deem and Ramdas Pophale) SiO2 
 PCOD8109992
Probable space group: C 2/M
;
_chemical_formula_sum "Si O2"
_cell_formula_units_Z 48
_cell_length_a 8.133040
_cell_length_b 12.455328
_cell_length_c 20.896787
_cell_angle_alpha 90.000000
_cell_angle_beta 108.979926
_cell_angle_gamma 90.000000
_cell_volume 2001.750847
_symmetry_space_group_name_H-M "C 2/M"
_symmetry_group_IT_number 12
_symmetry_cell_setting 'monoclinic'
loop_
_space_group_symop_operation_xyz
x,y,z
-x,y,-z
-x,-y,-z
x,-y,z
1/2+x,1/2+y,z
1/2-x,1/2+y,-z
1/2-x,1/2-y,-z
1/2+x,1/2-y,z
loop_
_atom_site_type_symbol
_atom_site_label
_atom_site_fract_x
_atom_site_fract_y
_atom_site_fract_z
Si Si1 0.803485 0.127511 0.784448
Si Si2 0.685082 0.620450 0.007338
Si Si3 0.317090 0.620586 0.140241
Si Si4 0.080342 0.201755 0.449033
Si Si5 0.197055 0.622499 0.629417
Si Si6 0.541771 0.871821 0.859210
O O1 0.760290 0.160094 0.706816
O O2 0.644243 0.167886 0.808854
O O3 0.994398 0.179059 0.826992
O O4 0.816915 0.000000 0.795387
O O5 0.672415 0.500000 0.033231
O O6 0.739430 0.621673 0.940677
O O7 0.500000 0.676115 0.000000
O O8 0.840281 0.677453 0.067439
O O9 0.343901 0.500000 0.168484
O O10 0.158244 0.672525 0.161905
O O11 0.250000 0.250000 0.500000
O O12 0.133663 0.127761 0.395891
O O13 0.000000 0.136631 0.500000
O O14 0.955930 0.298957 0.411378
O O15 0.127304 0.500000 0.621302
O O16 0.527401 0.000000 0.862886
#
# Coordination Sequence:
#
# PCOD8109992 Si02
#       6
#     8   8   8   8   8   8
#     4   9  17  30  46  71 111 154 196 249 310 372
#     4   9  13  19  33  52  87 143 193 250 318 360
#     4   9  15  23  36  59  96 142 198 254 306 370
#     4   9  20  40  65  95 127 162 208 257 303 370
#     4  10  21  40  65  94 133 173 207 258 322 376
#     4   9  15  23  36  59  96 143 198 254 308 368
#
# _framework density 23.979009000000001
#
# number of rings (size 3 to 8) (size 9 to 14) (size 15 to 20)
#    0.000    2.833    1.667    0.500    0.000    5.333 
#    6.000    2.500    0.000    0.000    0.000    0.000 
#    0.000    5.333    0.000    0.667    0.000    0.000 
#
# Total GULP energy -297393.180680 kJ/mol
# GULP energy per Si atom -12391.382528 kJ/mol
# Density = 2.392443 g / cm^3
# Si number density = 23.979009 Si / 1000 Ang^3
#
#
#
# Elastic Constant Matrix: (Units=GPa)
#
#
# Indices 1 2 3 4 5 6 
#
# 1 204.1244 31.5532 84.0428 0.0000 -22.3607 0.0000
# 2 31.5532 54.5654 -6.7951 0.0000 4.6731 0.0000
# 3 84.0428 -6.7951 162.0177 0.0000 -14.2827 0.0000
# 4 0.0000 0.0000 0.0000 44.8547 0.0000 -4.8810
# 5 -22.3607 4.6731 -14.2827 0.0000 34.4328 0.0000
# 6 0.0000 0.0000 0.0000 -4.8810 0.0000 41.7834
#
#
#
# Elastic Compliance Matrix: (Units=1/GPa)
#
#
# Indices 1 2 3 4 5 6 
#
# 1 0.007785 -0.005344 -0.003895 0.000000 0.004165 0.000000
# 2 -0.005344 0.022262 0.003252 0.000000 -0.005142 0.000000
# 3 -0.003895 0.003252 0.008373 0.000000 0.000502 0.000000
# 4 0.000000 0.000000 0.000000 0.022581 0.000000 0.002638
# 5 0.004165 -0.005142 0.000502 0.000000 0.032653 0.000000
# 6 0.000000 0.000000 0.000000 0.002638 0.000000 0.024241
#
#
# Mechanical properties :
#
#
# Convention : Reuss Voigt Hill
#
# Bulk Modulus (GPa) = 37.81115 70.92327 54.36721
# Shear Modulus (GPa) = 36.05300 45.00797 40.53048
#
# Velocity S-wave (km/s) = 3.88174 4.33711 4.11572
# Velocity P-wave (km/s) = 5.99109 7.39744 6.73109
#
# Compressibility (1/GPa) = 0.02644723
#
# Stress axis : x y z
#
# Youngs Moduli (GPa) = 128.45251 44.91957 119.42588
#
# Poissons Ratio (x) = 0.24003 0.46519
# Poissons Ratio (y) = 0.68639 -0.38839
# Poissons Ratio (z) = 0.50035 -0.14609
#
# Static dielectric constant tensor:
#      x y z
#    x 4.876320 0.000000 0.065970 
#    y 0.000000 4.421030 0.000000 
#    z 0.065970 0.000000 3.790070 
# 
# 
# High freq. dielectric constant tensor:
#      x y z
#    x 1.977560 0.000000 -0.007820 
#    y 0.000000 1.968260 0.000000 
#    z -0.007820 0.000000 1.928330 
# 
# From -- ./inp_files/299905.got.cif
#   From: 2010.06.25/outbox.cif.g09.slc.cpg/sg12_150_cif.got.tgz:299905.got - 2010.06.28 00:19:55.
