data_PCOD8109731
_publ_section_title
;
Structure prediction by ZEFSAII (Michael W. Deem and Ramdas Pophale) SiO2 
 PCOD8109731
Probable space group: C 2/M
;
_chemical_formula_sum "Si O2"
_cell_formula_units_Z 48
_cell_length_a 19.394815
_cell_length_b 9.089902
_cell_length_c 29.972394
_cell_angle_alpha 90.000000
_cell_angle_beta 152.807469
_cell_angle_gamma 90.000000
_cell_volume 2414.712056
_symmetry_space_group_name_H-M "C 2/M"
_symmetry_group_IT_number 12
_symmetry_cell_setting 'monoclinic'
loop_
_space_group_symop_operation_xyz
x,y,z
-x,y,-z
-x,-y,-z
x,-y,z
1/2+x,1/2+y,z
1/2-x,1/2+y,-z
1/2-x,1/2-y,-z
1/2+x,1/2-y,z
loop_
_atom_site_type_symbol
_atom_site_label
_atom_site_fract_x
_atom_site_fract_y
_atom_site_fract_z
Si Si1 0.945364 0.828198 0.919630
Si Si2 0.024549 0.171299 0.763111
Si Si3 0.016945 0.830433 0.582169
Si Si4 0.097289 0.672747 0.715917
Si Si5 0.801803 0.328237 0.985342
Si Si6 0.244806 0.830455 0.636661
O O1 0.772157 0.782753 0.814635
O O2 0.972825 0.000000 0.926484
O O3 0.000000 0.782492 0.000000
O O4 0.036892 0.735839 0.935949
O O5 0.017119 0.253646 0.711878
O O6 0.183040 0.205071 0.877883
O O7 0.891643 0.229140 0.718453
O O8 0.001001 0.000000 0.741144
O O9 0.015287 0.727916 0.624338
O O10 0.156390 0.786635 0.630655
O O11 0.860958 0.802524 0.466845
O O12 0.031167 0.000000 0.604851
O O13 0.074973 0.500000 0.707783
O O14 0.818291 0.500000 0.004489
O O15 0.750000 0.250000 0.000000
O O16 0.294815 0.000000 0.667280
#
# Coordination Sequence:
#
# PCOD8109731 Si02
#       6
#     8   8   8   8   8   8
#     4  10  21  40  62  85 118 156 195 240 287 344
#     4  11  24  40  59  87 120 153 196 245 289 343
#     4   9  20  40  63  89 118 151 194 241 291 351
#     4  11  23  38  61  89 118 156 197 239 293 349
#     4  11  25  41  60  87 120 157 197 241 290 345
#     4   9  20  40  64  87 117 155 193 238 294 350
#
# _framework density 19.878146000000001
#
# number of rings (size 3 to 8) (size 9 to 14) (size 15 to 20)
#    0.000    1.833    1.667    2.500    2.333    5.667 
#    0.000    1.667    0.000    0.000    0.000    0.000 
#    0.000    0.000    0.000    0.000    0.000    0.000 
#
# Total GULP energy -297748.475463 kJ/mol
# GULP energy per Si atom -12406.186478 kJ/mol
# Density = 1.983290 g / cm^3
# Si number density = 19.878146 Si / 1000 Ang^3
#
#
#
# Elastic Constant Matrix: (Units=GPa)
#
#
# Indices 1 2 3 4 5 6 
#
# 1 84.8190 38.4721 -0.6733 0.0000 -0.3125 -0.0004
# 2 38.4721 78.4645 21.4184 0.0001 2.4744 -0.0012
# 3 -0.6733 21.4184 25.8192 -0.0006 4.9116 -0.0006
# 4 0.0000 0.0001 -0.0006 34.3626 0.0000 1.2849
# 5 -0.3125 2.4744 4.9116 0.0000 37.2320 0.0001
# 6 -0.0004 -0.0012 -0.0006 1.2849 0.0001 35.8014
#
#
#
# Elastic Compliance Matrix: (Units=1/GPa)
#
#
# Indices 1 2 3 4 5 6 
#
# 1 0.016755 -0.010785 0.009458 0.000000 -0.000390 0.000000
# 2 -0.010785 0.023436 -0.019909 0.000000 0.000978 0.000000
# 3 0.009458 -0.019909 0.056648 0.000001 -0.006070 0.000000
# 4 0.000000 0.000000 0.000001 0.029141 0.000000 -0.001046
# 5 -0.000390 0.000978 -0.006070 0.000000 0.027591 0.000000
# 6 0.000000 0.000000 0.000000 -0.001046 0.000000 0.027969
#
#
# Mechanical properties :
#
#
# Convention : Reuss Voigt Hill
#
# Bulk Modulus (GPa) = 18.39346 34.17081 26.28213
# Shear Modulus (GPa) = 20.64975 30.13824 25.39399
#
# Velocity S-wave (km/s) = 3.22656 3.89800 3.57807
# Velocity P-wave (km/s) = 4.81188 6.12264 5.50640
#
# Compressibility (1/GPa) = 0.05436716
#
# Stress axis : x y z
#
# Youngs Moduli (GPa) = 59.68339 42.66933 17.65300
#
# Poissons Ratio (x) = 0.46017 -0.16695
# Poissons Ratio (y) = 0.64366 0.35145
# Poissons Ratio (z) = -0.56446 0.84949
#
# Static dielectric constant tensor:
#      x y z
#    x 3.587330 0.000000 0.043480 
#    y 0.000000 3.523480 0.000000 
#    z 0.043480 0.000000 3.649840 
# 
# 
# High freq. dielectric constant tensor:
#      x y z
#    x 1.783590 0.000000 0.001560 
#    y 0.000000 1.775430 0.000000 
#    z 0.001560 0.000000 1.776060 
# 
# From -- ./inp_files/244699.got.cif
#   From: 2010.06.25/outbox.cif.g09.slc.cpg/sg12_123_cif.got.tgz:244699.got - 2010.06.28 00:19:55.
