data_PCOD8110165
_publ_section_title
;
Structure prediction by ZEFSAII (Michael W. Deem and Ramdas Pophale) SiO2 
 PCOD8110165
Probable space group: C 2/M
;
_chemical_formula_sum "Si O2"
_cell_formula_units_Z 64
_cell_length_a 12.054380
_cell_length_b 16.942497
_cell_length_c 16.026078
_cell_angle_alpha 90.000000
_cell_angle_beta 89.851719
_cell_angle_gamma 90.000000
_cell_volume 3273.015735
_symmetry_space_group_name_H-M "C 2/M"
_symmetry_group_IT_number 12
_symmetry_cell_setting 'monoclinic'
loop_
_space_group_symop_operation_xyz
x,y,z
-x,y,-z
-x,-y,-z
x,-y,z
1/2+x,1/2+y,z
1/2-x,1/2+y,-z
1/2-x,1/2-y,-z
1/2+x,1/2-y,z
loop_
_atom_site_type_symbol
_atom_site_label
_atom_site_fract_x
_atom_site_fract_y
_atom_site_fract_z
Si Si1 0.909511 0.094884 0.691051
Si Si2 0.489399 0.908730 0.695495
Si Si3 0.708218 0.906546 0.196511
Si Si4 0.570065 0.406412 0.121807
Si Si5 0.168141 0.588248 0.457933
Si Si6 0.151770 0.852705 0.655139
Si Si7 0.841747 0.093496 0.046385
Si Si8 0.310258 0.171573 0.373750
O O1 0.897878 0.124921 0.786872
O O2 0.810234 0.134542 0.640795
O O3 0.021279 0.130044 0.650604
O O4 0.906944 0.000000 0.682746
O O5 0.412916 0.877409 0.772728
O O6 0.425732 0.892092 0.609583
O O7 0.604328 0.861723 0.695589
O O8 0.517854 0.000000 0.707520
O O9 0.806489 0.871045 0.252062
O O10 0.732530 0.880985 0.100062
O O11 0.714386 0.000000 0.208874
O O12 0.566308 0.500000 0.126635
O O13 0.450402 0.373457 0.093656
O O14 0.659764 0.377901 0.050593
O O15 0.152910 0.500000 0.493645
O O16 0.287971 0.592665 0.413341
O O17 0.152335 0.648411 0.533464
O O18 0.187915 0.764772 0.631671
O O19 0.850518 0.000000 0.045953
#
# Coordination Sequence:
#
# PCOD8110165 Si02
#       8
#     8   8   8   8   8   8   8   8
#     4  11  22  38  59  84 117 151 183 228 284 340
#     4   9  19  36  59  79 101 141 189 230 268 328
#     4   9  16  31  57  82 108 140 186 233 273 320
#     4   8  14  25  48  82 114 138 176 231 275 316
#     4  10  21  41  63  78 102 142 191 237 273 325
#     4  11  23  36  55  83 114 144 182 233 283 331
#     4   8  12  23  48  84 111 134 178 235 276 310
#     4  12  25  37  55  80 115 147 183 228 284 339
#
# _framework density 19.553832
#
# number of rings (size 3 to 8) (size 9 to 14) (size 15 to 20)
#    0.000    2.250    1.250    4.500    3.500    1.500 
#    2.250    1.250    0.000    1.500    3.250    4.375 
#    0.000    0.000    0.000    0.000    0.000    0.000 
#
# Total GULP energy -396600.301109 kJ/mol
# GULP energy per Si atom -12393.759410 kJ/mol
# Density = 1.950933 g / cm^3
# Si number density = 19.553832 Si / 1000 Ang^3
#
#
#
# Elastic Constant Matrix: (Units=GPa)
#
#
# Indices 1 2 3 4 5 6 
#
# 1 96.2335 18.7377 7.1205 0.0000 -18.5259 0.0000
# 2 18.7377 52.2556 10.9650 0.0000 0.5506 0.0000
# 3 7.1205 10.9650 59.8633 0.0000 -21.9073 0.0000
# 4 0.0000 0.0000 0.0000 2.6385 0.0000 0.7952
# 5 -18.5259 0.5506 -21.9073 0.0000 25.3868 0.0000
# 6 0.0000 0.0000 0.0000 0.7952 0.0000 16.1039
#
#
#
# Elastic Compliance Matrix: (Units=1/GPa)
#
#
# Indices 1 2 3 4 5 6 
#
# 1 0.014031 -0.006184 0.004765 0.000000 0.014485 0.000000
# 2 -0.006184 0.023113 -0.007794 0.000000 -0.011740 0.000000
# 3 0.004765 -0.007794 0.027623 0.000000 0.027483 0.000000
# 4 0.000000 0.000000 0.000000 0.384721 0.000000 -0.018996
# 5 0.014485 -0.011740 0.027483 0.000000 0.073932 0.000000
# 6 0.000000 0.000000 0.000000 -0.018996 0.000000 0.063035
#
#
# Mechanical properties :
#
#
# Convention : Reuss Voigt Hill
#
# Bulk Modulus (GPa) = 21.57925 31.33321 26.45623
# Shear Modulus (GPa) = 8.06024 20.26114 14.16069
#
# Velocity S-wave (km/s) = 2.03249 3.22246 2.69400
# Velocity P-wave (km/s) = 4.07036 5.46850 4.82039
#
# Compressibility (1/GPa) = 0.04634082
#
# Stress axis : x y z
#
# Youngs Moduli (GPa) = 71.26883 43.26521 36.20141
#
# Poissons Ratio (x) = 0.26754 -0.17248
# Poissons Ratio (y) = 0.44071 0.28216
# Poissons Ratio (z) = -0.33956 0.33722
#
# Static dielectric constant tensor:
#      x y z
#    x 3.572840 0.000000 -0.406850 
#    y 0.000000 3.224140 0.000000 
#    z -0.406850 0.000000 3.847400 
# 
# 
# High freq. dielectric constant tensor:
#      x y z
#    x 1.753300 0.000000 -0.031800 
#    y 0.000000 1.728050 0.000000 
#    z -0.031800 0.000000 1.760350 
# 
# From -- ./inp_files/263359.got.cif
#   From: 2010.06.25/outbox.cif.g09.slc.cpg/sg12_132_cif.got.tgz:263359.got - 2010.06.28 00:19:55.
