data_PCOD8110531
_publ_section_title
;
Structure prediction by ZEFSAII (Michael W. Deem and Ramdas Pophale) SiO2 
 PCOD8110531
Probable space group: C 2/M
;
_chemical_formula_sum "Si O2"
_cell_formula_units_Z 56
_cell_length_a 14.737734
_cell_length_b 18.398941
_cell_length_c 20.893265
_cell_angle_alpha 90.000000
_cell_angle_beta 146.815004
_cell_angle_gamma 90.000000
_cell_volume 3100.917985
_symmetry_space_group_name_H-M "C 2/M"
_symmetry_group_IT_number 12
_symmetry_cell_setting 'monoclinic'
loop_
_space_group_symop_operation_xyz
x,y,z
-x,y,-z
-x,-y,-z
x,-y,z
1/2+x,1/2+y,z
1/2-x,1/2+y,-z
1/2-x,1/2-y,-z
1/2+x,1/2-y,z
loop_
_atom_site_type_symbol
_atom_site_label
_atom_site_fract_x
_atom_site_fract_y
_atom_site_fract_z
Si Si1 0.704704 0.580258 0.514413
Si Si2 0.500000 0.366074 0.500000
Si Si3 0.049733 0.586788 0.780752
Si Si4 0.250002 0.256338 0.681299
Si Si5 0.404798 0.195536 0.079796
Si Si6 0.356417 0.295503 0.611507
Si Si7 0.500000 0.215754 0.000000
Si Si8 0.172962 0.704430 0.769398
O O1 0.741013 0.500000 0.510951
O O2 0.551426 0.581904 0.472568
O O3 0.646164 0.623491 0.417434
O O4 0.864636 0.608968 0.648452
O O5 0.345960 0.318421 0.385899
O O6 0.077410 0.500000 0.801583
O O7 0.098501 0.623364 0.877668
O O8 0.163548 0.623368 0.793169
O O9 0.438070 0.243348 0.810689
O O10 0.258781 0.301363 0.620825
O O11 0.152883 0.299887 0.680253
O O12 0.427875 0.169979 0.018577
O O13 0.250000 0.250000 0.000000
O O14 0.250000 0.250000 0.500000
O O15 0.538718 0.259065 0.723043
O O16 0.646165 0.266716 0.109838
#
# Coordination Sequence:
#
# PCOD8110531 Si02
#       8
#     8   4   8   8   8   8   4   8
#     4  11  23  35  53  84 121 154 183 227 287 342
#     4  12  17  34  52  86 115 142 186 236 279 344
#     4  11  22  39  58  83 117 154 186 228 288 343
#     4  11  21  30  60  88 109 143 194 240 278 321
#     4  11  19  38  59  85 112 148 193 238 280 334
#     4  12  18  35  57  82 114 149 193 230 278 339
#     4  10  22  32  62  88 108 138 200 240 282 326
#     4  11  20  37  56  88 111 145 192 238 281 332
#
# _framework density 18.059169000000001
#
# number of rings (size 3 to 8) (size 9 to 14) (size 15 to 20)
#    0.000    0.857    8.571    0.214    0.000    0.000 
#    0.000    1.429    0.000    5.143    0.000    0.000 
#    0.000    0.000    0.000    0.000    0.000    0.000 
#
# Total GULP energy -346910.724924 kJ/mol
# GULP energy per Si atom -12389.668747 kJ/mol
# Density = 1.801807 g / cm^3
# Si number density = 18.059169 Si / 1000 Ang^3
#
#
#
# Elastic Constant Matrix: (Units=GPa)
#
#
# Indices 1 2 3 4 5 6 
#
# 1 146.6337 46.0744 21.8392 -0.0001 -26.9452 0.0000
# 2 46.0744 86.1969 27.6108 0.0000 -9.1135 0.0001
# 3 21.8392 27.6108 69.7136 -0.0021 6.4962 -0.0007
# 4 -0.0001 0.0000 -0.0021 20.1366 -0.0001 -6.9963
# 5 -26.9452 -9.1135 6.4962 -0.0001 36.6614 0.0000
# 6 0.0000 0.0001 -0.0007 -6.9963 0.0000 23.6788
#
#
#
# Elastic Compliance Matrix: (Units=1/GPa)
#
#
# Indices 1 2 3 4 5 6 
#
# 1 0.009478 -0.003717 -0.002095 0.000000 0.006413 0.000000
# 2 -0.003717 0.015449 -0.005142 -0.000001 0.002019 0.000000
# 3 -0.002095 -0.005142 0.017590 0.000002 -0.005935 0.000001
# 4 0.000000 -0.000001 0.000002 0.055342 -0.000001 0.016352
# 5 0.006413 0.002019 -0.005935 -0.000001 0.033544 0.000000
# 6 0.000000 0.000000 0.000001 0.016352 0.000000 0.047063
#
#
# Mechanical properties :
#
#
# Convention : Reuss Voigt Hill
#
# Bulk Modulus (GPa) = 48.52262 54.84367 51.68314
# Shear Modulus (GPa) = 24.12600 29.89667 27.01133
#
# Velocity S-wave (km/s) = 3.65902 4.07318 3.87164
# Velocity P-wave (km/s) = 6.69165 7.24954 6.97618
#
# Compressibility (1/GPa) = 0.02060894
#
# Stress axis : x y z
#
# Youngs Moduli (GPa) = 105.50508 64.72871 56.84950
#
# Poissons Ratio (x) = 0.24062 0.11908
# Poissons Ratio (y) = 0.39220 0.29234
# Poissons Ratio (z) = 0.22099 0.33286
#
# Static dielectric constant tensor:
#      x y z
#    x 4.120810 0.000000 -0.278490 
#    y 0.000000 2.885690 0.000010 
#    z -0.278490 0.000010 3.895590 
# 
# 
# High freq. dielectric constant tensor:
#      x y z
#    x 1.722150 0.000000 0.000500 
#    y 0.000000 1.657030 0.000000 
#    z 0.000500 0.000000 1.705090 
# 
# From -- ./inp_files/311771.got.cif
#   From: 2010.06.25/outbox.cif.g09.slc.cpg/sg12_156_cif.got.tgz:311771.got - 2010.06.28 00:19:55.
