data_PCOD8110329
_publ_section_title
;
Structure prediction by ZEFSAII (Michael W. Deem and Ramdas Pophale) SiO2 
 PCOD8110329
Probable space group: C 2/M
;
_chemical_formula_sum "Si O2"
_cell_formula_units_Z 40
_cell_length_a 13.660540
_cell_length_b 13.709303
_cell_length_c 11.572800
_cell_angle_alpha 90.000000
_cell_angle_beta 51.769013
_cell_angle_gamma 90.000000
_cell_volume 1702.472965
_symmetry_space_group_name_H-M "C 2/M"
_symmetry_group_IT_number 12
_symmetry_cell_setting 'monoclinic'
loop_
_space_group_symop_operation_xyz
x,y,z
-x,y,-z
-x,-y,-z
x,-y,z
1/2+x,1/2+y,z
1/2-x,1/2+y,-z
1/2-x,1/2-y,-z
1/2+x,1/2-y,z
loop_
_atom_site_type_symbol
_atom_site_label
_atom_site_fract_x
_atom_site_fract_y
_atom_site_fract_z
Si Si1 0.753073 0.389556 0.950224
Si Si2 0.910841 0.714423 0.464198
Si Si3 0.469504 0.888398 0.193973
Si Si4 0.669804 0.283914 0.786851
Si Si5 0.499793 0.610184 0.747275
O O1 0.755982 0.500000 0.898910
O O2 0.730311 0.314789 0.862511
O O3 0.884020 0.362335 0.912772
O O4 0.648057 0.377916 0.124477
O O5 0.914024 0.634065 0.361115
O O6 0.770882 0.725339 0.611215
O O7 0.960294 0.819376 0.385345
O O8 0.000000 0.675375 0.500000
O O9 0.400178 0.820657 0.150126
O O10 0.444091 0.000000 0.178211
O O11 0.568455 0.363014 0.817553
O O12 0.533418 0.500000 0.687120
#
# Coordination Sequence:
#
# PCOD8110329 Si02
#       5
#     8   8   8   8   8
#     4  10  21  41  68  97 125 164 213 262 316 375
#     4  11  23  40  60  94 128 169 216 258 318 375
#     4  10  22  40  65  93 127 168 213 260 313 378
#     4  11  22  38  64  95 128 162 213 264 315 373
#     4  10  22  40  64  92 126 165 210 263 316 375
#
# _framework density 23.495232999999999
#
# number of rings (size 3 to 8) (size 9 to 14) (size 15 to 20)
#    0.000    1.600    2.000    3.600    0.000    9.600 
#    3.600    0.000    0.000    9.600    0.000    0.000 
#    0.000    0.000    0.000    0.000    0.000    0.000 
#
# Total GULP energy -248084.371259 kJ/mol
# GULP energy per Si atom -12404.218563 kJ/mol
# Density = 2.344176 g / cm^3
# Si number density = 23.495233 Si / 1000 Ang^3
#
#
#
# Elastic Constant Matrix: (Units=GPa)
#
#
# Indices 1 2 3 4 5 6 
#
# 1 75.4464 47.4757 21.5714 0.0000 -13.1541 0.0000
# 2 47.4757 145.4234 37.8685 0.0000 -10.5620 0.0000
# 3 21.5714 37.8685 107.6647 0.0000 -32.5364 0.0000
# 4 0.0000 0.0000 0.0000 26.2846 0.0000 -7.2226
# 5 -13.1541 -10.5620 -32.5364 0.0000 41.6162 0.0000
# 6 0.0000 0.0000 0.0000 -7.2226 0.0000 31.4929
#
#
#
# Elastic Compliance Matrix: (Units=1/GPa)
#
#
# Indices 1 2 3 4 5 6 
#
# 1 0.017367 -0.005269 -0.000486 0.000000 0.003772 0.000000
# 2 -0.005269 0.009170 -0.002579 0.000000 -0.001354 0.000000
# 3 -0.000486 -0.002579 0.013157 0.000000 0.009478 0.000000
# 4 0.000000 0.000000 0.000000 0.040604 0.000000 0.009312
# 5 0.003772 -0.001354 0.009478 0.000000 0.032288 0.000000
# 6 0.000000 0.000000 0.000000 0.009312 0.000000 0.033889
#
#
# Mechanical properties :
#
#
# Convention : Reuss Voigt Hill
#
# Bulk Modulus (GPa) = 43.43167 60.26284 51.84726
# Shear Modulus (GPa) = 29.27103 34.65335 31.96219
#
# Velocity S-wave (km/s) = 3.53346 3.84462 3.69232
# Velocity P-wave (km/s) = 5.93065 6.73890 6.34765
#
# Compressibility (1/GPa) = 0.02302467
#
# Stress axis : x y z
#
# Youngs Moduli (GPa) = 57.58131 109.05362 76.00578
#
# Poissons Ratio (x) = 0.57461 0.03698
# Poissons Ratio (y) = 0.30340 0.19601
# Poissons Ratio (z) = 0.02801 0.28124
#
# Static dielectric constant tensor:
#      x y z
#    x 4.094950 0.000000 -0.316740 
#    y 0.000000 4.258430 0.000000 
#    z -0.316740 0.000000 4.320890 
# 
# 
# High freq. dielectric constant tensor:
#      x y z
#    x 1.928770 0.000000 -0.016690 
#    y 0.000000 1.930050 0.000000 
#    z -0.016690 0.000000 1.940890 
# 
# From -- ./inp_files/166476.got.cif
#   From: 2010.06.25/outbox.cif.g09.slc.cpg/sg12_84_cif.got.tgz:166476.got - 2010.06.28 00:19:55.
