data_PCOD8110161
_publ_section_title
;
Structure prediction by ZEFSAII (Michael W. Deem and Ramdas Pophale) SiO2 
 PCOD8110161
Probable space group: C 2/M
;
_chemical_formula_sum "Si O2"
_cell_formula_units_Z 44
_cell_length_a 21.431545
_cell_length_b 10.463009
_cell_length_c 8.766066
_cell_angle_alpha 90.000000
_cell_angle_beta 102.400469
_cell_angle_gamma 90.000000
_cell_volume 1919.830535
_symmetry_space_group_name_H-M "C 2/M"
_symmetry_group_IT_number 12
_symmetry_cell_setting 'monoclinic'
loop_
_space_group_symop_operation_xyz
x,y,z
-x,y,-z
-x,-y,-z
x,-y,z
1/2+x,1/2+y,z
1/2-x,1/2+y,-z
1/2-x,1/2-y,-z
1/2+x,1/2-y,z
loop_
_atom_site_type_symbol
_atom_site_label
_atom_site_fract_x
_atom_site_fract_y
_atom_site_fract_z
Si Si1 0.372848 0.500000 0.743783
Si Si2 0.040554 0.253855 0.674926
Si Si3 0.344844 0.000000 0.754523
Si Si4 0.011221 0.000000 0.823125
Si Si5 0.021757 0.500000 0.332752
Si Si6 0.319828 0.738098 0.234944
Si Si7 0.707620 0.500000 0.585424
Si Si8 0.680817 0.727738 0.119235
O O1 0.442327 0.500000 0.703003
O O2 0.315620 0.500000 0.597535
O O3 0.369877 0.629064 0.840600
O O4 0.113323 0.306771 0.682948
O O5 0.000000 0.225462 0.500000
O O6 0.047024 0.127776 0.783887
O O7 0.006894 0.368997 0.752138
O O8 0.341542 0.873621 0.859284
O O9 0.403573 0.000000 0.668094
O O10 0.283830 0.000000 0.613183
O O11 0.000000 0.000000 0.000000
O O12 0.000000 0.500000 0.500000
O O13 0.321801 0.617551 0.343287
O O14 0.251411 0.808050 0.226262
O O15 0.319223 0.699727 0.058658
#
# Coordination Sequence:
#
# PCOD8110161 Si02
#       8
#     4   8   4   4   4   8   4   8
#     4  12  23  37  60  97 120 159 209 257 318 358
#     4  11  23  40  63  88 122 163 203 251 302 372
#     4  10  22  43  62  93 127 166 212 254 313 367
#     4  12  24  39  61  88 121 159 202 254 304 362
#     4  10  24  41  61  89 128 168 202 251 311 377
#     4  10  21  41  62  91 123 166 210 250 318 368
#     4  10  22  38  67  93 129 162 203 270 310 370
#     4  10  23  40  67  90 126 163 206 265 306 373
#
# _framework density 22.918689000000001
#
# number of rings (size 3 to 8) (size 9 to 14) (size 15 to 20)
#    0.000    1.455    0.000    4.636    0.000   10.909 
#    0.000    1.364    0.000    1.091    0.000    0.000 
#    0.000    0.000    0.000    0.000    0.000    0.000 
#
# Total GULP energy -272547.027498 kJ/mol
# GULP energy per Si atom -12388.501250 kJ/mol
# Density = 2.286653 g / cm^3
# Si number density = 22.918689 Si / 1000 Ang^3
#
#
#
# Elastic Constant Matrix: (Units=GPa)
#
#
# Indices 1 2 3 4 5 6 
#
# 1 147.4972 25.5611 6.0514 0.0000 4.8651 0.0000
# 2 25.5611 135.2738 14.5226 0.0000 -10.8722 0.0000
# 3 6.0514 14.5226 61.1667 0.0000 -0.0405 0.0000
# 4 0.0000 0.0000 0.0000 17.9846 0.0000 1.1498
# 5 4.8651 -10.8722 -0.0405 0.0000 36.6432 0.0000
# 6 0.0000 0.0000 0.0000 1.1498 0.0000 14.6810
#
#
#
# Elastic Compliance Matrix: (Units=1/GPa)
#
#
# Indices 1 2 3 4 5 6 
#
# 1 0.007084 -0.001408 -0.000367 0.000000 -0.001359 0.000000
# 2 -0.001408 0.008056 -0.001772 0.000000 0.002575 0.000000
# 3 -0.000367 -0.001772 0.016805 0.000000 -0.000458 0.000000
# 4 0.000000 0.000000 0.000000 0.055883 0.000000 -0.004377
# 5 -0.001359 0.002575 -0.000458 0.000000 0.028234 0.000000
# 6 0.000000 0.000000 0.000000 -0.004377 0.000000 0.068458
#
#
# Mechanical properties :
#
#
# Convention : Reuss Voigt Hill
#
# Bulk Modulus (GPa) = 40.24091 48.46757 44.35424
# Shear Modulus (GPa) = 25.01277 33.71526 29.36402
#
# Velocity S-wave (km/s) = 3.30717 3.83963 3.58330
# Velocity P-wave (km/s) = 5.67269 6.39144 6.04276
#
# Compressibility (1/GPa) = 0.02485033
#
# Stress axis : x y z
#
# Youngs Moduli (GPa) = 141.16840 124.13584 59.50461
#
# Poissons Ratio (x) = 0.17482 0.02186
# Poissons Ratio (y) = 0.19881 0.10542
# Poissons Ratio (z) = 0.05186 0.21992
#
# Static dielectric constant tensor:
#      x y z
#    x 4.583680 0.000000 0.177340 
#    y 0.000000 4.289400 0.000000 
#    z 0.177340 0.000000 3.823690 
# 
# 
# High freq. dielectric constant tensor:
#      x y z
#    x 1.930750 0.000000 0.006880 
#    y 0.000000 1.901490 0.000000 
#    z 0.006880 0.000000 1.888390 
# 
# From -- ./inp_files/84231.got.cif
#   From: 2010.06.25/outbox.cif.g09.slc.cpg/sg12_43_cif.got.tgz:84231.got - 2010.06.28 00:19:55.
