data_PCOD8110048
_publ_section_title
;
Structure prediction by ZEFSAII (Michael W. Deem and Ramdas Pophale) SiO2 
 PCOD8110048
Probable space group: C 2/M
;
_chemical_formula_sum "Si O2"
_cell_formula_units_Z 44
_cell_length_a 9.229399
_cell_length_b 21.370118
_cell_length_c 8.867037
_cell_angle_alpha 90.000000
_cell_angle_beta 89.347138
_cell_angle_gamma 90.000000
_cell_volume 1748.761841
_symmetry_space_group_name_H-M "C 2/M"
_symmetry_group_IT_number 12
_symmetry_cell_setting 'monoclinic'
loop_
_space_group_symop_operation_xyz
x,y,z
-x,y,-z
-x,-y,-z
x,-y,z
1/2+x,1/2+y,z
1/2-x,1/2+y,-z
1/2-x,1/2-y,-z
1/2+x,1/2-y,z
loop_
_atom_site_type_symbol
_atom_site_label
_atom_site_fract_x
_atom_site_fract_y
_atom_site_fract_z
Si Si1 0.155698 0.643327 0.267378
Si Si2 0.256556 0.428731 0.977998
Si Si3 0.215999 0.823109 0.436375
Si Si4 0.966204 0.757426 0.275970
Si Si5 0.500000 0.338448 0.000000
Si Si6 0.390665 0.929897 0.320094
O O1 0.214685 0.597691 0.140525
O O2 0.280846 0.670079 0.378633
O O3 0.066066 0.702349 0.204407
O O4 0.043482 0.600924 0.367556
O O5 0.313265 0.500000 0.995787
O O6 0.383590 0.382563 0.916524
O O7 0.122213 0.427642 0.863273
O O8 0.059382 0.802106 0.383708
O O9 0.338636 0.773291 0.380069
O O10 0.251250 0.892484 0.379862
O O11 0.915928 0.796395 0.127810
O O12 0.381988 0.000000 0.382811
#
# Coordination Sequence:
#
# PCOD8110048 Si02
#       6
#     8   8   8   8   4   8
#     4  11  24  39  67  97 133 173 215 277 336 392
#     4  11  24  43  66  96 134 175 226 275 326 393
#     4  11  24  44  68  98 141 176 221 271 342 398
#     4  11  24  41  68 100 135 177 222 275 331 402
#     4  12  25  42  70  96 131 178 228 270 330 398
#     4  10  21  40  66  97 131 172 225 278 328 388
#
# _framework density 25.16066
#
# number of rings (size 3 to 8) (size 9 to 14) (size 15 to 20)
#    0.000    1.091    1.818    5.182    5.091    6.545 
#    0.000    0.000    0.000    1.091    0.000    0.000 
#    0.000    0.000    0.000    0.000    0.000    0.000 
#
# Total GULP energy -272755.409582 kJ/mol
# GULP energy per Si atom -12397.973163 kJ/mol
# Density = 2.510339 g / cm^3
# Si number density = 25.160660 Si / 1000 Ang^3
#
#
#
# Elastic Constant Matrix: (Units=GPa)
#
#
# Indices 1 2 3 4 5 6 
#
# 1 60.9834 12.0164 9.7774 0.0000 13.9008 0.0000
# 2 12.0164 161.4147 26.5955 0.0000 7.9112 0.0000
# 3 9.7774 26.5955 100.7011 0.0000 -8.8854 0.0000
# 4 0.0000 0.0000 0.0000 31.7598 0.0000 11.9940
# 5 13.9008 7.9112 -8.8854 0.0000 45.0952 0.0000
# 6 0.0000 0.0000 0.0000 11.9940 0.0000 21.9163
#
#
#
# Elastic Compliance Matrix: (Units=1/GPa)
#
#
# Indices 1 2 3 4 5 6 
#
# 1 0.018223 -0.000721 -0.002100 0.000000 -0.005904 0.000000
# 2 -0.000721 0.006607 -0.001789 0.000000 -0.001289 0.000000
# 3 -0.002100 -0.001789 0.010881 0.000000 0.003105 0.000000
# 4 0.000000 0.000000 0.000000 0.039689 0.000000 -0.021720
# 5 -0.005904 -0.001289 0.003105 0.000000 0.024833 0.000000
# 6 0.000000 0.000000 0.000000 -0.021720 0.000000 0.057515
#
#
# Mechanical properties :
#
#
# Convention : Reuss Voigt Hill
#
# Bulk Modulus (GPa) = 37.74905 46.65308 42.20107
# Shear Modulus (GPa) = 28.44196 38.06826 33.25511
#
# Velocity S-wave (km/s) = 3.36581 3.89396 3.63948
# Velocity P-wave (km/s) = 5.49005 6.22893 5.87113
#
# Compressibility (1/GPa) = 0.02649073
#
# Stress axis : x y z
#
# Youngs Moduli (GPa) = 54.87713 151.35934 91.90675
#
# Poissons Ratio (x) = 0.10916 0.19298
# Poissons Ratio (y) = 0.03958 0.16438
# Poissons Ratio (z) = 0.11523 0.27072
#
# Static dielectric constant tensor:
#      x y z
#    x 4.615460 0.000000 0.036780 
#    y 0.000000 4.907140 0.000000 
#    z 0.036780 0.000000 4.432810 
# 
# 
# High freq. dielectric constant tensor:
#      x y z
#    x 1.995260 0.000000 -0.000840 
#    y 0.000000 2.028340 0.000000 
#    z -0.000840 0.000000 2.010860 
# 
# From -- ./inp_files/49400.got.cif
#   From: 2010.06.25/outbox.cif.g09.slc.cpg/sg12_25_cif.got.tgz:49400.got - 2010.06.28 00:19:55.
