data_PCOD8110306
_publ_section_title
;
Structure prediction by ZEFSAII (Michael W. Deem and Ramdas Pophale) SiO2 
 PCOD8110306
Probable space group: C 2/M
;
_chemical_formula_sum "Si O2"
_cell_formula_units_Z 48
_cell_length_a 11.547065
_cell_length_b 17.424346
_cell_length_c 11.687200
_cell_angle_alpha 90.000000
_cell_angle_beta 69.113626
_cell_angle_gamma 90.000000
_cell_volume 2196.948831
_symmetry_space_group_name_H-M "C 2/M"
_symmetry_group_IT_number 12
_symmetry_cell_setting 'monoclinic'
loop_
_space_group_symop_operation_xyz
x,y,z
-x,y,-z
-x,-y,-z
x,-y,z
1/2+x,1/2+y,z
1/2-x,1/2+y,-z
1/2-x,1/2-y,-z
1/2+x,1/2-y,z
loop_
_atom_site_type_symbol
_atom_site_label
_atom_site_fract_x
_atom_site_fract_y
_atom_site_fract_z
Si Si1 0.454926 0.146894 0.644889
Si Si2 0.891660 0.911910 0.405691
Si Si3 0.793217 0.085927 0.198622
Si Si4 0.610044 0.681844 0.277776
Si Si5 0.122935 0.203606 0.018161
Si Si6 0.696818 0.908901 0.667988
O O1 0.500000 0.131406 0.500000
O O2 0.352888 0.086615 0.722095
O O3 0.392252 0.230231 0.681349
O O4 0.566293 0.131944 0.693259
O O5 0.857950 0.884900 0.290733
O O6 0.776428 0.893615 0.526469
O O7 0.013559 0.863284 0.393333
O O8 0.931205 0.000000 0.400110
O O9 0.835338 0.134425 0.075933
O O10 0.832697 0.000000 0.155004
O O11 0.742839 0.640292 0.250201
O O12 0.576012 0.673035 0.156570
O O13 0.250000 0.250000 0.000000
O O14 0.000000 0.243652 0.000000
O O15 0.685596 0.000000 0.700437
#
# Coordination Sequence:
#
# PCOD8110306 Si02
#       6
#     8   8   8   8   8   8
#     4  12  25  41  70 104 144 183 225 284 354 427
#     4  10  21  41  67  97 138 176 223 284 342 410
#     4  11  24  43  68 102 135 177 232 282 338 419
#     4  12  26  41  70  98 139 176 234 290 347 412
#     4  12  27  48  72  97 136 185 234 290 353 414
#     4  11  25  43  67 102 143 184 228 284 356 422
#
# _framework density 21.848482000000001
#
# number of rings (size 3 to 8) (size 9 to 14) (size 15 to 20)
#    0.000    0.667    5.000    2.500    4.667    5.000 
#    0.000    0.000    0.000    2.500    0.000    0.000 
#    0.000    0.000    0.000    0.000    0.000    0.000 
#
# Total GULP energy -297461.191196 kJ/mol
# GULP energy per Si atom -12394.216300 kJ/mol
# Density = 2.179875 g / cm^3
# Si number density = 21.848482 Si / 1000 Ang^3
#
#
#
# Elastic Constant Matrix: (Units=GPa)
#
#
# Indices 1 2 3 4 5 6 
#
# 1 143.3324 35.2512 3.5027 0.0000 5.3450 0.0000
# 2 35.2512 66.0906 10.7331 0.0000 6.6219 0.0000
# 3 3.5027 10.7331 76.3170 0.0000 5.5357 0.0000
# 4 0.0000 0.0000 0.0000 -2.0272 0.0000 -4.0192
# 5 5.3450 6.6219 5.5357 0.0000 35.0442 0.0000
# 6 0.0000 0.0000 0.0000 -4.0192 0.0000 30.8735
#
#
#
# Elastic Compliance Matrix: (Units=1/GPa)
#
#
# Indices 1 2 3 4 5 6 
#
# 1 0.008042 -0.004287 0.000267 0.000000 -0.000459 0.000000
# 2 -0.004287 0.018009 -0.002161 0.000000 -0.002408 0.000000
# 3 0.000267 -0.002161 0.013523 0.000000 -0.001769 0.000000
# 4 0.000000 0.000000 0.000000 -0.392100 0.000000 -0.051044
# 5 -0.000459 -0.002408 -0.001769 0.000000 0.029340 0.000000
# 6 0.000000 0.000000 0.000000 -0.051044 0.000000 0.025745
#
#
# Mechanical properties :
#
#
# Convention : Reuss Voigt Hill
#
# Bulk Modulus (GPa) = 36.74809 42.74600 39.74705
# Shear Modulus (GPa) = -18.11542 28.52831 5.20644
#
# Velocity S-wave (km/s) = -2.88260 3.61741 1.54536
# Velocity P-wave (km/s) = 2.40351 6.08727 4.62772
#
# Compressibility (1/GPa) = 0.02721230
#
# Stress axis : x y z
#
# Youngs Moduli (GPa) = 124.35298 55.52656 73.94676
#
# Poissons Ratio (x) = 0.23802 -0.01975
# Poissons Ratio (y) = 0.53306 0.15983
# Poissons Ratio (z) = -0.03321 0.12002
#
# Static dielectric constant tensor:
#      x y z
#    x 4.306840 0.000000 -0.003360 
#    y 0.000000 3.749650 0.000000 
#    z -0.003360 0.000000 3.922980 
# 
# 
# High freq. dielectric constant tensor:
#      x y z
#    x 1.881420 0.000000 0.001050 
#    y 0.000000 1.847940 0.000000 
#    z 0.001050 0.000000 1.860830 
# 
# From -- ./inp_files/131059.got.cif
#   From: 2010.06.25/outbox.cif.g09.slc.cpg/sg12_66_cif.got.tgz:131059.got - 2010.06.28 00:19:55.
