data_PCOD8110514
_publ_section_title
;
Structure prediction by ZEFSAII (Michael W. Deem and Ramdas Pophale) SiO2 
 PCOD8110514
Probable space group: C 2/M
;
_chemical_formula_sum "Si O2"
_cell_formula_units_Z 56
_cell_length_a 9.030668
_cell_length_b 20.996530
_cell_length_c 15.151236
_cell_angle_alpha 90.000000
_cell_angle_beta 89.692564
_cell_angle_gamma 90.000000
_cell_volume 2872.825282
_symmetry_space_group_name_H-M "C 2/M"
_symmetry_group_IT_number 12
_symmetry_cell_setting 'monoclinic'
loop_
_space_group_symop_operation_xyz
x,y,z
-x,y,-z
-x,-y,-z
x,-y,z
1/2+x,1/2+y,z
1/2-x,1/2+y,-z
1/2-x,1/2-y,-z
1/2+x,1/2-y,z
loop_
_atom_site_type_symbol
_atom_site_label
_atom_site_fract_x
_atom_site_fract_y
_atom_site_fract_z
Si Si1 0.325759 0.181821 0.984788
Si Si2 0.733261 0.322007 0.789095
Si Si3 0.347966 0.196149 0.451607
Si Si4 0.412069 0.625258 0.588273
Si Si5 0.496684 0.747912 0.701356
Si Si6 0.367525 0.573960 0.932010
Si Si7 0.969449 0.070560 0.245869
O O1 0.293821 0.163030 0.884773
O O2 0.500000 0.187526 0.000000
O O3 0.250000 0.250000 0.000000
O O4 0.262053 0.124698 0.045893
O O5 0.582891 0.278585 0.788054
O O6 0.680989 0.388482 0.745954
O O7 0.858993 0.290938 0.728660
O O8 0.500000 0.182633 0.500000
O O9 0.250000 0.250000 0.500000
O O10 0.256767 0.130150 0.445203
O O11 0.380697 0.211808 0.349964
O O12 0.500000 0.608875 0.500000
O O13 0.451609 0.693161 0.632357
O O14 0.438131 0.572116 0.662932
O O15 0.310627 0.500000 0.935393
O O16 0.425030 0.593099 0.834685
O O17 0.500000 0.583988 0.000000
O O18 0.914563 0.000000 0.226315
#
# Coordination Sequence:
#
# PCOD8110514 Si02
#       7
#     8   8   8   8   8   8   8
#     4  12  26  39  60  97 142 168 207 266 333 387
#     4  11  23  37  59  92 125 166 203 259 323 375
#     4  12  19  33  55  88 128 159 205 250 310 384
#     4  11  22  36  61  92 125 160 207 258 315 377
#     4  11  20  34  57  90 129 159 201 249 318 382
#     4  10  21  44  71  91 120 172 224 266 318 390
#     4  10  24  44  68  90 119 167 227 266 306 378
#
# _framework density 19.493005
#
# number of rings (size 3 to 8) (size 9 to 14) (size 15 to 20)
#    0.000    1.000    5.714    1.286    6.000    1.714 
#    0.000    0.000    0.000    1.286    0.000    0.000 
#    0.000    0.000    0.000    0.000    0.000    0.000 
#
# Total GULP energy -346999.138107 kJ/mol
# GULP energy per Si atom -12392.826361 kJ/mol
# Density = 1.944864 g / cm^3
# Si number density = 19.493005 Si / 1000 Ang^3
#
#
#
# Elastic Constant Matrix: (Units=GPa)
#
#
# Indices 1 2 3 4 5 6 
#
# 1 139.7961 55.7480 49.9066 0.0000 7.6085 0.0000
# 2 55.7480 95.1199 31.3829 0.0000 -12.6364 0.0000
# 3 49.9066 31.3829 125.9076 0.0000 1.4066 0.0000
# 4 0.0000 0.0000 0.0000 26.0653 0.0000 -1.5473
# 5 7.6085 -12.6364 1.4066 0.0000 37.7363 0.0000
# 6 0.0000 0.0000 0.0000 -1.5473 0.0000 17.5711
#
#
#
# Elastic Compliance Matrix: (Units=1/GPa)
#
#
# Indices 1 2 3 4 5 6 
#
# 1 0.010702 -0.005910 -0.002724 0.000000 -0.004035 0.000000
# 2 -0.005910 0.015337 -0.001552 0.000000 0.006385 0.000000
# 3 -0.002724 -0.001552 0.009412 0.000000 -0.000321 0.000000
# 4 0.000000 0.000000 0.000000 0.038567 0.000000 0.003396
# 5 -0.004035 0.006385 -0.000321 0.000000 0.029463 0.000000
# 6 0.000000 0.000000 0.000000 0.003396 0.000000 0.057211
#
#
# Mechanical properties :
#
#
# Convention : Reuss Voigt Hill
#
# Bulk Modulus (GPa) = 66.30979 70.54430 68.42705
# Shear Modulus (GPa) = 26.86888 31.19361 29.03124
#
# Velocity S-wave (km/s) = 3.71669 4.00465 3.86335
# Velocity P-wave (km/s) = 7.24634 7.59283 7.42161
#
# Compressibility (1/GPa) = 0.01508073
#
# Stress axis : x y z
#
# Youngs Moduli (GPa) = 93.44113 65.20317 106.24311
#
# Poissons Ratio (x) = 0.38532 0.28940
# Poissons Ratio (y) = 0.55219 0.16485
# Poissons Ratio (z) = 0.25453 0.10117
#
# Static dielectric constant tensor:
#      x y z
#    x 3.771530 0.000000 0.172160 
#    y 0.000000 3.492470 0.000000 
#    z 0.172160 0.000000 3.933050 
# 
# 
# High freq. dielectric constant tensor:
#      x y z
#    x 1.757280 0.000000 0.006010 
#    y 0.000000 1.733840 0.000000 
#    z 0.006010 0.000000 1.776270 
# 
# From -- ./inp_files/197522.got.cif
#   From: 2010.06.25/outbox.cif.g09.slc.cpg/sg12_99_cif.got.tgz:197522.got - 2010.06.28 00:19:55.
