data_PCOD8110162
_publ_section_title
;
Structure prediction by ZEFSAII (Michael W. Deem and Ramdas Pophale) SiO2 
 PCOD8110162
Probable space group: C 2/M
;
_chemical_formula_sum "Si O2"
_cell_formula_units_Z 48
_cell_length_a 28.130962
_cell_length_b 18.560868
_cell_length_c 12.274939
_cell_angle_alpha 90.000000
_cell_angle_beta 158.839221
_cell_angle_gamma 90.000000
_cell_volume 2313.624639
_symmetry_space_group_name_H-M "C 2/M"
_symmetry_group_IT_number 12
_symmetry_cell_setting 'monoclinic'
loop_
_space_group_symop_operation_xyz
x,y,z
-x,y,-z
-x,-y,-z
x,-y,z
1/2+x,1/2+y,z
1/2-x,1/2+y,-z
1/2-x,1/2-y,-z
1/2+x,1/2-y,z
loop_
_atom_site_type_symbol
_atom_site_label
_atom_site_fract_x
_atom_site_fract_y
_atom_site_fract_z
Si Si1 0.807743 0.683446 0.802873
Si Si2 0.984474 0.796872 0.838566
Si Si3 0.353459 0.082819 0.706605
Si Si4 0.858570 0.158201 0.154663
Si Si5 0.641998 0.583383 0.072825
Si Si6 0.863601 0.671245 0.155681
O O1 0.665659 0.721958 0.515441
O O2 0.787052 0.626466 0.662306
O O3 0.849737 0.641512 0.002937
O O4 0.918217 0.741690 0.011919
O O5 0.000000 0.792483 0.000000
O O6 0.019561 0.876194 0.868071
O O7 0.272373 0.094792 0.423475
O O8 0.357983 0.000000 0.752008
O O9 0.500000 0.113265 0.000000
O O10 0.854703 0.242862 0.123561
O O11 0.000000 0.133105 0.500000
O O12 0.823652 0.114827 0.971643
O O13 0.752107 0.138209 0.018693
O O14 0.602653 0.500000 0.979871
O O15 0.000000 0.646154 0.500000
#
# Coordination Sequence:
#
# PCOD8110162 Si02
#       6
#     8   8   8   8   8   8
#     4  12  25  41  67  96 132 166 212 274 323 384
#     4  12  25  40  63 102 130 167 215 266 324 387
#     4  10  24  43  65  94 129 173 214 261 327 389
#     4  10  21  41  62  91 124 165 215 258 316 378
#     4  11  24  43  67  93 132 173 215 264 321 389
#     4  10  23  37  63  92 126 164 208 268 315 373
#
# _framework density 20.746666000000001
#
# number of rings (size 3 to 8) (size 9 to 14) (size 15 to 20)
#    0.000    1.167    3.333    2.000    9.333    1.333 
#    0.000    0.833    0.000    1.000    0.000    0.000 
#    0.000    0.000    0.000    0.000    0.000    0.000 
#
# Total GULP energy -297721.469378 kJ/mol
# GULP energy per Si atom -12405.061224 kJ/mol
# Density = 2.069945 g / cm^3
# Si number density = 20.746666 Si / 1000 Ang^3
#
#
#
# Elastic Constant Matrix: (Units=GPa)
#
#
# Indices 1 2 3 4 5 6 
#
# 1 148.2939 25.0219 84.7858 0.0000 -3.3741 0.0000
# 2 25.0219 38.5182 42.6472 0.0000 6.1105 0.0000
# 3 84.7858 42.6472 164.9004 0.0000 7.2631 0.0000
# 4 0.0000 0.0000 0.0000 18.4041 0.0000 -0.8819
# 5 -3.3741 6.1105 7.2631 0.0000 45.4901 0.0000
# 6 0.0000 0.0000 0.0000 -0.8819 0.0000 28.6816
#
#
#
# Elastic Compliance Matrix: (Units=1/GPa)
#
#
# Indices 1 2 3 4 5 6 
#
# 1 0.009703 -0.001347 -0.004714 0.000000 0.001653 0.000000
# 2 -0.001347 0.037098 -0.008740 0.000000 -0.003688 0.000000
# 3 -0.004714 -0.008740 0.010788 0.000000 -0.000898 0.000000
# 4 0.000000 0.000000 0.000000 0.054416 0.000000 0.001673
# 5 0.001653 -0.003688 -0.000898 0.000000 0.022744 0.000000
# 6 0.000000 0.000000 0.000000 0.001673 0.000000 0.034917
#
#
# Mechanical properties :
#
#
# Convention : Reuss Voigt Hill
#
# Bulk Modulus (GPa) = 35.72820 72.95802 54.34311
# Shear Modulus (GPa) = 23.96989 31.79900 27.88445
#
# Velocity S-wave (km/s) = 3.40275 3.91925 3.67010
# Velocity P-wave (km/s) = 5.71811 7.46480 6.64906
#
# Compressibility (1/GPa) = 0.02798909
#
# Stress axis : x y z
#
# Youngs Moduli (GPa) = 103.05956 26.95564 92.69917
#
# Poissons Ratio (x) = 0.03630 0.43694
# Poissons Ratio (y) = 0.13880 0.81015
# Poissons Ratio (z) = 0.48577 0.23558
#
# Static dielectric constant tensor:
#      x y z
#    x 3.986450 0.000000 0.039050 
#    y 0.000000 3.545110 0.000000 
#    z 0.039050 0.000000 3.950460 
# 
# 
# High freq. dielectric constant tensor:
#      x y z
#    x 1.829320 0.000000 -0.003590 
#    y 0.000000 1.780680 0.000000 
#    z -0.003590 0.000000 1.826650 
# 
# From -- ./inp_files/184828.got.cif
#   From: 2010.06.25/outbox.cif.g09.slc.cpg/sg12_93_cif.got.tgz:184828.got - 2010.06.28 00:19:55.
