data_PCOD8110412
_publ_section_title
;
Structure prediction by ZEFSAII (Michael W. Deem and Ramdas Pophale) SiO2 
 PCOD8110412
Probable space group: C 2/M
;
_chemical_formula_sum "Si O2"
_cell_formula_units_Z 64
_cell_length_a 14.811653
_cell_length_b 17.924474
_cell_length_c 17.425678
_cell_angle_alpha 90.000000
_cell_angle_beta 140.283400
_cell_angle_gamma 90.000000
_cell_volume 2956.202462
_symmetry_space_group_name_H-M "C 2/M"
_symmetry_group_IT_number 12
_symmetry_cell_setting 'monoclinic'
loop_
_space_group_symop_operation_xyz
x,y,z
-x,y,-z
-x,-y,-z
x,-y,z
1/2+x,1/2+y,z
1/2-x,1/2+y,-z
1/2-x,1/2-y,-z
1/2+x,1/2-y,z
loop_
_atom_site_type_symbol
_atom_site_label
_atom_site_fract_x
_atom_site_fract_y
_atom_site_fract_z
Si Si1 0.876861 0.182088 0.241826
Si Si2 0.506193 0.915495 0.917051
Si Si3 0.305534 0.583918 0.335133
Si Si4 0.236943 0.837313 0.986287
Si Si5 0.663108 0.320928 0.101370
Si Si6 0.337101 0.087798 0.325554
Si Si7 0.859736 0.654087 0.498327
Si Si8 0.838006 0.818418 0.497916
O O1 0.853638 0.116390 0.286370
O O2 0.762051 0.247969 0.175251
O O3 0.036720 0.206700 0.361926
O O4 0.870249 0.144113 0.153303
O O5 0.363140 0.910208 0.775196
O O6 0.610734 0.869698 0.932556
O O7 0.560922 0.000000 0.959964
O O8 0.500000 0.882173 0.000000
O O9 0.359655 0.500000 0.376075
O O10 0.375095 0.626017 0.453170
O O11 0.183729 0.864859 0.034125
O O12 0.250000 0.750000 0.000000
O O13 0.701834 0.381810 0.191031
O O14 0.500000 0.295711 0.000000
O O15 0.304720 0.099597 0.394819
O O16 0.472206 0.137189 0.385865
O O17 0.362610 0.000000 0.326607
O O18 0.810105 0.737852 0.440614
O O19 0.786307 0.642111 0.533602
#
# Coordination Sequence:
#
# PCOD8110412 Si02
#       8
#     8   8   8   8   8   8   8   8
#     4  11  23  43  66  95 139 180 221 284 348 410
#     4  10  21  42  67  95 133 183 227 273 341 413
#     4  11  25  40  65 101 138 179 222 272 340 409
#     4  10  24  38  65 101 134 172 231 284 338 404
#     4  11  26  44  70 102 135 180 234 290 347 406
#     4  11  24  46  72  97 138 183 229 279 340 407
#     4  10  23  44  68 101 127 176 231 276 336 399
#     4  11  24  40  70  99 136 174 222 286 338 405
#
# _framework density 21.649395999999999
#
# number of rings (size 3 to 8) (size 9 to 14) (size 15 to 20)
#    0.000    1.375    2.500    1.875    8.750    3.750 
#    0.000    0.000    0.000    0.000    0.000    0.000 
#    0.000    0.000    0.000    0.000    0.000    0.000 
#
# Total GULP energy -396583.308603 kJ/mol
# GULP energy per Si atom -12393.228394 kJ/mol
# Density = 2.160012 g / cm^3
# Si number density = 21.649396 Si / 1000 Ang^3
#
#
#
# Elastic Constant Matrix: (Units=GPa)
#
#
# Indices 1 2 3 4 5 6 
#
# 1 96.1927 36.8755 31.1426 -0.0002 -4.7889 0.0000
# 2 36.8755 92.5835 27.6195 -0.0002 -5.1916 -0.0001
# 3 31.1426 27.6195 119.0672 -0.0009 -13.1182 -0.0003
# 4 -0.0002 -0.0002 -0.0009 23.8569 -0.0007 4.7069
# 5 -4.7889 -5.1916 -13.1182 -0.0007 35.5480 -0.0002
# 6 0.0000 -0.0001 -0.0003 4.7069 -0.0002 27.6159
#
#
#
# Elastic Compliance Matrix: (Units=1/GPa)
#
#
# Indices 1 2 3 4 5 6 
#
# 1 0.012848 -0.004415 -0.002311 0.000000 0.000233 0.000000
# 2 -0.004415 0.013139 -0.001821 0.000000 0.000652 0.000000
# 3 -0.002311 -0.001821 0.009759 0.000000 0.003024 0.000000
# 4 0.000000 0.000000 0.000000 0.043375 0.000001 -0.007393
# 5 0.000233 0.000652 0.003024 0.000001 0.029374 0.000000
# 6 0.000000 0.000000 0.000000 -0.007393 0.000000 0.037471
#
#
# Mechanical properties :
#
#
# Convention : Reuss Voigt Hill
#
# Bulk Modulus (GPa) = 53.61269 55.45763 54.53516
# Shear Modulus (GPa) = 29.53742 31.55123 30.54432
#
# Velocity S-wave (km/s) = 3.69772 3.82170 3.76022
# Velocity P-wave (km/s) = 6.56115 6.71905 6.64057
#
# Compressibility (1/GPa) = 0.01865230
#
# Stress axis : x y z
#
# Youngs Moduli (GPa) = 77.83355 76.10709 102.47353
#
# Poissons Ratio (x) = 0.33600 0.23678
# Poissons Ratio (y) = 0.34363 0.18664
# Poissons Ratio (z) = 0.17984 0.13862
#
# Static dielectric constant tensor:
#      x y z
#    x 3.996780 0.000000 -0.441180 
#    y 0.000000 3.738450 0.000000 
#    z -0.441180 0.000000 4.797410 
# 
# 
# High freq. dielectric constant tensor:
#      x y z
#    x 1.845970 0.000000 -0.008800 
#    y 0.000000 1.837540 0.000000 
#    z -0.008800 0.000000 1.861460 
# 
# From -- ./inp_files/271766.got.cif
#   From: 2010.06.25/outbox.cif.g09.slc.cpg/sg12_136_cif.got.tgz:271766.got - 2010.06.28 00:19:55.
