data_PCOD8110788
_publ_section_title
;
Structure prediction by ZEFSAII (Michael W. Deem and Ramdas Pophale) SiO2 
 PCOD8110788
Probable space group: C 2/M
;
_chemical_formula_sum "Si O2"
_cell_formula_units_Z 56
_cell_length_a 31.382613
_cell_length_b 8.930868
_cell_length_c 11.844920
_cell_angle_alpha 90.000000
_cell_angle_beta 62.748160
_cell_angle_gamma 90.000000
_cell_volume 2951.330561
_symmetry_space_group_name_H-M "C 2/M"
_symmetry_group_IT_number 12
_symmetry_cell_setting 'monoclinic'
loop_
_space_group_symop_operation_xyz
x,y,z
-x,y,-z
-x,-y,-z
x,-y,z
1/2+x,1/2+y,z
1/2-x,1/2+y,-z
1/2-x,1/2-y,-z
1/2+x,1/2-y,z
loop_
_atom_site_type_symbol
_atom_site_label
_atom_site_fract_x
_atom_site_fract_y
_atom_site_fract_z
Si Si1 0.543128 0.677138 0.796437
Si Si2 0.670617 0.826577 0.281309
Si Si3 0.204459 0.822934 0.612982
Si Si4 0.644109 0.829197 0.068312
Si Si5 0.437100 0.324031 0.976571
Si Si6 0.728833 0.172424 0.805975
Si Si7 0.377532 0.826111 0.427372
O O1 0.549246 0.500000 0.770074
O O2 0.487538 0.725820 0.860532
O O3 0.569043 0.768635 0.664862
O O4 0.565722 0.727848 0.889467
O O5 0.644229 0.776566 0.198355
O O6 0.717532 0.728146 0.241516
O O7 0.633388 0.798559 0.427729
O O8 0.686503 0.000000 0.255648
O O9 0.250000 0.750000 0.500000
O O10 0.201510 0.768659 0.744885
O O11 0.157157 0.773796 0.606166
O O12 0.209629 0.000000 0.602994
O O13 0.606526 0.736219 0.042666
O O14 0.627771 0.000000 0.077829
O O15 0.698135 0.806988 0.956945
O O16 0.434167 0.500000 0.978625
O O17 0.730985 0.000000 0.764790
O O18 0.371436 0.000000 0.403371
#
# Coordination Sequence:
#
# PCOD8110788 Si02
#       7
#     8   8   8   8   8   8   8
#     4   9  19  37  60  85 113 142 178 226 283 339
#     4  10  22  39  55  75 112 154 189 230 275 325
#     4  12  23  36  55  80 113 147 182 226 276 326
#     4  10  22  38  56  81 111 146 189 234 278 330
#     4   9  19  37  60  85 110 141 181 228 282 337
#     4  11  22  36  57  84 111 144 190 234 279 333
#     4  11  22  36  56  83 113 148 188 225 276 334
#
# _framework density 18.974494
#
# number of rings (size 3 to 8) (size 9 to 14) (size 15 to 20)
#    0.000    1.714    1.429    4.286    0.000    5.714 
#    0.000    2.143    0.000    4.286    0.000    0.000 
#    0.000    0.000    0.000    0.000    0.000    0.000 
#
# Total GULP energy -347257.867159 kJ/mol
# GULP energy per Si atom -12402.066684 kJ/mol
# Density = 1.893131 g / cm^3
# Si number density = 18.974494 Si / 1000 Ang^3
#
#
#
# Elastic Constant Matrix: (Units=GPa)
#
#
# Indices 1 2 3 4 5 6 
#
# 1 63.1572 28.0683 46.0847 0.0000 0.6270 0.0000
# 2 28.0683 84.2369 45.9396 0.0000 -4.7479 0.0000
# 3 46.0847 45.9396 127.6548 0.0000 -4.9742 0.0000
# 4 0.0000 0.0000 0.0000 28.3997 0.0000 -3.1097
# 5 0.6270 -4.7479 -4.9742 0.0000 28.4245 0.0000
# 6 0.0000 0.0000 0.0000 -3.1097 0.0000 30.7372
#
#
#
# Elastic Compliance Matrix: (Units=1/GPa)
#
#
# Indices 1 2 3 4 5 6 
#
# 1 0.022590 -0.003934 -0.006831 0.000000 -0.002351 0.000000
# 2 -0.003934 0.015523 -0.004090 0.000000 0.001964 0.000000
# 3 -0.006831 -0.004090 0.011831 0.000000 0.001538 0.000000
# 4 0.000000 0.000000 0.000000 0.035606 0.000000 0.003602
# 5 -0.002351 0.001964 0.001538 0.000000 0.035830 0.000000
# 6 0.000000 0.000000 0.000000 0.003602 0.000000 0.032898
#
#
# Mechanical properties :
#
#
# Convention : Reuss Voigt Hill
#
# Bulk Modulus (GPa) = 49.41976 57.24824 53.33400
# Shear Modulus (GPa) = 26.21467 27.84269 27.02868
#
# Velocity S-wave (km/s) = 3.72099 3.83479 3.77832
# Velocity P-wave (km/s) = 6.67554 7.06004 6.87048
#
# Compressibility (1/GPa) = 0.02023482
#
# Stress axis : x y z
#
# Youngs Moduli (GPa) = 44.26796 64.41974 84.52149
#
# Poissons Ratio (x) = 0.25344 0.57736
# Poissons Ratio (y) = 0.17416 0.34566
# Poissons Ratio (z) = 0.30239 0.26345
#
# Static dielectric constant tensor:
#      x y z
#    x 3.570640 0.000000 -0.083900 
#    y 0.000000 3.534470 0.000000 
#    z -0.083900 0.000000 3.999320 
# 
# 
# High freq. dielectric constant tensor:
#      x y z
#    x 1.724670 0.000000 -0.004320 
#    y 0.000000 1.739030 0.000000 
#    z -0.004320 0.000000 1.748400 
# 
# From -- ./inp_files/186369.got.cif
#   From: 2010.06.25/outbox.cif.g09.slc.cpg/sg12_94_cif.got.tgz:186369.got - 2010.06.28 00:19:55.
