data_PCOD8110481
_publ_section_title
;
Structure prediction by ZEFSAII (Michael W. Deem and Ramdas Pophale) SiO2 
 PCOD8110481
Probable space group: C 2/M
;
_chemical_formula_sum "Si O2"
_cell_formula_units_Z 40
_cell_length_a 16.264175
_cell_length_b 25.872010
_cell_length_c 8.429345
_cell_angle_alpha 90.000000
_cell_angle_beta 34.817335
_cell_angle_gamma 90.000000
_cell_volume 2025.178136
_symmetry_space_group_name_H-M "C 2/M"
_symmetry_group_IT_number 12
_symmetry_cell_setting 'monoclinic'
loop_
_space_group_symop_operation_xyz
x,y,z
-x,y,-z
-x,-y,-z
x,-y,z
1/2+x,1/2+y,z
1/2-x,1/2+y,-z
1/2-x,1/2-y,-z
1/2+x,1/2-y,z
loop_
_atom_site_type_symbol
_atom_site_label
_atom_site_fract_x
_atom_site_fract_y
_atom_site_fract_z
Si Si1 0.186674 0.780864 0.455287
Si Si2 0.053161 0.150996 0.241112
Si Si3 0.353012 0.179139 0.641736
Si Si4 0.151048 0.372129 0.697524
Si Si5 0.918090 0.058251 0.294309
O O1 0.250000 0.750000 0.500000
O O2 0.173421 0.741143 0.329727
O O3 0.295734 0.829134 0.257163
O O4 0.030531 0.807511 0.740245
O O5 0.000000 0.165593 0.500000
O O6 0.007196 0.092389 0.277690
O O7 0.223669 0.155860 0.950903
O O8 0.500000 0.167359 0.500000
O O9 0.359181 0.152679 0.460435
O O10 0.257146 0.420686 0.524653
O O11 0.000000 0.393302 0.000000
O O12 0.909424 0.000000 0.373974
O O13 0.000000 0.060635 0.000000
#
# Coordination Sequence:
#
# PCOD8110481 Si02
#       5
#     8   8   8   8   8
#     4   9  22  36  60  86 121 162 208 243 289 345
#     4  11  24  40  61  92 124 160 205 249 302 363
#     4  11  24  38  57  86 130 165 197 242 296 356
#     4  10  22  39  62  90 119 154 201 252 299 351
#     4  10  21  43  70  88 111 155 206 259 308 359
#
# _framework density 19.751348
#
# number of rings (size 3 to 8) (size 9 to 14) (size 15 to 20)
#    0.000    1.800    2.000    0.600   11.200    2.400 
#    0.000    0.000    0.000    1.200    0.000    0.000 
#    0.000    0.000    0.000    0.000    0.000    0.000 
#
# Total GULP energy -247904.040137 kJ/mol
# GULP energy per Si atom -12395.202007 kJ/mol
# Density = 1.970639 g / cm^3
# Si number density = 19.751348 Si / 1000 Ang^3
#
#
#
# Elastic Constant Matrix: (Units=GPa)
#
#
# Indices 1 2 3 4 5 6 
#
# 1 95.4464 51.1252 54.6752 0.0000 -25.4292 0.0000
# 2 51.1252 142.9867 57.4704 0.0000 -19.0546 0.0000
# 3 54.6752 57.4704 158.2189 0.0000 -27.8954 0.0000
# 4 0.0000 0.0000 0.0000 13.5806 0.0000 1.2321
# 5 -25.4292 -19.0546 -27.8954 0.0000 37.8616 0.0000
# 6 0.0000 0.0000 0.0000 1.2321 0.0000 18.5609
#
#
#
# Elastic Compliance Matrix: (Units=1/GPa)
#
#
# Indices 1 2 3 4 5 6 
#
# 1 0.015898 -0.003585 -0.003020 0.000000 0.006649 0.000000
# 2 -0.003585 0.009163 -0.001955 0.000000 0.000763 0.000000
# 3 -0.003020 -0.001955 0.008669 0.000000 0.003375 0.000000
# 4 0.000000 0.000000 0.000000 0.074080 0.000000 -0.004918
# 5 0.006649 0.000763 0.003375 0.000000 0.033749 0.000000
# 6 0.000000 0.000000 0.000000 -0.004918 0.000000 0.054203
#
#
# Mechanical properties :
#
#
# Convention : Reuss Voigt Hill
#
# Bulk Modulus (GPa) = 60.19815 80.35484 70.27650
# Shear Modulus (GPa) = 22.89187 29.55938 26.22562
#
# Velocity S-wave (km/s) = 3.40811 3.87276 3.64784
# Velocity P-wave (km/s) = 6.78462 7.79546 7.30754
#
# Compressibility (1/GPa) = 0.01661181
#
# Stress axis : x y z
#
# Youngs Moduli (GPa) = 62.89921 109.13615 115.35402
#
# Poissons Ratio (x) = 0.39123 0.34832
# Poissons Ratio (y) = 0.22548 0.22550
# Poissons Ratio (z) = 0.18993 0.21335
#
# Static dielectric constant tensor:
#      x y z
#    x 3.752070 0.000000 -0.196640 
#    y 0.000000 3.797220 0.000000 
#    z -0.196640 0.000000 3.270330 
# 
# 
# High freq. dielectric constant tensor:
#      x y z
#    x 1.773370 0.000000 -0.016770 
#    y 0.000000 1.760980 0.000000 
#    z -0.016770 0.000000 1.762640 
# 
# From -- ./inp_files/40548.got.cif
#   From: 2010.06.25/outbox.cif.g09.slc.cpg/sg12_21_cif.got.tgz:40548.got - 2010.06.28 00:19:55.
