data_PCOD8110617
_publ_section_title
;
Structure prediction by ZEFSAII (Michael W. Deem and Ramdas Pophale) SiO2 
 PCOD8110617
Probable space group: C 2/M
;
_chemical_formula_sum "Si O2"
_cell_formula_units_Z 48
_cell_length_a 18.778774
_cell_length_b 27.605033
_cell_length_c 9.231016
_cell_angle_alpha 90.000000
_cell_angle_beta 151.014887
_cell_angle_gamma 90.000000
_cell_volume 2318.849726
_symmetry_space_group_name_H-M "C 2/M"
_symmetry_group_IT_number 12
_symmetry_cell_setting 'monoclinic'
loop_
_space_group_symop_operation_xyz
x,y,z
-x,y,-z
-x,-y,-z
x,-y,z
1/2+x,1/2+y,z
1/2-x,1/2+y,-z
1/2-x,1/2-y,-z
1/2+x,1/2-y,z
loop_
_atom_site_type_symbol
_atom_site_label
_atom_site_fract_x
_atom_site_fract_y
_atom_site_fract_z
Si Si1 0.849114 0.444729 0.808381
Si Si2 0.833774 0.861644 0.653413
Si Si3 0.603980 0.182856 0.462656
Si Si4 0.093536 0.210080 0.455536
Si Si5 0.700879 0.322117 0.935009
Si Si6 0.394504 0.897644 0.180293
O O1 0.806908 0.500000 0.699363
O O2 0.721023 0.411632 0.514589
O O3 0.868110 0.439655 0.016335
O O4 0.000000 0.429698 0.000000
O O5 0.732653 0.844231 0.605224
O O6 0.819456 0.819487 0.510007
O O7 0.000000 0.869579 0.000000
O O8 0.561900 0.236618 0.331145
O O9 0.463522 0.148216 0.216104
O O10 0.657735 0.193846 0.721718
O O11 0.191162 0.211954 0.775759
O O12 0.945037 0.180912 0.228236
O O13 0.735508 0.378625 0.954320
O O14 0.500000 0.915792 0.500000
#
# Coordination Sequence:
#
# PCOD8110617 Si02
#       6
#     8   8   8   8   8   8
#     4  11  24  46  71  94 121 164 218 276 332 380
#     4  12  24  43  62  91 132 171 211 270 316 376
#     4  11  23  37  58  93 127 173 215 251 310 374
#     4  11  23  35  59  86 129 175 211 251 303 375
#     4  10  22  36  56  88 125 168 207 256 306 368
#     4  10  22  39  65  93 126 162 208 269 321 382
#
# _framework density 20.699918
#
# number of rings (size 3 to 8) (size 9 to 14) (size 15 to 20)
#    0.000    1.167    5.000    1.000    9.333    0.667 
#    3.000    0.000    0.000    2.000    0.000    0.000 
#    0.000    0.000    0.000    0.000    0.000    0.000 
#
# Total GULP energy -297522.951654 kJ/mol
# GULP energy per Si atom -12396.789652 kJ/mol
# Density = 2.065280 g / cm^3
# Si number density = 20.699918 Si / 1000 Ang^3
#
#
#
# Elastic Constant Matrix: (Units=GPa)
#
#
# Indices 1 2 3 4 5 6 
#
# 1 71.9901 28.6814 29.9293 0.0000 -0.5392 0.0000
# 2 28.6814 85.0863 32.7283 0.0000 -3.6474 0.0000
# 3 29.9293 32.7283 75.2114 0.0000 0.6225 0.0000
# 4 0.0000 0.0000 0.0000 11.9554 0.0000 -0.7964
# 5 -0.5392 -3.6474 0.6225 0.0000 30.9071 0.0000
# 6 0.0000 0.0000 0.0000 -0.7964 0.0000 25.2677
#
#
#
# Elastic Compliance Matrix: (Units=1/GPa)
#
#
# Indices 1 2 3 4 5 6 
#
# 1 0.017662 -0.003906 -0.005328 0.000000 -0.000045 0.000000
# 2 -0.003906 0.015079 -0.005022 0.000000 0.001813 0.000000
# 3 -0.005328 -0.005022 0.017610 0.000000 -0.001040 0.000000
# 4 0.000000 0.000000 0.000000 0.083820 0.000000 0.002642
# 5 -0.000045 0.001813 -0.001040 0.000000 0.032589 0.000000
# 6 0.000000 0.000000 0.000000 0.002642 0.000000 0.039659
#
#
# Mechanical properties :
#
#
# Convention : Reuss Voigt Hill
#
# Bulk Modulus (GPa) = 45.79178 46.10733 45.94955
# Shear Modulus (GPa) = 20.64307 23.02263 21.83285
#
# Velocity S-wave (km/s) = 3.16136 3.33860 3.25119
# Velocity P-wave (km/s) = 5.95780 6.09788 6.02825
#
# Compressibility (1/GPa) = 0.02183798
#
# Stress axis : x y z
#
# Youngs Moduli (GPa) = 56.61934 66.31766 56.78532
#
# Poissons Ratio (x) = 0.25904 0.30256
# Poissons Ratio (y) = 0.22116 0.28519
# Poissons Ratio (z) = 0.30168 0.33307
#
# Static dielectric constant tensor:
#      x y z
#    x 3.905220 0.000000 -0.060240 
#    y 0.000000 3.468960 0.000000 
#    z -0.060240 0.000000 3.738380 
# 
# 
# High freq. dielectric constant tensor:
#      x y z
#    x 1.821100 0.000000 -0.004800 
#    y 0.000000 1.781270 0.000000 
#    z -0.004800 0.000000 1.808650 
# 
# From -- ./inp_files/80608.got.cif
#   From: 2010.06.25/outbox.cif.g09.slc.cpg/sg12_41_cif.got.tgz:80608.got - 2010.06.28 00:19:55.
