data_PCOD8110277
_publ_section_title
;
Structure prediction by ZEFSAII (Michael W. Deem and Ramdas Pophale) SiO2 
 PCOD8110277
Probable space group: C 2/M
;
_chemical_formula_sum "Si O2"
_cell_formula_units_Z 48
_cell_length_a 24.549421
_cell_length_b 8.489088
_cell_length_c 11.665352
_cell_angle_alpha 90.000000
_cell_angle_beta 110.674088
_cell_angle_gamma 90.000000
_cell_volume 2274.532317
_symmetry_space_group_name_H-M "C 2/M"
_symmetry_group_IT_number 12
_symmetry_cell_setting 'monoclinic'
loop_
_space_group_symop_operation_xyz
x,y,z
-x,y,-z
-x,-y,-z
x,-y,z
1/2+x,1/2+y,z
1/2-x,1/2+y,-z
1/2-x,1/2-y,-z
1/2+x,1/2-y,z
loop_
_atom_site_type_symbol
_atom_site_label
_atom_site_fract_x
_atom_site_fract_y
_atom_site_fract_z
Si Si1 0.860349 0.184169 0.384676
Si Si2 0.372764 0.686779 0.648608
Si Si3 0.733389 0.683268 0.285933
Si Si4 0.196858 0.684603 0.031263
Si Si5 0.983321 0.184799 0.862991
Si Si6 0.914470 0.318005 0.201730
O O1 0.881857 0.244977 0.525051
O O2 0.791663 0.215288 0.322136
O O3 0.898530 0.275688 0.320122
O O4 0.871199 0.000000 0.375957
O O5 0.377122 0.500000 0.656521
O O6 0.307541 0.736826 0.638573
O O7 0.422646 0.758018 0.769410
O O8 0.750430 0.500000 0.303781
O O9 0.693639 0.718468 0.146093
O O10 0.204523 0.500000 0.060340
O O11 0.250000 0.750000 0.000000
O O12 0.139124 0.723881 0.919090
O O13 0.031521 0.217512 0.802707
O O14 0.976126 0.000000 0.873566
O O15 0.000000 0.260249 0.000000
O O16 0.931278 0.500000 0.207949
#
# Coordination Sequence:
#
# PCOD8110277 Si02
#       6
#     8   8   8   8   8   8
#     4  11  22  38  60  86 120 160 202 244 295 358
#     4   9  21  39  60  88 119 157 202 246 294 355
#     4  11  21  37  61  89 123 155 196 251 301 355
#     4  11  22  36  57  85 119 155 195 241 295 352
#     4  10  21  41  67  90 115 154 200 244 294 357
#     4  11  24  40  59  88 123 156 195 248 300 349
#
# _framework density 21.103238000000001
#
# number of rings (size 3 to 8) (size 9 to 14) (size 15 to 20)
#    0.000    1.500    1.667    3.500    0.000    4.333 
#    0.000    9.167    0.000    0.000    0.000    0.000 
#    0.000    0.000    0.000    0.000    0.000    0.000 
#
# Total GULP energy -297626.708184 kJ/mol
# GULP energy per Si atom -12401.112841 kJ/mol
# Density = 2.105521 g / cm^3
# Si number density = 21.103238 Si / 1000 Ang^3
#
#
#
# Elastic Constant Matrix: (Units=GPa)
#
#
# Indices 1 2 3 4 5 6 
#
# 1 103.0763 -1.4630 35.1257 0.0000 -10.0065 0.0000
# 2 -1.4630 21.4920 3.1535 0.0000 6.5014 0.0000
# 3 35.1257 3.1535 127.1812 0.0000 -11.8004 0.0000
# 4 0.0000 0.0000 0.0000 23.8146 0.0000 -1.6140
# 5 -10.0065 6.5014 -11.8004 0.0000 30.8182 0.0000
# 6 0.0000 0.0000 0.0000 -1.6140 0.0000 27.4788
#
#
#
# Elastic Compliance Matrix: (Units=1/GPa)
#
#
# Indices 1 2 3 4 5 6 
#
# 1 0.010892 0.000434 -0.002799 0.000000 0.002373 0.000000
# 2 0.000434 0.050367 -0.002428 0.000000 -0.011414 0.000000
# 3 -0.002799 -0.002428 0.008978 0.000000 0.003041 0.000000
# 4 0.000000 0.000000 0.000000 0.042159 0.000000 0.002476
# 5 0.002373 -0.011414 0.003041 0.000000 0.036791 0.000000
# 6 0.000000 0.000000 0.000000 0.002476 0.000000 0.036537
#
#
# Mechanical properties :
#
#
# Convention : Reuss Voigt Hill
#
# Bulk Modulus (GPa) = 16.48734 36.15354 26.32044
# Shear Modulus (GPa) = 23.19895 30.75122 26.97509
#
# Velocity S-wave (km/s) = 3.31918 3.82144 3.57913
# Velocity P-wave (km/s) = 4.74541 6.05311 5.43871
#
# Compressibility (1/GPa) = 0.06065261
#
# Stress axis : x y z
#
# Youngs Moduli (GPa) = 91.81183 19.85411 111.38159
#
# Poissons Ratio (x) = -0.00862 0.31173
# Poissons Ratio (y) = -0.03986 0.27042
# Poissons Ratio (z) = 0.25696 0.04820
#
# Static dielectric constant tensor:
#      x y z
#    x 3.801630 0.000000 -0.032670 
#    y 0.000000 3.602380 0.000000 
#    z -0.032670 0.000000 4.077330 
# 
# 
# High freq. dielectric constant tensor:
#      x y z
#    x 1.831370 0.000000 -0.006800 
#    y 0.000000 1.807290 0.000000 
#    z -0.006800 0.000000 1.841330 
# 
# From -- ./inp_files/173032.got.cif
#   From: 2010.06.25/outbox.cif.g09.slc.cpg/sg12_87_cif.got.tgz:173032.got - 2010.06.28 00:19:55.
