data_PCOD8110827
_publ_section_title
;
Structure prediction by ZEFSAII (Michael W. Deem and Ramdas Pophale) SiO2 
 PCOD8110827
Probable space group: C 2/M
;
_chemical_formula_sum "Si O2"
_cell_formula_units_Z 52
_cell_length_a 14.724227
_cell_length_b 14.982873
_cell_length_c 16.031479
_cell_angle_alpha 90.000000
_cell_angle_beta 58.167702
_cell_angle_gamma 90.000000
_cell_volume 3004.784992
_symmetry_space_group_name_H-M "C 2/M"
_symmetry_group_IT_number 12
_symmetry_cell_setting 'monoclinic'
loop_
_space_group_symop_operation_xyz
x,y,z
-x,y,-z
-x,-y,-z
x,-y,z
1/2+x,1/2+y,z
1/2-x,1/2+y,-z
1/2-x,1/2-y,-z
1/2+x,1/2-y,z
loop_
_atom_site_type_symbol
_atom_site_label
_atom_site_fract_x
_atom_site_fract_y
_atom_site_fract_z
Si Si1 0.220999 0.500000 0.998116
Si Si2 0.168234 0.896434 0.382862
Si Si3 0.552209 0.397642 0.601470
Si Si4 0.857710 0.319965 0.193398
Si Si5 0.001779 0.169629 0.796946
Si Si6 0.515843 0.000000 0.894581
Si Si7 0.049356 0.000000 0.066329
Si Si8 0.736461 0.309330 0.089199
O O1 0.101146 0.500000 0.095417
O O2 0.321675 0.500000 0.012952
O O3 0.233545 0.412797 0.935553
O O4 0.133141 0.861199 0.491492
O O5 0.262214 0.832696 0.305503
O O6 0.069773 0.886581 0.367671
O O7 0.204394 0.000000 0.368494
O O8 0.579017 0.500000 0.602961
O O9 0.570785 0.349291 0.680559
O O10 0.919074 0.412974 0.160782
O O11 0.813653 0.280333 0.127183
O O12 0.941407 0.247220 0.181149
O O13 0.989341 0.085263 0.863384
O O14 0.885441 0.201884 0.823612
O O15 0.500000 0.000000 0.000000
O O16 0.000000 0.000000 0.000000
O O17 0.750000 0.250000 0.000000
#
# Coordination Sequence:
#
# PCOD8110827 Si02
#       8
#     4   8   8   8   8   4   4   8
#     4  10  22  38  58  71 104 158 174 236 269 311
#     4   9  18  34  60  85 108 139 177 239 287 338
#     4   9  17  35  60  84 108 138 183 231 293 331
#     4  12  23  35  57  83 113 146 189 227 281 336
#     4  11  23  35  58  82 108 148 189 230 274 331
#     4  12  22  36  55  82 110 143 188 226 278 329
#     4  10  24  40  55  77 113 152 194 221 263 331
#     4  11  23  37  53  78 114 146 189 228 271 324
#
# _framework density 17.305730000000001
#
# number of rings (size 3 to 8) (size 9 to 14) (size 15 to 20)
#    0.000    1.538    4.615    1.846    4.308    0.615 
#    0.000    0.000    0.000    0.000    0.000    0.000 
#    0.000    6.154    0.000    0.000    0.000    0.000 
#
# Total GULP energy -322261.916050 kJ/mol
# GULP energy per Si atom -12394.689079 kJ/mol
# Density = 1.726634 g / cm^3
# Si number density = 17.305730 Si / 1000 Ang^3
#
#
#
# Elastic Constant Matrix: (Units=GPa)
#
#
# Indices 1 2 3 4 5 6 
#
# 1 107.0616 46.6270 47.9120 0.0000 3.2946 0.0000
# 2 46.6270 93.3636 40.4071 0.0000 1.6993 0.0000
# 3 47.9120 40.4071 109.1797 0.0000 4.2998 0.0000
# 4 0.0000 0.0000 0.0000 5.2296 0.0000 -3.1133
# 5 3.2946 1.6993 4.2998 0.0000 31.8768 0.0000
# 6 0.0000 0.0000 0.0000 -3.1133 0.0000 26.1677
#
#
#
# Elastic Compliance Matrix: (Units=1/GPa)
#
#
# Indices 1 2 3 4 5 6 
#
# 1 0.013275 -0.004891 -0.003993 0.000000 -0.000573 0.000000
# 2 -0.004891 0.014556 -0.003247 0.000000 0.000168 0.000000
# 3 -0.003993 -0.003247 0.012155 0.000000 -0.001054 0.000000
# 4 0.000000 0.000000 0.000000 0.205793 0.000000 0.024484
# 5 -0.000573 0.000168 -0.001054 0.000000 0.031563 0.000000
# 6 0.000000 0.000000 0.000000 0.024484 0.000000 0.041128
#
#
# Mechanical properties :
#
#
# Convention : Reuss Voigt Hill
#
# Bulk Modulus (GPa) = 63.60073 64.38857 63.99465
# Shear Modulus (GPa) = 14.36889 24.29875 19.33382
#
# Velocity S-wave (km/s) = 2.88461 3.75118 3.34607
# Velocity P-wave (km/s) = 6.92284 7.48659 7.21023
#
# Compressibility (1/GPa) = 0.01572309
#
# Stress axis : x y z
#
# Youngs Moduli (GPa) = 75.32889 68.70054 82.27283
#
# Poissons Ratio (x) = 0.33603 0.32850
# Poissons Ratio (y) = 0.36846 0.26716
# Poissons Ratio (z) = 0.30077 0.22309
#
# Static dielectric constant tensor:
#      x y z
#    x 3.387110 0.000000 -0.142890 
#    y 0.000000 3.110700 0.000000 
#    z -0.142890 0.000000 3.335160 
# 
# 
# High freq. dielectric constant tensor:
#      x y z
#    x 1.666290 0.000000 -0.007260 
#    y 0.000000 1.657140 0.000000 
#    z -0.007260 0.000000 1.668960 
# 
# From -- ./inp_files/214750.got.cif
#   From: 2010.06.25/outbox.cif.g09.slc.cpg/sg12_108_cif.got.tgz:214750.got - 2010.06.28 00:19:55.
