data_PCOD8110084
_publ_section_title
;
Structure prediction by ZEFSAII (Michael W. Deem and Ramdas Pophale) SiO2 
 PCOD8110084
Probable space group: C 2/M
;
_chemical_formula_sum "Si O2"
_cell_formula_units_Z 64
_cell_length_a 8.715635
_cell_length_b 28.189596
_cell_length_c 24.429467
_cell_angle_alpha 90.000000
_cell_angle_beta 149.990537
_cell_angle_gamma 90.000000
_cell_volume 3001.899133
_symmetry_space_group_name_H-M "C 2/M"
_symmetry_group_IT_number 12
_symmetry_cell_setting 'monoclinic'
loop_
_space_group_symop_operation_xyz
x,y,z
-x,y,-z
-x,-y,-z
x,-y,z
1/2+x,1/2+y,z
1/2-x,1/2+y,-z
1/2-x,1/2-y,-z
1/2+x,1/2-y,z
loop_
_atom_site_type_symbol
_atom_site_label
_atom_site_fract_x
_atom_site_fract_y
_atom_site_fract_z
Si Si1 0.359461 0.370326 0.514659
Si Si2 0.144461 0.776071 0.781203
Si Si3 0.663130 0.191395 0.873931
Si Si4 0.310825 0.716464 0.569512
Si Si5 0.665549 0.445929 0.102293
Si Si6 0.132744 0.875397 0.291527
Si Si7 0.861592 0.055240 0.118353
Si Si8 0.249577 0.397113 0.278659
O O1 0.500000 0.356918 0.500000
O O2 0.465252 0.329158 0.590327
O O3 0.566617 0.410266 0.607896
O O4 0.000395 0.381260 0.401725
O O5 0.489158 0.792798 0.875717
O O6 0.146484 0.732805 0.823325
O O7 0.013459 0.760464 0.680338
O O8 0.948803 0.820205 0.745662
O O9 0.503881 0.145487 0.798138
O O10 0.000000 0.180188 0.000000
O O11 0.250000 0.750000 0.500000
O O12 0.000000 0.698100 0.500000
O O13 0.559401 0.500000 0.071014
O O14 0.540212 0.424442 0.120500
O O15 0.031807 0.442857 0.205718
O O16 0.500000 0.420131 0.000000
O O17 0.975811 0.911544 0.202074
O O18 0.004786 0.889806 0.311111
O O19 0.939420 0.000000 0.155087
O O20 0.500000 0.062362 0.000000
#
# Coordination Sequence:
#
# PCOD8110084 Si02
#       8
#     8   8   8   8   8   8   8   8
#     4  12  24  39  61  90 122 163 208 259 316 381
#     4  11  24  41  59  90 122 168 212 264 316 379
#     4  11  24  40  59  85 124 165 212 260 312 379
#     4  12  22  38  61  87 121 163 213 271 319 373
#     4  10  21  40  67  98 127 161 210 262 316 379
#     4  11  23  42  63  92 129 165 208 262 320 377
#     4  10  22  41  67  99 130 166 213 261 315 381
#     4  11  23  41  63  89 128 164 208 262 324 378
#
# _framework density 21.319837
#
# number of rings (size 3 to 8) (size 9 to 14) (size 15 to 20)
#    0.000    1.000    3.750    3.750    1.750    4.000 
#    0.000    0.625    0.000    3.750    0.000    0.000 
#    0.000    0.000    0.000    0.000    0.000    0.000 
#
# Total GULP energy -396512.002883 kJ/mol
# GULP energy per Si atom -12391.000090 kJ/mol
# Density = 2.127131 g / cm^3
# Si number density = 21.319837 Si / 1000 Ang^3
#
#
#
# Elastic Constant Matrix: (Units=GPa)
#
#
# Indices 1 2 3 4 5 6 
#
# 1 131.6941 26.6424 64.2832 0.0025 4.6624 -0.0003
# 2 26.6424 53.8455 40.9416 0.0009 -14.0534 -0.0004
# 3 64.2832 40.9416 164.3357 0.0243 5.7183 -0.0012
# 4 0.0025 0.0009 0.0243 18.6160 0.0046 2.4215
# 5 4.6624 -14.0534 5.7183 0.0046 47.0589 -0.0010
# 6 -0.0003 -0.0004 -0.0012 2.4215 -0.0010 25.2958
#
#
#
# Elastic Compliance Matrix: (Units=1/GPa)
#
#
# Indices 1 2 3 4 5 6 
#
# 1 0.009706 -0.002879 -0.003029 0.000003 -0.001453 0.000000
# 2 -0.002879 0.026805 -0.005865 0.000004 0.009003 0.000000
# 3 -0.003029 -0.005865 0.008819 -0.000010 -0.002523 0.000001
# 4 0.000003 0.000004 -0.000010 0.054395 -0.000003 -0.005207
# 5 -0.001453 0.009003 -0.002523 -0.000003 0.024389 0.000001
# 6 0.000000 0.000000 0.000001 -0.005207 0.000001 0.040031
#
#
# Mechanical properties :
#
#
# Convention : Reuss Voigt Hill
#
# Bulk Modulus (GPa) = 45.90439 68.17885 57.04162
# Shear Modulus (GPa) = 25.64739 32.72800 29.18770
#
# Velocity S-wave (km/s) = 3.47217 3.92228 3.70407
# Velocity P-wave (km/s) = 6.13617 7.24989 6.71616
#
# Compressibility (1/GPa) = 0.02178441
#
# Stress axis : x y z
#
# Youngs Moduli (GPa) = 103.03330 37.30584 113.39207
#
# Poissons Ratio (x) = 0.10739 0.34344
# Poissons Ratio (y) = 0.29659 0.66509
# Poissons Ratio (z) = 0.31207 0.21881
#
# Static dielectric constant tensor:
#      x y z
#    x 4.184550 0.000010 -0.022310 
#    y 0.000010 4.199470 -0.000070 
#    z -0.022310 -0.000070 4.297610 
# 
# 
# High freq. dielectric constant tensor:
#      x y z
#    x 1.852870 0.000000 0.005780 
#    y 0.000000 1.812300 0.000000 
#    z 0.005780 0.000000 1.852400 
# 
# From -- ./inp_files/334374.got.cif
#   From: 2010.06.25/outbox.cif.g09.slc.cpg/sg12_168_cif.got.tgz:334374.got - 2010.06.28 00:19:55.
