data_PCOD8110592
_publ_section_title
;
Structure prediction by ZEFSAII (Michael W. Deem and Ramdas Pophale) SiO2 
 PCOD8110592
Probable space group: C 2/M
;
_chemical_formula_sum "Si O2"
_cell_formula_units_Z 56
_cell_length_a 31.661780
_cell_length_b 10.352131
_cell_length_c 22.602966
_cell_angle_alpha 90.000000
_cell_angle_beta 156.242080
_cell_angle_gamma 90.000000
_cell_volume 2984.687771
_symmetry_space_group_name_H-M "C 2/M"
_symmetry_group_IT_number 12
_symmetry_cell_setting 'monoclinic'
loop_
_space_group_symop_operation_xyz
x,y,z
-x,y,-z
-x,-y,-z
x,-y,z
1/2+x,1/2+y,z
1/2-x,1/2+y,-z
1/2-x,1/2-y,-z
1/2+x,1/2-y,z
loop_
_atom_site_type_symbol
_atom_site_label
_atom_site_fract_x
_atom_site_fract_y
_atom_site_fract_z
Si Si1 0.745942 0.859770 0.043926
Si Si2 0.096024 0.643768 0.492229
Si Si3 0.267263 0.854424 0.439115
Si Si4 0.623691 0.144184 0.295981
Si Si5 0.569076 0.278722 0.641928
Si Si6 0.886309 0.647543 0.017106
Si Si7 0.232496 0.358460 0.777662
O O1 0.844538 0.868242 0.215826
O O2 0.641759 0.835721 0.949399
O O3 0.739673 0.000000 0.004371
O O4 0.750000 0.750000 0.000000
O O5 0.049091 0.500000 0.425542
O O6 0.139866 0.692968 0.485443
O O7 0.195086 0.644603 0.662558
O O8 0.003936 0.734363 0.397743
O O9 0.310301 0.857868 0.559955
O O10 0.171847 0.751114 0.313120
O O11 0.229532 0.000000 0.372675
O O12 0.627229 0.000000 0.271747
O O13 0.506039 0.185103 0.160697
O O14 0.500000 0.345863 0.500000
O O15 0.631945 0.161271 0.691700
O O16 0.862822 0.500000 0.966840
O O17 0.818074 0.746655 0.891659
O O18 0.279973 0.500000 0.853848
#
# Coordination Sequence:
#
# PCOD8110592 Si02
#       7
#     8   8   8   8   8   8   8
#     4  10  22  36  52  79 111 141 176 218 261 311
#     4   9  17  30  52  78 104 133 169 210 258 307
#     4   9  18  32  52  75  97 125 165 213 258 302
#     4   9  18  34  53  71  95 129 168 208 255 308
#     4   9  18  33  54  78 108 144 179 215 257 309
#     4   9  19  35  53  71  98 139 173 199 253 316
#     4   9  17  31  51  79 105 131 170 212 248 297
#
# _framework density 18.762432
#
# number of rings (size 3 to 8) (size 9 to 14) (size 15 to 20)
#    0.000    2.857    0.000    0.429    2.000    5.429 
#    0.000    4.286    0.000    4.286    0.000    0.000 
#    0.000    0.000    0.000    0.000    0.000    0.000 
#
# Total GULP energy -346952.709426 kJ/mol
# GULP energy per Si atom -12391.168194 kJ/mol
# Density = 1.871973 g / cm^3
# Si number density = 18.762432 Si / 1000 Ang^3
#
#
#
# Elastic Constant Matrix: (Units=GPa)
#
#
# Indices 1 2 3 4 5 6 
#
# 1 70.8861 30.5836 10.7088 0.0000 21.7324 0.0000
# 2 30.5836 91.6414 30.4030 0.0000 14.5510 0.0000
# 3 10.7088 30.4030 64.0576 0.0000 19.3938 0.0000
# 4 0.0000 0.0000 0.0000 20.8609 0.0000 -1.0181
# 5 21.7324 14.5510 19.3938 0.0000 31.4371 0.0000
# 6 0.0000 0.0000 0.0000 -1.0181 0.0000 23.4920
#
#
#
# Elastic Compliance Matrix: (Units=1/GPa)
#
#
# Indices 1 2 3 4 5 6 
#
# 1 0.020173 -0.005735 0.003404 0.000000 -0.013391 0.000000
# 2 -0.005735 0.014772 -0.006373 0.000000 0.001059 0.000000
# 3 0.003404 -0.006373 0.021994 0.000000 -0.012971 0.000000
# 4 0.000000 0.000000 0.000000 0.048038 0.000000 0.002082
# 5 -0.013391 0.001059 -0.012971 0.000000 0.048579 0.000000
# 6 0.000000 0.000000 0.000000 0.002082 0.000000 0.042658
#
#
# Mechanical properties :
#
#
# Convention : Reuss Voigt Hill
#
# Bulk Modulus (GPa) = 25.29733 41.10843 33.20288
# Shear Modulus (GPa) = 22.04593 25.48398 23.76495
#
# Velocity S-wave (km/s) = 3.43155 3.68944 3.56283
# Velocity P-wave (km/s) = 5.40490 6.33299 5.88726
#
# Compressibility (1/GPa) = 0.03952986
#
# Stress axis : x y z
#
# Youngs Moduli (GPa) = 49.57189 67.69411 45.46723
#
# Poissons Ratio (x) = 0.38825 -0.15476
# Poissons Ratio (y) = 0.28431 0.28976
# Poissons Ratio (z) = -0.16873 0.43141
#
# Static dielectric constant tensor:
#      x y z
#    x 3.382680 0.000000 0.095550 
#    y 0.000000 3.587070 0.000000 
#    z 0.095550 0.000000 3.350940 
# 
# 
# High freq. dielectric constant tensor:
#      x y z
#    x 1.719550 0.000000 0.009210 
#    y 0.000000 1.723530 0.000000 
#    z 0.009210 0.000000 1.713880 
# 
# From -- ./inp_files/327610.got.cif
#   From: 2010.06.25/outbox.cif.g09.slc.cpg/sg12_164_cif.got.tgz:327610.got - 2010.06.28 00:19:55.
