data_PCOD8110043
_publ_section_title
;
Structure prediction by ZEFSAII (Michael W. Deem and Ramdas Pophale) SiO2 
 PCOD8110043
Probable space group: C 2/M
;
_chemical_formula_sum "Si O2"
_cell_formula_units_Z 48
_cell_length_a 14.461768
_cell_length_b 14.063872
_cell_length_c 11.721068
_cell_angle_alpha 90.000000
_cell_angle_beta 68.772990
_cell_angle_gamma 90.000000
_cell_volume 2222.187940
_symmetry_space_group_name_H-M "C 2/M"
_symmetry_group_IT_number 12
_symmetry_cell_setting 'monoclinic'
loop_
_space_group_symop_operation_xyz
x,y,z
-x,y,-z
-x,-y,-z
x,-y,z
1/2+x,1/2+y,z
1/2-x,1/2+y,-z
1/2-x,1/2-y,-z
1/2+x,1/2-y,z
loop_
_atom_site_type_symbol
_atom_site_label
_atom_site_fract_x
_atom_site_fract_y
_atom_site_fract_z
Si Si1 0.509913 0.892220 0.621967
Si Si2 0.959083 0.888295 0.210692
Si Si3 0.615195 0.763078 0.155643
Si Si4 0.159214 0.253400 0.883957
Si Si5 0.598368 0.611571 0.513557
Si Si6 0.198499 0.392284 0.673867
O O1 0.500000 0.847740 0.500000
O O2 0.450334 0.835145 0.743424
O O3 0.626538 0.888281 0.597163
O O4 0.469064 0.000000 0.641665
O O5 0.899793 0.840349 0.132409
O O6 0.897192 0.867510 0.353690
O O7 0.068595 0.843336 0.181258
O O8 0.971801 0.000000 0.180113
O O9 0.725080 0.768924 0.155328
O O10 0.613937 0.791497 0.022633
O O11 0.145440 0.336301 0.799003
O O12 0.500000 0.657304 0.500000
O O13 0.597954 0.500000 0.491311
O O14 0.696429 0.654725 0.410013
O O15 0.213766 0.500000 0.709060
#
# Coordination Sequence:
#
# PCOD8110043 Si02
#       6
#     8   8   8   8   8   8
#     4  10  23  42  67  97 129 166 210 263 326 395
#     4  11  24  43  68  95 132 179 225 277 330 389
#     4  11  25  44  64  94 134 170 216 275 329 387
#     4  11  25  42  64  96 129 171 223 268 324 397
#     4   9  19  36  60  94 129 162 210 267 323 385
#     4  10  21  40  66  95 127 165 210 263 324 392
#
# _framework density 21.600332000000002
#
# number of rings (size 3 to 8) (size 9 to 14) (size 15 to 20)
#    0.000    1.667    1.667    1.500    2.333    7.333 
#    0.000    5.000    0.000    0.000    0.000    0.000 
#    0.000    0.000    0.000    0.000    0.000    0.000 
#
# Total GULP energy -297598.623672 kJ/mol
# GULP energy per Si atom -12399.942653 kJ/mol
# Density = 2.155117 g / cm^3
# Si number density = 21.600332 Si / 1000 Ang^3
#
#
#
# Elastic Constant Matrix: (Units=GPa)
#
#
# Indices 1 2 3 4 5 6 
#
# 1 113.5837 49.5965 55.5279 0.0000 4.5468 0.0000
# 2 49.5965 84.3948 46.0787 0.0000 -1.2827 0.0000
# 3 55.5279 46.0787 134.5583 0.0000 0.8940 0.0000
# 4 0.0000 0.0000 0.0000 25.8930 0.0000 0.2810
# 5 4.5468 -1.2827 0.8940 0.0000 38.2370 0.0000
# 6 0.0000 0.0000 0.0000 0.2810 0.0000 19.9538
#
#
#
# Elastic Compliance Matrix: (Units=1/GPa)
#
#
# Indices 1 2 3 4 5 6 
#
# 1 0.013087 -0.005871 -0.003379 0.000000 -0.001674 0.000000
# 2 -0.005871 0.017222 -0.003484 0.000000 0.001357 0.000000
# 3 -0.003379 -0.003484 0.010019 0.000000 0.000051 0.000000
# 4 0.000000 0.000000 0.000000 0.038626 0.000000 -0.000544
# 5 -0.001674 0.001357 0.000051 0.000000 0.026396 0.000000
# 6 0.000000 0.000000 0.000000 -0.000544 0.000000 0.050123
#
#
# Mechanical properties :
#
#
# Convention : Reuss Voigt Hill
#
# Bulk Modulus (GPa) = 67.29522 70.54922 68.92222
# Shear Modulus (GPa) = 26.89703 28.90568 27.90136
#
# Velocity S-wave (km/s) = 3.53259 3.66212 3.59794
# Velocity P-wave (km/s) = 6.91818 7.11432 7.01694
#
# Compressibility (1/GPa) = 0.01485990
#
# Stress axis : x y z
#
# Youngs Moduli (GPa) = 76.41432 58.06456 99.81389
#
# Poissons Ratio (x) = 0.34092 0.33724
# Poissons Ratio (y) = 0.44865 0.34773
# Poissons Ratio (z) = 0.25818 0.20228
#
# Static dielectric constant tensor:
#      x y z
#    x 4.177000 0.000000 0.041680 
#    y 0.000000 3.774650 0.000000 
#    z 0.041680 0.000000 4.065690 
# 
# 
# High freq. dielectric constant tensor:
#      x y z
#    x 1.859370 0.000000 0.003430 
#    y 0.000000 1.835010 0.000000 
#    z 0.003430 0.000000 1.858310 
# 
# From -- ./inp_files/142696.got.cif
#   From: 2010.06.25/outbox.cif.g09.slc.cpg/sg12_72_cif.got.tgz:142696.got - 2010.06.28 00:19:55.
