data_PCOD8110179
_publ_section_title
;
Structure prediction by ZEFSAII (Michael W. Deem and Ramdas Pophale) SiO2 
 PCOD8110179
Probable space group: C 2/M
;
_chemical_formula_sum "Si O2"
_cell_formula_units_Z 48
_cell_length_a 11.807844
_cell_length_b 23.513497
_cell_length_c 7.982554
_cell_angle_alpha 90.000000
_cell_angle_beta 80.020698
_cell_angle_gamma 90.000000
_cell_volume 2182.774084
_symmetry_space_group_name_H-M "C 2/M"
_symmetry_group_IT_number 12
_symmetry_cell_setting 'monoclinic'
loop_
_space_group_symop_operation_xyz
x,y,z
-x,y,-z
-x,-y,-z
x,-y,z
1/2+x,1/2+y,z
1/2-x,1/2+y,-z
1/2-x,1/2-y,-z
1/2+x,1/2-y,z
loop_
_atom_site_type_symbol
_atom_site_label
_atom_site_fract_x
_atom_site_fract_y
_atom_site_fract_z
Si Si1 0.394306 0.650760 0.430872
Si Si2 0.966414 0.641126 0.690935
Si Si3 0.429218 0.563204 0.169372
Si Si4 0.692137 0.935485 0.060070
Si Si5 0.714148 0.847305 0.760289
Si Si6 0.762687 0.272160 0.688046
O O1 0.500000 0.682890 0.500000
O O2 0.452011 0.594705 0.338368
O O3 0.289293 0.634038 0.580394
O O4 0.346719 0.685225 0.279237
O O5 0.879518 0.694503 0.699951
O O6 0.000000 0.617107 0.500000
O O7 0.081353 0.662005 0.750675
O O8 0.917442 0.589781 0.815170
O O9 0.478663 0.500000 0.182031
O O10 0.500000 0.592434 0.000000
O O11 0.294135 0.563007 0.166853
O O12 0.729352 0.894891 0.897424
O O13 0.664546 0.000000 0.004267
O O14 0.755244 0.783664 0.809475
O O15 0.750000 0.250000 0.500000
#
# Coordination Sequence:
#
# PCOD8110179 Si02
#       6
#     8   8   8   8   8   8
#     4  11  22  39  66  97 128 170 221 264 329 395
#     4  12  22  44  69  96 137 174 219 268 331 391
#     4  10  21  41  63  90 131 173 217 273 321 378
#     4  11  25  46  66  96 136 173 224 277 324 389
#     4  11  25  40  67  99 132 173 216 270 331 387
#     4  10  22  39  65  93 132 167 209 266 325 388
#
# _framework density 21.990362999999999
#
# number of rings (size 3 to 8) (size 9 to 14) (size 15 to 20)
#    0.000    1.167    5.000    1.500    4.667    3.333 
#    0.000    0.000    0.000    0.000    0.000    0.000 
#    0.000    0.000    0.000    0.000    0.000    0.000 
#
# Total GULP energy -297421.302746 kJ/mol
# GULP energy per Si atom -12392.554281 kJ/mol
# Density = 2.194031 g / cm^3
# Si number density = 21.990363 Si / 1000 Ang^3
#
#
#
# Elastic Constant Matrix: (Units=GPa)
#
#
# Indices 1 2 3 4 5 6 
#
# 1 103.6016 28.9932 9.7595 0.0000 -14.8204 0.0000
# 2 28.9932 149.4259 68.9663 0.0000 -8.1214 0.0000
# 3 9.7595 68.9663 93.6002 0.0000 -22.0533 0.0000
# 4 0.0000 0.0000 0.0000 36.8357 0.0000 4.9563
# 5 -14.8204 -8.1214 -22.0533 0.0000 32.5945 0.0000
# 6 0.0000 0.0000 0.0000 4.9563 0.0000 24.1816
#
#
#
# Elastic Compliance Matrix: (Units=1/GPa)
#
#
# Indices 1 2 3 4 5 6 
#
# 1 0.011100 -0.002944 0.002413 0.000000 0.005946 0.000000
# 2 -0.002944 0.011176 -0.009026 0.000000 -0.004661 0.000000
# 3 0.002413 -0.009026 0.019999 0.000000 0.012380 0.000000
# 4 0.000000 0.000000 0.000000 0.027918 0.000000 -0.005722
# 5 0.005946 -0.004661 0.012380 0.000000 0.040598 0.000000
# 6 0.000000 0.000000 0.000000 -0.005722 0.000000 0.042527
#
#
# Mechanical properties :
#
#
# Convention : Reuss Voigt Hill
#
# Bulk Modulus (GPa) = 43.17666 62.45175 52.81421
# Shear Modulus (GPa) = 27.75437 34.64960 31.20199
#
# Velocity S-wave (km/s) = 3.55648 3.97378 3.77091
# Velocity P-wave (km/s) = 6.04497 7.03675 6.55963
#
# Compressibility (1/GPa) = 0.02316066
#
# Stress axis : x y z
#
# Youngs Moduli (GPa) = 90.09380 89.47714 50.00153
#
# Poissons Ratio (x) = 0.26343 -0.12065
# Poissons Ratio (y) = 0.26525 0.45131
# Poissons Ratio (z) = -0.21738 0.80761
#
# Static dielectric constant tensor:
#      x y z
#    x 4.096880 0.000000 -0.069350 
#    y 0.000000 4.751040 0.000000 
#    z -0.069350 0.000000 3.861620 
# 
# 
# High freq. dielectric constant tensor:
#      x y z
#    x 1.876800 0.000000 -0.007900 
#    y 0.000000 1.865270 0.000000 
#    z -0.007900 0.000000 1.847180 
# 
# From -- ./inp_files/51325.got.cif
#   From: 2010.06.25/outbox.cif.g09.slc.cpg/sg12_26_cif.got.tgz:51325.got - 2010.06.28 00:19:55.
