data_PCOD8110814
_publ_section_title
;
Structure prediction by ZEFSAII (Michael W. Deem and Ramdas Pophale) SiO2 
 PCOD8110814
Probable space group: C 2/M
;
_chemical_formula_sum "Si O2"
_cell_formula_units_Z 28
_cell_length_a 10.115637
_cell_length_b 10.146103
_cell_length_c 16.563778
_cell_angle_alpha 90.000000
_cell_angle_beta 72.137960
_cell_angle_gamma 90.000000
_cell_volume 1618.067419
_symmetry_space_group_name_H-M "C 2/M"
_symmetry_group_IT_number 12
_symmetry_cell_setting 'monoclinic'
loop_
_space_group_symop_operation_xyz
x,y,z
-x,y,-z
-x,-y,-z
x,-y,z
1/2+x,1/2+y,z
1/2-x,1/2+y,-z
1/2-x,1/2-y,-z
1/2+x,1/2-y,z
loop_
_atom_site_type_symbol
_atom_site_label
_atom_site_fract_x
_atom_site_fract_y
_atom_site_fract_z
Si Si1 0.547477 0.500000 0.359750
Si Si2 0.843155 0.353502 0.029314
Si Si3 0.737350 0.000000 0.808454
Si Si4 0.906044 0.739118 0.442158
Si Si5 0.347933 0.000000 0.347556
O O1 0.605483 0.500000 0.256617
O O2 0.453659 0.373768 0.392259
O O3 0.680067 0.500000 0.396433
O O4 0.839024 0.500000 0.988361
O O5 0.787940 0.369342 0.132041
O O6 0.750000 0.250000 0.000000
O O7 0.000000 0.299107 0.000000
O O8 0.628579 0.000000 0.753823
O O9 0.750000 0.750000 0.500000
O O10 0.920178 0.627673 0.371573
O O11 0.000000 0.698324 0.500000
#
# Coordination Sequence:
#
# PCOD8110814 Si02
#       5
#     4   8   4   8   4
#     4  10  22  40  54  85 122 149 187 254 298 316
#     4   9  19  37  62  89 116 152 194 232 290 350
#     4   8  19  41  56  83 125 155 181 253 288 340
#     4  12  21  38  62  83 114 156 198 244 289 349
#     4  10  22  38  57  84 117 150 196 237 299 331
#
# _framework density 17.304594999999999
#
# number of rings (size 3 to 8) (size 9 to 14) (size 15 to 20)
#    1.714    0.286    2.857    1.714    0.000    2.857 
#    0.000    0.000    3.143    0.000    0.000    0.000 
#    0.000    0.000    0.000    0.000    0.000    0.000 
#
# Total GULP energy -173482.275110 kJ/mol
# GULP energy per Si atom -12391.591079 kJ/mol
# Density = 1.726521 g / cm^3
# Si number density = 17.304595 Si / 1000 Ang^3
#
#
#
# Elastic Constant Matrix: (Units=GPa)
#
#
# Indices 1 2 3 4 5 6 
#
# 1 129.2197 65.9761 61.6132 0.0000 2.1087 0.0000
# 2 65.9761 138.2726 66.0265 0.0000 13.2799 0.0000
# 3 61.6132 66.0265 141.9034 0.0000 4.7542 0.0000
# 4 0.0000 0.0000 0.0000 23.9205 0.0000 5.6606
# 5 2.1087 13.2799 4.7542 0.0000 32.4377 0.0000
# 6 0.0000 0.0000 0.0000 5.6606 0.0000 34.4178
#
#
#
# Elastic Compliance Matrix: (Units=1/GPa)
#
#
# Indices 1 2 3 4 5 6 
#
# 1 0.011228 -0.004036 -0.003043 0.000000 0.001368 0.000000
# 2 -0.004036 0.011089 -0.003280 0.000000 -0.003797 0.000000
# 3 -0.003043 -0.003280 0.009891 0.000000 0.000091 0.000000
# 4 0.000000 0.000000 0.000000 0.043498 0.000000 -0.007154
# 5 0.001368 -0.003797 0.000091 0.000000 0.032280 0.000000
# 6 0.000000 0.000000 0.000000 -0.007154 0.000000 0.030231
#
#
# Mechanical properties :
#
#
# Convention : Reuss Voigt Hill
#
# Bulk Modulus (GPa) = 87.02929 88.51415 87.77172
# Shear Modulus (GPa) = 30.71909 32.54053 31.62981
#
# Velocity S-wave (km/s) = 4.21788 4.34113 4.27995
# Velocity P-wave (km/s) = 8.60944 8.74007 8.67500
#
# Compressibility (1/GPa) = 0.01149038
#
# Stress axis : x y z
#
# Youngs Moduli (GPa) = 89.06372 90.18348 101.09731
#
# Poissons Ratio (x) = 0.36395 0.30766
# Poissons Ratio (y) = 0.35943 0.33160
# Poissons Ratio (z) = 0.27104 0.29580
#
# Static dielectric constant tensor:
#      x y z
#    x 3.209460 0.000000 -0.108890 
#    y 0.000000 3.131010 0.000000 
#    z -0.108890 0.000000 3.192460 
# 
# 
# High freq. dielectric constant tensor:
#      x y z
#    x 1.663730 0.000000 -0.004740 
#    y 0.000000 1.663430 0.000000 
#    z -0.004740 0.000000 1.661020 
# 
# From -- ./inp_files/254199.got.cif
#   From: 2010.06.25/outbox.cif.g09.slc.cpg/sg12_128_cif.got.tgz:254199.got - 2010.06.28 00:19:55.
