data_PCOD8110887
_publ_section_title
;
Structure prediction by ZEFSAII (Michael W. Deem and Ramdas Pophale) SiO2 
 PCOD8110887
Probable space group: C 2/M
;
_chemical_formula_sum "Si O2"
_cell_formula_units_Z 64
_cell_length_a 30.973350
_cell_length_b 13.821045
_cell_length_c 11.426446
_cell_angle_alpha 90.000000
_cell_angle_beta 38.165162
_cell_angle_gamma 90.000000
_cell_volume 3022.594095
_symmetry_space_group_name_H-M "C 2/M"
_symmetry_group_IT_number 12
_symmetry_cell_setting 'monoclinic'
loop_
_space_group_symop_operation_xyz
x,y,z
-x,y,-z
-x,-y,-z
x,-y,z
1/2+x,1/2+y,z
1/2-x,1/2+y,-z
1/2-x,1/2-y,-z
1/2+x,1/2-y,z
loop_
_atom_site_type_symbol
_atom_site_label
_atom_site_fract_x
_atom_site_fract_y
_atom_site_fract_z
Si Si1 0.598846 0.886035 0.072485
Si Si2 0.391630 0.387365 0.765743
Si Si3 0.541286 0.198645 0.687981
Si Si4 0.254447 0.888498 0.850228
Si Si5 0.978818 0.889060 0.358640
Si Si6 0.893941 0.388779 0.678933
Si Si7 0.733050 0.886113 0.636096
Si Si8 0.681915 0.201118 0.509148
O O1 0.534520 0.849070 0.128004
O O2 0.593344 0.844720 0.217974
O O3 0.593578 0.000000 0.090824
O O4 0.672777 0.857377 0.857374
O O5 0.380963 0.500000 0.793043
O O6 0.419326 0.361880 0.579015
O O7 0.446052 0.359701 0.750365
O O8 0.316408 0.339662 0.948497
O O9 0.533994 0.315080 0.719192
O O10 0.562489 0.169625 0.510344
O O11 0.600615 0.173640 0.656466
O O12 0.311824 0.879234 0.829134
O O13 0.272372 0.828659 0.698025
O O14 0.244960 0.000000 0.833212
O O15 0.974942 0.000000 0.324875
O O16 0.918685 0.500000 0.618552
O O17 0.702243 0.865670 0.574057
O O18 0.800836 0.815966 0.508748
O O19 0.754661 0.000000 0.601056
#
# Coordination Sequence:
#
# PCOD8110887 Si02
#       8
#     8   8   8   8   8   8   8   8
#     4  10  22  38  60  87 115 154 195 236 288 341
#     4   8  16  30  48  74 110 154 195 225 265 327
#     4  11  22  34  58  86 119 155 185 235 286 339
#     4   9  17  32  57  84 115 150 185 235 284 332
#     4   9  19  32  47  75 115 155 191 225 271 334
#     4   9  19  34  52  84 121 150 187 230 282 342
#     4  10  23  44  65  83 112 149 191 244 291 338
#     4  10  23  40  59  89 112 143 196 236 288 348
#
# _framework density 21.173863999999998
#
# number of rings (size 3 to 8) (size 9 to 14) (size 15 to 20)
#    0.000    2.500    0.000    1.875    5.250    4.500 
#    0.000    6.250    0.000    0.000    0.000    2.625 
#    0.000    0.000    0.000    0.000    0.000    0.000 
#
# Total GULP energy -396534.224011 kJ/mol
# GULP energy per Si atom -12391.694500 kJ/mol
# Density = 2.112567 g / cm^3
# Si number density = 21.173864 Si / 1000 Ang^3
#
#
#
# Elastic Constant Matrix: (Units=GPa)
#
#
# Indices 1 2 3 4 5 6 
#
# 1 79.6515 23.2953 19.5313 0.0000 4.7773 0.0000
# 2 23.2953 65.1375 11.1858 0.0000 -5.4738 0.0000
# 3 19.5313 11.1858 45.8052 0.0000 -12.1062 0.0000
# 4 0.0000 0.0000 0.0000 22.2463 0.0000 -3.6216
# 5 4.7773 -5.4738 -12.1062 0.0000 9.4739 0.0000
# 6 0.0000 0.0000 0.0000 -3.6216 0.0000 25.9867
#
#
#
# Elastic Compliance Matrix: (Units=1/GPa)
#
#
# Indices 1 2 3 4 5 6 
#
# 1 0.021132 -0.007749 -0.016788 0.000000 -0.036585 0.000000
# 2 -0.007749 0.019129 0.003906 0.000000 0.019951 0.000000
# 3 -0.016788 0.003906 0.046612 0.000000 0.070285 0.000000
# 4 0.000000 0.000000 0.000000 0.045995 0.000000 0.006410
# 5 -0.036585 0.019951 0.070285 0.000000 0.225341 0.000000
# 6 0.000000 0.000000 0.000000 0.006410 0.000000 0.039375
#
#
# Mechanical properties :
#
#
# Convention : Reuss Voigt Hill
#
# Bulk Modulus (GPa) = 21.92428 33.17989 27.55208
# Shear Modulus (GPa) = 11.01203 20.64684 15.82943
#
# Velocity S-wave (km/s) = 2.28299 3.12606 2.73718
# Velocity P-wave (km/s) = 4.16249 5.36040 4.79897
#
# Compressibility (1/GPa) = 0.04561154
#
# Stress axis : x y z
#
# Youngs Moduli (GPa) = 47.32227 52.27592 21.45361
#
# Poissons Ratio (x) = 0.40508 0.36015
# Poissons Ratio (y) = 0.36670 -0.08379
# Poissons Ratio (z) = 0.79442 -0.20417
#
# Static dielectric constant tensor:
#      x y z
#    x 3.458330 0.000000 0.130640 
#    y 0.000000 3.848520 0.000000 
#    z 0.130640 0.000000 3.751960 
# 
# 
# High freq. dielectric constant tensor:
#      x y z
#    x 1.813580 0.000000 -0.021800 
#    y 0.000000 1.840860 0.000000 
#    z -0.021800 0.000000 1.815030 
# 
# From -- ./inp_files/189449.got.cif
#   From: 2010.06.25/outbox.cif.g09.slc.cpg/sg12_95_cif.got.tgz:189449.got - 2010.06.28 00:19:55.
