data_PCOD8110480
_publ_section_title
;
Structure prediction by ZEFSAII (Michael W. Deem and Ramdas Pophale) SiO2 
 PCOD8110480
Probable space group: C 2/M
;
_chemical_formula_sum "Si O2"
_cell_formula_units_Z 40
_cell_length_a 10.531108
_cell_length_b 15.509680
_cell_length_c 9.933984
_cell_angle_alpha 90.000000
_cell_angle_beta 82.685046
_cell_angle_gamma 90.000000
_cell_volume 1609.352881
_symmetry_space_group_name_H-M "C 2/M"
_symmetry_group_IT_number 12
_symmetry_cell_setting 'monoclinic'
loop_
_space_group_symop_operation_xyz
x,y,z
-x,y,-z
-x,-y,-z
x,-y,z
1/2+x,1/2+y,z
1/2-x,1/2+y,-z
1/2-x,1/2-y,-z
1/2+x,1/2-y,z
loop_
_atom_site_type_symbol
_atom_site_label
_atom_site_fract_x
_atom_site_fract_y
_atom_site_fract_z
Si Si1 0.586840 0.402933 0.834835
Si Si2 0.317259 0.903115 0.001443
Si Si3 0.863627 0.901491 0.473117
Si Si4 0.207850 0.320347 0.717534
Si Si5 0.060886 0.740416 0.183255
O O1 0.528123 0.500000 0.848453
O O2 0.686781 0.388380 0.939458
O O3 0.657793 0.388924 0.682431
O O4 0.470031 0.335907 0.872599
O O5 0.418152 0.831004 0.936165
O O6 0.370562 0.000000 0.967953
O O7 0.293856 0.891144 0.163394
O O8 0.747807 0.857077 0.567971
O O9 0.000000 0.861085 0.500000
O O10 0.861347 0.000000 0.518324
O O11 0.065572 0.283328 0.713524
O O12 0.309937 0.245950 0.745674
#
# Coordination Sequence:
#
# PCOD8110480 Si02
#       5
#     8   8   8   8   8
#     4  10  23  45  72 103 143 185 232 289 352 420
#     4  11  26  47  73 105 144 187 236 294 360 422
#     4  10  21  43  70 102 139 181 240 296 345 419
#     4  12  26  43  72 103 145 185 238 290 363 410
#     4  12  25  45  72 106 145 185 235 294 353 422
#
# _framework density 24.854711999999999
#
# number of rings (size 3 to 8) (size 9 to 14) (size 15 to 20)
#    0.000    1.000    4.000    1.800    2.800    4.000 
#    3.600    2.000    0.000    3.600    0.000    0.000 
#    0.000    0.000    0.000    0.000    0.000    0.000 
#
# Total GULP energy -247914.314455 kJ/mol
# GULP energy per Si atom -12395.715723 kJ/mol
# Density = 2.479814 g / cm^3
# Si number density = 24.854712 Si / 1000 Ang^3
#
#
#
# Elastic Constant Matrix: (Units=GPa)
#
#
# Indices 1 2 3 4 5 6 
#
# 1 82.9514 47.7695 40.9571 0.0000 -23.5638 0.0000
# 2 47.7695 174.3383 38.8198 0.0000 -21.1360 0.0000
# 3 40.9571 38.8198 142.0055 0.0000 -24.8274 0.0000
# 4 0.0000 0.0000 0.0000 19.0261 0.0000 -21.8557
# 5 -23.5638 -21.1360 -24.8274 0.0000 39.2217 0.0000
# 6 0.0000 0.0000 0.0000 -21.8557 0.0000 34.2206
#
#
#
# Elastic Compliance Matrix: (Units=1/GPa)
#
#
# Indices 1 2 3 4 5 6 
#
# 1 0.017304 -0.003270 -0.002909 0.000000 0.006792 0.000000
# 2 -0.003270 0.006954 -0.000727 0.000000 0.001323 0.000000
# 3 -0.002909 -0.000727 0.008665 0.000000 0.003345 0.000000
# 4 0.000000 0.000000 0.000000 0.197338 0.000000 0.126034
# 5 0.006792 0.001323 0.003345 0.000000 0.032407 0.000000
# 6 0.000000 0.000000 0.000000 0.126034 0.000000 0.109716
#
#
# Mechanical properties :
#
#
# Convention : Reuss Voigt Hill
#
# Bulk Modulus (GPa) = 52.32632 72.70979 62.51806
# Shear Modulus (GPa) = 12.73666 36.61025 24.67345
#
# Velocity S-wave (km/s) = 2.26618 3.84209 3.15414
# Velocity P-wave (km/s) = 5.28640 6.99998 6.20265
#
# Compressibility (1/GPa) = 0.01911084
#
# Stress axis : x y z
#
# Youngs Moduli (GPa) = 57.78845 143.79809 115.41209
#
# Poissons Ratio (x) = 0.47025 0.33579
# Poissons Ratio (y) = 0.18898 0.08386
# Poissons Ratio (z) = 0.16813 0.10448
#
# Static dielectric constant tensor:
#      x y z
#    x 4.342570 0.000000 -0.109480 
#    y 0.000000 4.772200 0.000000 
#    z -0.109480 0.000000 4.351810 
# 
# 
# High freq. dielectric constant tensor:
#      x y z
#    x 1.988230 0.000000 -0.006150 
#    y 0.000000 1.996600 0.000000 
#    z -0.006150 0.000000 1.988050 
# 
# From -- ./inp_files/129126.got.cif
#   From: 2010.06.25/outbox.cif.g09.slc.cpg/sg12_65_cif.got.tgz:129126.got - 2010.06.28 00:19:55.
