data_PCOD8110346
_publ_section_title
;
Structure prediction by ZEFSAII (Michael W. Deem and Ramdas Pophale) SiO2 
 PCOD8110346
Probable space group: C 2/M
;
_chemical_formula_sum "Si O2"
_cell_formula_units_Z 40
_cell_length_a 12.359468
_cell_length_b 29.737719
_cell_length_c 9.679483
_cell_angle_alpha 90.000000
_cell_angle_beta 34.678497
_cell_angle_gamma 90.000000
_cell_volume 2024.182535
_symmetry_space_group_name_H-M "C 2/M"
_symmetry_group_IT_number 12
_symmetry_cell_setting 'monoclinic'
loop_
_space_group_symop_operation_xyz
x,y,z
-x,y,-z
-x,-y,-z
x,-y,z
1/2+x,1/2+y,z
1/2-x,1/2+y,-z
1/2-x,1/2-y,-z
1/2+x,1/2-y,z
loop_
_atom_site_type_symbol
_atom_site_label
_atom_site_fract_x
_atom_site_fract_y
_atom_site_fract_z
Si Si1 0.076376 0.074131 0.189315
Si Si2 0.155362 0.500000 0.025857
Si Si3 0.675998 0.797866 0.728884
Si Si4 0.500000 0.369982 0.000000
Si Si5 0.277151 0.500000 0.582377
Si Si6 0.500000 0.640582 0.500000
Si Si7 0.181460 0.299203 0.403911
O O1 0.266179 0.044088 0.979539
O O2 0.111653 0.110299 0.272696
O O3 0.055800 0.098127 0.066108
O O4 0.889227 0.044513 0.418767
O O5 0.249137 0.500000 0.775539
O O6 0.928956 0.500000 0.272489
O O7 0.720352 0.747916 0.737480
O O8 0.617542 0.798169 0.630277
O O9 0.856621 0.829129 0.563204
O O10 0.500000 0.817321 0.000000
O O11 0.323340 0.339690 0.228067
O O12 0.000000 0.307123 0.500000
#
# Coordination Sequence:
#
# PCOD8110346 Si02
#       7
#     8   4   8   4   4   4   8
#     4  11  23  42  64  96 132 167 209 267 330 382
#     4  10  21  41  71  96 127 165 206 272 324 387
#     4  11  25  41  66  94 124 176 229 272 322 380
#     4  12  26  43  62  96 140 174 214 271 326 394
#     4  10  21  41  69  98 129 159 213 265 326 393
#     4  12  22  41  66 100 130 168 226 271 310 394
#     4  11  25  43  62  92 133 175 219 274 331 376
#
# _framework density 19.761064000000001
#
# number of rings (size 3 to 8) (size 9 to 14) (size 15 to 20)
#    0.000    1.000    6.000    0.600    2.800    5.600 
#    0.000    1.000    0.000    0.000    0.000    0.000 
#    0.000    0.000    0.000    0.000    0.000    0.000 
#
# Total GULP energy -248109.916077 kJ/mol
# GULP energy per Si atom -12405.495804 kJ/mol
# Density = 1.971609 g / cm^3
# Si number density = 19.761064 Si / 1000 Ang^3
#
#
#
# Elastic Constant Matrix: (Units=GPa)
#
#
# Indices 1 2 3 4 5 6 
#
# 1 120.8956 50.3098 22.8174 0.0000 -6.5034 0.0000
# 2 50.3098 114.7340 22.1380 0.0000 -0.8023 0.0000
# 3 22.8174 22.1380 64.8245 0.0000 -8.2941 0.0000
# 4 0.0000 0.0000 0.0000 22.5907 0.0000 23.9592
# 5 -6.5034 -0.8023 -8.2941 0.0000 37.7970 0.0000
# 6 0.0000 0.0000 0.0000 23.9592 0.0000 73.9311
#
#
#
# Elastic Compliance Matrix: (Units=1/GPa)
#
#
# Indices 1 2 3 4 5 6 
#
# 1 0.010474 -0.004179 -0.002099 0.000000 0.001253 0.000000
# 2 -0.004179 0.011008 -0.002418 0.000000 -0.001016 0.000000
# 3 -0.002099 -0.002418 0.017428 0.000000 0.003412 0.000000
# 4 0.000000 0.000000 0.000000 0.067449 0.000000 -0.021858
# 5 0.001253 -0.001016 0.003412 0.000000 0.027400 0.000000
# 6 0.000000 0.000000 0.000000 -0.021858 0.000000 0.020610
#
#
# Mechanical properties :
#
#
# Convention : Reuss Voigt Hill
#
# Bulk Modulus (GPa) = 46.47630 54.55383 50.51507
# Shear Modulus (GPa) = 27.94335 40.54300 34.24318
#
# Velocity S-wave (km/s) = 3.76448 4.53444 4.16728
# Velocity P-wave (km/s) = 6.51654 7.42169 6.98380
#
# Compressibility (1/GPa) = 0.02151634
#
# Stress axis : x y z
#
# Youngs Moduli (GPa) = 95.47176 90.84474 57.38033
#
# Poissons Ratio (x) = 0.37965 0.12046
# Poissons Ratio (y) = 0.39898 0.13876
# Poissons Ratio (z) = 0.20043 0.21969
#
# Static dielectric constant tensor:
#      x y z
#    x 3.661170 0.000000 0.001700 
#    y 0.000000 3.796980 0.000000 
#    z 0.001700 0.000000 3.468990 
# 
# 
# High freq. dielectric constant tensor:
#      x y z
#    x 1.781240 0.000000 0.000580 
#    y 0.000000 1.786120 0.000000 
#    z 0.000580 0.000000 1.760980 
# 
# From -- ./inp_files/54044.got.cif
#   From: 2010.06.25/outbox.cif.g09.slc.cpg/sg12_28_cif.got.tgz:54044.got - 2010.06.28 00:19:55.
