data_PCOD8110558
_publ_section_title
;
Structure prediction by ZEFSAII (Michael W. Deem and Ramdas Pophale) SiO2 
 PCOD8110558
Probable space group: C 2/M
;
_chemical_formula_sum "Si O2"
_cell_formula_units_Z 52
_cell_length_a 22.124588
_cell_length_b 16.385347
_cell_length_c 8.285411
_cell_angle_alpha 90.000000
_cell_angle_beta 97.109325
_cell_angle_gamma 90.000000
_cell_volume 2980.526937
_symmetry_space_group_name_H-M "C 2/M"
_symmetry_group_IT_number 12
_symmetry_cell_setting 'monoclinic'
loop_
_space_group_symop_operation_xyz
x,y,z
-x,y,-z
-x,-y,-z
x,-y,z
1/2+x,1/2+y,z
1/2-x,1/2+y,-z
1/2-x,1/2-y,-z
1/2+x,1/2-y,z
loop_
_atom_site_type_symbol
_atom_site_label
_atom_site_fract_x
_atom_site_fract_y
_atom_site_fract_z
Si Si1 0.146939 0.910615 0.458300
Si Si2 0.015494 0.092839 0.322394
Si Si3 0.500000 0.694475 0.000000
Si Si4 0.369946 0.760318 0.962764
Si Si5 0.270267 0.340722 0.756948
Si Si6 0.813222 0.803253 0.261751
Si Si7 0.214132 0.594387 0.057188
O O1 0.088345 0.903241 0.323507
O O2 0.209587 0.900276 0.379479
O O3 0.141806 0.841905 0.592989
O O4 0.148244 0.000000 0.540107
O O5 0.000000 0.126123 0.500000
O O6 0.990780 0.000000 0.301205
O O7 0.987941 0.141752 0.159754
O O8 0.558307 0.752695 0.049043
O O9 0.355913 0.720332 0.129332
O O10 0.330156 0.711037 0.821038
O O11 0.349357 0.855368 0.953602
O O12 0.218631 0.278091 0.679080
O O13 0.244422 0.395500 0.892185
O O14 0.761832 0.869710 0.200928
O O15 0.200353 0.500000 0.089141
#
# Coordination Sequence:
#
# PCOD8110558 Si02
#       7
#     8   8   4   8   8   8   8
#     4  11  19  29  45  72  99 124 162 200 241 299
#     4  10  22  35  48  71 103 134 171 211 245 294
#     4  12  19  36  55  68 102 142 174 206 251 292
#     4   9  19  32  50  71  94 129 172 200 239 304
#     4   9  17  32  47  71  97 126 159 198 246 302
#     4   9  18  31  49  70 100 127 156 201 251 300
#     4   9  17  32  51  73  99 125 157 206 256 295
#
# _framework density 17.446579
#
# number of rings (size 3 to 8) (size 9 to 14) (size 15 to 20)
#    0.000    2.308    1.538    4.385    0.000    0.000 
#    0.000    1.923    0.000    0.000    0.000    0.000 
#    0.000    4.000    0.000    0.000    0.000    0.000 
#
# Total GULP energy -322229.019091 kJ/mol
# GULP energy per Si atom -12393.423811 kJ/mol
# Density = 1.740687 g / cm^3
# Si number density = 17.446579 Si / 1000 Ang^3
#
#
#
# Elastic Constant Matrix: (Units=GPa)
#
#
# Indices 1 2 3 4 5 6 
#
# 1 71.9136 29.2658 2.8928 0.0000 -0.4248 0.0000
# 2 29.2658 75.2421 11.5531 0.0000 2.6147 0.0000
# 3 2.8928 11.5531 52.7408 0.0000 -3.8877 0.0000
# 4 0.0000 0.0000 0.0000 24.4728 0.0000 0.5116
# 5 -0.4248 2.6147 -3.8877 0.0000 22.2459 0.0000
# 6 0.0000 0.0000 0.0000 0.5116 0.0000 20.2233
#
#
#
# Elastic Compliance Matrix: (Units=1/GPa)
#
#
# Indices 1 2 3 4 5 6 
#
# 1 0.016566 -0.006580 0.000621 0.000000 0.001198 0.000000
# 2 -0.006580 0.016471 -0.003443 0.000000 -0.002663 0.000000
# 3 0.000621 -0.003443 0.019969 0.000000 0.003906 0.000000
# 4 0.000000 0.000000 0.000000 0.040883 0.000000 -0.001034
# 5 0.001198 -0.002663 0.003906 0.000000 0.045971 0.000000
# 6 0.000000 0.000000 0.000000 -0.001034 0.000000 0.049474
#
#
# Mechanical properties :
#
#
# Convention : Reuss Voigt Hill
#
# Bulk Modulus (GPa) = 29.23945 31.92443 30.58194
# Shear Modulus (GPa) = 22.77502 23.80074 23.28788
#
# Velocity S-wave (km/s) = 3.61697 3.69752 3.65747
# Velocity P-wave (km/s) = 5.85142 6.04707 5.95005
#
# Compressibility (1/GPa) = 0.03420037
#
# Stress axis : x y z
#
# Youngs Moduli (GPa) = 60.36622 60.71223 50.07800
#
# Poissons Ratio (x) = 0.39950 -0.03111
# Poissons Ratio (y) = 0.39723 0.17244
# Poissons Ratio (z) = -0.03750 0.20906
#
# Static dielectric constant tensor:
#      x y z
#    x 3.137340 0.000000 -0.026270 
#    y 0.000000 3.117970 0.000000 
#    z -0.026270 0.000000 3.138510 
# 
# 
# High freq. dielectric constant tensor:
#      x y z
#    x 1.662830 0.000000 -0.006130 
#    y 0.000000 1.656850 0.000000 
#    z -0.006130 0.000000 1.669280 
# 
# From -- ./inp_files/95818.got.cif
#   From: 2010.06.25/outbox.cif.g09.slc.cpg/sg12_48_cif.got.tgz:95818.got - 2010.06.28 00:19:55.
