data_PCOD8110891
_publ_section_title
;
Structure prediction by ZEFSAII (Michael W. Deem and Ramdas Pophale) SiO2 
 PCOD8110891
Probable space group: C 2/M
;
_chemical_formula_sum "Si O2"
_cell_formula_units_Z 64
_cell_length_a 30.404530
_cell_length_b 8.925000
_cell_length_c 11.816527
_cell_angle_alpha 90.000000
_cell_angle_beta 92.577588
_cell_angle_gamma 90.000000
_cell_volume 3203.293597
_symmetry_space_group_name_H-M "C 2/M"
_symmetry_group_IT_number 12
_symmetry_cell_setting 'monoclinic'
loop_
_space_group_symop_operation_xyz
x,y,z
-x,y,-z
-x,-y,-z
x,-y,z
1/2+x,1/2+y,z
1/2-x,1/2+y,-z
1/2-x,1/2-y,-z
1/2+x,1/2-y,z
loop_
_atom_site_type_symbol
_atom_site_label
_atom_site_fract_x
_atom_site_fract_y
_atom_site_fract_z
Si Si1 0.211944 0.828603 0.693020
Si Si2 0.710282 0.176519 0.928016
Si Si3 0.041782 0.821523 0.578210
Si Si4 0.560529 0.324773 0.062305
Si Si5 0.690318 0.172267 0.318128
Si Si6 0.524610 0.678022 0.826387
Si Si7 0.657787 0.324295 0.098333
Si Si8 0.637430 0.324097 0.506053
O O1 0.210173 0.716659 0.797073
O O2 0.259008 0.809711 0.633768
O O3 0.171667 0.782843 0.608475
O O4 0.206777 0.000000 0.734375
O O5 0.712521 0.000000 0.943129
O O6 0.750000 0.250000 0.000000
O O7 0.666471 0.244118 0.979644
O O8 0.038090 0.754977 0.705551
O O9 0.088355 0.766055 0.531094
O O10 0.000000 0.762965 0.500000
O O11 0.041699 0.000000 0.579831
O O12 0.551924 0.500000 0.050970
O O13 0.523918 0.261143 0.144189
O O14 0.607315 0.288243 0.122453
O O15 0.556572 0.264846 0.931819
O O16 0.688681 0.255580 0.197850
O O17 0.654407 0.243103 0.396230
O O18 0.677799 0.000000 0.299477
O O19 0.525469 0.500000 0.813535
O O20 0.667440 0.500000 0.088882
O O21 0.637206 0.500000 0.481098
#
# Coordination Sequence:
#
# PCOD8110891 Si02
#       8
#     8   8   8   8   8   8   8   8
#     4  10  22  40  61  85 116 152 194 244 293 345
#     4  12  24  39  59  85 118 156 192 232 285 345
#     4   9  18  30  50  81 117 148 181 239 298 341
#     4   8  16  28  49  80 112 146 183 232 286 339
#     4  11  23  39  58  81 116 157 196 241 293 347
#     4   8  14  28  47  76 115 147 182 230 289 340
#     4  11  22  35  58  88 117 151 193 240 289 345
#     4  10  22  38  60  88 114 150 199 246 293 345
#
# _framework density 19.979434999999999
#
# number of rings (size 3 to 8) (size 9 to 14) (size 15 to 20)
#    0.000    2.125    1.250    3.000    3.500    1.000 
#    0.000    0.000    0.000    0.375    0.000    7.000 
#    0.000    0.000    0.000    0.000    0.000    0.000 
#
# Total GULP energy -396655.823723 kJ/mol
# GULP energy per Si atom -12395.494491 kJ/mol
# Density = 1.993396 g / cm^3
# Si number density = 19.979435 Si / 1000 Ang^3
#
#
#
# Elastic Constant Matrix: (Units=GPa)
#
#
# Indices 1 2 3 4 5 6 
#
# 1 128.8772 27.3567 47.1685 0.0000 -6.1829 0.0000
# 2 27.3567 67.7433 31.2670 0.0000 -5.5453 0.0000
# 3 47.1685 31.2670 107.4013 0.0000 -17.3833 0.0000
# 4 0.0000 0.0000 0.0000 25.3158 0.0000 -4.7790
# 5 -6.1829 -5.5453 -17.3833 0.0000 34.2689 0.0000
# 6 0.0000 0.0000 0.0000 -4.7790 0.0000 17.4584
#
#
#
# Elastic Compliance Matrix: (Units=1/GPa)
#
#
# Indices 1 2 3 4 5 6 
#
# 1 0.009531 -0.002218 -0.003617 0.000000 -0.000474 0.000000
# 2 -0.002218 0.017572 -0.004081 0.000000 0.000373 0.000000
# 3 -0.003617 -0.004081 0.012937 0.000000 0.005250 0.000000
# 4 0.000000 0.000000 0.000000 0.041654 0.000000 0.011402
# 5 -0.000474 0.000373 0.005250 0.000000 0.031819 0.000000
# 6 0.000000 0.000000 0.000000 0.011402 0.000000 0.060400
#
#
# Mechanical properties :
#
#
# Convention : Reuss Voigt Hill
#
# Bulk Modulus (GPa) = 49.48626 57.28958 53.38792
# Shear Modulus (GPa) = 24.94015 28.62393 26.78204
#
# Velocity S-wave (km/s) = 3.53695 3.78917 3.66523
# Velocity P-wave (km/s) = 6.44223 6.91956 6.68516
#
# Compressibility (1/GPa) = 0.02020763
#
# Stress axis : x y z
#
# Youngs Moduli (GPa) = 104.91823 56.91032 77.29785
#
# Poissons Ratio (x) = 0.12625 0.27957
# Poissons Ratio (y) = 0.23276 0.31544
# Poissons Ratio (z) = 0.37947 0.23224
#
# Static dielectric constant tensor:
#      x y z
#    x 3.764550 0.000000 -0.020930 
#    y 0.000000 3.232040 0.000000 
#    z -0.020930 0.000000 3.678590 
# 
# 
# High freq. dielectric constant tensor:
#      x y z
#    x 1.792550 0.000000 -0.005600 
#    y 0.000000 1.732710 0.000000 
#    z -0.005600 0.000000 1.783350 
# 
# From -- ./inp_files/187412.got.cif
#   From: 2010.06.25/outbox.cif.g09.slc.cpg/sg12_94_cif.got.tgz:187412.got - 2010.06.28 00:19:55.
