data_PCOD8110470
_publ_section_title
;
Structure prediction by ZEFSAII (Michael W. Deem and Ramdas Pophale) SiO2 
 PCOD8110470
Probable space group: C 2/M
;
_chemical_formula_sum "Si O2"
_cell_formula_units_Z 48
_cell_length_a 17.206780
_cell_length_b 15.514988
_cell_length_c 8.820250
_cell_angle_alpha 90.000000
_cell_angle_beta 84.890911
_cell_angle_gamma 90.000000
_cell_volume 2345.325011
_symmetry_space_group_name_H-M "C 2/M"
_symmetry_group_IT_number 12
_symmetry_cell_setting 'monoclinic'
loop_
_space_group_symop_operation_xyz
x,y,z
-x,y,-z
-x,-y,-z
x,-y,z
1/2+x,1/2+y,z
1/2-x,1/2+y,-z
1/2-x,1/2-y,-z
1/2+x,1/2-y,z
loop_
_atom_site_type_symbol
_atom_site_label
_atom_site_fract_x
_atom_site_fract_y
_atom_site_fract_z
Si Si1 0.335692 0.332683 0.249967
Si Si2 0.903422 0.000000 0.383401
Si Si3 0.916012 0.000000 0.719044
Si Si4 0.170074 0.598447 0.313450
Si Si5 0.465093 0.154774 0.848624
Si Si6 0.923505 0.844846 0.933452
Si Si7 0.572631 0.807792 0.580408
O O1 0.371196 0.419741 0.301402
O O2 0.242253 0.336954 0.276338
O O3 0.368541 0.258923 0.353104
O O4 0.358575 0.319864 0.069701
O O5 0.872523 0.000000 0.563604
O O6 0.995160 0.000000 0.345836
O O7 0.891576 0.914805 0.818561
O O8 0.198399 0.500000 0.329644
O O9 0.114304 0.604246 0.175591
O O10 0.122337 0.628801 0.467665
O O11 0.449170 0.257725 0.844011
O O12 0.532450 0.133449 0.715678
O O13 0.500000 0.122501 0.000000
O O14 0.000000 0.885788 0.000000
O O15 0.500000 0.763167 0.500000
#
# Coordination Sequence:
#
# PCOD8110470 Si02
#       7
#     8   4   4   8   8   8   8
#     4  12  22  41  64  92 131 167 202 259 321 376
#     4  11  23  32  59  90 135 163 210 249 302 381
#     4  11  22  33  56  99 124 174 208 248 299 377
#     4  11  26  43  63  92 130 167 207 264 323 372
#     4  10  21  43  67  94 116 161 222 265 309 369
#     4  11  20  37  63  91 129 165 210 254 314 373
#     4  10  22  40  69  92 122 165 216 258 309 366
#
# _framework density 20.466246999999999
#
# number of rings (size 3 to 8) (size 9 to 14) (size 15 to 20)
#    0.000    1.167    5.833    1.250    7.000    4.000 
#    0.000    0.000    0.000    0.000    0.000    0.000 
#    0.000    0.000    0.000    0.000    0.000    0.000 
#
# Total GULP energy -297553.360918 kJ/mol
# GULP energy per Si atom -12398.056705 kJ/mol
# Density = 2.041967 g / cm^3
# Si number density = 20.466247 Si / 1000 Ang^3
#
#
#
# Elastic Constant Matrix: (Units=GPa)
#
#
# Indices 1 2 3 4 5 6 
#
# 1 122.5320 11.9153 41.1298 0.0000 -8.7007 0.0000
# 2 11.9153 47.7141 12.8155 0.0000 1.2680 0.0000
# 3 41.1298 12.8155 121.4280 0.0000 -11.3891 0.0000
# 4 0.0000 0.0000 0.0000 28.0532 0.0000 0.4240
# 5 -8.7007 1.2680 -11.3891 0.0000 27.4689 0.0000
# 6 0.0000 0.0000 0.0000 0.4240 0.0000 36.8183
#
#
#
# Elastic Compliance Matrix: (Units=1/GPa)
#
#
# Indices 1 2 3 4 5 6 
#
# 1 0.009406 -0.001637 -0.002837 0.000000 0.001879 0.000000
# 2 -0.001637 0.021962 -0.001984 0.000000 -0.002355 0.000000
# 3 -0.002837 -0.001984 0.009708 0.000000 0.003218 0.000000
# 4 0.000000 0.000000 0.000000 0.035653 0.000000 -0.000411
# 5 0.001879 -0.002355 0.003218 0.000000 0.038443 0.000000
# 6 0.000000 0.000000 0.000000 -0.000411 0.000000 0.027165
#
#
# Mechanical properties :
#
#
# Convention : Reuss Voigt Hill
#
# Bulk Modulus (GPa) = 35.51193 47.04391 41.27792
# Shear Modulus (GPa) = 30.36938 33.52233 31.94585
#
# Velocity S-wave (km/s) = 3.85629 4.05153 3.95511
# Velocity P-wave (km/s) = 6.10058 6.70243 6.40857
#
# Compressibility (1/GPa) = 0.02815955
#
# Stress axis : x y z
#
# Youngs Moduli (GPa) = 106.31525 45.53223 103.01282
#
# Poissons Ratio (x) = 0.07453 0.29225
# Poissons Ratio (y) = 0.17402 0.20442
# Poissons Ratio (z) = 0.30162 0.09035
#
# Static dielectric constant tensor:
#      x y z
#    x 3.813140 0.000000 0.011760 
#    y 0.000000 3.341170 0.000000 
#    z 0.011760 0.000000 4.032580 
# 
# 
# High freq. dielectric constant tensor:
#      x y z
#    x 1.790340 0.000000 -0.005050 
#    y 0.000000 1.781230 0.000000 
#    z -0.005050 0.000000 1.816410 
# 
# From -- ./inp_files/73661.got.cif
#   From: 2010.06.25/outbox.cif.g09.slc.cpg/sg12_37_cif.got.tgz:73661.got - 2010.06.28 00:19:55.
