data_PCOD8110130
_publ_section_title
;
Structure prediction by ZEFSAII (Michael W. Deem and Ramdas Pophale) SiO2 
 PCOD8110130
Probable space group: C 2/M
;
_chemical_formula_sum "Si O2"
_cell_formula_units_Z 64
_cell_length_a 13.574896
_cell_length_b 28.004354
_cell_length_c 15.423452
_cell_angle_alpha 90.000000
_cell_angle_beta 36.816046
_cell_angle_gamma 90.000000
_cell_volume 3513.582230
_symmetry_space_group_name_H-M "C 2/M"
_symmetry_group_IT_number 12
_symmetry_cell_setting 'monoclinic'
loop_
_space_group_symop_operation_xyz
x,y,z
-x,y,-z
-x,-y,-z
x,-y,z
1/2+x,1/2+y,z
1/2-x,1/2+y,-z
1/2-x,1/2-y,-z
1/2+x,1/2-y,z
loop_
_atom_site_type_symbol
_atom_site_label
_atom_site_fract_x
_atom_site_fract_y
_atom_site_fract_z
Si Si1 0.159032 0.202575 0.650387
Si Si2 0.251342 0.053801 0.727231
Si Si3 0.592024 0.053850 0.569304
Si Si4 0.688322 0.823406 0.081548
Si Si5 0.199045 0.225120 0.161134
Si Si6 0.311030 0.290344 0.636378
Si Si7 0.519773 0.360226 0.892245
Si Si8 0.838754 0.644263 0.381865
O O1 0.213756 0.255074 0.640634
O O2 0.143587 0.170816 0.747377
O O3 0.295927 0.178236 0.493552
O O4 0.987788 0.207188 0.720284
O O5 0.404673 0.069775 0.679805
O O6 0.301938 0.056462 0.591921
O O7 0.093915 0.087070 0.853241
O O8 0.199369 0.000000 0.787855
O O9 0.677418 0.088979 0.578916
O O10 0.595235 0.000000 0.604572
O O11 0.717756 0.781307 0.130530
O O12 0.524018 0.850271 0.220150
O O13 0.678453 0.801760 0.991449
O O14 0.838138 0.861387 0.978161
O O15 0.255467 0.212742 0.218835
O O16 0.500000 0.276039 0.500000
O O17 0.279204 0.342900 0.616970
O O18 0.500000 0.335739 0.000000
#
# Coordination Sequence:
#
# PCOD8110130 Si02
#       8
#     8   8   8   8   8   8   8   8
#     4  11  22  38  56  79 117 151 196 237 277 334
#     4   9  18  35  57  85 116 150 189 235 290 351
#     4   9  19  36  60  84 112 146 188 242 298 345
#     4  10  22  36  56  77 120 156 190 228 282 339
#     4  10  21  41  52  78 117 159 192 234 276 338
#     4  12  23  34  58  84 110 149 197 238 281 328
#     4  11  21  34  52  84 114 159 190 225 277 342
#     4  12  21  38  57  84 108 148 195 239 285 336
#
# _framework density 18.215029999999999
#
# number of rings (size 3 to 8) (size 9 to 14) (size 15 to 20)
#    0.000    1.500    3.750    3.375    0.000    1.750 
#    0.000    0.625    0.000    0.375    0.000    2.625 
#    0.000    0.000    0.000    0.000    0.000    0.000 
#
# Total GULP energy -396754.517523 kJ/mol
# GULP energy per Si atom -12398.578673 kJ/mol
# Density = 1.817357 g / cm^3
# Si number density = 18.215030 Si / 1000 Ang^3
#
#
#
# Elastic Constant Matrix: (Units=GPa)
#
#
# Indices 1 2 3 4 5 6 
#
# 1 68.9956 38.2832 26.4655 -0.0003 15.1675 0.0003
# 2 38.2832 84.4030 24.0223 -0.0002 8.0398 0.0002
# 3 26.4655 24.0223 83.9904 0.0000 4.8465 0.0001
# 4 -0.0003 -0.0002 0.0000 23.2701 0.0002 -4.2443
# 5 15.1675 8.0398 4.8465 0.0002 32.2295 -0.0003
# 6 0.0003 0.0002 0.0001 -4.2443 -0.0003 30.8642
#
#
#
# Elastic Compliance Matrix: (Units=1/GPa)
#
#
# Indices 1 2 3 4 5 6 
#
# 1 0.022406 -0.008202 -0.004261 0.000000 -0.007858 0.000000
# 2 -0.008202 0.016135 -0.002039 0.000000 0.000141 0.000000
# 3 -0.004261 -0.002039 0.013807 0.000000 0.000438 0.000000
# 4 0.000000 0.000000 0.000000 0.044079 0.000000 0.006062
# 5 -0.007858 0.000141 0.000438 0.000000 0.034624 0.000000
# 6 0.000000 0.000000 0.000000 0.006062 0.000000 0.033234
#
#
# Mechanical properties :
#
#
# Convention : Reuss Voigt Hill
#
# Bulk Modulus (GPa) = 42.83555 46.10344 44.46950
# Shear Modulus (GPa) = 24.86702 27.18061 26.02382
#
# Velocity S-wave (km/s) = 3.69886 3.86710 3.78392
# Velocity P-wave (km/s) = 6.46604 6.73089 6.59980
#
# Compressibility (1/GPa) = 0.02334509
#
# Stress axis : x y z
#
# Youngs Moduli (GPa) = 44.63000 61.97798 72.42921
#
# Poissons Ratio (x) = 0.50833 0.30863
# Poissons Ratio (y) = 0.36604 0.14765
# Poissons Ratio (z) = 0.19017 0.12634
#
# Static dielectric constant tensor:
#      x y z
#    x 3.258070 0.000000 0.075630 
#    y 0.000000 3.276120 0.000000 
#    z 0.075630 0.000000 3.540780 
# 
# 
# High freq. dielectric constant tensor:
#      x y z
#    x 1.684850 0.000000 0.000200 
#    y 0.000000 1.682090 0.000000 
#    z 0.000200 0.000000 1.724640 
# 
# From -- ./inp_files/218936.got.cif
#   From: 2010.06.25/outbox.cif.g09.slc.cpg/sg12_110_cif.got.tgz:218936.got - 2010.06.28 00:19:55.
