data_PCOD8110732
_publ_section_title
;
Structure prediction by ZEFSAII (Michael W. Deem and Ramdas Pophale) SiO2 
 PCOD8110732
Probable space group: C 2/M
;
_chemical_formula_sum "Si O2"
_cell_formula_units_Z 56
_cell_length_a 22.435411
_cell_length_b 19.766984
_cell_length_c 19.173221
_cell_angle_alpha 90.000000
_cell_angle_beta 19.171795
_cell_angle_gamma 90.000000
_cell_volume 2792.382709
_symmetry_space_group_name_H-M "C 2/M"
_symmetry_group_IT_number 12
_symmetry_cell_setting 'monoclinic'
loop_
_space_group_symop_operation_xyz
x,y,z
-x,y,-z
-x,-y,-z
x,-y,z
1/2+x,1/2+y,z
1/2-x,1/2+y,-z
1/2-x,1/2-y,-z
1/2+x,1/2-y,z
loop_
_atom_site_type_symbol
_atom_site_label
_atom_site_fract_x
_atom_site_fract_y
_atom_site_fract_z
Si Si1 0.506856 0.279361 0.572697
Si Si2 0.091949 0.135629 0.191275
Si Si3 0.718645 0.078088 0.592549
Si Si4 0.371468 0.921163 0.704313
Si Si5 0.843063 0.197050 0.021057
Si Si6 0.601998 0.798894 0.817531
Si Si7 0.973699 0.577474 0.742577
O O1 0.500000 0.303327 0.500000
O O2 0.442055 0.339831 0.693142
O O3 0.367947 0.218808 0.740095
O O4 0.711747 0.259628 0.368879
O O5 0.935770 0.081776 0.345667
O O6 0.091064 0.194196 0.132269
O O7 0.287108 0.103805 0.979592
O O8 0.640310 0.130754 0.735819
O O9 0.640759 0.105041 0.604135
O O10 0.666234 0.000000 0.669117
O O11 0.500000 0.895953 0.500000
O O12 0.180286 0.878956 0.920130
O O13 0.491864 0.907630 0.640622
O O14 0.317707 0.000000 0.755578
O O15 0.979421 0.245996 0.910262
O O16 0.500000 0.820633 0.000000
O O17 0.969527 0.500000 0.762876
#
# Coordination Sequence:
#
# PCOD8110732 Si02
#       7
#     8   8   8   8   8   8   8
#     4  11  22  38  59  86 121 157 196 254 307 356
#     4  10  22  37  61  88 119 156 207 252 305 368
#     4  10  22  40  62  90 124 164 207 257 306 361
#     4   9  19  36  60  89 122 161 203 249 305 368
#     4  11  22  39  62  91 120 163 202 257 307 361
#     4  11  24  40  62  91 125 160 210 256 307 369
#     4   9  18  35  60  86 117 158 203 250 301 360
#
# _framework density 20.054556999999999
#
# number of rings (size 3 to 8) (size 9 to 14) (size 15 to 20)
#    0.000    1.857    1.429    2.143    0.000    6.571 
#    0.000    0.000    0.000    3.429    0.000    0.000 
#    0.000    0.000    0.000    0.000    0.000    0.000 
#
# Total GULP energy -346934.389039 kJ/mol
# GULP energy per Si atom -12390.513894 kJ/mol
# Density = 2.000891 g / cm^3
# Si number density = 20.054557 Si / 1000 Ang^3
#
#
#
# Elastic Constant Matrix: (Units=GPa)
#
#
# Indices 1 2 3 4 5 6 
#
# 1 127.2163 51.6144 56.2957 0.0312 9.1000 -0.0292
# 2 51.6144 86.9687 34.4744 0.0769 -2.8874 -0.1034
# 3 56.2957 34.4744 96.7863 0.1154 1.4398 -0.1159
# 4 0.0312 0.0769 0.1154 27.5256 -0.0566 0.4914
# 5 9.1000 -2.8874 1.4398 -0.0566 40.0198 0.0567
# 6 -0.0292 -0.1034 -0.1159 0.4914 0.0567 18.6397
#
#
#
# Elastic Compliance Matrix: (Units=1/GPa)
#
#
# Indices 1 2 3 4 5 6 
#
# 1 0.012695 -0.005505 -0.005377 0.000018 -0.003090 -0.000035
# 2 -0.005505 0.015828 -0.002473 -0.000024 0.002483 0.000057
# 3 -0.005377 -0.002473 0.014333 -0.000047 0.000528 0.000067
# 4 0.000018 -0.000024 -0.000047 0.036347 0.000049 -0.000959
# 5 -0.003090 0.002483 0.000528 0.000049 0.025851 -0.000068
# 6 -0.000035 0.000057 0.000067 -0.000959 -0.000068 0.053675
#
#
# Mechanical properties :
#
#
# Convention : Reuss Voigt Hill
#
# Bulk Modulus (GPa) = 61.93563 66.19336 64.06449
# Shear Modulus (GPa) = 26.20264 28.47614 27.33939
#
# Velocity S-wave (km/s) = 3.61857 3.77229 3.69623
# Velocity P-wave (km/s) = 6.95768 7.21470 7.08735
#
# Compressibility (1/GPa) = 0.01614580
#
# Stress axis : x y z
#
# Youngs Moduli (GPa) = 78.77279 63.17787 69.77107
#
# Poissons Ratio (x) = 0.34781 0.37516
# Poissons Ratio (y) = 0.43367 0.17251
# Poissons Ratio (z) = 0.42356 0.15621
#
# Static dielectric constant tensor:
#      x y z
#    x 3.851610 -0.000060 -0.019470 
#    y -0.000060 3.600670 0.000100 
#    z -0.019470 0.000100 3.830310 
# 
# 
# High freq. dielectric constant tensor:
#      x y z
#    x 1.790500 0.000000 0.004280 
#    y 0.000000 1.777100 0.000010 
#    z 0.004280 0.000010 1.786510 
# 
# From -- ./inp_files/285986.got.cif
#   From: 2010.06.25/outbox.cif.g09.slc.cpg/sg12_143_cif.got.tgz:285986.got - 2010.06.28 00:19:55.
