data_PCOD8110113
_publ_section_title
;
Structure prediction by ZEFSAII (Michael W. Deem and Ramdas Pophale) SiO2 
 PCOD8110113
Probable space group: C 2/M
;
_chemical_formula_sum "Si O2"
_cell_formula_units_Z 44
_cell_length_a 16.836377
_cell_length_b 19.066010
_cell_length_c 6.782466
_cell_angle_alpha 90.000000
_cell_angle_beta 110.744180
_cell_angle_gamma 90.000000
_cell_volume 2036.044211
_symmetry_space_group_name_H-M "C 2/M"
_symmetry_group_IT_number 12
_symmetry_cell_setting 'monoclinic'
loop_
_space_group_symop_operation_xyz
x,y,z
-x,y,-z
-x,-y,-z
x,-y,z
1/2+x,1/2+y,z
1/2-x,1/2+y,-z
1/2-x,1/2-y,-z
1/2+x,1/2-y,z
loop_
_atom_site_type_symbol
_atom_site_label
_atom_site_fract_x
_atom_site_fract_y
_atom_site_fract_z
Si Si1 0.104341 0.919197 0.747335
Si Si2 0.789145 0.422041 0.049326
Si Si3 0.636242 0.321141 0.420447
Si Si4 0.081928 0.578581 0.181424
Si Si5 0.822151 0.666474 0.436098
Si Si6 0.000000 0.143552 0.000000
O O1 0.091243 0.872741 0.538643
O O2 0.036707 0.904739 0.858953
O O3 0.097601 0.000000 0.674782
O O4 0.193877 0.899996 0.920335
O O5 0.793104 0.500000 0.150452
O O6 0.829696 0.363050 0.222813
O O7 0.837442 0.422012 0.887555
O O8 0.727607 0.351118 0.432584
O O9 0.654795 0.247968 0.544899
O O10 0.574304 0.310943 0.174532
O O11 0.060989 0.500000 0.238984
O O12 0.103730 0.627568 0.382009
O O13 0.000000 0.610253 0.000000
#
# Coordination Sequence:
#
# PCOD8110113 Si02
#       6
#     8   8   8   8   8   4
#     4  11  24  44  69  98 131 172 222 277 330 387
#     4  10  21  40  69  96 126 171 217 268 330 388
#     4  11  26  42  66  96 132 173 218 263 329 391
#     4  10  22  41  66  96 128 167 221 275 321 384
#     4  11  23  43  66  95 130 178 211 265 326 398
#     4  12  25  46  64 100 131 172 224 278 321 392
#
# _framework density 21.610531999999999
#
# number of rings (size 3 to 8) (size 9 to 14) (size 15 to 20)
#    0.000    1.273    3.636    1.364    1.273    5.818 
#    3.273    2.727    0.000    0.000    0.000    0.000 
#    0.000    0.000    0.000    0.000    0.000    0.000 
#
# Total GULP energy -272805.376404 kJ/mol
# GULP energy per Si atom -12400.244382 kJ/mol
# Density = 2.156135 g / cm^3
# Si number density = 21.610532 Si / 1000 Ang^3
#
#
#
# Elastic Constant Matrix: (Units=GPa)
#
#
# Indices 1 2 3 4 5 6 
#
# 1 71.0194 10.0834 17.6695 0.0000 10.4883 0.0000
# 2 10.0834 78.4881 50.8058 0.0000 0.7536 0.0000
# 3 17.6695 50.8058 114.6549 0.0000 17.5414 0.0000
# 4 0.0000 0.0000 0.0000 -333.6153 0.0000 157.2440
# 5 10.4883 0.7536 17.5414 0.0000 41.6010 0.0000
# 6 0.0000 0.0000 0.0000 157.2440 0.0000 -43.4793
#
#
#
# Elastic Compliance Matrix: (Units=1/GPa)
#
#
# Indices 1 2 3 4 5 6 
#
# 1 0.015039 -0.001006 -0.001384 0.000000 -0.003190 0.000000
# 2 -0.001006 0.018346 -0.008511 0.000000 0.003510 0.000000
# 3 -0.001384 -0.008511 0.013501 0.000000 -0.005190 0.000000
# 4 0.000000 0.000000 0.000000 0.004254 0.000000 0.015385
# 5 -0.003190 0.003510 -0.005190 0.000000 0.026967 0.000000
# 6 0.000000 0.000000 0.000000 0.015385 0.000000 0.032642
#
#
# Mechanical properties :
#
#
# Convention : Reuss Voigt Hill
#
# Bulk Modulus (GPa) = 39.86723 46.80887 43.33805
# Shear Modulus (GPa) = 35.48327 -54.72512 -9.62093
#
# Velocity S-wave (km/s) = 4.05649 -5.03769 -2.11226
# Velocity P-wave (km/s) = 6.35832 3.48289 3.76149
#
# Compressibility (1/GPa) = 0.02508326
#
# Stress axis : x y z
#
# Youngs Moduli (GPa) = 66.49450 54.50854 74.07048
#
# Poissons Ratio (x) = 0.05481 0.10252
# Poissons Ratio (y) = 0.06686 0.63044
# Poissons Ratio (z) = 0.09203 0.46394
#
# Static dielectric constant tensor:
#      x y z
#    x 4.025280 0.000000 0.204500 
#    y 0.000000 3.792880 0.000000 
#    z 0.204500 0.000000 3.876160 
# 
# 
# High freq. dielectric constant tensor:
#      x y z
#    x 1.857580 0.000000 0.015400 
#    y 0.000000 1.837010 0.000000 
#    z 0.015400 0.000000 1.853930 
# 
# From -- ./inp_files/16217.got.cif
#   From: 2010.06.25/outbox.cif.g09.slc.cpg/sg12_9_cif.got.tgz:16217.got - 2010.06.28 00:19:55.
