data_PCOD8110022
_publ_section_title
;
Structure prediction by ZEFSAII (Michael W. Deem and Ramdas Pophale) SiO2 
 PCOD8110022
Probable space group: C 2/M
;
_chemical_formula_sum "Si O2"
_cell_formula_units_Z 52
_cell_length_a 11.552095
_cell_length_b 14.673602
_cell_length_c 16.284215
_cell_angle_alpha 90.000000
_cell_angle_beta 67.548036
_cell_angle_gamma 90.000000
_cell_volume 2551.116547
_symmetry_space_group_name_H-M "C 2/M"
_symmetry_group_IT_number 12
_symmetry_cell_setting 'monoclinic'
loop_
_space_group_symop_operation_xyz
x,y,z
-x,y,-z
-x,-y,-z
x,-y,z
1/2+x,1/2+y,z
1/2-x,1/2+y,-z
1/2-x,1/2-y,-z
1/2+x,1/2-y,z
loop_
_atom_site_type_symbol
_atom_site_label
_atom_site_fract_x
_atom_site_fract_y
_atom_site_fract_z
Si Si1 0.134394 0.257915 0.930617
Si Si2 0.323157 0.393096 0.950932
Si Si3 0.000000 0.161244 0.500000
Si Si4 0.496936 0.788214 0.345088
Si Si5 0.053001 0.176254 0.793357
Si Si6 0.216418 0.603675 0.358341
Si Si7 0.769468 0.603444 0.461701
O O1 0.222331 0.345442 0.919277
O O2 0.130620 0.239775 0.834703
O O3 0.178899 0.164468 0.963785
O O4 0.000000 0.288270 0.000000
O O5 0.292679 0.500000 0.975752
O O6 0.457556 0.386503 0.870288
O O7 0.000105 0.217871 0.417559
O O8 0.872487 0.102513 0.533820
O O9 0.519741 0.740535 0.251335
O O10 0.611788 0.855891 0.327383
O O11 0.362659 0.839272 0.378507
O O12 0.147194 0.112180 0.718365
O O13 0.181487 0.500000 0.379263
O O14 0.219807 0.647430 0.449117
O O15 0.817041 0.500000 0.449435
#
# Coordination Sequence:
#
# PCOD8110022 Si02
#       7
#     8   8   4   8   8   8   8
#     4   9  21  41  63  90 125 156 196 241 299 369
#     4  10  21  40  66  93 121 157 196 243 300 363
#     4  12  21  38  57  80 108 154 200 248 303 358
#     4  12  22  38  60  82 115 159 208 250 299 357
#     4  11  22  38  58  89 122 157 196 247 303 360
#     4  11  22  37  57  84 116 154 205 256 301 353
#     4  11  23  39  57  82 114 155 206 259 306 352
#
# _framework density 20.383233000000001
#
# number of rings (size 3 to 8) (size 9 to 14) (size 15 to 20)
#    0.000    1.231    3.077    3.462    0.000    4.923 
#    0.000    3.077    0.000    0.923    0.000    0.000 
#    0.000    0.000    0.000    0.000    0.000    0.000 
#
# Total GULP energy -322408.551367 kJ/mol
# GULP energy per Si atom -12400.328899 kJ/mol
# Density = 2.033684 g / cm^3
# Si number density = 20.383233 Si / 1000 Ang^3
#
#
#
# Elastic Constant Matrix: (Units=GPa)
#
#
# Indices 1 2 3 4 5 6 
#
# 1 100.5134 40.4177 4.5981 0.0000 12.2976 0.0000
# 2 40.4177 94.1397 26.3922 0.0000 6.6252 0.0000
# 3 4.5981 26.3922 66.2581 0.0000 19.5904 0.0000
# 4 0.0000 0.0000 0.0000 18.6644 0.0000 -3.6689
# 5 12.2976 6.6252 19.5904 0.0000 37.2357 0.0000
# 6 0.0000 0.0000 0.0000 -3.6689 0.0000 35.1476
#
#
#
# Elastic Compliance Matrix: (Units=1/GPa)
#
#
# Indices 1 2 3 4 5 6 
#
# 1 0.012788 -0.005967 0.002871 0.000000 -0.004672 0.000000
# 2 -0.005967 0.014748 -0.006237 0.000000 0.002628 0.000000
# 3 0.002871 -0.006237 0.020522 0.000000 -0.010635 0.000000
# 4 0.000000 0.000000 0.000000 0.054700 0.000000 0.005710
# 5 -0.004672 0.002628 -0.010635 0.000000 0.033527 0.000000
# 6 0.000000 0.000000 0.000000 0.005710 0.000000 0.029047
#
#
# Mechanical properties :
#
#
# Convention : Reuss Voigt Hill
#
# Bulk Modulus (GPa) = 34.02296 44.85857 39.44077
# Shear Modulus (GPa) = 25.80012 30.84308 28.32160
#
# Velocity S-wave (km/s) = 3.56160 3.89415 3.73158
# Velocity P-wave (km/s) = 5.80010 6.50189 6.16100
#
# Compressibility (1/GPa) = 0.02939191
#
# Stress axis : x y z
#
# Youngs Moduli (GPa) = 78.19556 67.80633 48.72731
#
# Poissons Ratio (x) = 0.40457 -0.13987
# Poissons Ratio (y) = 0.46656 0.30393
# Poissons Ratio (z) = -0.22446 0.42294
#
# Static dielectric constant tensor:
#      x y z
#    x 3.836350 0.000000 0.086880 
#    y 0.000000 3.499480 0.000000 
#    z 0.086880 0.000000 3.638220 
# 
# 
# High freq. dielectric constant tensor:
#      x y z
#    x 1.811810 0.000000 0.000980 
#    y 0.000000 1.785050 0.000000 
#    z 0.000980 0.000000 1.790040 
# 
# From -- ./inp_files/204948.got.cif
#   From: 2010.06.25/outbox.cif.g09.slc.cpg/sg12_103_cif.got.tgz:204948.got - 2010.06.28 00:19:55.
