data_PCOD8110019
_publ_section_title
;
Structure prediction by ZEFSAII (Michael W. Deem and Ramdas Pophale) SiO2 
 PCOD8110019
Probable space group: C 2/M
;
_chemical_formula_sum "Si O2"
_cell_formula_units_Z 64
_cell_length_a 14.878270
_cell_length_b 14.718983
_cell_length_c 16.699857
_cell_angle_alpha 90.000000
_cell_angle_beta 126.301045
_cell_angle_gamma 90.000000
_cell_volume 2947.362610
_symmetry_space_group_name_H-M "C 2/M"
_symmetry_group_IT_number 12
_symmetry_cell_setting 'monoclinic'
loop_
_space_group_symop_operation_xyz
x,y,z
-x,y,-z
-x,-y,-z
x,-y,z
1/2+x,1/2+y,z
1/2-x,1/2+y,-z
1/2-x,1/2-y,-z
1/2+x,1/2-y,z
loop_
_atom_site_type_symbol
_atom_site_label
_atom_site_fract_x
_atom_site_fract_y
_atom_site_fract_z
Si Si1 0.834317 0.101124 0.237188
Si Si2 0.732078 0.901008 0.678651
Si Si3 0.595036 0.397447 0.990748
Si Si4 0.711294 0.199793 0.831336
Si Si5 0.762939 0.899767 0.380064
Si Si6 0.969261 0.872198 0.763176
Si Si7 0.103265 0.735921 0.502482
Si Si8 0.040024 0.319236 0.292591
O O1 0.783348 0.189456 0.164958
O O2 0.815580 0.116503 0.320908
O O3 0.966810 0.102698 0.286112
O O4 0.785668 0.000000 0.187258
O O5 0.747117 0.839025 0.764487
O O6 0.659937 0.850328 0.574145
O O7 0.854644 0.925979 0.709799
O O8 0.676761 0.000000 0.668084
O O9 0.626832 0.500000 0.033217
O O10 0.555314 0.396417 0.878813
O O11 0.500000 0.359477 0.000000
O O12 0.703421 0.334039 0.056157
O O13 0.590032 0.156978 0.788295
O O14 0.810550 0.820419 0.462872
O O15 0.627229 0.895213 0.308213
O O16 0.796102 0.000000 0.429044
O O17 0.933969 0.767410 0.748317
O O18 0.057633 0.702450 0.394629
O O19 0.000000 0.771692 0.500000
#
# Coordination Sequence:
#
# PCOD8110019 Si02
#       8
#     8   8   8   8   8   8   8   8
#     4  10  21  40  66  92 124 173 224 267 313 377
#     4  12  23  39  67  99 134 173 213 268 342 398
#     4  11  23  39  66 104 136 164 212 274 336 401
#     4  11  22  42  67  98 136 175 212 272 338 396
#     4  11  24  43  65  91 130 177 224 268 316 382
#     4  11  22  42  69  97 130 169 215 277 327 384
#     4  12  23  45  66  95 133 171 221 277 328 393
#     4  11  24  43  68  93 136 177 217 265 327 397
#
# _framework density 21.714327999999998
#
# number of rings (size 3 to 8) (size 9 to 14) (size 15 to 20)
#    0.000    0.875    5.000    2.625    0.000    4.000 
#    0.000    3.125    0.000    1.125    0.000    0.000 
#    0.000    0.000    0.000    0.000    0.000    0.000 
#
# Total GULP energy -396653.988660 kJ/mol
# GULP energy per Si atom -12395.437146 kJ/mol
# Density = 2.166491 g / cm^3
# Si number density = 21.714328 Si / 1000 Ang^3
#
#
#
# Elastic Constant Matrix: (Units=GPa)
#
#
# Indices 1 2 3 4 5 6 
#
# 1 108.6418 15.9333 16.0553 0.0000 10.7107 0.0000
# 2 15.9333 131.6824 24.6172 0.0000 15.4654 0.0000
# 3 16.0553 24.6172 76.5558 0.0000 23.2051 0.0000
# 4 0.0000 0.0000 0.0000 31.2426 0.0000 -15.1114
# 5 10.7107 15.4654 23.2051 0.0000 30.4752 0.0000
# 6 0.0000 0.0000 0.0000 -15.1114 0.0000 30.1799
#
#
#
# Elastic Compliance Matrix: (Units=1/GPa)
#
#
# Indices 1 2 3 4 5 6 
#
# 1 0.009692 -0.000703 -0.001147 0.000000 -0.002176 0.000000
# 2 -0.000703 0.008313 -0.001719 0.000000 -0.002663 0.000000
# 3 -0.001147 -0.001719 0.017510 0.000000 -0.012058 0.000000
# 4 0.000000 0.000000 0.000000 0.042237 0.000000 0.021148
# 5 -0.002176 -0.002663 -0.012058 0.000000 0.044111 0.000000
# 6 0.000000 0.000000 0.000000 0.021148 0.000000 0.043724
#
#
# Mechanical properties :
#
#
# Convention : Reuss Voigt Hill
#
# Bulk Modulus (GPa) = 35.23741 47.78795 41.51268
# Shear Modulus (GPa) = 27.44494 35.73117 31.58805
#
# Velocity S-wave (km/s) = 3.55901 4.06089 3.81820
# Velocity P-wave (km/s) = 5.75775 6.63650 6.21268
#
# Compressibility (1/GPa) = 0.02837893
#
# Stress axis : x y z
#
# Youngs Moduli (GPa) = 103.18147 120.29216 57.10876
#
# Poissons Ratio (x) = 0.08452 0.06550
# Poissons Ratio (y) = 0.07250 0.09814
# Poissons Ratio (z) = 0.11834 0.20673
#
# Static dielectric constant tensor:
#      x y z
#    x 4.135540 0.000000 0.133870 
#    y 0.000000 4.230770 0.000000 
#    z 0.133870 0.000000 3.655750 
# 
# 
# High freq. dielectric constant tensor:
#      x y z
#    x 1.866230 0.000000 0.002780 
#    y 0.000000 1.862430 0.000000 
#    z 0.002780 0.000000 1.822560 
# 
# From -- ./inp_files/270713.got.cif
#   From: 2010.06.25/outbox.cif.g09.slc.cpg/sg12_136_cif.got.tgz:270713.got - 2010.06.28 00:19:55.
