data_PCOD8110512
_publ_section_title
;
Structure prediction by ZEFSAII (Michael W. Deem and Ramdas Pophale) SiO2 
 PCOD8110512
Probable space group: C 2/M
;
_chemical_formula_sum "Si O2"
_cell_formula_units_Z 48
_cell_length_a 11.349358
_cell_length_b 27.776839
_cell_length_c 13.767531
_cell_angle_alpha 90.000000
_cell_angle_beta 29.344938
_cell_angle_gamma 90.000000
_cell_volume 2126.987807
_symmetry_space_group_name_H-M "C 2/M"
_symmetry_group_IT_number 12
_symmetry_cell_setting 'monoclinic'
loop_
_space_group_symop_operation_xyz
x,y,z
-x,y,-z
-x,-y,-z
x,-y,z
1/2+x,1/2+y,z
1/2-x,1/2+y,-z
1/2-x,1/2-y,-z
1/2+x,1/2-y,z
loop_
_atom_site_type_symbol
_atom_site_label
_atom_site_fract_x
_atom_site_fract_y
_atom_site_fract_z
Si Si1 0.686038 0.946217 0.627942
Si Si2 0.236749 0.639600 0.728597
Si Si3 0.531303 0.611615 0.254445
Si Si4 0.505453 0.223131 0.202943
Si Si5 0.658740 0.554540 0.975563
Si Si6 0.649697 0.192826 0.483791
O O1 0.665596 0.911833 0.735325
O O2 0.904161 0.932061 0.401695
O O3 0.730832 0.000000 0.635110
O O4 0.438162 0.943991 0.744432
O O5 0.500000 0.655359 0.500000
O O6 0.249414 0.632610 0.836872
O O7 0.042117 0.679933 0.838692
O O8 0.628078 0.592229 0.084114
O O9 0.342729 0.653827 0.375809
O O10 0.525090 0.202441 0.298598
O O11 0.280031 0.258551 0.357261
O O12 0.750000 0.250000 0.000000
O O13 0.582109 0.500000 0.060397
O O14 0.500000 0.572943 0.000000
O O15 0.500000 0.173093 0.500000
#
# Coordination Sequence:
#
# PCOD8110512 Si02
#       6
#     8   8   8   8   8   8
#     4  10  22  41  68 101 137 178 228 279 339 416
#     4  10  21  44  70  99 141 176 228 289 348 417
#     4  11  24  42  71  98 135 184 228 282 354 408
#     4  11  25  47  71  99 134 181 230 284 360 420
#     4  10  24  43  65 101 145 185 236 288 338 412
#     4  11  26  44  67  99 138 175 227 294 339 424
#
# _framework density 22.567124
#
# number of rings (size 3 to 8) (size 9 to 14) (size 15 to 20)
#    0.000    1.500    3.333    1.000    7.000    5.000 
#    0.000    4.167    0.000    0.000    0.000    0.000 
#    0.000    0.000    0.000    0.000    0.000    0.000 
#
# Total GULP energy -297668.080146 kJ/mol
# GULP energy per Si atom -12402.836673 kJ/mol
# Density = 2.251576 g / cm^3
# Si number density = 22.567124 Si / 1000 Ang^3
#
#
#
# Elastic Constant Matrix: (Units=GPa)
#
#
# Indices 1 2 3 4 5 6 
#
# 1 182.4700 64.3668 52.8855 0.0000 -3.8028 0.0000
# 2 64.3668 139.6239 43.4884 -0.0001 -1.5741 0.0000
# 3 52.8855 43.4884 74.2843 -0.0002 6.1803 -0.0002
# 4 0.0000 -0.0001 -0.0002 42.1715 -0.0001 -2.1952
# 5 -3.8028 -1.5741 6.1803 -0.0001 33.1630 0.0001
# 6 0.0000 0.0000 -0.0002 -2.1952 0.0001 33.9385
#
#
#
# Elastic Compliance Matrix: (Units=1/GPa)
#
#
# Indices 1 2 3 4 5 6 
#
# 1 0.007481 -0.002119 -0.004214 0.000000 0.001543 0.000000
# 2 -0.002119 0.009423 -0.004088 0.000000 0.000966 0.000000
# 3 -0.004214 -0.004088 0.019210 0.000000 -0.004257 0.000000
# 4 0.000000 0.000000 0.000000 0.023793 0.000000 0.001539
# 5 0.001543 0.000966 -0.004257 0.000000 0.031170 0.000000
# 6 0.000000 0.000000 0.000000 0.001539 0.000000 0.029565
#
#
# Mechanical properties :
#
#
# Convention : Reuss Voigt Hill
#
# Bulk Modulus (GPa) = 65.48272 79.76220 72.62246
# Shear Modulus (GPa) = 34.11216 37.56377 35.83796
#
# Velocity S-wave (km/s) = 3.89213 4.08430 3.98937
# Velocity P-wave (km/s) = 7.01984 7.59362 7.31236
#
# Compressibility (1/GPa) = 0.01527120
#
# Stress axis : x y z
#
# Youngs Moduli (GPa) = 133.66593 106.12019 52.05722
#
# Poissons Ratio (x) = 0.22487 0.21937
# Poissons Ratio (y) = 0.28323 0.21284
# Poissons Ratio (z) = 0.56327 0.43387
#
# Static dielectric constant tensor:
#      x y z
#    x 4.182840 0.000000 -0.088570 
#    y 0.000000 4.153320 0.000000 
#    z -0.088570 0.000000 4.060880 
# 
# 
# High freq. dielectric constant tensor:
#      x y z
#    x 1.893230 0.000000 -0.010340 
#    y 0.000000 1.900480 0.000000 
#    z -0.010340 0.000000 1.886730 
# 
# From -- ./inp_files/209265.got.cif
#   From: 2010.06.25/outbox.cif.g09.slc.cpg/sg12_105_cif.got.tgz:209265.got - 2010.06.28 00:19:55.
