data_PCOD8110741
_publ_section_title
;
Structure prediction by ZEFSAII (Michael W. Deem and Ramdas Pophale) SiO2 
 PCOD8110741
Probable space group: C 2/M
;
_chemical_formula_sum "Si O2"
_cell_formula_units_Z 56
_cell_length_a 13.763328
_cell_length_b 18.945957
_cell_length_c 14.078339
_cell_angle_alpha 90.000000
_cell_angle_beta 135.704729
_cell_angle_gamma 90.000000
_cell_volume 2563.707220
_symmetry_space_group_name_H-M "C 2/M"
_symmetry_group_IT_number 12
_symmetry_cell_setting 'monoclinic'
loop_
_space_group_symop_operation_xyz
x,y,z
-x,y,-z
-x,-y,-z
x,-y,z
1/2+x,1/2+y,z
1/2-x,1/2+y,-z
1/2-x,1/2-y,-z
1/2+x,1/2-y,z
loop_
_atom_site_type_symbol
_atom_site_label
_atom_site_fract_x
_atom_site_fract_y
_atom_site_fract_z
Si Si1 0.092547 0.580270 0.649436
Si Si2 0.573836 0.124127 0.291309
Si Si3 0.277204 0.701108 0.199431
Si Si4 0.636057 0.638202 0.552417
Si Si5 0.626064 0.668174 0.148662
Si Si6 0.385634 0.922785 0.996320
Si Si7 0.053775 0.216892 0.303967
O O1 0.136103 0.500000 0.657843
O O2 0.232558 0.623954 0.764081
O O3 0.000000 0.612955 0.500000
O O4 0.988131 0.581539 0.664853
O O5 0.722677 0.090687 0.360148
O O6 0.455986 0.122083 0.129027
O O7 0.617981 0.204805 0.346082
O O8 0.338368 0.698219 0.349317
O O9 0.148965 0.755433 0.115160
O O10 0.389086 0.729459 0.202183
O O11 0.235667 0.623372 0.134788
O O12 0.500000 0.595833 0.500000
O O13 0.608216 0.672065 0.430514
O O14 0.585722 0.673395 0.230819
O O15 0.500000 0.632656 0.000000
O O16 0.328235 0.000000 0.991119
O O17 0.500000 0.939367 0.000000
#
# Coordination Sequence:
#
# PCOD8110741 Si02
#       7
#     8   8   8   8   8   8   8
#     4  11  27  47  68  96 135 188 236 276 332 411
#     4  12  21  39  68  94 131 170 223 273 329 408
#     4  11  22  40  64  96 135 167 222 278 342 402
#     4  10  22  37  62 101 132 166 211 285 342 397
#     4  12  25  41  67 103 137 176 223 290 346 397
#     4  11  23  40  63  91 128 175 217 265 332 411
#     4  11  23  37  66  99 130 171 218 280 348 383
#
# _framework density 21.843367000000001
#
# number of rings (size 3 to 8) (size 9 to 14) (size 15 to 20)
#    0.000    0.857    4.286    3.000    4.000    1.429 
#    0.000    0.714    0.000   12.429    0.000    0.000 
#    0.000    0.000    0.000    0.000    0.000    0.000 
#
# Total GULP energy -347022.200535 kJ/mol
# GULP energy per Si atom -12393.650019 kJ/mol
# Density = 2.179365 g / cm^3
# Si number density = 21.843367 Si / 1000 Ang^3
#
#
#
# Elastic Constant Matrix: (Units=GPa)
#
#
# Indices 1 2 3 4 5 6 
#
# 1 155.7048 25.3260 56.7465 0.0000 9.2335 0.0000
# 2 25.3260 63.6886 35.1852 0.0000 2.3949 0.0000
# 3 56.7465 35.1852 126.5703 0.0000 5.3127 0.0000
# 4 0.0000 0.0000 0.0000 17.4581 0.0000 0.6694
# 5 9.2335 2.3949 5.3127 0.0000 36.9287 0.0000
# 6 0.0000 0.0000 0.0000 0.6694 0.0000 15.9618
#
#
#
# Elastic Compliance Matrix: (Units=1/GPa)
#
#
# Indices 1 2 3 4 5 6 
#
# 1 0.007852 -0.001367 -0.003080 0.000000 -0.001432 0.000000
# 2 -0.001367 0.018796 -0.004603 0.000000 -0.000215 0.000000
# 3 -0.003080 -0.004603 0.010581 0.000000 -0.000453 0.000000
# 4 0.000000 0.000000 0.000000 0.057372 0.000000 -0.002406
# 5 -0.001432 -0.000215 -0.000453 0.000000 0.027516 0.000000
# 6 0.000000 0.000000 0.000000 -0.002406 0.000000 0.062750
#
#
# Mechanical properties :
#
#
# Convention : Reuss Voigt Hill
#
# Bulk Modulus (GPa) = 52.27992 64.49769 58.38881
# Shear Modulus (GPa) = 23.88403 29.31680 26.60041
#
# Velocity S-wave (km/s) = 3.31028 3.66749 3.49346
# Velocity P-wave (km/s) = 6.21261 6.89387 6.56209
#
# Compressibility (1/GPa) = 0.01912780
#
# Stress axis : x y z
#
# Youngs Moduli (GPa) = 127.35140 53.20242 94.51329
#
# Poissons Ratio (x) = 0.07272 0.29114
# Poissons Ratio (y) = 0.17407 0.43507
# Poissons Ratio (z) = 0.39230 0.24491
#
# Static dielectric constant tensor:
#      x y z
#    x 4.291810 0.000000 0.341040 
#    y 0.000000 3.602760 0.000000 
#    z 0.341040 0.000000 2.814440 
# 
# 
# High freq. dielectric constant tensor:
#      x y z
#    x 1.878720 0.000000 -0.000760 
#    y 0.000000 1.818930 0.000000 
#    z -0.000760 0.000000 1.869450 
# 
# From -- ./inp_files/217753.got.cif
#   From: 2010.06.25/outbox.cif.g09.slc.cpg/sg12_109_cif.got.tgz:217753.got - 2010.06.28 00:19:55.
