data_PCOD8110385
_publ_section_title
;
Structure prediction by ZEFSAII (Michael W. Deem and Ramdas Pophale) SiO2 
 PCOD8110385
Probable space group: C 2/M
;
_chemical_formula_sum "Si O2"
_cell_formula_units_Z 44
_cell_length_a 18.509381
_cell_length_b 14.248997
_cell_length_c 9.655005
_cell_angle_alpha 90.000000
_cell_angle_beta 52.902853
_cell_angle_gamma 90.000000
_cell_volume 2031.053867
_symmetry_space_group_name_H-M "C 2/M"
_symmetry_group_IT_number 12
_symmetry_cell_setting 'monoclinic'
loop_
_space_group_symop_operation_xyz
x,y,z
-x,y,-z
-x,-y,-z
x,-y,z
1/2+x,1/2+y,z
1/2-x,1/2+y,-z
1/2-x,1/2-y,-z
1/2+x,1/2-y,z
loop_
_atom_site_type_symbol
_atom_site_label
_atom_site_fract_x
_atom_site_fract_y
_atom_site_fract_z
Si Si1 0.597806 0.106876 0.880314
Si Si2 0.000000 0.741361 0.500000
Si Si3 0.264566 0.857711 0.502541
Si Si4 0.608331 0.395518 0.483918
Si Si5 0.669792 0.107860 0.272987
Si Si6 0.749036 0.110589 0.899086
O O1 0.641348 0.110939 0.676909
O O2 0.664828 0.156639 0.912411
O O3 0.582685 0.000000 0.943590
O O4 0.500000 0.158428 0.000000
O O5 0.968078 0.813680 0.412174
O O6 0.918040 0.673311 0.637075
O O7 0.250000 0.750000 0.500000
O O8 0.177342 0.905775 0.532854
O O9 0.272787 0.884053 0.653197
O O10 0.565540 0.500000 0.514709
O O11 0.658859 0.358219 0.284292
O O12 0.638890 0.000000 0.285997
O O13 0.740242 0.139393 0.070112
O O14 0.744442 0.000000 0.882541
#
# Coordination Sequence:
#
# PCOD8110385 Si02
#       6
#     8   4   8   8   8   8
#     4   9  18  33  55  81 113 152 192 234 287 344
#     4  12  24  36  58  94 122 148 198 238 292 348
#     4  11  21  39  58  86 119 154 199 236 282 354
#     4  10  21  42  64  83 115 158 202 240 281 340
#     4  11  23  39  60  88 123 152 184 244 305 346
#     4   8  18  36  58  82 111 154 195 233 289 348
#
# _framework density 21.663632
#
# number of rings (size 3 to 8) (size 9 to 14) (size 15 to 20)
#    0.000    2.000    1.818    3.273    2.545    0.727 
#    0.000    0.000    0.000    0.000    0.000    5.091 
#    0.000    0.000    0.000    0.000    0.000    0.000 
#
# Total GULP energy -272545.395804 kJ/mol
# GULP energy per Si atom -12388.427082 kJ/mol
# Density = 2.161432 g / cm^3
# Si number density = 21.663632 Si / 1000 Ang^3
#
#
#
# Elastic Constant Matrix: (Units=GPa)
#
#
# Indices 1 2 3 4 5 6 
#
# 1 112.7422 28.5336 53.9668 0.0000 5.7356 0.0000
# 2 28.5336 102.7477 14.7709 0.0000 -6.1560 0.0000
# 3 53.9668 14.7709 85.6899 0.0000 35.4867 0.0000
# 4 0.0000 0.0000 0.0000 6.5909 0.0000 -8.4308
# 5 5.7356 -6.1560 35.4867 0.0000 30.1954 0.0000
# 6 0.0000 0.0000 0.0000 -8.4308 0.0000 22.9167
#
#
#
# Elastic Compliance Matrix: (Units=1/GPa)
#
#
# Indices 1 2 3 4 5 6 
#
# 1 0.016518 -0.001109 -0.017181 0.000000 0.016828 0.000000
# 2 -0.001109 0.011126 -0.004376 0.000000 0.007621 0.000000
# 3 -0.017181 -0.004376 0.043371 0.000000 -0.048600 0.000000
# 4 0.000000 0.000000 0.000000 0.286589 0.000000 0.105433
# 5 0.016828 0.007621 -0.048600 0.000000 0.088591 0.000000
# 6 0.000000 0.000000 0.000000 0.105433 0.000000 0.082424
#
#
# Mechanical properties :
#
#
# Convention : Reuss Voigt Hill
#
# Bulk Modulus (GPa) = 38.93356 55.08027 47.00692
# Shear Modulus (GPa) = 8.58351 25.53450 17.05900
#
# Velocity S-wave (km/s) = 1.99268 3.43692 2.80920
# Velocity P-wave (km/s) = 4.82755 6.42108 5.68047
#
# Compressibility (1/GPa) = 0.02568478
#
# Stress axis : x y z
#
# Youngs Moduli (GPa) = 60.53838 89.87762 23.05675
#
# Poissons Ratio (x) = 0.09969 0.39613
# Poissons Ratio (y) = 0.06715 0.10089
# Poissons Ratio (z) = 1.04010 0.39327
#
# Static dielectric constant tensor:
#      x y z
#    x 4.670140 0.000000 0.446780 
#    y 0.000000 3.970760 0.000000 
#    z 0.446780 0.000000 4.072270 
# 
# 
# High freq. dielectric constant tensor:
#      x y z
#    x 1.851110 0.000000 0.001600 
#    y 0.000000 1.854490 0.000000 
#    z 0.001600 0.000000 1.822860 
# 
# From -- ./inp_files/73529.got.cif
#   From: 2010.06.25/outbox.cif.g09.slc.cpg/sg12_37_cif.got.tgz:73529.got - 2010.06.28 00:19:55.
