data_PCOD8110614
_publ_section_title
;
Structure prediction by ZEFSAII (Michael W. Deem and Ramdas Pophale) SiO2 
 PCOD8110614
Probable space group: C 2/M
;
_chemical_formula_sum "Si O2"
_cell_formula_units_Z 64
_cell_length_a 24.893870
_cell_length_b 22.608666
_cell_length_c 11.252054
_cell_angle_alpha 90.000000
_cell_angle_beta 31.176570
_cell_angle_gamma 90.000000
_cell_volume 3278.371648
_symmetry_space_group_name_H-M "C 2/M"
_symmetry_group_IT_number 12
_symmetry_cell_setting 'monoclinic'
loop_
_space_group_symop_operation_xyz
x,y,z
-x,y,-z
-x,-y,-z
x,-y,z
1/2+x,1/2+y,z
1/2-x,1/2+y,-z
1/2-x,1/2-y,-z
1/2+x,1/2-y,z
loop_
_atom_site_type_symbol
_atom_site_label
_atom_site_fract_x
_atom_site_fract_y
_atom_site_fract_z
Si Si1 0.383300 0.327825 0.712012
Si Si2 0.262340 0.353364 0.613048
Si Si3 0.110004 0.145852 0.847868
Si Si4 0.121689 0.749207 0.493306
Si Si5 0.730695 0.434039 0.193016
Si Si6 0.060454 0.721446 0.997169
Si Si7 0.732128 0.648008 0.838580
Si Si8 0.885577 0.566843 0.697869
O O1 0.500000 0.346154 0.500000
O O2 0.375639 0.266994 0.651105
O O3 0.340916 0.386097 0.731438
O O4 0.330399 0.317912 0.939612
O O5 0.292738 0.369888 0.421451
O O6 0.353191 0.308361 0.480843
O O7 0.256378 0.415056 0.694870
O O8 0.153884 0.322367 0.845360
O O9 0.103973 0.215843 0.873888
O O10 0.147103 0.119409 0.906922
O O11 0.000000 0.121063 0.000000
O O12 0.204742 0.697247 0.355112
O O13 0.009670 0.726760 0.751189
O O14 0.681890 0.500000 0.280619
O O15 0.839002 0.433033 0.918099
O O16 0.000000 0.693389 0.000000
O O17 0.813409 0.601267 0.739672
O O18 0.895344 0.500000 0.629881
O O19 0.000000 0.595536 0.500000
#
# Coordination Sequence:
#
# PCOD8110614 Si02
#       8
#     8   8   8   8   8   8   8   8
#     4  10  22  36  56  85 117 152 188 243 301 353
#     4  11  21  36  58  84 117 154 195 246 287 349
#     4  11  21  37  59  84 119 159 196 233 289 353
#     4  11  21  34  54  86 121 150 192 238 298 356
#     4   9  21  40  61  83 111 151 198 245 295 347
#     4  11  20  33  55  83 117 158 197 230 285 362
#     4  11  22  36  59  86 122 154 196 243 294 350
#     4   9  20  41  64  85 113 155 200 243 299 359
#
# _framework density 19.521887
#
# number of rings (size 3 to 8) (size 9 to 14) (size 15 to 20)
#    0.000    1.625    3.750    2.250    3.500    0.750 
#    0.000    0.625    0.000    1.125    0.000    0.000 
#    0.000    0.000    0.000    0.000    0.000    0.000 
#
# Total GULP energy -396546.459043 kJ/mol
# GULP energy per Si atom -12392.076845 kJ/mol
# Density = 1.947745 g / cm^3
# Si number density = 19.521887 Si / 1000 Ang^3
#
#
#
# Elastic Constant Matrix: (Units=GPa)
#
#
# Indices 1 2 3 4 5 6 
#
# 1 116.9578 19.6845 54.2560 0.0000 3.1058 0.0001
# 2 19.6845 52.8860 28.8171 0.0000 -0.2771 0.0000
# 3 54.2560 28.8171 117.2123 -0.0001 -0.5352 0.0001
# 4 0.0000 0.0000 -0.0001 19.2082 0.0000 2.6016
# 5 3.1058 -0.2771 -0.5352 0.0000 36.7952 -0.0001
# 6 0.0001 0.0000 0.0001 2.6016 -0.0001 40.7118
#
#
#
# Elastic Compliance Matrix: (Units=1/GPa)
#
#
# Indices 1 2 3 4 5 6 
#
# 1 0.011031 -0.001531 -0.004734 0.000000 -0.001011 0.000000
# 2 -0.001531 0.022046 -0.004710 0.000000 0.000227 0.000000
# 3 -0.004734 -0.004710 0.011883 0.000000 0.000537 0.000000
# 4 0.000000 0.000000 0.000000 0.052516 0.000000 -0.003356
# 5 -0.001011 0.000227 0.000537 0.000000 0.027272 0.000000
# 6 0.000000 0.000000 0.000000 -0.003356 0.000000 0.024777
#
#
# Mechanical properties :
#
#
# Convention : Reuss Voigt Hill
#
# Bulk Modulus (GPa) = 43.46146 54.73013 49.09580
# Shear Modulus (GPa) = 27.91001 31.62961 29.76981
#
# Velocity S-wave (km/s) = 3.78521 4.02955 3.90929
# Velocity P-wave (km/s) = 6.43545 7.05307 6.75133
#
# Compressibility (1/GPa) = 0.02300889
#
# Stress axis : x y z
#
# Youngs Moduli (GPa) = 90.65496 45.35898 84.15125
#
# Poissons Ratio (x) = 0.06947 0.39838
# Poissons Ratio (y) = 0.13884 0.39637
# Poissons Ratio (z) = 0.42917 0.21365
#
# Static dielectric constant tensor:
#      x y z
#    x 3.877860 0.000000 0.027470 
#    y 0.000000 3.317270 0.000000 
#    z 0.027470 0.000000 3.733540 
# 
# 
# High freq. dielectric constant tensor:
#      x y z
#    x 1.761920 0.000000 0.002050 
#    y 0.000000 1.719230 0.000000 
#    z 0.002050 0.000000 1.776230 
# 
# From -- ./inp_files/184675.got.cif
#   From: 2010.06.25/outbox.cif.g09.slc.cpg/sg12_93_cif.got.tgz:184675.got - 2010.06.28 00:19:55.
