data_PCOD8110066
_publ_section_title
;
Structure prediction by ZEFSAII (Michael W. Deem and Ramdas Pophale) SiO2 
 PCOD8110066
Probable space group: C 2/M
;
_chemical_formula_sum "Si O2"
_cell_formula_units_Z 48
_cell_length_a 9.229612
_cell_length_b 28.818581
_cell_length_c 15.066144
_cell_angle_alpha 90.000000
_cell_angle_beta 143.265855
_cell_angle_gamma 90.000000
_cell_volume 2396.812303
_symmetry_space_group_name_H-M "C 2/M"
_symmetry_group_IT_number 12
_symmetry_cell_setting 'monoclinic'
loop_
_space_group_symop_operation_xyz
x,y,z
-x,y,-z
-x,-y,-z
x,-y,z
1/2+x,1/2+y,z
1/2-x,1/2+y,-z
1/2-x,1/2-y,-z
1/2+x,1/2-y,z
loop_
_atom_site_type_symbol
_atom_site_label
_atom_site_fract_x
_atom_site_fract_y
_atom_site_fract_z
Si Si1 0.621545 0.143515 0.801824
Si Si2 0.217294 0.053849 0.359241
Si Si3 0.249617 0.777504 0.665790
Si Si4 0.670053 0.389778 0.499000
Si Si5 0.003254 0.192601 0.297074
Si Si6 0.036280 0.129047 0.878472
O O1 0.474417 0.189722 0.753678
O O2 0.443173 0.106070 0.669798
O O3 0.832097 0.155891 0.835435
O O4 0.732168 0.119990 0.945089
O O5 0.500000 0.067703 0.500000
O O6 0.112257 0.067708 0.404412
O O7 0.071992 0.080803 0.211012
O O8 0.175379 0.000000 0.320603
O O9 0.303296 0.726759 0.653752
O O10 0.000000 0.796025 0.500000
O O11 0.202028 0.778911 0.748955
O O12 0.500000 0.392591 0.500000
O O13 0.648162 0.341636 0.433785
O O14 0.876234 0.162510 0.157922
#
# Coordination Sequence:
#
# PCOD8110066 Si02
#       6
#     8   8   8   8   8   8
#     4  11  21  41  57  88 121 159 201 242 300 352
#     4  10  21  40  67  95 120 151 199 248 297 363
#     4  12  23  36  60  90 118 156 214 253 292 343
#     4  11  21  40  64  91 119 160 202 247 300 353
#     4  11  23  37  59  89 115 162 205 257 293 344
#     4  10  24  39  63  85 122 163 193 248 305 361
#
# _framework density 20.026598
#
# number of rings (size 3 to 8) (size 9 to 14) (size 15 to 20)
#    0.000    1.167    5.000    1.500    2.333    1.667 
#    0.000    2.500    0.000    1.000    0.000    0.000 
#    0.000    0.000    0.000    0.000    0.000    0.000 
#
# Total GULP energy -297499.267410 kJ/mol
# GULP energy per Si atom -12395.802809 kJ/mol
# Density = 1.998102 g / cm^3
# Si number density = 20.026598 Si / 1000 Ang^3
#
#
#
# Elastic Constant Matrix: (Units=GPa)
#
#
# Indices 1 2 3 4 5 6 
#
# 1 122.2409 50.3216 39.5249 0.0000 -22.4270 0.0000
# 2 50.3216 95.0057 43.6955 0.0000 -10.3710 0.0000
# 3 39.5249 43.6955 117.7141 0.0000 -18.1787 0.0000
# 4 0.0000 0.0000 0.0000 15.7301 0.0000 1.8811
# 5 -22.4270 -10.3710 -18.1787 0.0000 28.4883 0.0000
# 6 0.0000 0.0000 0.0000 1.8811 0.0000 20.3299
#
#
#
# Elastic Compliance Matrix: (Units=1/GPa)
#
#
# Indices 1 2 3 4 5 6 
#
# 1 0.011850 -0.005048 -0.001052 0.000000 0.006820 0.000000
# 2 -0.005048 0.014926 -0.004016 0.000000 -0.001103 0.000000
# 3 -0.001052 -0.004016 0.011077 0.000000 0.004778 0.000000
# 4 0.000000 0.000000 0.000000 0.064284 0.000000 -0.005948
# 5 0.006820 -0.001103 0.004778 0.000000 0.043119 0.000000
# 6 0.000000 0.000000 0.000000 -0.005948 0.000000 0.049739
#
#
# Mechanical properties :
#
#
# Convention : Reuss Voigt Hill
#
# Bulk Modulus (GPa) = 56.74981 66.89386 61.82184
# Shear Modulus (GPa) = 22.61417 26.33756 24.47587
#
# Velocity S-wave (km/s) = 3.36401 3.63041 3.49974
# Velocity P-wave (km/s) = 6.59451 7.14480 6.87516
#
# Compressibility (1/GPa) = 0.01762120
#
# Stress axis : x y z
#
# Youngs Moduli (GPa) = 84.38769 66.99591 90.27773
#
# Poissons Ratio (x) = 0.33822 0.09495
# Poissons Ratio (y) = 0.42603 0.36254
# Poissons Ratio (z) = 0.08875 0.26905
#
# Static dielectric constant tensor:
#      x y z
#    x 4.029030 0.000000 -0.210420 
#    y 0.000000 3.329760 0.000000 
#    z -0.210420 0.000000 3.718960 
# 
# 
# High freq. dielectric constant tensor:
#      x y z
#    x 1.800080 0.000000 -0.016870 
#    y 0.000000 1.751720 0.000000 
#    z -0.016870 0.000000 1.774630 
# 
# From -- ./inp_files/201062.got.cif
#   From: 2010.06.25/outbox.cif.g09.slc.cpg/sg12_101_cif.got.tgz:201062.got - 2010.06.28 00:19:55.
