data_PCOD8110661
_publ_section_title
;
Structure prediction by ZEFSAII (Michael W. Deem and Ramdas Pophale) SiO2 
 PCOD8110661
Probable space group: C 2/M
;
_chemical_formula_sum "Si O2"
_cell_formula_units_Z 36
_cell_length_a 11.159390
_cell_length_b 25.201345
_cell_length_c 7.341110
_cell_angle_alpha 90.000000
_cell_angle_beta 112.194217
_cell_angle_gamma 90.000000
_cell_volume 1911.587049
_symmetry_space_group_name_H-M "C 2/M"
_symmetry_group_IT_number 12
_symmetry_cell_setting 'monoclinic'
loop_
_space_group_symop_operation_xyz
x,y,z
-x,y,-z
-x,-y,-z
x,-y,z
1/2+x,1/2+y,z
1/2-x,1/2+y,-z
1/2-x,1/2-y,-z
1/2+x,1/2-y,z
loop_
_atom_site_type_symbol
_atom_site_label
_atom_site_fract_x
_atom_site_fract_y
_atom_site_fract_z
Si Si1 0.350512 0.560110 0.382093
Si Si2 0.496168 0.289347 0.201326
Si Si3 0.754118 0.143362 0.604545
Si Si4 0.000000 0.293691 0.500000
Si Si5 0.367687 0.392567 0.023233
O O1 0.500000 0.574026 0.500000
O O2 0.318232 0.500000 0.421200
O O3 0.264890 0.599363 0.453595
O O4 0.319921 0.566238 0.148453
O O5 0.635017 0.311871 0.346288
O O6 0.448897 0.243073 0.306491
O O7 0.392939 0.337231 0.143931
O O8 0.500000 0.265485 0.000000
O O9 0.616222 0.170225 0.496365
O O10 0.759449 0.114690 0.805473
O O11 0.500000 0.411834 0.000000
#
# Coordination Sequence:
#
# PCOD8110661 Si02
#       5
#     8   8   8   4   8
#     4  11  20  34  61  85 104 134 177 229 280 319
#     4   9  19  34  53  81 109 141 180 224 260 311
#     4  10  22  37  52  82 115 140 180 224 262 318
#     4  12  22  34  57  76 109 160 182 206 262 320
#     4   9  18  35  55  81 117 134 169 232 273 310
#
# _framework density 18.832518
#
# number of rings (size 3 to 8) (size 9 to 14) (size 15 to 20)
#    0.000    2.444    4.444    2.000    0.000    6.667 
#    0.000    0.556    0.000    1.333    0.000    0.000 
#    0.000    0.000    0.000    0.000    0.000    0.000 
#
# Total GULP energy -223183.879614 kJ/mol
# GULP energy per Si atom -12399.104423 kJ/mol
# Density = 1.878965 g / cm^3
# Si number density = 18.832518 Si / 1000 Ang^3
#
#
#
# Elastic Constant Matrix: (Units=GPa)
#
#
# Indices 1 2 3 4 5 6 
#
# 1 63.7616 60.0675 25.7877 0.0000 -12.4723 0.0000
# 2 60.0675 89.6718 37.6946 0.0000 -21.0824 0.0000
# 3 25.7877 37.6946 78.3201 0.0000 -26.4919 0.0000
# 4 0.0000 0.0000 0.0000 13.7997 0.0000 -13.2916
# 5 -12.4723 -21.0824 -26.4919 0.0000 25.7406 0.0000
# 6 0.0000 0.0000 0.0000 -13.2916 0.0000 23.7370
#
#
#
# Elastic Compliance Matrix: (Units=1/GPa)
#
#
# Indices 1 2 3 4 5 6 
#
# 1 0.042891 -0.029145 -0.001748 0.000000 -0.004888 0.000000
# 2 -0.029145 0.034643 -0.003461 0.000000 0.010690 0.000000
# 3 -0.001748 -0.003461 0.021115 0.000000 0.018049 0.000000
# 4 0.000000 0.000000 0.000000 0.157307 0.000000 0.088085
# 5 -0.004888 0.010690 0.018049 0.000000 0.063812 0.000000
# 6 0.000000 0.000000 0.000000 0.088085 0.000000 0.091452
#
#
# Mechanical properties :
#
#
# Convention : Reuss Voigt Hill
#
# Bulk Modulus (GPa) = 33.40088 53.20590 43.30339
# Shear Modulus (GPa) = 10.20598 19.86903 15.03750
#
# Velocity S-wave (km/s) = 2.33047 3.25166 2.82882
# Velocity P-wave (km/s) = 5.00157 6.51239 5.80633
#
# Compressibility (1/GPa) = 0.02993933
#
# Stress axis : x y z
#
# Youngs Moduli (GPa) = 23.31492 28.86580 47.36016
#
# Poissons Ratio (x) = 0.84130 0.08280
# Poissons Ratio (y) = 0.67952 0.16392
# Poissons Ratio (z) = 0.04076 0.09991
#
# Static dielectric constant tensor:
#      x y z
#    x 3.044150 0.000000 -0.245870 
#    y 0.000000 3.272930 0.000000 
#    z -0.245870 0.000000 3.523570 
# 
# 
# High freq. dielectric constant tensor:
#      x y z
#    x 1.690590 0.000000 -0.028500 
#    y 0.000000 1.717050 0.000000 
#    z -0.028500 0.000000 1.736070 
# 
# From -- ./inp_files/49000.got.cif
#   From: 2010.06.25/outbox.cif.g09.slc.cpg/sg12_25_cif.got.tgz:49000.got - 2010.06.28 00:19:55.
