data_PCOD8110488
_publ_section_title
;
Structure prediction by ZEFSAII (Michael W. Deem and Ramdas Pophale) SiO2 
 PCOD8110488
Probable space group: C 2/M
;
_chemical_formula_sum "Si O2"
_cell_formula_units_Z 48
_cell_length_a 26.088041
_cell_length_b 14.020431
_cell_length_c 11.609801
_cell_angle_alpha 90.000000
_cell_angle_beta 149.138194
_cell_angle_gamma 90.000000
_cell_volume 2178.305808
_symmetry_space_group_name_H-M "C 2/M"
_symmetry_group_IT_number 12
_symmetry_cell_setting 'monoclinic'
loop_
_space_group_symop_operation_xyz
x,y,z
-x,y,-z
-x,-y,-z
x,-y,z
1/2+x,1/2+y,z
1/2-x,1/2+y,-z
1/2-x,1/2-y,-z
1/2+x,1/2-y,z
loop_
_atom_site_type_symbol
_atom_site_label
_atom_site_fract_x
_atom_site_fract_y
_atom_site_fract_z
Si Si1 0.207243 0.891180 0.992644
Si Si2 0.674930 0.894646 0.141331
Si Si3 0.115013 0.896128 0.055120
Si Si4 0.165326 0.781848 0.693027
Si Si5 0.986619 0.275486 0.779014
Si Si6 0.299682 0.154267 0.557450
O O1 0.151278 0.857535 0.768477
O O2 0.245821 0.000000 0.053368
O O3 0.129170 0.882895 0.945886
O O4 0.301154 0.821259 0.194185
O O5 0.756616 0.821298 0.250811
O O6 0.682864 0.907114 0.294407
O O7 0.688440 0.000000 0.112822
O O8 0.566903 0.854656 0.897551
O O9 0.224127 0.897017 0.324400
O O10 0.065618 0.000000 0.985133
O O11 0.041749 0.811137 0.955599
O O12 0.060224 0.768348 0.427023
O O13 0.905566 0.326855 0.702052
O O14 0.250000 0.250000 0.500000
#
# Coordination Sequence:
#
# PCOD8110488 Si02
#       6
#     8   8   8   8   8   8
#     4  10  21  43  71  95 130 179 223 267 330 397
#     4  12  26  43  67 101 134 174 223 271 328 395
#     4  11  24  43  66  99 131 173 222 269 327 393
#     4  11  23  44  69  95 139 175 216 277 334 384
#     4  12  23  42  66  98 130 171 217 272 328 387
#     4  12  22  44  67  92 134 177 215 271 328 390
#
# _framework density 22.035474000000001
#
# number of rings (size 3 to 8) (size 9 to 14) (size 15 to 20)
#    0.000    0.667    6.667    1.500    0.000    4.667 
#    0.000    2.500    0.000    3.000    0.000    0.000 
#    0.000    0.000    0.000    0.000    0.000    0.000 
#
# Total GULP energy -297610.340178 kJ/mol
# GULP energy per Si atom -12400.430841 kJ/mol
# Density = 2.198532 g / cm^3
# Si number density = 22.035474 Si / 1000 Ang^3
#
#
#
# Elastic Constant Matrix: (Units=GPa)
#
#
# Indices 1 2 3 4 5 6 
#
# 1 74.9584 13.5271 45.7082 0.0000 -24.2132 0.0000
# 2 13.5271 148.1208 39.1776 0.0000 -2.6975 0.0000
# 3 45.7082 39.1776 140.6961 0.0000 -5.4452 0.0000
# 4 0.0000 0.0000 0.0000 19.4576 0.0000 -4.4947
# 5 -24.2132 -2.6975 -5.4452 0.0000 24.5532 0.0000
# 6 0.0000 0.0000 0.0000 -4.4947 0.0000 23.6012
#
#
#
# Elastic Compliance Matrix: (Units=1/GPa)
#
#
# Indices 1 2 3 4 5 6 
#
# 1 0.025371 0.000054 -0.007352 0.000000 0.023395 0.000000
# 2 0.000054 0.007291 -0.002032 0.000000 0.000403 0.000000
# 3 -0.007352 -0.002032 0.009857 0.000000 -0.005287 0.000000
# 4 0.000000 0.000000 0.000000 0.053759 0.000000 0.010238
# 5 0.023395 0.000403 -0.005287 0.000000 0.062671 0.000000
# 6 0.000000 0.000000 0.000000 0.010238 0.000000 0.044321
#
#
# Mechanical properties :
#
#
# Convention : Reuss Voigt Hill
#
# Bulk Modulus (GPa) = 41.91312 62.28900 52.10106
# Shear Modulus (GPa) = 21.75015 31.21323 26.48169
#
# Velocity S-wave (km/s) = 3.14515 3.76772 3.47042
# Velocity P-wave (km/s) = 5.67902 6.87435 6.30507
#
# Compressibility (1/GPa) = 0.02385888
#
# Stress axis : x y z
#
# Youngs Moduli (GPa) = 39.41465 137.15214 101.44918
#
# Poissons Ratio (x) = -0.00735 0.74584
# Poissons Ratio (y) = -0.00211 0.20615
# Poissons Ratio (z) = 0.28977 0.27870
#
# Static dielectric constant tensor:
#      x y z
#    x 3.423390 0.000000 -0.759820 
#    y 0.000000 4.070690 0.000000 
#    z -0.759820 0.000000 3.966560 
# 
# 
# High freq. dielectric constant tensor:
#      x y z
#    x 1.856940 0.000000 -0.015400 
#    y 0.000000 1.878920 0.000000 
#    z -0.015400 0.000000 1.863120 
# 
# From -- ./inp_files/183890.got.cif
#   From: 2010.06.25/outbox.cif.g09.slc.cpg/sg12_92_cif.got.tgz:183890.got - 2010.06.28 00:19:55.
