data_PCOD8110752
_publ_section_title
;
Structure prediction by ZEFSAII (Michael W. Deem and Ramdas Pophale) SiO2 
 PCOD8110752
Probable space group: C 2/M
;
_chemical_formula_sum "Si O2"
_cell_formula_units_Z 56
_cell_length_a 8.650516
_cell_length_b 18.050420
_cell_length_c 21.523942
_cell_angle_alpha 90.000000
_cell_angle_beta 51.164407
_cell_angle_gamma 90.000000
_cell_volume 2617.941373
_symmetry_space_group_name_H-M "C 2/M"
_symmetry_group_IT_number 12
_symmetry_cell_setting 'monoclinic'
loop_
_space_group_symop_operation_xyz
x,y,z
-x,y,-z
-x,-y,-z
x,-y,z
1/2+x,1/2+y,z
1/2-x,1/2+y,-z
1/2-x,1/2-y,-z
1/2+x,1/2-y,z
loop_
_atom_site_type_symbol
_atom_site_label
_atom_site_fract_x
_atom_site_fract_y
_atom_site_fract_z
Si Si1 0.195458 0.315238 0.815229
Si Si2 0.936193 0.801057 0.947190
Si Si3 0.155626 0.918269 0.123447
Si Si4 0.267115 0.081542 0.708225
Si Si5 0.868792 0.198936 0.348451
Si Si6 0.585767 0.338834 0.411515
Si Si7 0.580204 0.914841 0.732407
O O1 0.190713 0.369144 0.875846
O O2 0.417400 0.294060 0.738320
O O3 0.074004 0.357564 0.791714
O O4 0.092809 0.238484 0.861289
O O5 0.880151 0.880486 0.933606
O O6 0.750000 0.750000 0.000000
O O7 0.000000 0.819374 0.000000
O O8 0.954535 0.924528 0.212087
O O9 0.245579 0.000000 0.089761
O O10 0.269919 0.136873 0.649002
O O11 0.409145 0.110041 0.727630
O O12 0.339688 0.000000 0.667788
O O13 0.748402 0.274136 0.372847
O O14 0.901412 0.180082 0.412747
O O15 0.500000 0.358046 0.500000
O O16 0.704148 0.409797 0.355115
O O17 0.550547 0.000000 0.762319
#
# Coordination Sequence:
#
# PCOD8110752 Si02
#       7
#     8   8   8   8   8   8   8
#     4  10  23  40  67  89 122 165 213 264 302 378
#     4  12  26  42  62  94 127 165 206 258 322 378
#     4  10  22  41  64  90 126 163 207 264 316 370
#     4   9  20  38  62  91 117 153 206 260 302 355
#     4  10  22  37  63  87 119 164 207 255 298 366
#     4  11  23  37  59  91 127 161 200 250 311 368
#     4  10  22  39  63  91 120 160 209 254 307 369
#
# _framework density 21.390854999999998
#
# number of rings (size 3 to 8) (size 9 to 14) (size 15 to 20)
#    0.000    1.714    1.429    1.714   12.000    4.000 
#    0.000    2.143    0.000    2.143    0.000    0.000 
#    0.000    0.000    0.000    0.000    0.000    0.000 
#
# Total GULP energy -347182.442816 kJ/mol
# GULP energy per Si atom -12399.372958 kJ/mol
# Density = 2.134217 g / cm^3
# Si number density = 21.390855 Si / 1000 Ang^3
#
#
#
# Elastic Constant Matrix: (Units=GPa)
#
#
# Indices 1 2 3 4 5 6 
#
# 1 102.0698 9.5651 12.2703 -0.0004 30.3434 0.0013
# 2 9.5651 61.0147 16.2132 0.0001 9.5963 0.0007
# 3 12.2703 16.2132 77.2593 -0.0006 25.1587 0.0006
# 4 -0.0004 0.0001 -0.0006 17.1749 0.0011 3.7872
# 5 30.3434 9.5963 25.1587 0.0011 37.1947 -0.0007
# 6 0.0013 0.0007 0.0006 3.7872 -0.0007 24.9560
#
#
#
# Elastic Compliance Matrix: (Units=1/GPa)
#
#
# Indices 1 2 3 4 5 6 
#
# 1 0.013155 -0.000709 0.001917 0.000001 -0.011845 -0.000001
# 2 -0.000709 0.017591 -0.002936 0.000000 -0.001975 0.000000
# 3 0.001917 -0.002936 0.017336 0.000002 -0.012533 -0.000001
# 4 0.000001 0.000000 0.000002 0.060240 -0.000004 -0.009142
# 5 -0.011845 -0.001975 -0.012533 -0.000004 0.045535 0.000003
# 6 -0.000001 0.000000 -0.000001 -0.009142 0.000003 0.041458
#
#
# Mechanical properties :
#
#
# Convention : Reuss Voigt Hill
#
# Bulk Modulus (GPa) = 22.40829 35.16010 28.78419
# Shear Modulus (GPa) = 23.40311 29.35147 26.37729
#
# Velocity S-wave (km/s) = 3.31126 3.70827 3.51538
# Velocity P-wave (km/s) = 5.01175 5.89981 5.47382
#
# Compressibility (1/GPa) = 0.04462635
#
# Stress axis : x y z
#
# Youngs Moduli (GPa) = 76.01943 56.84618 57.68258
#
# Poissons Ratio (x) = 0.04028 -0.11056
# Poissons Ratio (y) = 0.05386 0.16936
# Poissons Ratio (z) = -0.14571 0.16691
#
# Static dielectric constant tensor:
#      x y z
#    x 3.319230 0.000000 0.158030 
#    y 0.000000 4.099860 0.000000 
#    z 0.158030 0.000000 3.672430 
# 
# 
# High freq. dielectric constant tensor:
#      x y z
#    x 1.854020 0.000000 0.015670 
#    y 0.000000 1.844220 0.000000 
#    z 0.015670 0.000000 1.814260 
# 
# From -- ./inp_files/300702.got.cif
#   From: 2010.06.25/outbox.cif.g09.slc.cpg/sg12_151_cif.got.tgz:300702.got - 2010.06.28 00:19:55.
