data_PCOD8110225
_publ_section_title
;
Structure prediction by ZEFSAII (Michael W. Deem and Ramdas Pophale) SiO2 
 PCOD8110225
Probable space group: C 2/M
;
_chemical_formula_sum "Si O2"
_cell_formula_units_Z 64
_cell_length_a 18.119015
_cell_length_b 13.843576
_cell_length_c 19.568646
_cell_angle_alpha 90.000000
_cell_angle_beta 137.836037
_cell_angle_gamma 90.000000
_cell_volume 3294.813765
_symmetry_space_group_name_H-M "C 2/M"
_symmetry_group_IT_number 12
_symmetry_cell_setting 'monoclinic'
loop_
_space_group_symop_operation_xyz
x,y,z
-x,y,-z
-x,-y,-z
x,-y,z
1/2+x,1/2+y,z
1/2-x,1/2+y,-z
1/2-x,1/2-y,-z
1/2+x,1/2-y,z
loop_
_atom_site_type_symbol
_atom_site_label
_atom_site_fract_x
_atom_site_fract_y
_atom_site_fract_z
Si Si1 0.291139 0.754219 0.226803
Si Si2 0.054712 0.776959 0.111049
Si Si3 0.550090 0.104692 0.881398
Si Si4 0.876503 0.224555 0.593323
Si Si5 0.538573 0.886939 0.716889
Si Si6 0.730801 0.669271 0.930438
Si Si7 0.986035 0.889383 0.786353
Si Si8 0.524419 0.388421 0.595849
O O1 0.187066 0.778890 0.202147
O O2 0.357545 0.852832 0.256732
O O3 0.241255 0.714575 0.122936
O O4 0.367477 0.673334 0.313605
O O5 0.017197 0.674698 0.115728
O O6 0.017442 0.861936 0.136276
O O7 0.000000 0.796562 0.000000
O O8 0.555357 0.143379 0.807365
O O9 0.491669 0.000000 0.843652
O O10 0.675405 0.089782 0.992386
O O11 0.750000 0.250000 0.500000
O O12 0.933274 0.327906 0.619439
O O13 0.904996 0.178923 0.686858
O O14 0.918365 0.149378 0.564822
O O15 0.519599 0.000000 0.692759
O O16 0.610655 0.622840 0.846126
O O17 0.750000 0.750000 0.000000
O O18 0.949723 0.000000 0.752201
O O19 0.500000 0.376902 0.500000
O O20 0.545641 0.500000 0.630448
#
# Coordination Sequence:
#
# PCOD8110225 Si02
#       8
#     8   8   8   8   8   8   8   8
#     4  11  22  38  64  85 126 168 200 253 310 364
#     4  12  24  41  58  88 136 170 206 253 308 368
#     4  11  22  37  61  91 123 164 209 257 310 364
#     4  11  23  42  68  94 125 159 200 262 321 369
#     4  10  21  41  65  90 118 160 212 252 301 371
#     4  12  18  40  63  89 122 164 209 252 300 364
#     4  12  25  42  65  93 125 165 215 258 306 375
#     4  10  23  42  66  95 121 156 208 259 318 377
#
# _framework density 19.424467
#
# number of rings (size 3 to 8) (size 9 to 14) (size 15 to 20)
#    0.000    0.875    7.500    0.750    1.750    3.000 
#    0.000    2.500    0.000    1.500    0.000    0.000 
#    0.000    0.000    0.000    0.000    0.000    0.000 
#
# Total GULP energy -396773.771554 kJ/mol
# GULP energy per Si atom -12399.180361 kJ/mol
# Density = 1.938026 g / cm^3
# Si number density = 19.424467 Si / 1000 Ang^3
#
#
#
# Elastic Constant Matrix: (Units=GPa)
#
#
# Indices 1 2 3 4 5 6 
#
# 1 100.9571 34.8353 35.2760 0.0000 12.0094 0.0000
# 2 34.8353 116.0023 37.7992 0.0000 -2.9257 0.0000
# 3 35.2760 37.7992 83.2773 0.0000 7.9868 0.0000
# 4 0.0000 0.0000 0.0000 22.8275 0.0000 -4.0218
# 5 12.0094 -2.9257 7.9868 0.0000 38.7290 0.0000
# 6 0.0000 0.0000 0.0000 -4.0218 0.0000 24.3874
#
#
#
# Elastic Compliance Matrix: (Units=1/GPa)
#
#
# Indices 1 2 3 4 5 6 
#
# 1 0.012526 -0.002604 -0.003808 0.000000 -0.003296 0.000000
# 2 -0.002604 0.010775 -0.004023 0.000000 0.002451 0.000000
# 3 -0.003808 -0.004023 0.015673 0.000000 -0.002355 0.000000
# 4 0.000000 0.000000 0.000000 0.045118 0.000000 0.007440
# 5 -0.003296 0.002451 -0.002355 0.000000 0.027513 0.000000
# 6 0.000000 0.000000 0.000000 0.007440 0.000000 0.042232
#
#
# Mechanical properties :
#
#
# Convention : Reuss Voigt Hill
#
# Bulk Modulus (GPa) = 55.23424 57.33975 56.28700
# Shear Modulus (GPa) = 27.66376 30.01052 28.83714
#
# Velocity S-wave (km/s) = 3.77791 3.93489 3.85720
# Velocity P-wave (km/s) = 6.89400 7.08717 6.99125
#
# Compressibility (1/GPa) = 0.01810471
#
# Stress axis : x y z
#
# Youngs Moduli (GPa) = 79.83189 92.80641 63.80383
#
# Poissons Ratio (x) = 0.24166 0.24297
# Poissons Ratio (y) = 0.20787 0.25667
# Poissons Ratio (z) = 0.30401 0.37335
#
# Static dielectric constant tensor:
#      x y z
#    x 3.582710 0.000000 -0.065260 
#    y 0.000000 3.528740 0.000000 
#    z -0.065260 0.000000 3.622960 
# 
# 
# High freq. dielectric constant tensor:
#      x y z
#    x 1.756530 0.000000 -0.003190 
#    y 0.000000 1.759730 0.000000 
#    z -0.003190 0.000000 1.755430 
# 
# From -- ./inp_files/278212.got.cif
#   From: 2010.06.25/outbox.cif.g09.slc.cpg/sg12_140_cif.got.tgz:278212.got - 2010.06.28 00:19:55.
