data_PCOD8110648
_publ_section_title
;
Structure prediction by ZEFSAII (Michael W. Deem and Ramdas Pophale) SiO2 
 PCOD8110648
Probable space group: C 2/M
;
_chemical_formula_sum "Si O2"
_cell_formula_units_Z 48
_cell_length_a 5.476066
_cell_length_b 23.304364
_cell_length_c 14.006501
_cell_angle_alpha 90.000000
_cell_angle_beta 93.306087
_cell_angle_gamma 90.000000
_cell_volume 1784.482055
_symmetry_space_group_name_H-M "C 2/M"
_symmetry_group_IT_number 12
_symmetry_cell_setting 'monoclinic'
loop_
_space_group_symop_operation_xyz
x,y,z
-x,y,-z
-x,-y,-z
x,-y,z
1/2+x,1/2+y,z
1/2-x,1/2+y,-z
1/2-x,1/2-y,-z
1/2+x,1/2-y,z
loop_
_atom_site_type_symbol
_atom_site_label
_atom_site_fract_x
_atom_site_fract_y
_atom_site_fract_z
Si Si1 0.304161 0.936022 0.412856
Si Si2 0.189754 0.391379 0.287106
Si Si3 0.037780 0.177700 0.400621
Si Si4 0.919102 0.375202 0.098664
Si Si5 0.807562 0.781908 0.790512
Si Si6 0.112389 0.500000 0.865814
Si Si7 0.917584 0.000000 0.248442
O O1 0.500000 0.943832 0.500000
O O2 0.436866 0.917874 0.317695
O O3 0.132221 0.884019 0.439733
O O4 0.176873 0.000000 0.395008
O O5 0.275912 0.333163 0.342189
O O6 0.403896 0.439554 0.306475
O O7 0.150715 0.374146 0.176101
O O8 0.215901 0.206626 0.325562
O O9 0.000000 0.213467 0.500000
O O10 0.698531 0.340250 0.146001
O O11 0.841726 0.441391 0.073683
O O12 0.000000 0.346587 0.000000
O O13 0.563931 0.748509 0.818782
O O14 0.321800 0.500000 0.792487
O O15 0.834188 0.500000 0.819530
#
# Coordination Sequence:
#
# PCOD8110648 Si02
#       7
#     8   8   8   8   8   4   4
#     4  11  23  39  65 110 155 203 255 302 381 470
#     4  11  22  40  65 103 149 201 248 305 373 457
#     4  12  26  44  74 106 150 200 254 320 387 463
#     4  11  25  50  81 114 154 200 256 321 392 465
#     4  12  29  53  80 111 150 203 267 328 384 457
#     4  10  23  46  72 115 152 191 246 310 382 466
#     4  10  22  36  65  99 150 207 243 288 366 443
#
# _framework density 26.898561999999998
#
# number of rings (size 3 to 8) (size 9 to 14) (size 15 to 20)
#    0.000    0.833    4.167    2.250    3.500    3.000 
#    0.000   15.833    0.000    0.000    0.000    0.000 
#    0.000    0.000    0.000    0.000    0.000    0.000 
#
# Total GULP energy -297376.217008 kJ/mol
# GULP energy per Si atom -12390.675709 kJ/mol
# Density = 2.683734 g / cm^3
# Si number density = 26.898562 Si / 1000 Ang^3
#
#
#
# Elastic Constant Matrix: (Units=GPa)
#
#
# Indices 1 2 3 4 5 6 
#
# 1 114.5910 39.4877 27.5454 0.0000 -16.8085 0.0000
# 2 39.4877 97.6418 24.1687 0.0000 -13.3473 0.0000
# 3 27.5454 24.1687 168.0463 0.0000 -27.2326 0.0000
# 4 0.0000 0.0000 0.0000 19.6664 0.0000 -10.1457
# 5 -16.8085 -13.3473 -27.2326 0.0000 34.2628 0.0000
# 6 0.0000 0.0000 0.0000 -10.1457 0.0000 38.3164
#
#
#
# Elastic Compliance Matrix: (Units=1/GPa)
#
#
# Indices 1 2 3 4 5 6 
#
# 1 0.010638 -0.003690 -0.000689 0.000000 0.003234 0.000000
# 2 -0.003690 0.012246 -0.000777 0.000000 0.002343 0.000000
# 3 -0.000689 -0.000777 0.006969 0.000000 0.004899 0.000000
# 4 0.000000 0.000000 0.000000 0.058893 0.000000 0.015594
# 5 0.003234 0.002343 0.004899 0.000000 0.035579 0.000000
# 6 0.000000 0.000000 0.000000 0.015594 0.000000 0.030228
#
#
# Mechanical properties :
#
#
# Convention : Reuss Voigt Hill
#
# Bulk Modulus (GPa) = 51.16986 62.52030 56.84508
# Shear Modulus (GPa) = 29.17523 37.72094 33.44809
#
# Velocity S-wave (km/s) = 3.29696 3.74885 3.53014
# Velocity P-wave (km/s) = 5.79291 6.48320 6.14775
#
# Compressibility (1/GPa) = 0.01954275
#
# Stress axis : x y z
#
# Youngs Moduli (GPa) = 94.00190 81.65796 143.48754
#
# Poissons Ratio (x) = 0.30128 0.09887
# Poissons Ratio (y) = 0.34683 0.11146
# Poissons Ratio (z) = 0.06477 0.06343
#
# Static dielectric constant tensor:
#      x y z
#    x 4.652880 0.000000 -0.088940 
#    y 0.000000 5.505640 0.000000 
#    z -0.088940 0.000000 4.718370 
# 
# 
# High freq. dielectric constant tensor:
#      x y z
#    x 2.079670 0.000000 -0.002470 
#    y 0.000000 2.092380 0.000000 
#    z -0.002470 0.000000 2.071950 
# 
# From -- ./inp_files/192093.got.cif
#   From: 2010.06.25/outbox.cif.g09.slc.cpg/sg12_97_cif.got.tgz:192093.got - 2010.06.28 00:19:55.
