data_PCOD8110716
_publ_section_title
;
Structure prediction by ZEFSAII (Michael W. Deem and Ramdas Pophale) SiO2 
 PCOD8110716
Probable space group: C 2/M
;
_chemical_formula_sum "Si O2"
_cell_formula_units_Z 40
_cell_length_a 13.591787
_cell_length_b 17.487354
_cell_length_c 11.367409
_cell_angle_alpha 90.000000
_cell_angle_beta 134.973116
_cell_angle_gamma 90.000000
_cell_volume 1911.396699
_symmetry_space_group_name_H-M "C 2/M"
_symmetry_group_IT_number 12
_symmetry_cell_setting 'monoclinic'
loop_
_space_group_symop_operation_xyz
x,y,z
-x,y,-z
-x,-y,-z
x,-y,z
1/2+x,1/2+y,z
1/2-x,1/2+y,-z
1/2-x,1/2-y,-z
1/2+x,1/2-y,z
loop_
_atom_site_type_symbol
_atom_site_label
_atom_site_fract_x
_atom_site_fract_y
_atom_site_fract_z
Si Si1 0.374529 0.500000 0.489366
Si Si2 0.571944 0.000000 0.181064
Si Si3 0.725814 0.585331 0.146968
Si Si4 0.466419 0.719645 0.101612
Si Si5 0.004600 0.359998 0.726214
Si Si6 0.799973 0.125335 0.613964
O O1 0.500000 0.500000 0.500000
O O2 0.367693 0.574544 0.567301
O O3 0.236041 0.500000 0.294842
O O4 0.522503 0.925474 0.204548
O O5 0.500000 0.000000 0.000000
O O6 0.702431 0.500000 0.073861
O O7 0.886682 0.610230 0.278312
O O8 0.687654 0.580337 0.251885
O O9 0.634405 0.645946 0.994466
O O10 0.415874 0.789964 0.139607
O O11 0.606515 0.699691 0.290789
O O12 0.500000 0.751226 0.000000
O O13 0.856205 0.343965 0.539820
#
# Coordination Sequence:
#
# PCOD8110716 Si02
#       6
#     4   4   8   8   8   8
#     4  10  22  39  60  90 119 161 208 254 311 369
#     4  10  22  37  59  84 121 165 203 258 306 369
#     4  11  22  38  64  98 125 163 211 257 313 371
#     4  10  23  39  61  90 130 170 205 256 310 368
#     4  11  21  40  61  93 125 162 211 257 313 368
#     4  10  22  39  64  89 126 162 208 261 310 374
#
# _framework density 20.927105999999998
#
# number of rings (size 3 to 8) (size 9 to 14) (size 15 to 20)
#    0.000    1.600    2.000    2.400    1.400    3.600 
#    0.000   10.000    0.000    0.000    0.000    0.000 
#    0.000    0.000    0.000    0.000    0.000    0.000 
#
# Total GULP energy -247791.380508 kJ/mol
# GULP energy per Si atom -12389.569025 kJ/mol
# Density = 2.087948 g / cm^3
# Si number density = 20.927106 Si / 1000 Ang^3
#
#
#
# Elastic Constant Matrix: (Units=GPa)
#
#
# Indices 1 2 3 4 5 6 
#
# 1 115.0061 34.5262 29.7873 0.0000 15.1787 0.0000
# 2 34.5262 116.0966 44.9380 0.0000 2.7311 0.0000
# 3 29.7873 44.9380 120.5855 0.0000 4.4387 0.0000
# 4 0.0000 0.0000 0.0000 9.1222 0.0000 3.0302
# 5 15.1787 2.7311 4.4387 0.0000 21.3578 0.0000
# 6 0.0000 0.0000 0.0000 3.0302 0.0000 26.3968
#
#
#
# Elastic Compliance Matrix: (Units=1/GPa)
#
#
# Indices 1 2 3 4 5 6 
#
# 1 0.010741 -0.002457 -0.001480 0.000000 -0.007012 0.000000
# 2 -0.002457 0.010633 -0.003396 0.000000 0.001092 0.000000
# 3 -0.001480 -0.003396 0.009945 0.000000 -0.000581 0.000000
# 4 0.000000 0.000000 0.000000 0.113969 0.000000 -0.013083
# 5 -0.007012 0.001092 -0.000581 0.000000 0.051786 0.000000
# 6 0.000000 0.000000 0.000000 -0.013083 0.000000 0.039385
#
#
# Mechanical properties :
#
#
# Convention : Reuss Voigt Hill
#
# Bulk Modulus (GPa) = 60.04174 63.35457 61.69815
# Shear Modulus (GPa) = 19.47982 27.53779 23.50881
#
# Velocity S-wave (km/s) = 3.05428 3.63146 3.35530
# Velocity P-wave (km/s) = 6.41805 6.92264 6.67511
#
# Compressibility (1/GPa) = 0.01665508
#
# Stress axis : x y z
#
# Youngs Moduli (GPa) = 93.09725 94.04801 100.55004
#
# Poissons Ratio (x) = 0.23105 0.14879
# Poissons Ratio (y) = 0.22871 0.34145
# Poissons Ratio (z) = 0.13776 0.31937
#
# Static dielectric constant tensor:
#      x y z
#    x 3.721220 0.000000 0.223580 
#    y 0.000000 3.768400 0.000000 
#    z 0.223580 0.000000 3.819560 
# 
# 
# High freq. dielectric constant tensor:
#      x y z
#    x 1.812000 0.000000 0.007190 
#    y 0.000000 1.823190 0.000000 
#    z 0.007190 0.000000 1.826650 
# 
# From -- ./inp_files/145870.got.cif
#   From: 2010.06.25/outbox.cif.g09.slc.cpg/sg12_73_cif.got.tgz:145870.got - 2010.06.28 00:19:55.
