data_PCOD8110449
_publ_section_title
;
Structure prediction by ZEFSAII (Michael W. Deem and Ramdas Pophale) SiO2 
 PCOD8110449
Probable space group: C 2/M
;
_chemical_formula_sum "Si O2"
_cell_formula_units_Z 48
_cell_length_a 13.926272
_cell_length_b 14.637897
_cell_length_c 28.463551
_cell_angle_alpha 90.000000
_cell_angle_beta 158.542730
_cell_angle_gamma 90.000000
_cell_volume 2122.535367
_symmetry_space_group_name_H-M "C 2/M"
_symmetry_group_IT_number 12
_symmetry_cell_setting 'monoclinic'
loop_
_space_group_symop_operation_xyz
x,y,z
-x,y,-z
-x,-y,-z
x,-y,z
1/2+x,1/2+y,z
1/2-x,1/2+y,-z
1/2-x,1/2-y,-z
1/2+x,1/2-y,z
loop_
_atom_site_type_symbol
_atom_site_label
_atom_site_fract_x
_atom_site_fract_y
_atom_site_fract_z
Si Si1 0.247044 0.601508 0.213225
Si Si2 0.670249 0.847759 0.535282
Si Si3 0.986048 0.777535 0.075745
Si Si4 0.277025 0.857565 0.612503
Si Si5 0.614273 0.899313 0.685080
Si Si6 0.086561 0.605429 0.846267
O O1 0.150165 0.500000 0.152826
O O2 0.563796 0.598061 0.356156
O O3 0.138794 0.683560 0.130026
O O4 0.135955 0.622428 0.215030
O O5 0.500000 0.893672 0.500000
O O6 0.749297 0.746988 0.585712
O O7 0.482313 0.845096 0.404522
O O8 0.166366 0.841346 0.189449
O O9 0.750000 0.750000 0.000000
O O10 0.855340 0.835690 0.974219
O O11 0.376687 0.913529 0.613296
O O12 0.478792 0.863725 0.747125
O O13 0.000000 0.902010 0.500000
O O14 0.719124 0.000000 0.718476
O O15 0.169724 0.500000 0.883452
#
# Coordination Sequence:
#
# PCOD8110449 Si02
#       6
#     8   8   8   8   8   8
#     4  10  21  42  70  98 130 173 223 273 328 386
#     4  11  25  42  68  94 133 177 227 271 331 385
#     4  10  23  41  70  96 136 177 217 267 329 393
#     4  11  24  40  70 100 137 171 216 269 343 400
#     4  12  25  43  68 100 136 175 220 274 332 398
#     4  10  22  42  70 104 135 170 216 272 335 400
#
# _framework density 22.614464000000002
#
# number of rings (size 3 to 8) (size 9 to 14) (size 15 to 20)
#    0.000    1.333    1.667    3.000    9.333    5.333 
#    0.000    1.667    0.000    1.000    0.000    0.000 
#    0.000    0.000    0.000    0.000    0.000    0.000 
#
# Total GULP energy -297456.710073 kJ/mol
# GULP energy per Si atom -12394.029586 kJ/mol
# Density = 2.256299 g / cm^3
# Si number density = 22.614464 Si / 1000 Ang^3
#
#
#
# Elastic Constant Matrix: (Units=GPa)
#
#
# Indices 1 2 3 4 5 6 
#
# 1 108.9546 25.6421 53.3602 -0.0948 -12.1495 0.0444
# 2 25.6421 145.8407 44.8369 -0.1239 -14.3151 0.0498
# 3 53.3602 44.8369 133.4511 -0.5800 -19.9417 0.2227
# 4 -0.0948 -0.1239 -0.5800 -37.8264 0.0425 34.9129
# 5 -12.1495 -14.3151 -19.9417 0.0425 41.7106 0.0015
# 6 0.0444 0.0498 0.2227 34.9129 0.0015 1.8813
#
#
#
# Elastic Compliance Matrix: (Units=1/GPa)
#
#
# Indices 1 2 3 4 5 6 
#
# 1 0.011521 -0.000614 -0.004232 0.000015 0.001121 -0.000027
# 2 -0.000614 0.007768 -0.002146 0.000004 0.001461 -0.000007
# 3 -0.004232 -0.002146 0.010352 -0.000062 0.002980 0.000082
# 4 0.000015 0.000004 -0.000062 -0.001458 -0.000024 0.027062
# 5 0.001121 0.001461 0.002980 -0.000024 0.026227 0.000000
# 6 -0.000027 -0.000007 0.000082 0.027062 0.000000 0.029322
#
#
# Mechanical properties :
#
#
# Convention : Reuss Voigt Hill
#
# Bulk Modulus (GPa) = 63.87783 70.65831 67.26807
# Shear Modulus (GPa) = 48.57439 18.78026 33.67732
#
# Velocity S-wave (km/s) = 4.63961 2.88489 3.86319
# Velocity P-wave (km/s) = 7.55043 6.51224 7.05047
#
# Compressibility (1/GPa) = 0.01565488
#
# Stress axis : x y z
#
# Youngs Moduli (GPa) = 86.80111 128.73410 96.60383
#
# Poissons Ratio (x) = 0.07908 0.40887
# Poissons Ratio (y) = 0.05332 0.20730
# Poissons Ratio (z) = 0.36738 0.27625
#
# Static dielectric constant tensor:
#      x y z
#    x 4.289010 -0.000020 0.177260 
#    y -0.000020 4.485900 0.000080 
#    z 0.177260 0.000080 4.698940 
# 
# 
# High freq. dielectric constant tensor:
#      x y z
#    x 1.883910 0.000000 0.014680 
#    y 0.000000 1.907540 0.000000 
#    z 0.014680 0.000000 1.892930 
# 
# From -- ./inp_files/376557.got.cif
#   From: 2010.06.25/outbox.cif.g09.slc.cpg/sg12_189_cif.got.tgz:376557.got - 2010.06.28 00:19:55.
