data_PCOD8110958
_publ_section_title
;
Structure prediction by ZEFSAII (Michael W. Deem and Ramdas Pophale) SiO2 
 PCOD8110958
Probable space group: C 2/M
;
_chemical_formula_sum "Si O2"
_cell_formula_units_Z 48
_cell_length_a 19.383236
_cell_length_b 17.456742
_cell_length_c 16.775463
_cell_angle_alpha 90.000000
_cell_angle_beta 157.692916
_cell_angle_gamma 90.000000
_cell_volume 2154.549618
_symmetry_space_group_name_H-M "C 2/M"
_symmetry_group_IT_number 12
_symmetry_cell_setting 'monoclinic'
loop_
_space_group_symop_operation_xyz
x,y,z
-x,y,-z
-x,-y,-z
x,-y,z
1/2+x,1/2+y,z
1/2-x,1/2+y,-z
1/2-x,1/2-y,-z
1/2+x,1/2-y,z
loop_
_atom_site_type_symbol
_atom_site_label
_atom_site_fract_x
_atom_site_fract_y
_atom_site_fract_z
Si Si1 0.919808 0.087112 0.329108
Si Si2 0.305289 0.781085 0.318996
Si Si3 0.873300 0.082390 0.940577
Si Si4 0.737918 0.911652 0.415414
Si Si5 0.077381 0.317901 0.968486
Si Si6 0.858706 0.819872 0.689980
O O1 0.756723 0.141502 0.124380
O O2 0.000000 0.112321 0.500000
O O3 0.075617 0.096682 0.431196
O O4 0.848538 0.000000 0.257496
O O5 0.500000 0.746879 0.500000
O O6 0.289066 0.858715 0.249528
O O7 0.142553 0.722670 0.120889
O O8 0.279598 0.798138 0.385311
O O9 0.788067 0.000000 0.871835
O O10 0.000000 0.077314 0.000000
O O11 0.007574 0.108555 0.153807
O O12 0.738692 0.848282 0.487456
O O13 0.705800 0.000000 0.408808
O O14 0.573970 0.884735 0.181635
O O15 0.991763 0.253165 0.818073
#
# Coordination Sequence:
#
# PCOD8110958 Si02
#       6
#     8   8   8   8   8   8
#     4  10  24  43  67  98 129 171 224 273 324 386
#     4  10  22  38  62  97 132 171 224 269 317 389
#     4   8  15  32  57  83 120 169 213 255 307 377
#     4  11  25  45  68  95 134 175 214 272 335 390
#     4  11  23  41  68  94 131 172 217 268 322 393
#     4  10  22  40  63  96 132 173 215 265 335 391
#
# _framework density 22.278438999999999
#
# number of rings (size 3 to 8) (size 9 to 14) (size 15 to 20)
#    0.000    2.000    0.000    3.500    7.000    1.667 
#    6.000    2.500    0.000    0.000    0.000    0.000 
#    0.000    0.000    0.000    0.000    0.000    0.000 
#
# Total GULP energy -297326.072253 kJ/mol
# GULP energy per Si atom -12388.586344 kJ/mol
# Density = 2.222773 g / cm^3
# Si number density = 22.278439 Si / 1000 Ang^3
#
#
#
# Elastic Constant Matrix: (Units=GPa)
#
#
# Indices 1 2 3 4 5 6 
#
# 1 78.5367 40.8958 40.8136 -0.0013 -5.5116 -0.0004
# 2 40.8958 141.5633 77.5693 -0.0056 6.3667 -0.0025
# 3 40.8136 77.5693 110.5291 -0.0056 9.9713 -0.0034
# 4 -0.0013 -0.0056 -0.0056 30.2431 -0.0043 4.9342
# 5 -5.5116 6.3667 9.9713 -0.0043 29.2556 -0.0023
# 6 -0.0004 -0.0025 -0.0034 4.9342 -0.0023 21.2663
#
#
#
# Elastic Compliance Matrix: (Units=1/GPa)
#
#
# Indices 1 2 3 4 5 6 
#
# 1 0.017001 -0.002351 -0.005120 0.000000 0.005460 0.000000
# 2 -0.002351 0.011805 -0.007371 0.000001 -0.000500 0.000000
# 3 -0.005120 -0.007371 0.016563 0.000001 -0.005006 0.000001
# 4 0.000000 0.000001 0.000001 0.034366 0.000004 -0.007974
# 5 0.005460 -0.000500 -0.005006 0.000004 0.037025 0.000002
# 6 0.000000 0.000000 0.000001 -0.007974 0.000002 0.048873
#
#
# Mechanical properties :
#
#
# Convention : Reuss Voigt Hill
#
# Bulk Modulus (GPa) = 63.76252 72.13183 67.94718
# Shear Modulus (GPa) = 24.93190 27.57637 26.25413
#
# Velocity S-wave (km/s) = 3.34893 3.52206 3.43659
# Velocity P-wave (km/s) = 6.60580 6.99911 6.80530
#
# Compressibility (1/GPa) = 0.01568319
#
# Stress axis : x y z
#
# Youngs Moduli (GPa) = 58.81894 84.71129 60.37643
#
# Poissons Ratio (x) = 0.19919 0.30914
# Poissons Ratio (y) = 0.13831 0.44505
# Poissons Ratio (z) = 0.30116 0.62443
#
# Static dielectric constant tensor:
#      x y z
#    x 3.485710 0.000000 -0.162150 
#    y 0.000000 5.049870 -0.000010 
#    z -0.162150 -0.000010 4.271470 
# 
# 
# High freq. dielectric constant tensor:
#      x y z
#    x 1.830830 0.000000 -0.001440 
#    y 0.000000 1.906490 0.000000 
#    z -0.001440 0.000000 1.880020 
# 
# From -- ./inp_files/285445.got.cif
#   From: 2010.06.25/outbox.cif.g09.slc.cpg/sg12_143_cif.got.tgz:285445.got - 2010.06.28 00:19:55.
