data_PCOD8110638
_publ_section_title
;
Structure prediction by ZEFSAII (Michael W. Deem and Ramdas Pophale) SiO2 
 PCOD8110638
Probable space group: C 2/M
;
_chemical_formula_sum "Si O2"
_cell_formula_units_Z 64
_cell_length_a 8.892463
_cell_length_b 22.527539
_cell_length_c 21.090799
_cell_angle_alpha 90.000000
_cell_angle_beta 128.358741
_cell_angle_gamma 90.000000
_cell_volume 3313.010105
_symmetry_space_group_name_H-M "C 2/M"
_symmetry_group_IT_number 12
_symmetry_cell_setting 'monoclinic'
loop_
_space_group_symop_operation_xyz
x,y,z
-x,y,-z
-x,-y,-z
x,-y,z
1/2+x,1/2+y,z
1/2-x,1/2+y,-z
1/2-x,1/2-y,-z
1/2+x,1/2-y,z
loop_
_atom_site_type_symbol
_atom_site_label
_atom_site_fract_x
_atom_site_fract_y
_atom_site_fract_z
Si Si1 0.789208 0.397511 0.937087
Si Si2 0.817723 0.686341 0.409249
Si Si3 0.871268 0.936613 0.823046
Si Si4 0.553751 0.245762 0.684366
Si Si5 0.710718 0.692034 0.027552
Si Si6 0.237996 0.137016 0.783319
Si Si7 0.086904 0.655390 0.802317
Si Si8 0.356457 0.567780 0.674560
O O1 0.603572 0.439573 0.885555
O O2 0.791894 0.360348 0.871963
O O3 0.759546 0.360371 0.992620
O O4 0.000000 0.429225 0.000000
O O5 0.639899 0.723019 0.391886
O O6 0.841818 0.712668 0.345544
O O7 0.777698 0.615244 0.397371
O O8 0.000000 0.698628 0.500000
O O9 0.774121 0.884363 0.836997
O O10 0.796053 0.930265 0.731865
O O11 0.801835 0.000000 0.832286
O O12 0.686092 0.295658 0.750742
O O13 0.512859 0.194555 0.724777
O O14 0.855882 0.696774 0.124182
O O15 0.500000 0.685819 0.000000
O O16 0.750000 0.750000 0.000000
O O17 0.411041 0.115644 0.782737
O O18 0.074698 0.089246 0.725285
O O19 0.334106 0.500000 0.641850
#
# Coordination Sequence:
#
# PCOD8110638 Si02
#       8
#     8   8   8   8   8   8   8   8
#     4  11  21  39  55  82 119 150 196 250 300 345
#     4  11  22  38  63  93 124 154 186 238 299 356
#     4  10  22  40  61  82 110 156 206 252 294 347
#     4  11  22  38  57  91 122 154 194 233 289 363
#     4  12  25  36  54  84 118 153 193 247 298 349
#     4  10  22  36  60  84 118 161 198 240 297 351
#     4  12  22  37  60  83 117 160 199 244 296 356
#     4   9  20  40  62  86 118 155 201 245 287 353
#
# _framework density 19.317779000000002
#
# number of rings (size 3 to 8) (size 9 to 14) (size 15 to 20)
#    0.000    1.250    5.000    1.500    1.750    1.000 
#    0.000    1.250    0.000    0.000    0.000    0.875 
#    0.000    0.000    0.000    0.000    0.000    0.000 
#
# Total GULP energy -396539.000347 kJ/mol
# GULP energy per Si atom -12391.843761 kJ/mol
# Density = 1.927381 g / cm^3
# Si number density = 19.317779 Si / 1000 Ang^3
#
#
#
# Elastic Constant Matrix: (Units=GPa)
#
#
# Indices 1 2 3 4 5 6 
#
# 1 99.7040 30.2411 15.1697 0.0000 8.9875 0.0000
# 2 30.2411 101.0393 18.6199 0.0000 2.9030 0.0000
# 3 15.1697 18.6199 74.3226 0.0000 12.1536 0.0000
# 4 0.0000 0.0000 0.0000 12.7975 0.0000 -2.3987
# 5 8.9875 2.9030 12.1536 0.0000 28.3764 0.0000
# 6 0.0000 0.0000 0.0000 -2.3987 0.0000 17.0197
#
#
#
# Elastic Compliance Matrix: (Units=1/GPa)
#
#
# Indices 1 2 3 4 5 6 
#
# 1 0.011399 -0.003131 -0.001080 0.000000 -0.002827 0.000000
# 2 -0.003131 0.011237 -0.002312 0.000000 0.000832 0.000000
# 3 -0.001080 -0.002312 0.015226 0.000000 -0.005943 0.000000
# 4 0.000000 0.000000 0.000000 0.080261 0.000000 0.011312
# 5 -0.002827 0.000832 -0.005943 0.000000 0.038596 0.000000
# 6 0.000000 0.000000 0.000000 0.011312 0.000000 0.060350
#
#
# Mechanical properties :
#
#
# Convention : Reuss Voigt Hill
#
# Bulk Modulus (GPa) = 40.29793 44.79191 42.54492
# Shear Modulus (GPa) = 20.97440 25.70774 23.34107
#
# Velocity S-wave (km/s) = 3.29866 3.65195 3.47979
# Velocity P-wave (km/s) = 5.95097 6.40465 6.18197
#
# Compressibility (1/GPa) = 0.02481517
#
# Stress axis : x y z
#
# Youngs Moduli (GPa) = 87.72995 88.99553 65.67590
#
# Poissons Ratio (x) = 0.27868 0.07091
# Poissons Ratio (y) = 0.27472 0.15185
# Poissons Ratio (z) = 0.09472 0.20576
#
# Static dielectric constant tensor:
#      x y z
#    x 3.750650 0.000000 0.127890 
#    y 0.000000 3.227810 0.000000 
#    z 0.127890 0.000000 3.326550 
# 
# 
# High freq. dielectric constant tensor:
#      x y z
#    x 1.764770 0.000000 0.006030 
#    y 0.000000 1.738490 0.000000 
#    z 0.006030 0.000000 1.740620 
# 
# From -- ./inp_files/302355.got.cif
#   From: 2010.06.25/outbox.cif.g09.slc.cpg/sg12_152_cif.got.tgz:302355.got - 2010.06.28 00:19:55.
