data_PCOD8110000
_publ_section_title
;
Structure prediction by ZEFSAII (Michael W. Deem and Ramdas Pophale) SiO2 
 PCOD8110000
Probable space group: C 2/M
;
_chemical_formula_sum "Si O2"
_cell_formula_units_Z 44
_cell_length_a 28.132660
_cell_length_b 15.412009
_cell_length_c 16.349413
_cell_angle_alpha 90.000000
_cell_angle_beta 16.602208
_cell_angle_gamma 90.000000
_cell_volume 2025.447125
_symmetry_space_group_name_H-M "C 2/M"
_symmetry_group_IT_number 12
_symmetry_cell_setting 'monoclinic'
loop_
_space_group_symop_operation_xyz
x,y,z
-x,y,-z
-x,-y,-z
x,-y,z
1/2+x,1/2+y,z
1/2-x,1/2+y,-z
1/2-x,1/2-y,-z
1/2+x,1/2-y,z
loop_
_atom_site_type_symbol
_atom_site_label
_atom_site_fract_x
_atom_site_fract_y
_atom_site_fract_z
Si Si1 0.931893 0.000000 0.019676
Si Si2 0.429037 0.343459 0.745942
Si Si3 0.642912 0.312950 0.831728
Si Si4 0.569703 0.500000 0.617041
Si Si5 0.510134 0.829989 0.803792
Si Si6 0.958825 0.500000 0.974815
Si Si7 0.756787 0.815262 0.873291
O O1 0.829244 0.089499 0.178506
O O2 0.000000 0.000000 0.000000
O O3 0.062070 0.000000 0.728913
O O4 0.477549 0.418715 0.728461
O O5 0.321640 0.373118 0.843012
O O6 0.596182 0.298937 0.435054
O O7 0.311003 0.278406 0.989020
O O8 0.818018 0.283928 0.504453
O O9 0.500000 0.311457 0.000000
O O10 0.598552 0.243802 0.973459
O O11 0.763886 0.500000 0.274150
O O12 0.549951 0.913970 0.792100
O O13 0.399247 0.864425 0.910747
O O14 0.000000 0.500000 0.000000
#
# Coordination Sequence:
#
# PCOD8110000 Si02
#       7
#     4   8   8   4   8   4   8
#     4  10  25  44  68  93 134 176 224 280 348 414
#     4  10  22  41  69  99 136 178 225 282 337 413
#     4  11  25  42  68  95 136 180 231 283 348 415
#     4  12  24  44  69 100 135 180 233 281 348 406
#     4  12  24  43  66  98 136 180 228 284 343 404
#     4  12  29  41  65  97 139 179 233 293 332 406
#     4  10  21  40  66 100 135 178 225 277 341 403
#
# _framework density 21.723597999999999
#
# number of rings (size 3 to 8) (size 9 to 14) (size 15 to 20)
#    0.000    1.091    1.818    3.818    7.636    2.182 
#    0.000    0.000    0.000    9.818    0.000    0.000 
#    0.000    0.000    0.000    0.000    0.000    0.000 
#
# Total GULP energy -272662.093684 kJ/mol
# GULP energy per Si atom -12393.731531 kJ/mol
# Density = 2.167415 g / cm^3
# Si number density = 21.723598 Si / 1000 Ang^3
#
#
#
# Elastic Constant Matrix: (Units=GPa)
#
#
# Indices 1 2 3 4 5 6 
#
# 1 116.3254 35.7635 57.8691 -0.0002 -3.4637 -0.0002
# 2 35.7635 112.3014 37.7650 -0.0013 15.2527 -0.0005
# 3 57.8691 37.7650 150.1495 -0.0011 5.2918 -0.0006
# 4 -0.0002 -0.0013 -0.0011 28.6679 -0.0004 -1.1709
# 5 -3.4637 15.2527 5.2918 -0.0004 41.2842 0.0001
# 6 -0.0002 -0.0005 -0.0006 -1.1709 0.0001 29.5310
#
#
#
# Elastic Compliance Matrix: (Units=1/GPa)
#
#
# Indices 1 2 3 4 5 6 
#
# 1 0.011382 -0.002677 -0.003799 0.000000 0.002431 0.000000
# 2 -0.002677 0.010825 -0.001549 0.000000 -0.004025 0.000000
# 3 -0.003799 -0.001549 0.008543 0.000000 -0.000842 0.000000
# 4 0.000000 0.000000 0.000000 0.034939 0.000000 0.001385
# 5 0.002431 -0.004025 -0.000842 0.000000 0.026021 0.000000
# 6 0.000000 0.000000 0.000000 0.001385 0.000000 0.033918
#
#
# Mechanical properties :
#
#
# Convention : Reuss Voigt Hill
#
# Bulk Modulus (GPa) = 68.02822 71.28570 69.65696
# Shear Modulus (GPa) = 34.11143 36.38856 35.25000
#
# Velocity S-wave (km/s) = 3.96693 4.09720 4.03259
# Velocity P-wave (km/s) = 7.23640 7.43430 7.33602
#
# Compressibility (1/GPa) = 0.01469978
#
# Stress axis : x y z
#
# Youngs Moduli (GPa) = 87.85790 92.38035 117.04896
#
# Poissons Ratio (x) = 0.24733 0.44467
# Poissons Ratio (y) = 0.23523 0.18129
# Poissons Ratio (z) = 0.33377 0.14308
#
# Static dielectric constant tensor:
#      x y z
#    x 4.334690 -0.000010 0.044040 
#    y -0.000010 3.713000 0.000000 
#    z 0.044040 0.000000 4.044930 
# 
# 
# High freq. dielectric constant tensor:
#      x y z
#    x 1.871710 0.000000 0.002400 
#    y 0.000000 1.838190 0.000000 
#    z 0.002400 0.000000 1.858790 
# 
# From -- ./inp_files/246987.got.cif
#   From: 2010.06.25/outbox.cif.g09.slc.cpg/sg12_124_cif.got.tgz:246987.got - 2010.06.28 00:19:55.
