data_PCOD8110055
_publ_section_title
;
Structure prediction by ZEFSAII (Michael W. Deem and Ramdas Pophale) SiO2 
 PCOD8110055
Probable space group: C 2/M
;
_chemical_formula_sum "Si O2"
_cell_formula_units_Z 40
_cell_length_a 13.997518
_cell_length_b 21.296273
_cell_length_c 9.721012
_cell_angle_alpha 90.000000
_cell_angle_beta 34.829619
_cell_angle_gamma 90.000000
_cell_volume 1655.034927
_symmetry_space_group_name_H-M "C 2/M"
_symmetry_group_IT_number 12
_symmetry_cell_setting 'monoclinic'
loop_
_space_group_symop_operation_xyz
x,y,z
-x,y,-z
-x,-y,-z
x,-y,z
1/2+x,1/2+y,z
1/2-x,1/2+y,-z
1/2-x,1/2-y,-z
1/2+x,1/2-y,z
loop_
_atom_site_type_symbol
_atom_site_label
_atom_site_fract_x
_atom_site_fract_y
_atom_site_fract_z
Si Si1 0.364371 0.927199 0.435537
Si Si2 0.793616 0.368787 0.018334
Si Si3 0.654927 0.370560 0.900871
Si Si4 0.018936 0.748898 0.151878
Si Si5 0.222692 0.834743 0.400267
O O1 0.554495 0.918551 0.159835
O O2 0.328082 0.892539 0.624653
O O3 0.235905 0.895311 0.481670
O O4 0.322687 0.000000 0.497957
O O5 0.664386 0.389636 0.051332
O O6 0.866302 0.299385 0.898265
O O7 0.699752 0.363311 0.275045
O O8 0.500000 0.402628 0.000000
O O9 0.630935 0.294546 0.920743
O O10 0.933649 0.793253 0.367029
O O11 0.889404 0.708031 0.212659
#
# Coordination Sequence:
#
# PCOD8110055 Si02
#       5
#     8   8   8   8   8
#     4  11  25  47  72  97 133 181 229 276 332 401
#     4  11  25  40  70 101 133 181 224 274 337 398
#     4  12  24  44  65  97 140 179 225 278 330 394
#     4  10  21  40  67 101 143 168 220 273 343 407
#     4  10  22  42  69 102 136 175 218 282 338 395
#
# _framework density 24.168675
#
# number of rings (size 3 to 8) (size 9 to 14) (size 15 to 20)
#    0.000    1.200    2.000    4.800    5.600    4.400 
#    7.200    0.000    0.000    1.200    0.000    0.000 
#    0.000    0.000    0.000    0.000    0.000    0.000 
#
# Total GULP energy -247873.331464 kJ/mol
# GULP energy per Si atom -12393.666573 kJ/mol
# Density = 2.411367 g / cm^3
# Si number density = 24.168675 Si / 1000 Ang^3
#
#
#
# Elastic Constant Matrix: (Units=GPa)
#
#
# Indices 1 2 3 4 5 6 
#
# 1 106.3584 13.4155 31.8695 0.0000 42.7855 0.0001
# 2 13.4155 136.4197 56.8098 0.0000 8.7176 0.0000
# 3 31.8695 56.8098 115.5588 -0.0001 28.4228 0.0001
# 4 0.0000 0.0000 -0.0001 31.5523 0.0001 -2.0085
# 5 42.7855 8.7176 28.4228 0.0001 44.2811 -0.0001
# 6 0.0001 0.0000 0.0001 -2.0085 -0.0001 17.2400
#
#
#
# Elastic Compliance Matrix: (Units=1/GPa)
#
#
# Indices 1 2 3 4 5 6 
#
# 1 0.015444 -0.000383 -0.000498 0.000000 -0.014527 0.000000
# 2 -0.000383 0.009290 -0.004872 0.000000 0.001668 0.000000
# 3 -0.000498 -0.004872 0.012862 0.000000 -0.006816 0.000000
# 4 0.000000 0.000000 0.000000 0.031930 0.000000 0.003720
# 5 -0.014527 0.001668 -0.006816 0.000000 0.040666 0.000000
# 6 0.000000 0.000000 0.000000 0.003720 0.000000 0.058438
#
#
# Mechanical properties :
#
#
# Convention : Reuss Voigt Hill
#
# Bulk Modulus (GPa) = 38.32775 62.50292 50.41534
# Shear Modulus (GPa) = 26.47850 35.69747 31.08798
#
# Velocity S-wave (km/s) = 3.31353 3.84736 3.59038
# Velocity P-wave (km/s) = 5.52559 6.75674 6.17194
#
# Compressibility (1/GPa) = 0.02609076
#
# Stress axis : x y z
#
# Youngs Moduli (GPa) = 64.75210 107.64062 77.74634
#
# Poissons Ratio (x) = 0.04124 0.03869
# Poissons Ratio (y) = 0.02481 0.37877
# Poissons Ratio (z) = 0.03223 0.52440
#
# Static dielectric constant tensor:
#      x y z
#    x 4.243230 0.000000 0.045170 
#    y 0.000000 4.006160 0.000000 
#    z 0.045170 0.000000 4.526300 
# 
# 
# High freq. dielectric constant tensor:
#      x y z
#    x 1.956090 0.000000 0.010150 
#    y 0.000000 1.924370 0.000000 
#    z 0.010150 0.000000 1.969570 
# 
# From -- ./inp_files/65095.got.cif
#   From: 2010.06.25/outbox.cif.g09.slc.cpg/sg12_33_cif.got.tgz:65095.got - 2010.06.28 00:19:55.
