data_PCOD8110357
_publ_section_title
;
Structure prediction by ZEFSAII (Michael W. Deem and Ramdas Pophale) SiO2 
 PCOD8110357
Probable space group: C 2/M
;
_chemical_formula_sum "Si O2"
_cell_formula_units_Z 32
_cell_length_a 12.028939
_cell_length_b 14.178097
_cell_length_c 17.602816
_cell_angle_alpha 90.000000
_cell_angle_beta 154.363248
_cell_angle_gamma 90.000000
_cell_volume 1298.907759
_symmetry_space_group_name_H-M "C 2/M"
_symmetry_group_IT_number 12
_symmetry_cell_setting 'monoclinic'
loop_
_space_group_symop_operation_xyz
x,y,z
-x,y,-z
-x,-y,-z
x,-y,z
1/2+x,1/2+y,z
1/2-x,1/2+y,-z
1/2-x,1/2-y,-z
1/2+x,1/2-y,z
loop_
_atom_site_type_symbol
_atom_site_label
_atom_site_fract_x
_atom_site_fract_y
_atom_site_fract_z
Si Si1 0.973823 0.270283 0.800209
Si Si2 0.206707 0.608758 0.817334
Si Si3 0.740810 0.891759 0.561732
Si Si4 0.113757 0.104701 0.654150
O O1 0.010448 0.342939 0.754335
O O2 0.817518 0.177535 0.677269
O O3 0.838063 0.317748 0.790194
O O4 0.250000 0.250000 0.000000
O O5 0.217216 0.500000 0.848165
O O6 0.062632 0.620431 0.646821
O O7 0.500000 0.649629 0.000000
O O8 0.912147 0.865623 0.593940
O O9 0.790019 0.000000 0.617989
O O10 0.000000 0.110379 0.500000
O O11 0.221594 0.000000 0.737294
#
# Coordination Sequence:
#
# PCOD8110357 Si02
#       4
#     8   8   8   8
#     4  12  26  38  66  99 136 174 225 275 332 399
#     4  10  22  42  67  94 131 173 216 271 338 400
#     4  10  23  45  70  96 133 179 224 279 334 394
#     4  10  21  41  70  97 126 171 226 277 331 394
#
# _framework density 24.636085000000001
#
# number of rings (size 3 to 8) (size 9 to 14) (size 15 to 20)
#    0.000    1.500    2.500    1.500    3.500    2.000 
#    0.000    2.500    0.000    5.250    0.000    0.000 
#    0.000    0.000    0.000    0.000    0.000    0.000 
#
# Total GULP energy -198301.991307 kJ/mol
# GULP energy per Si atom -12393.874457 kJ/mol
# Density = 2.458001 g / cm^3
# Si number density = 24.636085 Si / 1000 Ang^3
#
#
#
# Elastic Constant Matrix: (Units=GPa)
#
#
# Indices 1 2 3 4 5 6 
#
# 1 98.4949 50.1629 19.5511 -0.0031 22.2822 0.0106
# 2 50.1629 109.1457 69.4935 0.0207 12.6825 0.0382
# 3 19.5511 69.4935 166.5353 0.0882 16.9842 -0.0088
# 4 -0.0031 0.0207 0.0882 35.7052 0.0381 7.9932
# 5 22.2822 12.6825 16.9842 0.0381 29.8280 -0.0584
# 6 0.0106 0.0382 -0.0088 7.9932 -0.0584 10.1245
#
#
#
# Elastic Compliance Matrix: (Units=1/GPa)
#
#
# Indices 1 2 3 4 5 6 
#
# 1 0.015795 -0.007587 0.002321 0.000025 -0.009895 -0.000062
# 2 -0.007587 0.016298 -0.006138 0.000016 0.002233 -0.000058
# 3 0.002321 -0.006138 0.008710 -0.000018 -0.004083 0.000019
# 4 0.000025 0.000016 -0.000018 0.034020 -0.000111 -0.026859
# 5 -0.009895 0.002233 -0.004083 -0.000111 0.042294 0.000330
# 6 -0.000062 -0.000058 0.000019 -0.026859 0.000330 0.119978
#
#
# Mechanical properties :
#
#
# Convention : Reuss Voigt Hill
#
# Bulk Modulus (GPa) = 55.57399 72.51010 64.04204
# Shear Modulus (GPa) = 18.80406 30.79610 24.80008
#
# Velocity S-wave (km/s) = 2.76574 3.53943 3.17623
# Velocity P-wave (km/s) = 5.72765 6.79704 6.28513
#
# Compressibility (1/GPa) = 0.01799403
#
# Stress axis : x y z
#
# Youngs Moduli (GPa) = 63.31265 61.35873 114.81069
#
# Poissons Ratio (x) = 0.46553 -0.26646
# Poissons Ratio (y) = 0.48036 0.70469
# Poissons Ratio (z) = -0.14694 0.37661
#
# Static dielectric constant tensor:
#      x y z
#    x 4.917960 -0.006780 0.592720 
#    y -0.006780 4.979970 0.004120 
#    z 0.592720 0.004120 4.250840 
# 
# 
# High freq. dielectric constant tensor:
#      x y z
#    x 1.978470 0.000000 0.017490 
#    y 0.000000 1.992780 -0.000010 
#    z 0.017490 -0.000010 1.972660 
# 
# From -- ./inp_files/45411.got.cif
#   From: 2010.06.25/outbox.cif.g09.slc.cpg/sg12_23_cif.got.tgz:45411.got - 2010.06.28 00:19:55.
