data_PCOD8110343
_publ_section_title
;
Structure prediction by ZEFSAII (Michael W. Deem and Ramdas Pophale) SiO2 
 PCOD8110343
Probable space group: C 2/M
;
_chemical_formula_sum "Si O2"
_cell_formula_units_Z 56
_cell_length_a 20.268042
_cell_length_b 24.324716
_cell_length_c 9.472030
_cell_angle_alpha 90.000000
_cell_angle_beta 146.087112
_cell_angle_gamma 90.000000
_cell_volume 2605.456047
_symmetry_space_group_name_H-M "C 2/M"
_symmetry_group_IT_number 12
_symmetry_cell_setting 'monoclinic'
loop_
_space_group_symop_operation_xyz
x,y,z
-x,y,-z
-x,-y,-z
x,-y,z
1/2+x,1/2+y,z
1/2-x,1/2+y,-z
1/2-x,1/2-y,-z
1/2+x,1/2-y,z
loop_
_atom_site_type_symbol
_atom_site_label
_atom_site_fract_x
_atom_site_fract_y
_atom_site_fract_z
Si Si1 0.839939 0.561188 0.039328
Si Si2 0.069929 0.723165 0.986290
Si Si3 0.135764 0.938647 0.237487
Si Si4 0.281140 0.595463 0.905443
Si Si5 0.474077 0.317739 0.296272
Si Si6 0.719603 0.357235 0.612081
Si Si7 0.459512 0.856653 0.575977
O O1 0.848135 0.500000 0.988725
O O2 0.763101 0.601740 0.809047
O O3 0.773734 0.556890 0.071686
O O4 0.972371 0.584777 0.290760
O O5 0.094523 0.773123 0.922168
O O6 0.987633 0.679790 0.760657
O O7 0.192075 0.694210 0.250126
O O8 0.000000 0.744320 0.000000
O O9 0.176791 0.941881 0.148828
O O10 0.211700 0.893052 0.455223
O O11 0.151422 0.000000 0.330899
O O12 0.000000 0.920155 0.000000
O O13 0.180664 0.636947 0.672259
O O14 0.391015 0.629336 0.163377
O O15 0.500000 0.295045 0.500000
O O16 0.594291 0.332586 0.430842
O O17 0.500000 0.828303 0.500000
#
# Coordination Sequence:
#
# PCOD8110343 Si02
#       7
#     8   8   8   8   8   8   8
#     4  10  21  41  69  97 129 171 215 266 324 382
#     4  11  26  43  67  94 124 175 217 271 327 386
#     4  11  23  39  62  93 133 173 207 259 323 383
#     4  11  22  40  64  95 132 168 215 267 316 391
#     4  12  26  43  65  94 129 173 218 270 331 379
#     4  11  24  45  65  96 133 167 219 272 318 393
#     4   9  21  41  64  95 130 162 214 267 320 383
#
# _framework density 21.493358000000001
#
# number of rings (size 3 to 8) (size 9 to 14) (size 15 to 20)
#    0.000    1.286    2.857    2.143    4.000    4.286 
#    0.000    0.714    0.000    4.714    0.000    0.000 
#    0.000    0.000    0.000    0.000    0.000    0.000 
#
# Total GULP energy -347221.327058 kJ/mol
# GULP energy per Si atom -12400.761681 kJ/mol
# Density = 2.144444 g / cm^3
# Si number density = 21.493358 Si / 1000 Ang^3
#
#
#
# Elastic Constant Matrix: (Units=GPa)
#
#
# Indices 1 2 3 4 5 6 
#
# 1 90.5018 13.6512 21.4488 0.0000 -8.3690 0.0000
# 2 13.6512 81.9696 27.3422 0.0000 -9.8301 0.0000
# 3 21.4488 27.3422 95.4349 0.0000 3.6024 0.0000
# 4 0.0000 0.0000 0.0000 26.2363 0.0000 -6.4959
# 5 -8.3690 -9.8301 3.6024 0.0000 35.6158 0.0000
# 6 0.0000 0.0000 0.0000 -6.4959 0.0000 22.2966
#
#
#
# Elastic Compliance Matrix: (Units=1/GPa)
#
#
# Indices 1 2 3 4 5 6 
#
# 1 0.012049 -0.000799 -0.002587 0.000000 0.002872 0.000000
# 2 -0.000799 0.014175 -0.004038 0.000000 0.004133 0.000000
# 3 -0.002587 -0.004038 0.012329 0.000000 -0.002969 0.000000
# 4 0.000000 0.000000 0.000000 0.041078 0.000000 0.011968
# 5 0.002872 0.004133 -0.002969 0.000000 0.030193 0.000000
# 6 0.000000 0.000000 0.000000 0.011968 0.000000 0.048337
#
#
# Mechanical properties :
#
#
# Convention : Reuss Voigt Hill
#
# Bulk Modulus (GPa) = 42.18607 43.64342 42.91474
# Shear Modulus (GPa) = 27.63788 30.52733 29.08260
#
# Velocity S-wave (km/s) = 3.58981 3.77279 3.68244
# Velocity P-wave (km/s) = 6.07062 6.27122 6.17174
#
# Compressibility (1/GPa) = 0.02370451
#
# Stress axis : x y z
#
# Youngs Moduli (GPa) = 82.99528 70.54578 81.11124
#
# Poissons Ratio (x) = 0.05637 0.20987
# Poissons Ratio (y) = 0.06632 0.32750
# Poissons Ratio (z) = 0.21475 0.28484
#
# Static dielectric constant tensor:
#      x y z
#    x 3.853310 0.000000 -0.082580 
#    y 0.000000 3.667920 0.000000 
#    z -0.082580 0.000000 4.024960 
# 
# 
# High freq. dielectric constant tensor:
#      x y z
#    x 1.845700 0.000000 -0.003190 
#    y 0.000000 1.835260 0.000000 
#    z -0.003190 0.000000 1.852570 
# 
# From -- ./inp_files/80129.got.cif
#   From: 2010.06.25/outbox.cif.g09.slc.cpg/sg12_41_cif.got.tgz:80129.got - 2010.06.28 00:19:55.
