data_PCOD8110262
_publ_section_title
;
Structure prediction by ZEFSAII (Michael W. Deem and Ramdas Pophale) SiO2 
 PCOD8110262
Probable space group: C 2/M
;
_chemical_formula_sum "Si O2"
_cell_formula_units_Z 40
_cell_length_a 24.206688
_cell_length_b 8.415728
_cell_length_c 16.976143
_cell_angle_alpha 90.000000
_cell_angle_beta 146.305602
_cell_angle_gamma 90.000000
_cell_volume 1918.552289
_symmetry_space_group_name_H-M "C 2/M"
_symmetry_group_IT_number 12
_symmetry_cell_setting 'monoclinic'
loop_
_space_group_symop_operation_xyz
x,y,z
-x,y,-z
-x,-y,-z
x,-y,z
1/2+x,1/2+y,z
1/2-x,1/2+y,-z
1/2-x,1/2-y,-z
1/2+x,1/2-y,z
loop_
_atom_site_type_symbol
_atom_site_label
_atom_site_fract_x
_atom_site_fract_y
_atom_site_fract_z
Si Si1 0.812619 0.315233 0.647239
Si Si2 0.029589 0.184805 0.892039
Si Si3 0.289619 0.687516 0.790120
Si Si4 0.098833 0.316149 0.652656
Si Si5 0.359227 0.816453 0.120995
O O1 0.791862 0.500000 0.629191
O O2 0.750000 0.250000 0.500000
O O3 0.774562 0.234243 0.681955
O O4 0.929422 0.285719 0.775125
O O5 0.081191 0.208618 0.869278
O O6 0.002895 0.000000 0.872320
O O7 0.104610 0.248087 0.049320
O O8 0.289931 0.500000 0.799596
O O9 0.199243 0.761574 0.734986
O O10 0.101280 0.500000 0.630980
O O11 0.088638 0.294884 0.733451
O O12 0.000000 0.233756 0.500000
O O13 0.358176 0.000000 0.092726
O O14 0.250000 0.750000 0.000000
#
# Coordination Sequence:
#
# PCOD8110262 Si02
#       5
#     8   8   8   8   8
#     4  12  27  45  65  93 125 163 210 264 322 379
#     4  11  23  42  66  94 128 168 211 262 319 378
#     4  10  21  41  66  92 127 170 211 256 315 376
#     4   9  19  36  60  91 126 166 207 249 310 375
#     4  11  21  37  62  94 127 168 212 260 314 374
#
# _framework density 20.849053000000001
#
# number of rings (size 3 to 8) (size 9 to 14) (size 15 to 20)
#    0.000    1.400    2.000    3.600    2.800    4.000 
#    0.000    0.000    0.000    3.000    0.000    0.000 
#    0.000    0.000    0.000    0.000    0.000    0.000 
#
# Total GULP energy -248029.758815 kJ/mol
# GULP energy per Si atom -12401.487941 kJ/mol
# Density = 2.080160 g / cm^3
# Si number density = 20.849053 Si / 1000 Ang^3
#
#
#
# Elastic Constant Matrix: (Units=GPa)
#
#
# Indices 1 2 3 4 5 6 
#
# 1 98.4886 -3.6032 33.3760 0.0000 -8.6957 0.0000
# 2 -3.6032 18.7613 21.3674 0.0000 -0.3545 0.0000
# 3 33.3760 21.3674 149.4692 0.0000 -10.3746 0.0000
# 4 0.0000 0.0000 0.0000 25.9963 0.0000 -1.6527
# 5 -8.6957 -0.3545 -10.3746 0.0000 34.4011 0.0000
# 6 0.0000 0.0000 0.0000 -1.6527 0.0000 35.5716
#
#
#
# Elastic Compliance Matrix: (Units=1/GPa)
#
#
# Indices 1 2 3 4 5 6 
#
# 1 0.011685 0.006086 -0.003340 0.000000 0.002009 0.000000
# 2 0.006086 0.066990 -0.011011 0.000000 -0.001092 0.000000
# 3 -0.003340 -0.011011 0.009135 0.000000 0.001797 0.000000
# 4 0.000000 0.000000 0.000000 0.038581 0.000000 0.001793
# 5 0.002009 -0.001092 0.001797 0.000000 0.030108 0.000000
# 6 0.000000 0.000000 0.000000 0.001793 0.000000 0.028196
#
#
# Mechanical properties :
#
#
# Convention : Reuss Voigt Hill
#
# Bulk Modulus (GPa) = 14.02917 40.99993 27.51455
# Shear Modulus (GPa) = 22.22369 33.56573 27.89471
#
# Velocity S-wave (km/s) = 3.26840 4.01676 3.66175
# Velocity P-wave (km/s) = 4.58114 6.42030 5.57706
#
# Compressibility (1/GPa) = 0.07128004
#
# Stress axis : x y z
#
# Youngs Moduli (GPa) = 85.57739 14.92754 109.46911
#
# Poissons Ratio (x) = -0.09085 0.36561
# Poissons Ratio (y) = -0.52082 1.20541
# Poissons Ratio (z) = 0.28582 0.16437
#
# Static dielectric constant tensor:
#      x y z
#    x 4.177480 0.000000 -0.095760 
#    y 0.000000 3.542800 0.000000 
#    z -0.095760 0.000000 4.005800 
# 
# 
# High freq. dielectric constant tensor:
#      x y z
#    x 1.828990 0.000000 -0.001430 
#    y 0.000000 1.792840 0.000000 
#    z -0.001430 0.000000 1.831320 
# 
# From -- ./inp_files/220565.got.cif
#   From: 2010.06.25/outbox.cif.g09.slc.cpg/sg12_111_cif.got.tgz:220565.got - 2010.06.28 00:19:55.
