data_PCOD8110817
_publ_section_title
;
Structure prediction by ZEFSAII (Michael W. Deem and Ramdas Pophale) SiO2 
 PCOD8110817
Probable space group: C 2/M
;
_chemical_formula_sum "Si O2"
_cell_formula_units_Z 64
_cell_length_a 19.797716
_cell_length_b 14.729968
_cell_length_c 17.512560
_cell_angle_alpha 90.000000
_cell_angle_beta 140.675076
_cell_angle_gamma 90.000000
_cell_volume 3236.399960
_symmetry_space_group_name_H-M "C 2/M"
_symmetry_group_IT_number 12
_symmetry_cell_setting 'monoclinic'
loop_
_space_group_symop_operation_xyz
x,y,z
-x,y,-z
-x,-y,-z
x,-y,z
1/2+x,1/2+y,z
1/2-x,1/2+y,-z
1/2-x,1/2-y,-z
1/2+x,1/2-y,z
loop_
_atom_site_type_symbol
_atom_site_label
_atom_site_fract_x
_atom_site_fract_y
_atom_site_fract_z
Si Si1 0.092549 0.176960 0.530779
Si Si2 0.517534 0.108014 0.224595
Si Si3 0.095876 0.600164 0.026466
Si Si4 0.110407 0.895452 0.138199
Si Si5 0.455263 0.255360 0.277327
Si Si6 0.736441 0.746593 0.784204
Si Si7 0.420687 0.608317 0.713070
Si Si8 0.752511 0.898083 0.446462
O O1 0.162198 0.241351 0.645177
O O2 0.168902 0.103822 0.557706
O O3 0.000000 0.127117 0.500000
O O4 0.037932 0.240024 0.419483
O O5 0.463666 0.155100 0.249736
O O6 0.639070 0.148576 0.328042
O O7 0.512574 0.000000 0.228346
O O8 0.452226 0.141050 0.093573
O O9 0.145883 0.500000 0.056355
O O10 0.183960 0.662566 0.141680
O O11 0.000000 0.590888 0.000000
O O12 0.199528 0.840054 0.169870
O O13 0.096229 0.864865 0.213755
O O14 0.145044 0.000000 0.164124
O O15 0.000000 0.877014 0.000000
O O16 0.333749 0.259987 0.200312
O O17 0.480057 0.335451 0.236859
O O18 0.442718 0.500000 0.721810
O O19 0.313356 0.640728 0.574395
O O20 0.722266 0.000000 0.438830
#
# Coordination Sequence:
#
# PCOD8110817 Si02
#       8
#     8   8   8   8   8   8   8   8
#     4   9  20  36  53  86 119 148 187 237 287 350
#     4  10  22  38  57  85 117 151 195 241 288 343
#     4  10  22  39  59  87 118 149 191 240 290 351
#     4  10  23  41  60  85 114 152 202 249 287 340
#     4  10  23  38  59  86 120 154 192 242 297 342
#     4  11  23  38  61  86 117 158 197 231 297 354
#     4   9  20  38  60  87 116 150 196 244 292 348
#     4   9  18  33  57  85 112 149 191 235 293 346
#
# _framework density 19.775058000000001
#
# number of rings (size 3 to 8) (size 9 to 14) (size 15 to 20)
#    0.000    2.250    0.000    1.125    7.000    4.250 
#    0.000    2.500    0.000    2.250    0.000    0.000 
#    0.000    0.000    0.000    0.000    0.000    0.000 
#
# Total GULP energy -396630.534595 kJ/mol
# GULP energy per Si atom -12394.704206 kJ/mol
# Density = 1.973005 g / cm^3
# Si number density = 19.775058 Si / 1000 Ang^3
#
#
#
# Elastic Constant Matrix: (Units=GPa)
#
#
# Indices 1 2 3 4 5 6 
#
# 1 102.1068 42.4593 42.2502 0.0000 1.6748 0.0000
# 2 42.4593 66.9549 39.6444 0.0000 5.7796 0.0000
# 3 42.2502 39.6444 79.5247 0.0000 -4.3760 0.0000
# 4 0.0000 0.0000 0.0000 30.7289 0.0000 -1.4702
# 5 1.6748 5.7796 -4.3760 0.0000 30.9712 0.0000
# 6 0.0000 0.0000 0.0000 -1.4702 0.0000 28.6112
#
#
#
# Elastic Compliance Matrix: (Units=1/GPa)
#
#
# Indices 1 2 3 4 5 6 
#
# 1 0.014295 -0.006450 -0.004390 0.000000 -0.000190 0.000000
# 2 -0.006450 0.025068 -0.009382 0.000000 -0.005655 0.000000
# 3 -0.004390 -0.009382 0.019848 0.000000 0.004792 0.000000
# 4 0.000000 0.000000 0.000000 0.032623 0.000000 0.001676
# 5 -0.000190 -0.005655 0.004792 0.000000 0.034031 0.000000
# 6 0.000000 0.000000 0.000000 0.001676 0.000000 0.035038
#
#
# Mechanical properties :
#
#
# Convention : Reuss Voigt Hill
#
# Bulk Modulus (GPa) = 53.27977 55.25492 54.26735
# Shear Modulus (GPa) = 24.08461 26.34441 25.21451
#
# Velocity S-wave (km/s) = 3.49367 3.65390 3.57468
# Velocity P-wave (km/s) = 6.57843 6.76784 6.67381
#
# Compressibility (1/GPa) = 0.01876885
#
# Stress axis : x y z
#
# Youngs Moduli (GPa) = 69.95335 39.89075 50.38360
#
# Poissons Ratio (x) = 0.25728 0.22119
# Poissons Ratio (y) = 0.45117 0.47268
# Poissons Ratio (z) = 0.30710 0.37424
#
# Static dielectric constant tensor:
#      x y z
#    x 3.699440 0.000000 -0.036070 
#    y 0.000000 3.449350 0.000000 
#    z -0.036070 0.000000 3.849110 
# 
# 
# High freq. dielectric constant tensor:
#      x y z
#    x 1.769050 0.000000 -0.007630 
#    y 0.000000 1.757830 0.000000 
#    z -0.007630 0.000000 1.780740 
# 
# From -- ./inp_files/278214.got.cif
#   From: 2010.06.25/outbox.cif.g09.slc.cpg/sg12_140_cif.got.tgz:278214.got - 2010.06.28 00:19:55.
