data_PCOD8110585
_publ_section_title
;
Structure prediction by ZEFSAII (Michael W. Deem and Ramdas Pophale) SiO2 
 PCOD8110585
Probable space group: C 2/M
;
_chemical_formula_sum "Si O2"
_cell_formula_units_Z 52
_cell_length_a 12.733329
_cell_length_b 12.966112
_cell_length_c 25.876974
_cell_angle_alpha 90.000000
_cell_angle_beta 42.620373
_cell_angle_gamma 90.000000
_cell_volume 2892.958411
_symmetry_space_group_name_H-M "C 2/M"
_symmetry_group_IT_number 12
_symmetry_cell_setting 'monoclinic'
loop_
_space_group_symop_operation_xyz
x,y,z
-x,y,-z
-x,-y,-z
x,-y,z
1/2+x,1/2+y,z
1/2-x,1/2+y,-z
1/2-x,1/2-y,-z
1/2+x,1/2-y,z
loop_
_atom_site_type_symbol
_atom_site_label
_atom_site_fract_x
_atom_site_fract_y
_atom_site_fract_z
Si Si1 0.500000 0.250696 0.500000
Si Si2 0.282624 0.880840 0.209009
Si Si3 0.640326 0.378342 0.988687
Si Si4 0.500755 0.619047 0.760154
Si Si5 0.435663 0.742807 0.882994
Si Si6 0.569922 0.619911 0.378706
Si Si7 0.212354 0.880680 0.589880
O O1 0.415502 0.319591 0.573342
O O2 0.631431 0.180877 0.478415
O O3 0.152118 0.848099 0.215613
O O4 0.436863 0.818953 0.139539
O O5 0.221344 0.857928 0.289107
O O6 0.323920 0.000000 0.187930
O O7 0.681284 0.500000 0.973626
O O8 0.787606 0.309715 0.918170
O O9 0.500000 0.355246 0.000000
O O10 0.601167 0.343916 0.061138
O O11 0.491043 0.500000 0.779868
O O12 0.512973 0.687262 0.806450
O O13 0.651849 0.638439 0.670119
O O14 0.558275 0.500000 0.396010
O O15 0.417062 0.656621 0.403601
O O16 0.249521 0.000000 0.567861
#
# Coordination Sequence:
#
# PCOD8110585 Si02
#       7
#     4   8   8   8   8   8   8
#     4  12  18  28  50  72  92 126 168 192 222 284
#     4   9  18  33  51  71  95 122 156 199 239 272
#     4  10  22  36  48  70 104 130 148 184 238 284
#     4   9  18  33  51  71  95 122 156 199 239 272
#     4  11  19  32  55  75  90 122 166 193 221 278
#     4   9  19  33  47  68  98 126 154 195 242 278
#     4   9  19  33  47  68  98 126 154 195 242 278
#
# _framework density 17.974678000000001
#
# number of rings (size 3 to 8) (size 9 to 14) (size 15 to 20)
#    0.000    2.308    0.000    5.538    0.000    0.000 
#    0.000    0.000    0.000    7.385    0.000   25.846 
#    0.000    0.000    0.000    0.000    0.000    0.000 
#
# Total GULP energy -322396.884937 kJ/mol
# GULP energy per Si atom -12399.880190 kJ/mol
# Density = 1.793377 g / cm^3
# Si number density = 17.974678 Si / 1000 Ang^3
#
#
#
# Elastic Constant Matrix: (Units=GPa)
#
#
# Indices 1 2 3 4 5 6 
#
# 1 51.3251 26.6576 4.2914 0.0000 -6.3117 0.0000
# 2 26.6576 57.9522 20.4223 0.0000 0.2054 0.0000
# 3 4.2914 20.4223 40.7187 0.0000 0.9283 0.0000
# 4 0.0000 0.0000 0.0000 17.5225 0.0000 -3.0826
# 5 -6.3117 0.2054 0.9283 0.0000 31.9398 0.0000
# 6 0.0000 0.0000 0.0000 -3.0826 0.0000 22.5069
#
#
#
# Elastic Compliance Matrix: (Units=1/GPa)
#
#
# Indices 1 2 3 4 5 6 
#
# 1 0.026989 -0.013834 0.003973 0.000000 0.005307 0.000000
# 2 -0.013834 0.028052 -0.012553 0.000000 -0.002549 0.000000
# 3 0.003973 -0.012553 0.030436 0.000000 -0.000019 0.000000
# 4 0.000000 0.000000 0.000000 0.058479 0.000000 0.008009
# 5 0.005307 -0.002549 -0.000019 0.000000 0.032375 0.000000
# 6 0.000000 0.000000 0.000000 0.008009 0.000000 0.045528
#
#
# Mechanical properties :
#
#
# Convention : Reuss Voigt Hill
#
# Bulk Modulus (GPa) = 24.60066 28.08207 26.34136
# Shear Modulus (GPa) = 17.84212 20.96883 19.40547
#
# Velocity S-wave (km/s) = 3.15401 3.41922 3.28929
# Velocity P-wave (km/s) = 5.19420 5.58974 5.39559
#
# Compressibility (1/GPa) = 0.04064932
#
# Stress axis : x y z
#
# Youngs Moduli (GPa) = 37.05199 35.64844 32.85533
#
# Poissons Ratio (x) = 0.49315 -0.13053
# Poissons Ratio (y) = 0.51256 0.41244
# Poissons Ratio (z) = -0.14720 0.44750
#
# Static dielectric constant tensor:
#      x y z
#    x 3.163140 0.000000 -0.029460 
#    y 0.000000 3.214790 0.000000 
#    z -0.029460 0.000000 3.214330 
# 
# 
# High freq. dielectric constant tensor:
#      x y z
#    x 1.690460 0.000000 -0.002470 
#    y 0.000000 1.696920 0.000000 
#    z -0.002470 0.000000 1.695560 
# 
# From -- ./inp_files/304131.got.cif
#   From: 2010.06.25/outbox.cif.g09.slc.cpg/sg12_153_cif.got.tgz:304131.got - 2010.06.28 00:19:55.
