data_PCOD8110903
_publ_section_title
;
Structure prediction by ZEFSAII (Michael W. Deem and Ramdas Pophale) SiO2 
 PCOD8110903
Probable space group: C 2/M
;
_chemical_formula_sum "Si O2"
_cell_formula_units_Z 56
_cell_length_a 19.684248
_cell_length_b 8.964180
_cell_length_c 16.306177
_cell_angle_alpha 90.000000
_cell_angle_beta 89.327967
_cell_angle_gamma 90.000000
_cell_volume 2877.078253
_symmetry_space_group_name_H-M "C 2/M"
_symmetry_group_IT_number 12
_symmetry_cell_setting 'monoclinic'
loop_
_space_group_symop_operation_xyz
x,y,z
-x,y,-z
-x,-y,-z
x,-y,z
1/2+x,1/2+y,z
1/2-x,1/2+y,-z
1/2-x,1/2-y,-z
1/2+x,1/2-y,z
loop_
_atom_site_type_symbol
_atom_site_label
_atom_site_fract_x
_atom_site_fract_y
_atom_site_fract_z
Si Si1 0.199500 0.169349 0.560967
Si Si2 0.822802 0.326285 0.990351
Si Si3 0.000854 0.826622 0.248219
Si Si4 0.453081 0.322369 0.426958
Si Si5 0.644079 0.672296 0.171513
Si Si6 0.385883 0.826354 0.162916
Si Si7 0.232714 0.169864 0.746042
O O1 0.250000 0.250000 0.500000
O O2 0.123631 0.240426 0.561234
O O3 0.233560 0.181084 0.648846
O O4 0.193362 0.000000 0.531482
O O5 0.809900 0.500000 0.977287
O O6 0.864141 0.261527 0.912982
O O7 0.750000 0.250000 0.000000
O O8 0.868700 0.294105 0.068808
O O9 0.080224 0.800402 0.231187
O O10 0.983746 0.767737 0.339790
O O11 0.961922 0.728505 0.180740
O O12 0.980864 0.000000 0.238365
O O13 0.500000 0.259815 0.500000
O O14 0.452135 0.500000 0.427901
O O15 0.653732 0.500000 0.148865
O O16 0.709765 0.725014 0.219111
O O17 0.339413 0.727130 0.222170
O O18 0.377076 0.000000 0.184153
O O19 0.243986 0.000000 0.775386
#
# Coordination Sequence:
#
# PCOD8110903 Si02
#       7
#     8   8   8   8   8   8   8
#     4  10  22  38  60  90 121 155 199 246 299 359
#     4  11  23  39  61  89 122 159 202 253 304 358
#     4  10  22  41  62  87 121 160 203 246 299 366
#     4   9  18  36  61  85 114 156 199 241 294 355
#     4  11  24  39  61  93 123 158 205 252 302 360
#     4  11  23  39  63  90 118 157 204 251 301 359
#     4  11  22  39  62  87 122 164 203 248 301 359
#
# _framework density 19.464189999999999
#
# number of rings (size 3 to 8) (size 9 to 14) (size 15 to 20)
#    0.000    1.571    2.857    1.714    2.000    4.571 
#    0.000    2.857    0.000    0.857    0.000    0.000 
#    0.000    0.000    0.000    0.000    0.000    0.000 
#
# Total GULP energy -347296.989596 kJ/mol
# GULP energy per Si atom -12403.463914 kJ/mol
# Density = 1.941989 g / cm^3
# Si number density = 19.464190 Si / 1000 Ang^3
#
#
#
# Elastic Constant Matrix: (Units=GPa)
#
#
# Indices 1 2 3 4 5 6 
#
# 1 61.3824 18.6284 27.3728 0.0000 -6.6260 0.0000
# 2 18.6284 67.4756 38.5918 0.0000 -4.2042 0.0000
# 3 27.3728 38.5918 99.5693 0.0000 -3.9043 0.0000
# 4 0.0000 0.0000 0.0000 28.5375 0.0000 -1.9808
# 5 -6.6260 -4.2042 -3.9043 0.0000 38.7912 0.0000
# 6 0.0000 0.0000 0.0000 -1.9808 0.0000 32.7056
#
#
#
# Elastic Compliance Matrix: (Units=1/GPa)
#
#
# Indices 1 2 3 4 5 6 
#
# 1 0.019251 -0.002808 -0.004103 0.000000 0.002571 0.000000
# 2 -0.002808 0.019519 -0.006756 0.000000 0.000956 0.000000
# 3 -0.004103 -0.006756 0.013788 0.000000 -0.000045 0.000000
# 4 0.000000 0.000000 0.000000 0.035190 0.000000 0.002131
# 5 0.002571 0.000956 -0.000045 0.000000 0.026317 0.000000
# 6 0.000000 0.000000 0.000000 0.002131 0.000000 0.030705
#
#
# Mechanical properties :
#
#
# Convention : Reuss Voigt Hill
#
# Bulk Modulus (GPa) = 39.64492 44.17928 41.91210
# Shear Modulus (GPa) = 27.69916 29.59579 28.64747
#
# Velocity S-wave (km/s) = 3.77647 3.90362 3.84057
# Velocity P-wave (km/s) = 6.27917 6.56237 6.42233
#
# Compressibility (1/GPa) = 0.02522391
#
# Stress axis : x y z
#
# Youngs Moduli (GPa) = 51.94610 51.23262 72.52683
#
# Poissons Ratio (x) = 0.14385 0.29759
# Poissons Ratio (y) = 0.14585 0.48998
# Poissons Ratio (z) = 0.21315 0.34612
#
# Static dielectric constant tensor:
#      x y z
#    x 3.600640 0.000000 0.051360 
#    y 0.000000 3.571810 0.000000 
#    z 0.051360 0.000000 3.722430 
# 
# 
# High freq. dielectric constant tensor:
#      x y z
#    x 1.763210 0.000000 0.003120 
#    y 0.000000 1.747710 0.000000 
#    z 0.003120 0.000000 1.768130 
# 
# From -- ./inp_files/231030.got.cif
#   From: 2010.06.25/outbox.cif.g09.slc.cpg/sg12_116_cif.got.tgz:231030.got - 2010.06.28 00:19:55.
