data_PCOD8110856
_publ_section_title
;
Structure prediction by ZEFSAII (Michael W. Deem and Ramdas Pophale) SiO2 
 PCOD8110856
Probable space group: C 2/M
;
_chemical_formula_sum "Si O2"
_cell_formula_units_Z 48
_cell_length_a 12.199397
_cell_length_b 13.123263
_cell_length_c 14.724869
_cell_angle_alpha 90.000000
_cell_angle_beta 116.688373
_cell_angle_gamma 90.000000
_cell_volume 2106.240650
_symmetry_space_group_name_H-M "C 2/M"
_symmetry_group_IT_number 12
_symmetry_cell_setting 'monoclinic'
loop_
_space_group_symop_operation_xyz
x,y,z
-x,y,-z
-x,-y,-z
x,-y,z
1/2+x,1/2+y,z
1/2-x,1/2+y,-z
1/2-x,1/2-y,-z
1/2+x,1/2-y,z
loop_
_atom_site_type_symbol
_atom_site_label
_atom_site_fract_x
_atom_site_fract_y
_atom_site_fract_z
Si Si1 0.442545 0.115401 0.266161
Si Si2 0.183281 0.118177 0.091436
Si Si3 0.310689 0.613619 0.570227
Si Si4 0.432444 0.320848 0.325013
Si Si5 0.799157 0.678209 0.653956
Si Si6 0.533595 0.620712 0.867114
O O1 0.327129 0.140274 0.157944
O O2 0.441384 0.198167 0.347974
O O3 0.571497 0.134459 0.260620
O O4 0.434153 0.000000 0.300667
O O5 0.098247 0.161322 0.142474
O O6 0.152780 0.000000 0.079318
O O7 0.138778 0.158494 0.976652
O O8 0.289430 0.500000 0.603121
O O9 0.451748 0.622603 0.586403
O O10 0.218979 0.631507 0.453220
O O11 0.295164 0.698054 0.643883
O O12 0.306178 0.363512 0.318614
O O13 0.435741 0.328961 0.217415
O O14 0.532900 0.500000 0.850626
#
# Coordination Sequence:
#
# PCOD8110856 Si02
#       6
#     8   8   8   8   8   8
#     4  10  22  38  59  84 120 162 193 239 302 354
#     4   8  17  36  61  86 118 157 201 244 289 351
#     4  10  22  41  64  86 117 163 203 238 291 356
#     4  11  23  36  61  92 118 152 200 250 295 350
#     4  10  23  41  59  92 124 150 197 250 299 353
#     4   9  18  35  61  92 118 152 202 250 290 346
#
# _framework density 22.789418999999999
#
# number of rings (size 3 to 8) (size 9 to 14) (size 15 to 20)
#    0.000    2.333    0.000    2.500    4.667    4.667 
#    0.000    0.833    0.000    9.000    0.000    0.000 
#    0.000    0.000    0.000    0.000    0.000    0.000 
#
# Total GULP energy -297346.749114 kJ/mol
# GULP energy per Si atom -12389.447880 kJ/mol
# Density = 2.273755 g / cm^3
# Si number density = 22.789419 Si / 1000 Ang^3
#
#
#
# Elastic Constant Matrix: (Units=GPa)
#
#
# Indices 1 2 3 4 5 6 
#
# 1 137.1779 -7.4553 58.5750 0.0000 27.5042 0.0000
# 2 -7.4553 102.2340 17.4073 0.0000 7.8291 0.0000
# 3 58.5750 17.4073 95.3118 0.0000 19.9433 0.0000
# 4 0.0000 0.0000 0.0000 19.4159 0.0000 10.7959
# 5 27.5042 7.8291 19.9433 0.0000 40.3853 0.0000
# 6 0.0000 0.0000 0.0000 10.7959 0.0000 18.8367
#
#
#
# Elastic Compliance Matrix: (Units=1/GPa)
#
#
# Indices 1 2 3 4 5 6 
#
# 1 0.011021 0.002227 -0.006155 0.000000 -0.004898 0.000000
# 2 0.002227 0.010595 -0.002851 0.000000 -0.002163 0.000000
# 3 -0.006155 -0.002851 0.015393 0.000000 -0.002857 0.000000
# 4 0.000000 0.000000 0.000000 0.075595 0.000000 -0.043326
# 5 -0.004898 -0.002163 -0.002857 0.000000 0.029927 0.000000
# 6 0.000000 0.000000 0.000000 -0.043326 0.000000 0.077919
#
#
# Mechanical properties :
#
#
# Convention : Reuss Voigt Hill
#
# Bulk Modulus (GPa) = 42.64275 52.41974 47.53124
# Shear Modulus (GPa) = 20.67604 33.47402 27.07503
#
# Velocity S-wave (km/s) = 3.01535 3.83670 3.45055
# Velocity P-wave (km/s) = 5.55656 6.53290 6.06441
#
# Compressibility (1/GPa) = 0.02345065
#
# Stress axis : x y z
#
# Youngs Moduli (GPa) = 90.73560 94.38495 64.96482
#
# Poissons Ratio (x) = -0.21017 0.39985
# Poissons Ratio (y) = -0.20205 0.18521
# Poissons Ratio (z) = 0.55847 0.26909
#
# Static dielectric constant tensor:
#      x y z
#    x 4.143440 0.000000 0.428480 
#    y 0.000000 4.151270 0.000000 
#    z 0.428480 0.000000 3.969900 
# 
# 
# High freq. dielectric constant tensor:
#      x y z
#    x 1.893880 0.000000 0.031310 
#    y 0.000000 1.892000 0.000000 
#    z 0.031310 0.000000 1.884090 
# 
# From -- ./inp_files/205143.got.cif
#   From: 2010.06.25/outbox.cif.g09.slc.cpg/sg12_103_cif.got.tgz:205143.got - 2010.06.28 00:19:55.
