data_PCOD8110063
_publ_section_title
;
Structure prediction by ZEFSAII (Michael W. Deem and Ramdas Pophale) SiO2 
 PCOD8110063
Probable space group: C 2/M
;
_chemical_formula_sum "Si O2"
_cell_formula_units_Z 40
_cell_length_a 10.183018
_cell_length_b 14.530201
_cell_length_c 14.211395
_cell_angle_alpha 90.000000
_cell_angle_beta 69.383496
_cell_angle_gamma 90.000000
_cell_volume 1968.073321
_symmetry_space_group_name_H-M "C 2/M"
_symmetry_group_IT_number 12
_symmetry_cell_setting 'monoclinic'
loop_
_space_group_symop_operation_xyz
x,y,z
-x,y,-z
-x,-y,-z
x,-y,z
1/2+x,1/2+y,z
1/2-x,1/2+y,-z
1/2-x,1/2-y,-z
1/2+x,1/2-y,z
loop_
_atom_site_type_symbol
_atom_site_label
_atom_site_fract_x
_atom_site_fract_y
_atom_site_fract_z
Si Si1 0.914363 0.109065 0.435334
Si Si2 0.382842 0.607754 0.778177
Si Si3 0.421140 0.109006 0.227460
Si Si4 0.392041 0.890699 0.450296
Si Si5 0.590420 0.746393 0.069453
O O1 0.757937 0.149608 0.479579
O O2 0.000000 0.151817 0.500000
O O3 0.992782 0.139936 0.321738
O O4 0.910363 0.000000 0.445361
O O5 0.385530 0.500000 0.795896
O O6 0.231658 0.636434 0.774347
O O7 0.422930 0.655982 0.864515
O O8 0.430404 0.140130 0.334435
O O9 0.540758 0.162488 0.138693
O O10 0.448591 0.000000 0.209376
O O11 0.500000 0.851122 0.500000
O O12 0.388753 0.000000 0.453694
O O13 0.500000 0.732242 0.000000
O O14 0.750000 0.750000 0.000000
#
# Coordination Sequence:
#
# PCOD8110063 Si02
#       5
#     8   8   8   8   8
#     4   9  15  29  58  90 120 158 200 241 292 364
#     4  10  21  40  67  94 123 165 211 250 305 380
#     4  10  21  41  68  92 122 169 211 244 307 387
#     4   9  17  31  56  93 130 159 195 247 302 361
#     4  12  26  44  64  91 124 157 209 278 320 352
#
# _framework density 20.324445999999998
#
# number of rings (size 3 to 8) (size 9 to 14) (size 15 to 20)
#    0.000    2.000    4.000    0.000    0.000    3.200 
#    0.000    4.000    0.000    0.000    0.000    0.000 
#    0.000    0.000    0.000    0.000    0.000    0.000 
#
# Total GULP energy -247937.794018 kJ/mol
# GULP energy per Si atom -12396.889701 kJ/mol
# Density = 2.027819 g / cm^3
# Si number density = 20.324446 Si / 1000 Ang^3
#
#
#
# Elastic Constant Matrix: (Units=GPa)
#
#
# Indices 1 2 3 4 5 6 
#
# 1 179.1689 37.5600 110.8054 0.0000 -1.8573 0.0000
# 2 37.5600 59.8889 54.7758 0.0000 -0.2845 0.0000
# 3 110.8054 54.7758 189.4951 0.0000 0.6562 0.0000
# 4 0.0000 0.0000 0.0000 -445.9458 0.0000 -56.5202
# 5 -1.8573 -0.2845 0.6562 0.0000 48.6238 0.0000
# 6 0.0000 0.0000 0.0000 -56.5202 0.0000 9.2575
#
#
#
# Elastic Compliance Matrix: (Units=1/GPa)
#
#
# Indices 1 2 3 4 5 6 
#
# 1 0.008804 -0.001101 -0.004831 0.000000 0.000395 0.000000
# 2 -0.001101 0.022839 -0.005959 0.000000 0.000172 0.000000
# 3 -0.004831 -0.005959 0.009826 0.000000 -0.000352 0.000000
# 4 0.000000 0.000000 0.000000 -0.001264 0.000000 -0.007718
# 5 0.000395 0.000172 -0.000352 0.000000 0.020587 0.000000
# 6 0.000000 0.000000 0.000000 -0.007718 0.000000 0.060898
#
#
# Mechanical properties :
#
#
# Convention : Reuss Voigt Hill
#
# Bulk Modulus (GPa) = 56.53854 92.75945 74.64899
# Shear Modulus (GPa) = 33.03245 -62.58546 -14.77651
#
# Velocity S-wave (km/s) = 4.03582 -5.55518 -2.69928
# Velocity P-wave (km/s) = 7.04241 2.14283 5.20515
#
# Compressibility (1/GPa) = 0.01768705
#
# Stress axis : x y z
#
# Youngs Moduli (GPa) = 113.58445 43.78517 101.77275
#
# Poissons Ratio (x) = 0.04820 0.49168
# Poissons Ratio (y) = 0.12505 0.60643
# Poissons Ratio (z) = 0.54875 0.26090
#
# Static dielectric constant tensor:
#      x y z
#    x 3.985510 0.000000 -0.187520 
#    y 0.000000 3.393570 0.000000 
#    z -0.187520 0.000000 4.184630 
# 
# 
# High freq. dielectric constant tensor:
#      x y z
#    x 1.799570 0.000000 -0.001950 
#    y 0.000000 1.782010 0.000000 
#    z -0.001950 0.000000 1.804660 
# 
# From -- ./inp_files/118897.got.cif
#   From: 2010.06.25/outbox.cif.g09.slc.cpg/sg12_60_cif.got.tgz:118897.got - 2010.06.28 00:19:55.
