data_PCOD8110934
_publ_section_title
;
Structure prediction by ZEFSAII (Michael W. Deem and Ramdas Pophale) SiO2 
 PCOD8110934
Probable space group: C 2/M
;
_chemical_formula_sum "Si O2"
_cell_formula_units_Z 56
_cell_length_a 12.855584
_cell_length_b 18.907502
_cell_length_c 11.773118
_cell_angle_alpha 90.000000
_cell_angle_beta 110.678602
_cell_angle_gamma 90.000000
_cell_volume 2677.296830
_symmetry_space_group_name_H-M "C 2/M"
_symmetry_group_IT_number 12
_symmetry_cell_setting 'monoclinic'
loop_
_space_group_symop_operation_xyz
x,y,z
-x,y,-z
-x,-y,-z
x,-y,z
1/2+x,1/2+y,z
1/2-x,1/2+y,-z
1/2-x,1/2-y,-z
1/2+x,1/2-y,z
loop_
_atom_site_type_symbol
_atom_site_label
_atom_site_fract_x
_atom_site_fract_y
_atom_site_fract_z
Si Si1 0.721007 0.919689 0.253786
Si Si2 0.729286 0.689245 0.337250
Si Si3 0.505648 0.294378 0.132294
Si Si4 0.867305 0.176932 0.455696
Si Si5 0.510481 0.862206 0.871476
Si Si6 0.287649 0.920122 0.178395
Si Si7 0.143687 0.079889 0.910784
O O1 0.822653 0.887665 0.364117
O O2 0.609186 0.875272 0.232890
O O3 0.751079 0.916838 0.132128
O O4 0.702471 0.000000 0.286540
O O5 0.630929 0.717612 0.220382
O O6 0.821909 0.748874 0.390615
O O7 0.675819 0.663283 0.433939
O O8 0.787648 0.625297 0.293178
O O9 0.446991 0.218580 0.132083
O O10 0.444595 0.361257 0.168060
O O11 0.500000 0.313813 0.000000
O O12 0.000000 0.178979 0.500000
O O13 0.597375 0.912973 0.844584
O O14 0.500000 0.880800 0.000000
O O15 0.275104 0.000000 0.214487
O O16 0.186347 0.900765 0.053805
O O17 0.091801 0.000000 0.888307
#
# Coordination Sequence:
#
# PCOD8110934 Si02
#       7
#     8   8   8   8   8   8   8
#     4  11  23  42  67  96 130 173 227 276 327 397
#     4  11  25  44  67 100 133 174 222 276 338 397
#     4  11  22  38  65 100 130 172 213 271 337 397
#     4  11  26  47  70  93 129 178 229 280 330 391
#     4  11  23  38  66 102 141 177 221 267 334 409
#     4  11  24  40  64 100 142 181 215 270 340 401
#     4  10  22  38  61  97 138 176 215 270 334 396
#
# _framework density 20.916620999999999
#
# number of rings (size 3 to 8) (size 9 to 14) (size 15 to 20)
#    0.000    1.143    4.286    1.286    4.000    2.857 
#    0.000    0.000    0.000    2.143    0.000    0.000 
#    0.000    0.000    0.000    0.000    0.000    0.000 
#
# Total GULP energy -347214.793937 kJ/mol
# GULP energy per Si atom -12400.528355 kJ/mol
# Density = 2.086901 g / cm^3
# Si number density = 20.916621 Si / 1000 Ang^3
#
#
#
# Elastic Constant Matrix: (Units=GPa)
#
#
# Indices 1 2 3 4 5 6 
#
# 1 107.0232 59.1831 42.6633 0.0000 12.4602 0.0000
# 2 59.1831 131.1345 47.5719 0.0000 -4.1437 0.0000
# 3 42.6633 47.5719 104.7100 0.0000 -1.1124 0.0000
# 4 0.0000 0.0000 0.0000 29.9754 0.0000 0.2002
# 5 12.4602 -4.1437 -1.1124 0.0000 36.6006 0.0000
# 6 0.0000 0.0000 0.0000 0.2002 0.0000 32.0447
#
#
#
# Elastic Compliance Matrix: (Units=1/GPa)
#
#
# Indices 1 2 3 4 5 6 
#
# 1 0.014364 -0.005406 -0.003456 0.000000 -0.005607 0.000000
# 2 -0.005406 0.011196 -0.002852 0.000000 0.003021 0.000000
# 3 -0.003456 -0.002852 0.012267 0.000000 0.001226 0.000000
# 4 0.000000 0.000000 0.000000 0.033362 0.000000 -0.000208
# 5 -0.005607 0.003021 0.001226 0.000000 0.029610 0.000000
# 6 0.000000 0.000000 0.000000 -0.000208 0.000000 0.031208
#
#
# Mechanical properties :
#
#
# Convention : Reuss Voigt Hill
#
# Bulk Modulus (GPa) = 69.44923 71.30049 70.37486
# Shear Modulus (GPa) = 31.20460 32.62077 31.91269
#
# Velocity S-wave (km/s) = 3.86665 3.95341 3.91027
# Velocity P-wave (km/s) = 7.29449 7.41628 7.35564
#
# Compressibility (1/GPa) = 0.01439901
#
# Stress axis : x y z
#
# Youngs Moduli (GPa) = 69.61987 89.32118 81.52063
#
# Poissons Ratio (x) = 0.48288 0.28173
# Poissons Ratio (y) = 0.37637 0.23246
# Poissons Ratio (z) = 0.24060 0.25471
#
# Static dielectric constant tensor:
#      x y z
#    x 3.663750 0.000000 0.063200 
#    y 0.000000 3.805900 0.000000 
#    z 0.063200 0.000000 3.798170 
# 
# 
# High freq. dielectric constant tensor:
#      x y z
#    x 1.816230 0.000000 0.000960 
#    y 0.000000 1.828090 0.000000 
#    z 0.000960 0.000000 1.810700 
# 
# From -- ./inp_files/145672.got.cif
#   From: 2010.06.25/outbox.cif.g09.slc.cpg/sg12_73_cif.got.tgz:145672.got - 2010.06.28 00:19:55.
