data_PCOD8110550
_publ_section_title
;
Structure prediction by ZEFSAII (Michael W. Deem and Ramdas Pophale) SiO2 
 PCOD8110550
Probable space group: C 2/M
;
_chemical_formula_sum "Si O2"
_cell_formula_units_Z 56
_cell_length_a 21.040329
_cell_length_b 30.278812
_cell_length_c 9.276027
_cell_angle_alpha 90.000000
_cell_angle_beta 28.552502
_cell_angle_gamma 90.000000
_cell_volume 2824.544436
_symmetry_space_group_name_H-M "C 2/M"
_symmetry_group_IT_number 12
_symmetry_cell_setting 'monoclinic'
loop_
_space_group_symop_operation_xyz
x,y,z
-x,y,-z
-x,-y,-z
x,-y,z
1/2+x,1/2+y,z
1/2-x,1/2+y,-z
1/2-x,1/2-y,-z
1/2+x,1/2-y,z
loop_
_atom_site_type_symbol
_atom_site_label
_atom_site_fract_x
_atom_site_fract_y
_atom_site_fract_z
Si Si1 0.494330 0.713092 0.837688
Si Si2 0.158021 0.905016 0.714025
Si Si3 0.640131 0.500000 0.140261
Si Si4 0.268390 0.652514 0.181547
Si Si5 0.654749 0.408254 0.211263
Si Si6 0.139484 0.000000 0.798447
Si Si7 0.994234 0.305853 0.683013
Si Si8 0.771897 0.852605 0.685303
O O1 0.507506 0.761099 0.745008
O O2 0.612116 0.683591 0.538551
O O3 0.500000 0.714668 0.000000
O O4 0.353670 0.694597 0.062179
O O5 0.188949 0.890200 0.813474
O O6 0.242907 0.871578 0.446406
O O7 0.211642 0.955449 0.598866
O O8 0.000000 0.900296 0.000000
O O9 0.500000 0.500000 0.500000
O O10 0.719500 0.455226 0.031302
O O11 0.619854 0.500000 0.009269
O O12 0.113846 0.663716 0.499249
O O13 0.295234 0.636382 0.966221
O O14 0.500000 0.413770 0.500000
O O15 0.689619 0.397487 0.306604
O O16 0.000000 0.000000 0.000000
O O17 0.000000 0.296713 0.500000
O O18 0.861378 0.330899 0.991729
#
# Coordination Sequence:
#
# PCOD8110550 Si02
#       8
#     8   8   4   8   8   4   8   8
#     4  12  26  45  67  93 124 163 218 267 316 373
#     4  11  21  41  67  98 128 166 210 260 317 373
#     4  10  22  34  58 103 131 161 209 260 316 369
#     4  12  22  43  67  89 132 169 208 258 317 376
#     4  11  21  37  67  94 127 170 209 256 315 372
#     4  10  22  34  60  99 136 156 204 273 311 364
#     4  12  30  43  61  96 128 168 214 264 315 375
#     4  12  24  43  66  92 130 166 213 258 316 380
#
# _framework density 19.826205999999999
#
# number of rings (size 3 to 8) (size 9 to 14) (size 15 to 20)
#    0.000    0.571    7.143    0.857   10.000    2.286 
#    0.000    0.000    0.000    5.143    0.000    0.000 
#    0.000    0.000    0.000    0.000    0.000    0.000 
#
# Total GULP energy -347081.773291 kJ/mol
# GULP energy per Si atom -12395.777618 kJ/mol
# Density = 1.978108 g / cm^3
# Si number density = 19.826206 Si / 1000 Ang^3
#
#
#
# Elastic Constant Matrix: (Units=GPa)
#
#
# Indices 1 2 3 4 5 6 
#
# 1 66.6997 34.3760 36.7351 -0.0021 -5.7244 -0.0059
# 2 34.3760 134.3823 40.1335 0.0003 0.1446 0.0007
# 3 36.7351 40.1335 95.3851 -0.0053 -0.0034 -0.0146
# 4 -0.0021 0.0003 -0.0053 506.5987 0.0030 1194.5508
# 5 -5.7244 0.1446 -0.0034 0.0030 26.2759 0.0082
# 6 -0.0059 0.0007 -0.0146 1194.5508 0.0082 2963.3053
#
#
#
# Elastic Compliance Matrix: (Units=1/GPa)
#
#
# Indices 1 2 3 4 5 6 
#
# 1 0.020726 -0.003343 -0.006575 0.000000 0.004533 0.000000
# 2 -0.003343 0.009050 -0.002520 0.000000 -0.000778 0.000000
# 3 -0.006575 -0.002520 0.014077 0.000000 -0.001417 0.000000
# 4 0.000000 0.000000 0.000000 0.039907 0.000000 -0.016087
# 5 0.004533 -0.000778 -0.001417 0.000000 0.039049 0.000000
# 6 0.000000 0.000000 0.000000 -0.016087 0.000000 0.006822
#
#
# Mechanical properties :
#
#
# Convention : Reuss Voigt Hill
#
# Bulk Modulus (GPa) = 52.70050 57.66183 55.18117
# Shear Modulus (GPa) = 31.08792 711.58413 371.33603
#
# Velocity S-wave (km/s) = 3.96412 18.96550 13.70044
# Velocity P-wave (km/s) = 6.89864 22.55512 16.67820
#
# Compressibility (1/GPa) = 0.01897515
#
# Stress axis : x y z
#
# Youngs Moduli (GPa) = 48.24877 110.49487 71.04004
#
# Poissons Ratio (x) = 0.36938 0.46711
# Poissons Ratio (y) = 0.16130 0.17905
# Poissons Ratio (z) = 0.31725 0.27850
#
# Static dielectric constant tensor:
#      x y z
#    x 3.769480 0.000000 0.233340 
#    y 0.000000 4.401820 0.000000 
#    z 0.233340 0.000000 3.437170 
# 
# 
# High freq. dielectric constant tensor:
#      x y z
#    x 1.779940 0.000000 0.025310 
#    y 0.000000 1.793640 0.000000 
#    z 0.025310 0.000000 1.748270 
# 
# From -- ./inp_files/91575.got.cif
#   From: 2010.06.25/outbox.cif.g09.slc.cpg/sg12_46_cif.got.tgz:91575.got - 2010.06.28 00:19:55.
