data_PCOD8110717
_publ_section_title
;
Structure prediction by ZEFSAII (Michael W. Deem and Ramdas Pophale) SiO2 
 PCOD8110717
Probable space group: C 2/M
;
_chemical_formula_sum "Si O2"
_cell_formula_units_Z 32
_cell_length_a 8.289153
_cell_length_b 27.431428
_cell_length_c 8.603197
_cell_angle_alpha 90.000000
_cell_angle_beta 49.471860
_cell_angle_gamma 90.000000
_cell_volume 1486.899760
_symmetry_space_group_name_H-M "C 2/M"
_symmetry_group_IT_number 12
_symmetry_cell_setting 'monoclinic'
loop_
_space_group_symop_operation_xyz
x,y,z
-x,y,-z
-x,-y,-z
x,-y,z
1/2+x,1/2+y,z
1/2-x,1/2+y,-z
1/2-x,1/2-y,-z
1/2+x,1/2-y,z
loop_
_atom_site_type_symbol
_atom_site_label
_atom_site_fract_x
_atom_site_fract_y
_atom_site_fract_z
Si Si1 0.380219 0.420671 0.913045
Si Si2 0.612793 0.762428 0.736350
Si Si3 0.589925 0.000000 0.204661
Si Si4 0.171489 0.000000 0.619770
Si Si5 0.787851 0.187761 0.925883
O O1 0.529922 0.451064 0.701545
O O2 0.317922 0.369349 0.877519
O O3 0.500000 0.411819 0.000000
O O4 0.164173 0.451334 0.069989
O O5 0.750000 0.750000 0.500000
O O6 0.760087 0.784982 0.777171
O O7 0.502215 0.711661 0.861383
O O8 0.416511 0.801296 0.835036
O O9 0.334430 0.000000 0.373698
O O10 0.699810 0.000000 0.302134
#
# Coordination Sequence:
#
# PCOD8110717 Si02
#       5
#     8   8   4   4   8
#     4   9  18  31  54  84 119 153 191 243 289 340
#     4  10  22  40  58  80 114 157 199 246 292 349
#     4   8  15  31  52  81 115 153 194 234 285 346
#     4   8  15  31  52  81 118 153 193 235 281 350
#     4  10  22  37  59  85 117 156 199 244 295 347
#
# _framework density 21.521288999999999
#
# number of rings (size 3 to 8) (size 9 to 14) (size 15 to 20)
#    0.000    2.750    0.000    2.250    7.000    2.000 
#    0.000    0.000    0.000   12.000    0.000   21.000 
#    0.000    0.000    0.000    0.000    0.000    0.750 
#
# Total GULP energy -198213.613162 kJ/mol
# GULP energy per Si atom -12388.350823 kJ/mol
# Density = 2.147231 g / cm^3
# Si number density = 21.521289 Si / 1000 Ang^3
#
#
#
# Elastic Constant Matrix: (Units=GPa)
#
#
# Indices 1 2 3 4 5 6 
#
# 1 50.8855 53.9981 54.5048 0.0000 -7.5755 0.0000
# 2 53.9981 219.6610 74.7671 0.0000 -18.4115 0.0000
# 3 54.5048 74.7671 171.7061 0.0000 -31.7997 0.0000
# 4 0.0000 0.0000 0.0000 11.5962 0.0000 -1.6633
# 5 -7.5755 -18.4115 -31.7997 0.0000 32.1083 0.0000
# 6 0.0000 0.0000 0.0000 -1.6633 0.0000 27.0808
#
#
#
# Elastic Compliance Matrix: (Units=1/GPa)
#
#
# Indices 1 2 3 4 5 6 
#
# 1 0.035358 -0.005827 -0.009503 0.000000 -0.004411 0.000000
# 2 -0.005827 0.006328 -0.000598 0.000000 0.001661 0.000000
# 3 -0.009503 -0.000598 0.010559 0.000000 0.007872 0.000000
# 4 0.000000 0.000000 0.000000 0.087001 0.000000 0.005344
# 5 -0.004411 0.001661 0.007872 0.000000 0.038853 0.000000
# 6 0.000000 0.000000 0.000000 0.005344 0.000000 0.037255
#
#
# Mechanical properties :
#
#
# Convention : Reuss Voigt Hill
#
# Bulk Modulus (GPa) = 49.04843 89.86582 69.45713
# Shear Modulus (GPa) = 19.68457 31.42257 25.55357
#
# Velocity S-wave (km/s) = 3.02761 3.82523 3.44955
# Velocity P-wave (km/s) = 5.92132 7.83308 6.94331
#
# Compressibility (1/GPa) = 0.02038801
#
# Stress axis : x y z
#
# Youngs Moduli (GPa) = 28.28224 158.03671 94.70701
#
# Poissons Ratio (x) = 0.92086 0.90004
# Poissons Ratio (y) = 0.16480 0.05663
# Poissons Ratio (z) = 0.26878 0.09450
#
# Static dielectric constant tensor:
#      x y z
#    x 3.788930 0.000000 -0.457280 
#    y 0.000000 3.884860 0.000000 
#    z -0.457280 0.000000 4.155900 
# 
# 
# High freq. dielectric constant tensor:
#      x y z
#    x 1.835780 0.000000 -0.019920 
#    y 0.000000 1.838470 0.000000 
#    z -0.019920 0.000000 1.835420 
# 
# From -- ./inp_files/40123.got.cif
#   From: 2010.06.25/outbox.cif.g09.slc.cpg/sg12_21_cif.got.tgz:40123.got - 2010.06.28 00:19:55.
