data_PCOD8110058
_publ_section_title
;
Structure prediction by ZEFSAII (Michael W. Deem and Ramdas Pophale) SiO2 
 PCOD8110058
Probable space group: C 2/M
;
_chemical_formula_sum "Si O2"
_cell_formula_units_Z 60
_cell_length_a 9.465739
_cell_length_b 27.286679
_cell_length_c 10.827901
_cell_angle_alpha 90.000000
_cell_angle_beta 95.871137
_cell_angle_gamma 90.000000
_cell_volume 2782.052904
_symmetry_space_group_name_H-M "C 2/M"
_symmetry_group_IT_number 12
_symmetry_cell_setting 'monoclinic'
loop_
_space_group_symop_operation_xyz
x,y,z
-x,y,-z
-x,-y,-z
x,-y,z
1/2+x,1/2+y,z
1/2-x,1/2+y,-z
1/2-x,1/2-y,-z
1/2+x,1/2-y,z
loop_
_atom_site_type_symbol
_atom_site_label
_atom_site_fract_x
_atom_site_fract_y
_atom_site_fract_z
Si Si1 0.058416 0.444046 0.296563
Si Si2 0.449236 0.711639 0.357426
Si Si3 0.713388 0.100254 0.808263
Si Si4 0.498728 0.446694 0.768660
Si Si5 0.235728 0.304527 0.677461
Si Si6 0.748929 0.636826 0.557141
Si Si7 0.000000 0.925010 0.500000
Si Si8 0.721343 0.944105 0.067403
O O1 0.089706 0.500000 0.348062
O O2 0.135172 0.401574 0.382461
O O3 0.096885 0.439425 0.156073
O O4 0.890374 0.433369 0.285558
O O5 0.500000 0.721875 0.500000
O O6 0.594269 0.705002 0.292158
O O7 0.355844 0.756690 0.299998
O O8 0.342436 0.664233 0.342650
O O9 0.873509 0.090243 0.783055
O O10 0.684852 0.157000 0.776341
O O11 0.689445 0.091474 0.951021
O O12 0.455186 0.500000 0.816028
O O13 0.541288 0.454300 0.627516
O O14 0.634790 0.426893 0.853218
O O15 0.190342 0.323660 0.535334
O O16 0.633837 0.606924 0.467113
O O17 0.732288 0.000000 0.020392
#
# Coordination Sequence:
#
# PCOD8110058 Si02
#       8
#     8   8   8   8   8   8   4   8
#     4  11  25  41  63  95 136 181 218 263 321 385
#     4  10  21  40  67  91 127 162 214 275 327 394
#     4  12  24  40  62  93 130 165 224 274 322 376
#     4  11  22  38  62  91 128 173 220 265 313 379
#     4  11  24  40  65  99 124 164 212 276 339 389
#     4  11  20  40  63  94 130 169 216 257 329 390
#     4  12  19  38  60  94 128 164 210 258 321 386
#     4  10  22  42  66  91 123 178 232 263 309 382
#
# _framework density 21.566806
#
# number of rings (size 3 to 8) (size 9 to 14) (size 15 to 20)
#    0.000    1.067    4.667    3.800    3.733    2.667 
#    0.000    0.667    0.000    0.800    0.000    0.000 
#    0.000    0.000    0.000    0.000    0.000    0.000 
#
# Total GULP energy -371815.208386 kJ/mol
# GULP energy per Si atom -12393.840280 kJ/mol
# Density = 2.151772 g / cm^3
# Si number density = 21.566806 Si / 1000 Ang^3
#
#
#
# Elastic Constant Matrix: (Units=GPa)
#
#
# Indices 1 2 3 4 5 6 
#
# 1 103.4871 48.7091 19.4290 0.0000 14.7830 0.0000
# 2 48.7091 124.3126 31.5525 0.0000 11.8460 0.0000
# 3 19.4290 31.5525 67.1970 0.0000 9.3857 0.0000
# 4 0.0000 0.0000 0.0000 24.8089 0.0000 -2.5656
# 5 14.7830 11.8460 9.3857 0.0000 26.0785 0.0000
# 6 0.0000 0.0000 0.0000 -2.5656 0.0000 33.7436
#
#
#
# Elastic Compliance Matrix: (Units=1/GPa)
#
#
# Indices 1 2 3 4 5 6 
#
# 1 0.012511 -0.004194 -0.000972 0.000000 -0.004837 0.000000
# 2 -0.004194 0.010729 -0.003661 0.000000 -0.001179 0.000000
# 3 -0.000972 -0.003661 0.017449 0.000000 -0.004066 0.000000
# 4 0.000000 0.000000 0.000000 0.040628 0.000000 0.003089
# 5 -0.004837 -0.001179 -0.004066 0.000000 0.043086 0.000000
# 6 0.000000 0.000000 0.000000 0.003089 0.000000 0.029870
#
#
# Mechanical properties :
#
#
# Convention : Reuss Voigt Hill
#
# Bulk Modulus (GPa) = 43.41214 54.93088 49.17151
# Shear Modulus (GPa) = 27.83873 29.94661 28.89267
#
# Velocity S-wave (km/s) = 3.59669 3.73037 3.66414
# Velocity P-wave (km/s) = 6.11728 6.63925 6.38360
#
# Compressibility (1/GPa) = 0.02303503
#
# Stress axis : x y z
#
# Youngs Moduli (GPa) = 79.93167 93.20437 57.30824
#
# Poissons Ratio (x) = 0.39093 0.05572
# Poissons Ratio (y) = 0.33526 0.20978
# Poissons Ratio (z) = 0.07771 0.34118
#
# Static dielectric constant tensor:
#      x y z
#    x 4.022710 0.000000 0.018530 
#    y 0.000000 3.894160 0.000000 
#    z 0.018530 0.000000 3.531930 
# 
# 
# High freq. dielectric constant tensor:
#      x y z
#    x 1.861490 0.000000 0.002150 
#    y 0.000000 1.842270 0.000000 
#    z 0.002150 0.000000 1.808940 
# 
# From -- ./inp_files/125285.got.cif
#   From: 2010.06.25/outbox.cif.g09.slc.cpg/sg12_63_cif.got.tgz:125285.got - 2010.06.28 00:19:55.
