data_PCOD8110996
_publ_section_title
;
Structure prediction by ZEFSAII (Michael W. Deem and Ramdas Pophale) SiO2 
 PCOD8110996
Probable space group: C 2/M
;
_chemical_formula_sum "Si O2"
_cell_formula_units_Z 44
_cell_length_a 9.293013
_cell_length_b 22.798635
_cell_length_c 10.771146
_cell_angle_alpha 90.000000
_cell_angle_beta 62.342724
_cell_angle_gamma 90.000000
_cell_volume 2021.312963
_symmetry_space_group_name_H-M "C 2/M"
_symmetry_group_IT_number 12
_symmetry_cell_setting 'monoclinic'
loop_
_space_group_symop_operation_xyz
x,y,z
-x,y,-z
-x,-y,-z
x,-y,z
1/2+x,1/2+y,z
1/2-x,1/2+y,-z
1/2-x,1/2-y,-z
1/2+x,1/2-y,z
loop_
_atom_site_type_symbol
_atom_site_label
_atom_site_fract_x
_atom_site_fract_y
_atom_site_fract_z
Si Si1 0.957238 0.714424 0.377838
Si Si2 0.016858 0.396775 0.230589
Si Si3 0.770459 0.500000 0.343510
Si Si4 0.500000 0.176771 0.000000
Si Si5 0.188783 0.772663 0.783472
Si Si6 0.065330 0.000000 0.665757
Si Si7 0.377431 0.595304 0.156906
O O1 0.825865 0.755711 0.359493
O O2 0.000000 0.732842 0.500000
O O3 0.925089 0.645374 0.368998
O O4 0.129435 0.721769 0.239003
O O5 0.189153 0.421918 0.208402
O O6 0.882582 0.445520 0.262327
O O7 0.064391 0.364471 0.083553
O O8 0.715509 0.500000 0.509003
O O9 0.609995 0.500000 0.326203
O O10 0.365824 0.219513 0.109610
O O11 0.098008 0.834792 0.833775
O O12 0.074152 0.940240 0.740303
O O13 0.500000 0.574519 0.000000
#
# Coordination Sequence:
#
# PCOD8110996 Si02
#       7
#     8   8   4   4   8   4   8
#     4  10  22  39  61 100 130 175 219 264 321 398
#     4  10  25  40  73  93 133 179 218 276 329 393
#     4  11  27  51  67  97 126 176 221 280 337 393
#     4  10  22  43  66 101 134 174 220 262 328 396
#     4  10  22  38  66  94 138 172 211 271 324 381
#     4  11  28  48  71  95 132 166 227 281 334 389
#     4  11  24  42  68 103 132 177 217 275 326 392
#
# _framework density 21.76803
#
# number of rings (size 3 to 8) (size 9 to 14) (size 15 to 20)
#    0.000    1.636    0.909    1.364   10.182    4.727 
#    3.273    0.000    0.000    0.000    0.000    0.000 
#    0.000    0.000    0.000    0.000    0.000    0.000 
#
# Total GULP energy -272620.576447 kJ/mol
# GULP energy per Si atom -12391.844384 kJ/mol
# Density = 2.171848 g / cm^3
# Si number density = 21.768030 Si / 1000 Ang^3
#
#
#
# Elastic Constant Matrix: (Units=GPa)
#
#
# Indices 1 2 3 4 5 6 
#
# 1 93.3512 44.1510 18.6447 0.0000 4.2936 0.0000
# 2 44.1510 117.1674 35.2165 0.0000 3.1006 0.0000
# 3 18.6447 35.2165 75.9094 0.0000 21.9105 0.0000
# 4 0.0000 0.0000 0.0000 17.8820 0.0000 8.3517
# 5 4.2936 3.1006 21.9105 0.0000 28.7697 0.0000
# 6 0.0000 0.0000 0.0000 8.3517 0.0000 35.0692
#
#
#
# Elastic Compliance Matrix: (Units=1/GPa)
#
#
# Indices 1 2 3 4 5 6 
#
# 1 0.013126 -0.004680 -0.000811 0.000000 -0.000837 0.000000
# 2 -0.004680 0.011810 -0.005337 0.000000 0.003490 0.000000
# 3 -0.000811 -0.005337 0.020057 0.000000 -0.014579 0.000000
# 4 0.000000 0.000000 0.000000 0.062920 0.000000 -0.014984
# 5 -0.000837 0.003490 -0.014579 0.000000 0.045610 0.000000
# 6 0.000000 0.000000 0.000000 -0.014984 0.000000 0.032084
#
#
# Mechanical properties :
#
#
# Convention : Reuss Voigt Hill
#
# Bulk Modulus (GPa) = 42.85148 53.60582 48.22865
# Shear Modulus (GPa) = 23.25117 28.90525 26.07821
#
# Velocity S-wave (km/s) = 3.27178 3.64796 3.46498
# Velocity P-wave (km/s) = 5.83103 6.51328 6.18158
#
# Compressibility (1/GPa) = 0.02333641
#
# Stress axis : x y z
#
# Youngs Moduli (GPa) = 76.18281 84.67291 49.85858
#
# Poissons Ratio (x) = 0.39629 0.04045
# Poissons Ratio (y) = 0.35656 0.26609
# Poissons Ratio (z) = 0.06180 0.45189
#
# Static dielectric constant tensor:
#      x y z
#    x 3.969700 0.000000 0.009220 
#    y 0.000000 3.962020 0.000000 
#    z 0.009220 0.000000 4.030380 
# 
# 
# High freq. dielectric constant tensor:
#      x y z
#    x 1.863800 0.000000 0.002550 
#    y 0.000000 1.857830 0.000000 
#    z 0.002550 0.000000 1.860790 
# 
# From -- ./inp_files/122377.got.cif
#   From: 2010.06.25/outbox.cif.g09.slc.cpg/sg12_62_cif.got.tgz:122377.got - 2010.06.28 00:19:55.
