data_PCOD8110663
_publ_section_title
;
Structure prediction by ZEFSAII (Michael W. Deem and Ramdas Pophale) SiO2 
 PCOD8110663
Probable space group: C 2/M
;
_chemical_formula_sum "Si O2"
_cell_formula_units_Z 48
_cell_length_a 23.167243
_cell_length_b 9.383465
_cell_length_c 12.486655
_cell_angle_alpha 90.000000
_cell_angle_beta 70.275433
_cell_angle_gamma 90.000000
_cell_volume 2555.193079
_symmetry_space_group_name_H-M "C 2/M"
_symmetry_group_IT_number 12
_symmetry_cell_setting 'monoclinic'
loop_
_space_group_symop_operation_xyz
x,y,z
-x,y,-z
-x,-y,-z
x,-y,z
1/2+x,1/2+y,z
1/2-x,1/2+y,-z
1/2-x,1/2-y,-z
1/2+x,1/2-y,z
loop_
_atom_site_type_symbol
_atom_site_label
_atom_site_fract_x
_atom_site_fract_y
_atom_site_fract_z
Si Si1 0.720560 0.665066 0.116034
Si Si2 0.249034 0.332356 0.666703
Si Si3 0.928792 0.342095 0.066241
Si Si4 0.662631 0.336971 0.570586
Si Si5 0.045297 0.837065 0.752594
Si Si6 0.410072 0.663470 0.877485
O O1 0.737037 0.500000 0.089124
O O2 0.745382 0.722171 0.214482
O O3 0.646755 0.686334 0.166624
O O4 0.750000 0.750000 0.000000
O O5 0.237192 0.500000 0.673068
O O6 0.311576 0.293626 0.562265
O O7 0.192203 0.256804 0.645957
O O8 0.899143 0.500000 0.095043
O O9 0.919967 0.256036 0.180427
O O10 0.896364 0.259646 0.989674
O O11 0.000000 0.354927 0.000000
O O12 0.680303 0.500000 0.584483
O O13 0.588138 0.317079 0.620055
O O14 0.974214 0.791035 0.778600
O O15 0.046441 0.000000 0.791300
O O16 0.414381 0.500000 0.913013
#
# Coordination Sequence:
#
# PCOD8110663 Si02
#       6
#     8   8   8   8   8   8
#     4  10  22  37  53  73 101 137 172 207 250 302
#     4   9  19  36  53  74 103 132 167 212 252 293
#     4   9  17  28  44  69 100 131 163 202 245 289
#     4   9  18  33  55  78 100 129 167 209 254 302
#     4   9  17  30  50  74  99 129 165 205 251 302
#     4   9  18  33  49  69 100 134 166 203 250 301
#
# _framework density 18.785271999999999
#
# number of rings (size 3 to 8) (size 9 to 14) (size 15 to 20)
#    0.000    2.833    0.000    0.500    2.333    4.000 
#    0.000    0.833    0.000    5.000    0.000    0.000 
#    0.000   12.000    0.000    0.000    0.000    0.000 
#
# Total GULP energy -297403.957394 kJ/mol
# GULP energy per Si atom -12391.831558 kJ/mol
# Density = 1.874252 g / cm^3
# Si number density = 18.785272 Si / 1000 Ang^3
#
#
#
# Elastic Constant Matrix: (Units=GPa)
#
#
# Indices 1 2 3 4 5 6 
#
# 1 73.8025 23.4391 53.0075 0.0000 -8.2022 0.0000
# 2 23.4391 57.7456 32.5472 0.0000 2.5991 0.0000
# 3 53.0075 32.5472 119.3388 0.0000 -6.2458 0.0000
# 4 0.0000 0.0000 0.0000 22.8016 0.0000 0.3442
# 5 -8.2022 2.5991 -6.2458 0.0000 33.2386 0.0000
# 6 0.0000 0.0000 0.0000 0.3442 0.0000 19.9840
#
#
#
# Elastic Compliance Matrix: (Units=1/GPa)
#
#
# Indices 1 2 3 4 5 6 
#
# 1 0.021089 -0.004231 -0.008002 0.000000 0.004031 0.000000
# 2 -0.004231 0.021550 -0.004182 0.000000 -0.003515 0.000000
# 3 -0.008002 -0.004182 0.013117 0.000000 0.000817 0.000000
# 4 0.000000 0.000000 0.000000 0.043868 0.000000 -0.000756
# 5 0.004031 -0.003515 0.000817 0.000000 0.031509 0.000000
# 6 0.000000 0.000000 0.000000 -0.000756 0.000000 0.050053
#
#
# Mechanical properties :
#
#
# Convention : Reuss Voigt Hill
#
# Bulk Modulus (GPa) = 43.61951 52.09715 47.85833
# Shear Modulus (GPa) = 22.55721 24.66438 23.61079
#
# Velocity S-wave (km/s) = 3.46900 3.62741 3.54909
# Velocity P-wave (km/s) = 6.27023 6.73330 6.50589
#
# Compressibility (1/GPa) = 0.02292552
#
# Stress axis : x y z
#
# Youngs Moduli (GPa) = 47.41808 46.40364 76.23567
#
# Poissons Ratio (x) = 0.19634 0.61006
# Poissons Ratio (y) = 0.20063 0.31881
# Poissons Ratio (z) = 0.37945 0.19406
#
# Static dielectric constant tensor:
#      x y z
#    x 3.447820 0.000000 -0.219070 
#    y 0.000000 3.576410 0.000000 
#    z -0.219070 0.000000 3.475320 
# 
# 
# High freq. dielectric constant tensor:
#      x y z
#    x 1.721450 0.000000 -0.026750 
#    y 0.000000 1.724610 0.000000 
#    z -0.026750 0.000000 1.716410 
# 
# From -- ./inp_files/172929.got.cif
#   From: 2010.06.25/outbox.cif.g09.slc.cpg/sg12_87_cif.got.tgz:172929.got - 2010.06.28 00:19:55.
