data_PCOD8110171
_publ_section_title
;
Structure prediction by ZEFSAII (Michael W. Deem and Ramdas Pophale) SiO2 
 PCOD8110171
Probable space group: C 2/M
;
_chemical_formula_sum "Si O2"
_cell_formula_units_Z 48
_cell_length_a 19.904470
_cell_length_b 9.003880
_cell_length_c 13.547723
_cell_angle_alpha 90.000000
_cell_angle_beta 90.365423
_cell_angle_gamma 90.000000
_cell_volume 2427.939115
_symmetry_space_group_name_H-M "C 2/M"
_symmetry_group_IT_number 12
_symmetry_cell_setting 'monoclinic'
loop_
_space_group_symop_operation_xyz
x,y,z
-x,y,-z
-x,-y,-z
x,-y,z
1/2+x,1/2+y,z
1/2-x,1/2+y,-z
1/2-x,1/2-y,-z
1/2+x,1/2-y,z
loop_
_atom_site_type_symbol
_atom_site_label
_atom_site_fract_x
_atom_site_fract_y
_atom_site_fract_z
Si Si1 0.006052 0.324745 0.288453
Si Si2 0.941212 0.673299 0.924497
Si Si3 0.196028 0.827225 0.067659
Si Si4 0.625932 0.674388 0.647545
Si Si5 0.385770 0.326727 0.580314
Si Si6 0.739995 0.328107 0.289132
O O1 0.999583 0.500000 0.297963
O O2 0.037997 0.276897 0.184856
O O3 0.051625 0.263948 0.377147
O O4 0.932262 0.255793 0.292918
O O5 0.923732 0.500000 0.928402
O O6 0.876697 0.763555 0.959133
O O7 0.000000 0.714915 0.000000
O O8 0.212202 0.793389 0.181046
O O9 0.196480 0.000000 0.043817
O O10 0.250000 0.750000 0.000000
O O11 0.618218 0.500000 0.662947
O O12 0.622188 0.718386 0.533040
O O13 0.696437 0.725424 0.691983
O O14 0.401675 0.500000 0.594947
O O15 0.317326 0.281511 0.634134
O O16 0.760360 0.500000 0.301926
#
# Coordination Sequence:
#
# PCOD8110171 Si02
#       6
#     8   8   8   8   8   8
#     4  11  23  39  62  90 123 161 202 251 302 359
#     4  10  23  43  65  90 121 158 201 250 303 357
#     4  11  24  42  66  93 123 159 199 248 301 359
#     4  11  24  38  60  91 124 161 203 251 298 357
#     4  10  21  41  63  87 121 161 204 251 303 356
#     4  10  22  41  63  87 122 161 200 249 302 355
#
# _framework density 19.769850999999999
#
# number of rings (size 3 to 8) (size 9 to 14) (size 15 to 20)
#    0.000    1.500    1.667    2.500    2.333    6.333 
#    0.000    0.000    0.000    0.000    0.000    0.000 
#    0.000    0.000    0.000    0.000    0.000    0.000 
#
# Total GULP energy -297784.146482 kJ/mol
# GULP energy per Si atom -12407.672770 kJ/mol
# Density = 1.972485 g / cm^3
# Si number density = 19.769851 Si / 1000 Ang^3
#
#
#
# Elastic Constant Matrix: (Units=GPa)
#
#
# Indices 1 2 3 4 5 6 
#
# 1 143.5384 62.0968 50.1338 0.0000 -7.2518 0.0000
# 2 62.0968 77.4099 46.5231 0.0000 -3.1103 0.0000
# 3 50.1338 46.5231 76.8187 0.0000 -5.2032 0.0000
# 4 0.0000 0.0000 0.0000 30.4683 0.0000 -0.0239
# 5 -7.2518 -3.1103 -5.2032 0.0000 37.0739 0.0000
# 6 0.0000 0.0000 0.0000 -0.0239 0.0000 44.0038
#
#
#
# Elastic Compliance Matrix: (Units=1/GPa)
#
#
# Indices 1 2 3 4 5 6 
#
# 1 0.011117 -0.007166 -0.002835 0.000000 0.001175 0.000000
# 2 -0.007166 0.024931 -0.010475 0.000000 -0.000780 0.000000
# 3 -0.002835 -0.010475 0.021317 0.000000 0.001558 0.000000
# 4 0.000000 0.000000 0.000000 0.032821 0.000000 0.000018
# 5 0.001175 -0.000780 0.001558 0.000000 0.027356 0.000000
# 6 0.000000 0.000000 0.000000 0.000018 0.000000 0.022725
#
#
# Mechanical properties :
#
#
# Convention : Reuss Voigt Hill
#
# Bulk Modulus (GPa) = 60.93001 68.36384 64.64692
# Shear Modulus (GPa) = 26.78228 31.57675 29.17951
#
# Velocity S-wave (km/s) = 3.68462 4.00086 3.84599
# Velocity P-wave (km/s) = 6.99918 7.48314 7.24520
#
# Compressibility (1/GPa) = 0.01641227
#
# Stress axis : x y z
#
# Youngs Moduli (GPa) = 89.95439 40.11106 46.91042
#
# Poissons Ratio (x) = 0.28745 0.13301
# Poissons Ratio (y) = 0.64465 0.49136
# Poissons Ratio (z) = 0.25505 0.42014
#
# Static dielectric constant tensor:
#      x y z
#    x 3.706080 0.000000 -0.122680 
#    y 0.000000 3.552160 0.000000 
#    z -0.122680 0.000000 3.767930 
# 
# 
# High freq. dielectric constant tensor:
#      x y z
#    x 1.786170 0.000000 -0.003570 
#    y 0.000000 1.772480 0.000000 
#    z -0.003570 0.000000 1.781000 
# 
# From -- ./inp_files/221508.got.cif
#   From: 2010.06.25/outbox.cif.g09.slc.cpg/sg12_111_cif.got.tgz:221508.got - 2010.06.28 00:19:55.
