data_PCOD8110231
_publ_section_title
;
Structure prediction by ZEFSAII (Michael W. Deem and Ramdas Pophale) SiO2 
 PCOD8110231
Probable space group: C 2/M
;
_chemical_formula_sum "Si O2"
_cell_formula_units_Z 48
_cell_length_a 28.929873
_cell_length_b 17.928178
_cell_length_c 14.361514
_cell_angle_alpha 90.000000
_cell_angle_beta 161.641687
_cell_angle_gamma 90.000000
_cell_volume 2346.045036
_symmetry_space_group_name_H-M "C 2/M"
_symmetry_group_IT_number 12
_symmetry_cell_setting 'monoclinic'
loop_
_space_group_symop_operation_xyz
x,y,z
-x,y,-z
-x,-y,-z
x,-y,z
1/2+x,1/2+y,z
1/2-x,1/2+y,-z
1/2-x,1/2-y,-z
1/2+x,1/2-y,z
loop_
_atom_site_type_symbol
_atom_site_label
_atom_site_fract_x
_atom_site_fract_y
_atom_site_fract_z
Si Si1 0.933048 0.412074 0.276432
Si Si2 0.603102 0.413785 0.609144
Si Si3 0.084098 0.919050 0.254050
Si Si4 0.858553 0.412463 0.672016
Si Si5 0.625527 0.165991 0.495090
Si Si6 0.541678 0.319987 0.830390
O O1 0.926416 0.500000 0.273537
O O2 0.000000 0.377401 0.500000
O O3 0.038626 0.392583 0.392630
O O4 0.766885 0.382449 0.942998
O O5 0.500000 0.402695 0.500000
O O6 0.610016 0.500000 0.591720
O O7 0.529827 0.366808 0.388218
O O8 0.238926 0.885285 0.518335
O O9 0.997432 0.859870 0.148584
O O10 0.101956 0.000000 0.339952
O O11 0.000000 0.935246 0.000000
O O12 0.842596 0.500000 0.617870
O O13 0.850120 0.367727 0.560166
O O14 0.000000 0.392101 0.000000
O O15 0.524558 0.238168 0.295812
O O16 0.782205 0.184344 0.841838
#
# Coordination Sequence:
#
# PCOD8110231 Si02
#       6
#     8   8   8   8   8   8
#     4  10  22  42  69  97 126 160 203 256 309 367
#     4  10  22  42  69  98 125 159 205 255 308 368
#     4  10  21  41  65  91 121 161 210 258 310 363
#     4  10  23  41  65  92 122 162 209 260 309 365
#     4  12  26  42  61  91 129 168 210 254 312 371
#     4  12  26  41  62  91 128 170 208 256 310 371
#
# _framework density 20.459965
#
# number of rings (size 3 to 8) (size 9 to 14) (size 15 to 20)
#    0.000    1.333    1.667    3.000    4.667    5.333 
#    0.000    3.333    0.000    0.000    0.000    0.000 
#    0.000    0.000    0.000    0.000    0.000    0.000 
#
# Total GULP energy -297556.534353 kJ/mol
# GULP energy per Si atom -12398.188931 kJ/mol
# Density = 2.041340 g / cm^3
# Si number density = 20.459965 Si / 1000 Ang^3
#
#
#
# Elastic Constant Matrix: (Units=GPa)
#
#
# Indices 1 2 3 4 5 6 
#
# 1 65.4918 11.7016 38.0686 0.0000 12.2762 0.0000
# 2 11.7016 37.9920 34.0811 0.0000 -4.5691 0.0000
# 3 38.0686 34.0811 157.5143 0.0000 21.5876 0.0000
# 4 0.0000 0.0000 0.0000 28.4984 0.0000 5.3840
# 5 12.2762 -4.5691 21.5876 0.0000 44.0021 0.0000
# 6 0.0000 0.0000 0.0000 5.3840 0.0000 3.6336
#
#
#
# Elastic Compliance Matrix: (Units=1/GPa)
#
#
# Indices 1 2 3 4 5 6 
#
# 1 0.018456 -0.003268 -0.003217 0.000000 -0.003910 0.000000
# 2 -0.003268 0.035620 -0.008093 0.000000 0.008581 0.000000
# 3 -0.003217 -0.008093 0.009509 0.000000 -0.004608 0.000000
# 4 0.000000 0.000000 0.000000 0.048732 0.000000 -0.072208
# 5 -0.003910 0.008581 -0.004608 0.000000 0.026969 0.000000
# 6 0.000000 0.000000 0.000000 -0.072208 0.000000 0.382203
#
#
# Mechanical properties :
#
#
# Convention : Reuss Voigt Hill
#
# Bulk Modulus (GPa) = 29.04706 47.63340 38.34023
# Shear Modulus (GPa) = 8.89485 27.03659 17.96572
#
# Velocity S-wave (km/s) = 2.08731 3.63910 2.96648
# Velocity P-wave (km/s) = 4.47627 6.40228 5.52387
#
# Compressibility (1/GPa) = 0.03442689
#
# Stress axis : x y z
#
# Youngs Moduli (GPa) = 54.18226 28.07400 105.16490
#
# Poissons Ratio (x) = 0.09176 0.33837
# Poissons Ratio (y) = 0.17709 0.85112
# Poissons Ratio (z) = 0.17433 0.22721
#
# Static dielectric constant tensor:
#      x y z
#    x -5.162760 0.000000 -3.294330 
#    y 0.000000 3.641800 0.000000 
#    z -3.294330 0.000000 2.738020 
# 
# 
# High freq. dielectric constant tensor:
#      x y z
#    x 1.808980 0.000000 0.008950 
#    y 0.000000 1.789540 0.000000 
#    z 0.008950 0.000000 1.821640 
# 
# From -- ./inp_files/184840.got.cif
#   From: 2010.06.25/outbox.cif.g09.slc.cpg/sg12_93_cif.got.tgz:184840.got - 2010.06.28 00:19:55.
