data_PCOD8110104
_publ_section_title
;
Structure prediction by ZEFSAII (Michael W. Deem and Ramdas Pophale) SiO2 
 PCOD8110104
Probable space group: C 2/M
;
_chemical_formula_sum "Si O2"
_cell_formula_units_Z 56
_cell_length_a 21.862487
_cell_length_b 28.446785
_cell_length_c 9.654522
_cell_angle_alpha 90.000000
_cell_angle_beta 151.689515
_cell_angle_gamma 90.000000
_cell_volume 2847.542757
_symmetry_space_group_name_H-M "C 2/M"
_symmetry_group_IT_number 12
_symmetry_cell_setting 'monoclinic'
loop_
_space_group_symop_operation_xyz
x,y,z
-x,y,-z
-x,-y,-z
x,-y,z
1/2+x,1/2+y,z
1/2-x,1/2+y,-z
1/2-x,1/2-y,-z
1/2+x,1/2-y,z
loop_
_atom_site_type_symbol
_atom_site_label
_atom_site_fract_x
_atom_site_fract_y
_atom_site_fract_z
Si Si1 0.509130 0.391828 0.166504
Si Si2 0.348371 0.707686 0.220376
Si Si3 0.372712 0.197852 0.684695
Si Si4 0.256478 0.635792 0.805617
Si Si5 0.392712 0.446465 0.393150
Si Si6 0.149012 0.201739 0.455501
Si Si7 0.859965 0.552264 0.284216
O O1 0.608006 0.418335 0.464220
O O2 0.554087 0.339185 0.219102
O O3 0.500000 0.418422 0.000000
O O4 0.371623 0.391932 0.964270
O O5 0.500000 0.721441 0.500000
O O6 0.325045 0.692582 0.331099
O O7 0.250000 0.750000 0.000000
O O8 0.309199 0.664491 0.043142
O O9 0.310721 0.169982 0.435742
O O10 0.280422 0.201285 0.632134
O O11 0.416363 0.248016 0.706693
O O12 0.500000 0.172936 0.000000
O O13 0.154586 0.594896 0.637738
O O14 0.500000 0.425709 0.500000
O O15 0.430249 0.500000 0.500577
O O16 0.249178 0.441321 0.049611
O O17 0.844828 0.500000 0.322043
O O18 0.000000 0.557364 0.500000
#
# Coordination Sequence:
#
# PCOD8110104 Si02
#       7
#     8   8   8   8   8   8   8
#     4  12  23  39  64  95 128 168 212 260 318 376
#     4  12  26  40  65  97 133 169 223 279 321 375
#     4  11  26  42  62  87 130 176 217 261 319 392
#     4  12  24  42  64  99 124 169 218 272 322 379
#     4  10  21  40  68  98 127 163 210 262 320 385
#     4  11  24  41  62  87 127 174 217 257 319 383
#     4  10  23  44  70  97 129 168 212 268 336 395
#
# _framework density 19.666079
#
# number of rings (size 3 to 8) (size 9 to 14) (size 15 to 20)
#    0.000    0.857    5.714    1.286    4.000    3.143 
#    0.000    0.000    0.000    0.429    0.000    0.000 
#    0.000    0.000    0.000    0.000    0.000    0.000 
#
# Total GULP energy -347143.161545 kJ/mol
# GULP energy per Si atom -12397.970055 kJ/mol
# Density = 1.962132 g / cm^3
# Si number density = 19.666079 Si / 1000 Ang^3
#
#
#
# Elastic Constant Matrix: (Units=GPa)
#
#
# Indices 1 2 3 4 5 6 
#
# 1 121.8741 41.3129 56.3555 0.0000 -14.4880 0.0000
# 2 41.3129 69.0628 25.0776 0.0000 5.2556 0.0000
# 3 56.3555 25.0776 113.8954 0.0000 0.2955 0.0000
# 4 0.0000 0.0000 0.0000 18.5407 0.0000 9.1672
# 5 -14.4880 5.2556 0.2955 0.0000 41.6983 0.0000
# 6 0.0000 0.0000 0.0000 9.1672 0.0000 25.4613
#
#
#
# Elastic Compliance Matrix: (Units=1/GPa)
#
#
# Indices 1 2 3 4 5 6 
#
# 1 0.013542 -0.006616 -0.005259 0.000000 0.005576 0.000000
# 2 -0.006616 0.019132 -0.000927 0.000000 -0.004703 0.000000
# 3 -0.005259 -0.000927 0.011591 0.000000 -0.001792 0.000000
# 4 0.000000 0.000000 0.000000 0.065616 0.000000 -0.023625
# 5 0.005576 -0.004703 -0.001792 0.000000 0.026525 0.000000
# 6 0.000000 0.000000 0.000000 -0.023625 0.000000 0.047781
#
#
# Mechanical properties :
#
#
# Convention : Reuss Voigt Hill
#
# Bulk Modulus (GPa) = 53.58381 61.14715 57.36548
# Shear Modulus (GPa) = 23.14715 29.27916 26.21316
#
# Velocity S-wave (km/s) = 3.43448 3.86270 3.65487
# Velocity P-wave (km/s) = 6.55999 7.14522 6.85885
#
# Compressibility (1/GPa) = 0.01866235
#
# Stress axis : x y z
#
# Youngs Moduli (GPa) = 73.84270 52.26977 86.27683
#
# Poissons Ratio (x) = 0.34581 0.45369
# Poissons Ratio (y) = 0.48853 0.07995
# Poissons Ratio (z) = 0.38830 0.04844
#
# Static dielectric constant tensor:
#      x y z
#    x 3.488260 0.000000 0.319850 
#    y 0.000000 3.760610 0.000000 
#    z 0.319850 0.000000 2.898640 
# 
# 
# High freq. dielectric constant tensor:
#      x y z
#    x 1.768290 0.000000 -0.003840 
#    y 0.000000 1.764800 0.000000 
#    z -0.003840 0.000000 1.774100 
# 
# From -- ./inp_files/91551.got.cif
#   From: 2010.06.25/outbox.cif.g09.slc.cpg/sg12_46_cif.got.tgz:91551.got - 2010.06.28 00:19:55.
