data_PCOD8110089
_publ_section_title
;
Structure prediction by ZEFSAII (Michael W. Deem and Ramdas Pophale) SiO2 
 PCOD8110089
Probable space group: C 2/M
;
_chemical_formula_sum "Si O2"
_cell_formula_units_Z 36
_cell_length_a 10.137037
_cell_length_b 29.687522
_cell_length_c 5.086365
_cell_angle_alpha 90.000000
_cell_angle_beta 75.960648
_cell_angle_gamma 90.000000
_cell_volume 1484.985257
_symmetry_space_group_name_H-M "C 2/M"
_symmetry_group_IT_number 12
_symmetry_cell_setting 'monoclinic'
loop_
_space_group_symop_operation_xyz
x,y,z
-x,y,-z
-x,-y,-z
x,-y,z
1/2+x,1/2+y,z
1/2-x,1/2+y,-z
1/2-x,1/2-y,-z
1/2+x,1/2-y,z
loop_
_atom_site_type_symbol
_atom_site_label
_atom_site_fract_x
_atom_site_fract_y
_atom_site_fract_z
Si Si1 0.000000 0.647879 0.000000
Si Si2 0.155870 0.188739 0.377471
Si Si3 0.767944 0.597140 0.315794
Si Si4 0.857405 0.715652 0.724924
Si Si5 0.656418 0.551915 0.885272
O O1 0.880068 0.681045 0.954702
O O2 0.074507 0.614625 0.755162
O O3 0.179039 0.139117 0.251887
O O4 0.187159 0.232403 0.173010
O O5 0.240669 0.193771 0.604786
O O6 0.000000 0.193297 0.500000
O O7 0.726164 0.581198 0.624090
O O8 0.741079 0.558334 0.113637
O O9 0.000000 0.716789 0.500000
O O10 0.664728 0.500000 0.796999
O O11 0.500000 0.566547 0.000000
#
# Coordination Sequence:
#
# PCOD8110089 Si02
#       5
#     4   8   8   8   8
#     4  12  26  42  69 100 152 206 237 290 362 442
#     4  10  21  40  67  99 138 186 255 307 350 425
#     4  12  25  44  72 107 142 191 247 297 364 450
#     4  10  21  43  62  94 145 202 244 293 364 420
#     4  11  25  48  77 107 141 179 234 314 387 436
#
# _framework density 24.242664999999999
#
# number of rings (size 3 to 8) (size 9 to 14) (size 15 to 20)
#    0.000    1.111    2.222    4.000    0.000    2.667 
#   10.000    3.333    0.000    0.000    0.000    0.000 
#    0.000    0.000    0.000    0.000    0.000    0.000 
#
# Total GULP energy -223076.668635 kJ/mol
# GULP energy per Si atom -12393.148258 kJ/mol
# Density = 2.418749 g / cm^3
# Si number density = 24.242665 Si / 1000 Ang^3
#
#
#
# Elastic Constant Matrix: (Units=GPa)
#
#
# Indices 1 2 3 4 5 6 
#
# 1 123.9519 37.9328 11.5496 0.0000 5.5563 0.0000
# 2 37.9328 112.2713 43.5626 0.0000 -18.9742 0.0000
# 3 11.5496 43.5626 90.0793 0.0000 -0.2435 0.0000
# 4 0.0000 0.0000 0.0000 20.0187 0.0000 11.4927
# 5 5.5563 -18.9742 -0.2435 0.0000 30.6494 0.0000
# 6 0.0000 0.0000 0.0000 11.4927 0.0000 29.2195
#
#
#
# Elastic Compliance Matrix: (Units=1/GPa)
#
#
# Indices 1 2 3 4 5 6 
#
# 1 0.009491 -0.004267 0.000835 0.000000 -0.004355 0.000000
# 2 -0.004267 0.014480 -0.006429 0.000000 0.009687 0.000000
# 3 0.000835 -0.006429 0.014093 0.000000 -0.004020 0.000000
# 4 0.000000 0.000000 0.000000 0.064523 0.000000 -0.025378
# 5 -0.004355 0.009687 -0.004020 0.000000 0.039381 0.000000
# 6 0.000000 0.000000 0.000000 -0.025378 0.000000 0.044205
#
#
# Mechanical properties :
#
#
# Convention : Reuss Voigt Hill
#
# Bulk Modulus (GPa) = 54.52222 56.93250 55.72736
# Shear Modulus (GPa) = 23.58381 31.52804 27.55593
#
# Velocity S-wave (km/s) = 3.12239 3.61018 3.37511
# Velocity P-wave (km/s) = 5.96139 6.39635 6.18270
#
# Compressibility (1/GPa) = 0.01834115
#
# Stress axis : x y z
#
# Youngs Moduli (GPa) = 105.36548 69.05927 70.95836
#
# Poissons Ratio (x) = 0.29464 -0.05923
# Poissons Ratio (y) = 0.44954 0.45623
# Poissons Ratio (z) = -0.08794 0.44402
#
# Static dielectric constant tensor:
#      x y z
#    x 4.273690 0.000000 -0.489980 
#    y 0.000000 4.733010 0.000000 
#    z -0.489980 0.000000 3.859130 
# 
# 
# High freq. dielectric constant tensor:
#      x y z
#    x 1.970460 0.000000 -0.029180 
#    y 0.000000 1.976060 0.000000 
#    z -0.029180 0.000000 1.962750 
# 
# From -- ./inp_files/7498.got.cif
#   From: 2010.06.25/outbox.cif.g09.slc.cpg/sg12_4_cif.got.tgz:7498.got - 2010.06.28 00:19:55.
