data_PCOD8110136
_publ_section_title
;
Structure prediction by ZEFSAII (Michael W. Deem and Ramdas Pophale) SiO2 
 PCOD8110136
Probable space group: C 2/M
;
_chemical_formula_sum "Si O2"
_cell_formula_units_Z 60
_cell_length_a 14.694795
_cell_length_b 9.301714
_cell_length_c 24.012089
_cell_angle_alpha 90.000000
_cell_angle_beta 66.369853
_cell_angle_gamma 90.000000
_cell_volume 3006.934515
_symmetry_space_group_name_H-M "C 2/M"
_symmetry_group_IT_number 12
_symmetry_cell_setting 'monoclinic'
loop_
_space_group_symop_operation_xyz
x,y,z
-x,y,-z
-x,-y,-z
x,-y,z
1/2+x,1/2+y,z
1/2-x,1/2+y,-z
1/2-x,1/2-y,-z
1/2+x,1/2-y,z
loop_
_atom_site_type_symbol
_atom_site_label
_atom_site_fract_x
_atom_site_fract_y
_atom_site_fract_z
Si Si1 0.637497 0.327277 0.151127
Si Si2 0.850141 0.669002 0.057541
Si Si3 0.000000 0.759543 0.500000
Si Si4 0.459171 0.170651 0.922322
Si Si5 0.542862 0.827542 0.272718
Si Si6 0.148631 0.830263 0.667617
Si Si7 0.369767 0.162915 0.632542
Si Si8 0.338490 0.655352 0.458783
O O1 0.629586 0.500000 0.159017
O O2 0.743677 0.272481 0.102339
O O3 0.555701 0.265625 0.128918
O O4 0.623578 0.248282 0.213462
O O5 0.848321 0.500000 0.054239
O O6 0.931547 0.713606 0.083217
O O7 0.880056 0.723333 0.988552
O O8 0.934125 0.668754 0.559869
O O9 0.926899 0.856418 0.481537
O O10 0.450269 0.000000 0.911679
O O11 0.435328 0.763061 0.280421
O O12 0.572105 0.775276 0.328177
O O13 0.541798 0.000000 0.266030
O O14 0.259360 0.768004 0.653182
O O15 0.122353 0.792700 0.610090
O O16 0.136828 0.000000 0.684211
O O17 0.347191 0.000000 0.651467
O O18 0.289809 0.500000 0.462852
O O19 0.250000 0.750000 0.500000
#
# Coordination Sequence:
#
# PCOD8110136 Si02
#       8
#     8   8   4   8   8   8   8   8
#     4  11  22  37  57  85 118 157 194 238 289 341
#     4   8  17  34  59  89 123 156 193 234 286 337
#     4  12  20  38  60  92 119 148 183 236 293 358
#     4   9  17  35  61  89 120 157 194 237 280 337
#     4  11  24  42  59  82 110 150 200 244 286 346
#     4  10  21  41  60  82 113 149 185 234 291 342
#     4  10  22  38  61  87 114 148 189 237 295 351
#     4  11  23  37  58  88 120 149 183 229 287 350
#
# _framework density 19.953876000000001
#
# number of rings (size 3 to 8) (size 9 to 14) (size 15 to 20)
#    0.000    1.867    2.667    2.400    0.000    2.133 
#    0.000    7.333    0.000    0.000    0.000    0.000 
#    0.000    0.000    0.000    0.000    0.000    0.000 
#
# Total GULP energy -371767.157879 kJ/mol
# GULP energy per Si atom -12392.238596 kJ/mol
# Density = 1.990846 g / cm^3
# Si number density = 19.953876 Si / 1000 Ang^3
#
#
#
# Elastic Constant Matrix: (Units=GPa)
#
#
# Indices 1 2 3 4 5 6 
#
# 1 106.6820 27.8451 39.3905 0.0000 -1.2476 0.0000
# 2 27.8451 66.1564 30.0340 0.0000 -2.7441 0.0000
# 3 39.3905 30.0340 92.9250 0.0000 2.9871 0.0000
# 4 0.0000 0.0000 0.0000 31.3084 0.0000 -1.2354
# 5 -1.2476 -2.7441 2.9871 0.0000 27.9316 0.0000
# 6 0.0000 0.0000 0.0000 -1.2354 0.0000 26.4870
#
#
#
# Elastic Compliance Matrix: (Units=1/GPa)
#
#
# Indices 1 2 3 4 5 6 
#
# 1 0.011648 -0.003076 -0.003964 0.000000 0.000642 0.000000
# 2 -0.003076 0.018684 -0.004806 0.000000 0.002212 0.000000
# 3 -0.003964 -0.004806 0.014064 0.000000 -0.002153 0.000000
# 4 0.000000 0.000000 0.000000 0.031999 0.000000 0.001492
# 5 0.000642 0.002212 -0.002153 0.000000 0.036278 0.000000
# 6 0.000000 0.000000 0.000000 0.001492 0.000000 0.037824
#
#
# Mechanical properties :
#
#
# Convention : Reuss Voigt Hill
#
# Bulk Modulus (GPa) = 48.30015 51.14475 49.72245
# Shear Modulus (GPa) = 27.61054 28.37832 27.99443
#
# Velocity S-wave (km/s) = 3.72387 3.77529 3.74967
# Velocity P-wave (km/s) = 6.53820 6.68513 6.61207
#
# Compressibility (1/GPa) = 0.02070387
#
# Stress axis : x y z
#
# Youngs Moduli (GPa) = 85.85404 53.52151 71.10313
#
# Poissons Ratio (x) = 0.16465 0.28183
# Poissons Ratio (y) = 0.26412 0.34171
# Poissons Ratio (z) = 0.34030 0.25722
#
# Static dielectric constant tensor:
#      x y z
#    x 4.406570 0.000000 -0.090700 
#    y 0.000000 3.317870 0.000000 
#    z -0.090700 0.000000 3.911300 
# 
# 
# High freq. dielectric constant tensor:
#      x y z
#    x 1.789780 0.000000 -0.001770 
#    y 0.000000 1.752290 0.000000 
#    z -0.001770 0.000000 1.779590 
# 
# From -- ./inp_files/338653.got.cif
#   From: 2010.06.25/outbox.cif.g09.slc.cpg/sg12_170_cif.got.tgz:338653.got - 2010.06.28 00:19:55.
