data_PCOD8110244
_publ_section_title
;
Structure prediction by ZEFSAII (Michael W. Deem and Ramdas Pophale) SiO2 
 PCOD8110244
Probable space group: C 2/M
;
_chemical_formula_sum "Si O2"
_cell_formula_units_Z 64
_cell_length_a 8.991470
_cell_length_b 28.437793
_cell_length_c 17.385098
_cell_angle_alpha 90.000000
_cell_angle_beta 135.624896
_cell_angle_gamma 90.000000
_cell_volume 3108.852119
_symmetry_space_group_name_H-M "C 2/M"
_symmetry_group_IT_number 12
_symmetry_cell_setting 'monoclinic'
loop_
_space_group_symop_operation_xyz
x,y,z
-x,y,-z
-x,-y,-z
x,-y,z
1/2+x,1/2+y,z
1/2-x,1/2+y,-z
1/2-x,1/2-y,-z
1/2+x,1/2-y,z
loop_
_atom_site_type_symbol
_atom_site_label
_atom_site_fract_x
_atom_site_fract_y
_atom_site_fract_z
Si Si1 0.230642 0.300313 0.120460
Si Si2 0.979326 0.282419 0.800611
Si Si3 0.250835 0.445655 0.592695
Si Si4 0.227569 0.111060 0.548406
Si Si5 0.894386 0.383047 0.206733
Si Si6 0.764801 0.786493 0.439424
Si Si7 0.301043 0.551945 0.982575
Si Si8 0.518015 0.610449 0.186377
O O1 0.337106 0.256206 0.114683
O O2 0.389772 0.344723 0.171713
O O3 0.194691 0.285390 0.195745
O O4 0.000000 0.312284 0.000000
O O5 0.074835 0.333690 0.823777
O O6 0.866465 0.266307 0.680696
O O7 0.318644 0.500000 0.625553
O O8 0.317575 0.425402 0.535607
O O9 0.363375 0.416193 0.700929
O O10 0.000000 0.439252 0.500000
O O11 0.405651 0.093850 0.674605
O O12 0.316697 0.163039 0.557948
O O13 0.000000 0.117764 0.500000
O O14 0.872068 0.418470 0.127484
O O15 0.692960 0.375269 0.187833
O O16 0.750000 0.750000 0.500000
O O17 0.000000 0.793770 0.500000
O O18 0.211460 0.500000 0.967059
O O19 0.500000 0.548557 0.000000
O O20 0.353335 0.575553 0.083900
#
# Coordination Sequence:
#
# PCOD8110244 Si02
#       8
#     8   8   8   8   8   8   8   8
#     4  12  26  43  67  94 133 179 217 275 328 395
#     4  11  24  41  63  95 129 171 220 265 329 394
#     4  11  24  42  67  97 132 172 219 274 328 397
#     4  10  23  41  64  93 134 174 218 267 331 398
#     4  10  21  41  65  99 129 171 219 276 327 394
#     4  10  22  38  60  91 126 167 208 265 314 387
#     4   9  19  37  64  93 122 164 218 275 327 386
#     4  11  23  40  67  96 130 173 220 274 331 391
#
# _framework density 20.586376999999999
#
# number of rings (size 3 to 8) (size 9 to 14) (size 15 to 20)
#    0.000    1.500    1.250    3.000    7.000    4.250 
#    0.000    0.000    0.000    1.500    0.000    0.000 
#    0.000    0.000    0.000    0.000    0.000    0.000 
#
# Total GULP energy -396652.815187 kJ/mol
# GULP energy per Si atom -12395.400475 kJ/mol
# Density = 2.053952 g / cm^3
# Si number density = 20.586377 Si / 1000 Ang^3
#
#
#
# Elastic Constant Matrix: (Units=GPa)
#
#
# Indices 1 2 3 4 5 6 
#
# 1 90.0170 60.1899 36.2180 0.0000 -6.0532 0.0000
# 2 60.1899 128.9190 63.8632 0.0000 -13.3073 0.0000
# 3 36.2180 63.8632 135.8789 0.0000 -12.0184 0.0000
# 4 0.0000 0.0000 0.0000 35.8504 0.0000 -0.4488
# 5 -6.0532 -13.3073 -12.0184 0.0000 29.1265 0.0000
# 6 0.0000 0.0000 0.0000 -0.4488 0.0000 37.2857
#
#
#
# Elastic Compliance Matrix: (Units=1/GPa)
#
#
# Indices 1 2 3 4 5 6 
#
# 1 0.016257 -0.007118 -0.001013 0.000000 -0.000292 0.000000
# 2 -0.007118 0.013446 -0.004162 0.000000 0.002947 0.000000
# 3 -0.001013 -0.004162 0.009755 0.000000 0.001913 0.000000
# 4 0.000000 0.000000 0.000000 0.027898 0.000000 0.000336
# 5 -0.000292 0.002947 0.001913 0.000000 0.036408 0.000000
# 6 0.000000 0.000000 0.000000 0.000336 0.000000 0.026824
#
#
# Mechanical properties :
#
#
# Convention : Reuss Voigt Hill
#
# Bulk Modulus (GPa) = 67.24487 75.03969 71.14228
# Shear Modulus (GPa) = 31.22457 33.42210 32.32333
#
# Velocity S-wave (km/s) = 3.89878 4.03365 3.96679
# Velocity P-wave (km/s) = 7.28032 7.63047 7.45745
#
# Compressibility (1/GPa) = 0.01487102
#
# Stress axis : x y z
#
# Youngs Moduli (GPa) = 61.51345 74.37278 102.51340
#
# Poissons Ratio (x) = 0.52938 0.10390
# Poissons Ratio (y) = 0.43785 0.42662
# Poissons Ratio (z) = 0.06234 0.30951
#
# Static dielectric constant tensor:
#      x y z
#    x 3.641520 0.000000 -0.033210 
#    y 0.000000 2.725190 0.000000 
#    z -0.033210 0.000000 3.945720 
# 
# 
# High freq. dielectric constant tensor:
#      x y z
#    x 1.795040 0.000000 -0.004180 
#    y 0.000000 1.812830 0.000000 
#    z -0.004180 0.000000 1.820290 
# 
# From -- ./inp_files/260400.got.cif
#   From: 2010.06.25/outbox.cif.g09.slc.cpg/sg12_131_cif.got.tgz:260400.got - 2010.06.28 00:19:55.
