data_PCOD8110001
_publ_section_title
;
Structure prediction by ZEFSAII (Michael W. Deem and Ramdas Pophale) SiO2 
 PCOD8110001
Probable space group: C 2/M
;
_chemical_formula_sum "Si O2"
_cell_formula_units_Z 64
_cell_length_a 11.294369
_cell_length_b 20.004382
_cell_length_c 21.131589
_cell_angle_alpha 90.000000
_cell_angle_beta 143.055783
_cell_angle_gamma 90.000000
_cell_volume 2869.595030
_symmetry_space_group_name_H-M "C 2/M"
_symmetry_group_IT_number 12
_symmetry_cell_setting 'monoclinic'
loop_
_space_group_symop_operation_xyz
x,y,z
-x,y,-z
-x,-y,-z
x,-y,z
1/2+x,1/2+y,z
1/2-x,1/2+y,-z
1/2-x,1/2-y,-z
1/2+x,1/2-y,z
loop_
_atom_site_type_symbol
_atom_site_label
_atom_site_fract_x
_atom_site_fract_y
_atom_site_fract_z
Si Si1 0.745402 0.644504 0.334333
Si Si2 0.827254 0.178775 0.557584
Si Si3 0.257242 0.735872 0.258197
Si Si4 0.395214 0.927699 0.177485
Si Si5 0.311735 0.355135 0.124573
Si Si6 0.073753 0.576700 0.389973
Si Si7 0.780856 0.789263 0.888284
Si Si8 0.481416 0.123518 0.888806
O O1 0.774119 0.649099 0.421996
O O2 0.768514 0.722909 0.327133
O O3 0.531695 0.614909 0.221847
O O4 0.904380 0.598853 0.366886
O O5 0.750000 0.250000 0.500000
O O6 0.767733 0.122810 0.480644
O O7 0.060578 0.183749 0.668262
O O8 0.260211 0.791942 0.204310
O O9 0.056580 0.693444 0.165045
O O10 0.516714 0.913461 0.292449
O O11 0.256721 0.864059 0.101958
O O12 0.529784 0.932878 0.171046
O O13 0.285483 0.000000 0.137653
O O14 0.342295 0.274461 0.138511
O O15 0.187266 0.384047 0.130571
O O16 0.199763 0.376817 0.012925
O O17 0.126411 0.500000 0.426850
O O18 0.000000 0.767985 0.000000
#
# Coordination Sequence:
#
# PCOD8110001 Si02
#       8
#     8   8   8   8   8   8   8   8
#     4  12  23  40  67 100 138 168 220 281 342 397
#     4  12  24  42  65 102 131 172 227 284 343 394
#     4  11  22  37  64 104 133 166 212 282 340 389
#     4  11  25  43  63  91 134 184 224 269 332 407
#     4  10  21  40  66 106 133 166 223 277 337 398
#     4  11  27  49  68  95 136 182 232 283 341 410
#     4  11  19  38  63 100 136 168 211 272 337 398
#     4  10  21  41  66  96 137 176 217 271 332 399
#
# _framework density 22.302800000000001
#
# number of rings (size 3 to 8) (size 9 to 14) (size 15 to 20)
#    0.000    1.000    7.500    1.125    3.500    2.250 
#    0.000    4.375    0.000    1.500    0.000    0.000 
#    0.000    0.000    0.000    0.000    0.000    0.000 
#
# Total GULP energy -396476.614539 kJ/mol
# GULP energy per Si atom -12389.894204 kJ/mol
# Density = 2.225204 g / cm^3
# Si number density = 22.302800 Si / 1000 Ang^3
#
#
#
# Elastic Constant Matrix: (Units=GPa)
#
#
# Indices 1 2 3 4 5 6 
#
# 1 58.8260 25.5416 37.7093 0.0001 -14.8386 0.0001
# 2 25.5416 97.0193 42.0721 0.0000 -6.8974 0.0000
# 3 37.7093 42.0721 108.8099 0.0006 -8.5085 0.0005
# 4 0.0001 0.0000 0.0006 22.4078 0.0000 0.9335
# 5 -14.8386 -6.8974 -8.5085 0.0000 35.7008 0.0004
# 6 0.0001 0.0000 0.0005 0.9335 0.0004 15.5839
#
#
#
# Elastic Compliance Matrix: (Units=1/GPa)
#
#
# Indices 1 2 3 4 5 6 
#
# 1 0.024665 -0.002988 -0.006762 0.000000 0.008063 0.000000
# 2 -0.002988 0.012803 -0.003891 0.000000 0.000304 0.000000
# 3 -0.006762 -0.003891 0.013002 0.000000 -0.000464 0.000000
# 4 0.000000 0.000000 0.000000 0.044739 0.000000 -0.002680
# 5 0.008063 0.000304 -0.000464 0.000000 0.031310 -0.000001
# 6 0.000000 0.000000 0.000000 -0.002680 -0.000001 0.064329
#
#
# Mechanical properties :
#
#
# Convention : Reuss Voigt Hill
#
# Bulk Modulus (GPa) = 43.12590 52.81126 47.96858
# Shear Modulus (GPa) = 22.13762 25.36066 23.74914
#
# Velocity S-wave (km/s) = 3.15396 3.37576 3.26674
# Velocity P-wave (km/s) = 5.71330 6.23899 5.98192
#
# Compressibility (1/GPa) = 0.02318792
#
# Stress axis : x y z
#
# Youngs Moduli (GPa) = 40.54286 78.10814 76.91053
#
# Poissons Ratio (x) = 0.23337 0.52009
# Poissons Ratio (y) = 0.12113 0.29926
# Poissons Ratio (z) = 0.27416 0.30392
#
# Static dielectric constant tensor:
#      x y z
#    x 4.096180 0.000000 -0.162940 
#    y 0.000000 3.813580 0.000000 
#    z -0.162940 0.000000 4.150330 
# 
# 
# High freq. dielectric constant tensor:
#      x y z
#    x 1.872800 0.000000 -0.018370 
#    y 0.000000 1.851110 0.000000 
#    z -0.018370 0.000000 1.890840 
# 
# From -- ./inp_files/306821.got.cif
#   From: 2010.06.25/outbox.cif.g09.slc.cpg/sg12_154_cif.got.tgz:306821.got - 2010.06.28 00:19:55.
