data_PCOD8110441
_publ_section_title
;
Structure prediction by ZEFSAII (Michael W. Deem and Ramdas Pophale) SiO2 
 PCOD8110441
Probable space group: C 2/M
;
_chemical_formula_sum "Si O2"
_cell_formula_units_Z 64
_cell_length_a 9.170885
_cell_length_b 27.325168
_cell_length_c 17.288019
_cell_angle_alpha 90.000000
_cell_angle_beta 40.328164
_cell_angle_gamma 90.000000
_cell_volume 2803.716316
_symmetry_space_group_name_H-M "C 2/M"
_symmetry_group_IT_number 12
_symmetry_cell_setting 'monoclinic'
loop_
_space_group_symop_operation_xyz
x,y,z
-x,y,-z
-x,-y,-z
x,-y,z
1/2+x,1/2+y,z
1/2-x,1/2+y,-z
1/2-x,1/2-y,-z
1/2+x,1/2-y,z
loop_
_atom_site_type_symbol
_atom_site_label
_atom_site_fract_x
_atom_site_fract_y
_atom_site_fract_z
Si Si1 0.064708 0.714613 0.723534
Si Si2 0.593341 0.376133 0.041400
Si Si3 0.491620 0.772902 0.421401
Si Si4 0.675710 0.945098 0.593385
Si Si5 0.690438 0.445137 0.742790
Si Si6 0.749198 0.213685 0.929927
Si Si7 0.446428 0.888731 0.205025
Si Si8 0.964244 0.057489 0.678016
O O1 0.323216 0.730819 0.633721
O O2 0.979301 0.696984 0.670990
O O3 0.027651 0.670134 0.798290
O O4 0.905588 0.761579 0.801861
O O5 0.403972 0.412818 0.148937
O O6 0.639847 0.337010 0.089142
O O7 0.500000 0.351019 0.000000
O O8 0.818579 0.406700 0.927015
O O9 0.500000 0.804226 0.500000
O O10 0.250000 0.750000 0.500000
O O11 0.459328 0.942956 0.625909
O O12 0.626797 0.909413 0.683169
O O13 0.896286 0.929236 0.456126
O O14 0.710716 0.000000 0.612158
O O15 0.607927 0.500000 0.793703
O O16 0.606915 0.426957 0.694018
O O17 0.500000 0.203230 0.000000
O O18 0.750000 0.250000 0.000000
O O19 0.252524 0.907520 0.226192
O O20 0.900319 0.000000 0.704412
#
# Coordination Sequence:
#
# PCOD8110441 Si02
#       8
#     8   8   8   8   8   8   8   8
#     4  11  24  41  67  94 128 170 225 274 334 397
#     4  12  27  46  66  99 141 176 230 280 337 411
#     4   9  21  42  63  89 126 166 206 267 335 399
#     4  10  21  42  69  98 135 180 224 271 332 405
#     4  10  23  43  70 101 137 180 223 277 342 403
#     4  12  26  44  71  97 129 175 225 283 334 394
#     4  12  25  40  66  99 135 172 221 280 336 403
#     4  10  23  43  68 101 137 176 227 280 335 406
#
# _framework density 22.826846
#
# number of rings (size 3 to 8) (size 9 to 14) (size 15 to 20)
#    0.000    1.250    2.500    2.250    3.500    6.750 
#    0.000    5.000    0.000    0.000    0.000    0.000 
#    0.000    0.000    0.000    0.000    0.000    0.000 
#
# Total GULP energy -396519.462792 kJ/mol
# GULP energy per Si atom -12391.233212 kJ/mol
# Density = 2.277489 g / cm^3
# Si number density = 22.826846 Si / 1000 Ang^3
#
#
#
# Elastic Constant Matrix: (Units=GPa)
#
#
# Indices 1 2 3 4 5 6 
#
# 1 103.4907 14.8363 0.0206 0.0000 -8.0646 0.0000
# 2 14.8363 64.9456 19.5550 0.0000 -4.7233 0.0000
# 3 0.0206 19.5550 87.1929 0.0000 -15.6576 0.0000
# 4 0.0000 0.0000 0.0000 53.5610 0.0000 7.3611
# 5 -8.0646 -4.7233 -15.6576 0.0000 41.7600 0.0000
# 6 0.0000 0.0000 0.0000 7.3611 0.0000 35.3686
#
#
#
# Elastic Compliance Matrix: (Units=1/GPa)
#
#
# Indices 1 2 3 4 5 6 
#
# 1 0.010172 -0.002451 0.000912 0.000000 0.002029 0.000000
# 2 -0.002451 0.017113 -0.003833 0.000000 0.000025 0.000000
# 3 0.000912 -0.003833 0.013169 0.000000 0.004680 0.000000
# 4 0.000000 0.000000 0.000000 0.019220 0.000000 -0.004000
# 5 0.002029 0.000025 0.004680 0.000000 0.026096 0.000000
# 6 0.000000 0.000000 0.000000 -0.004000 0.000000 0.029106
#
#
# Mechanical properties :
#
#
# Convention : Reuss Voigt Hill
#
# Bulk Modulus (GPa) = 33.65884 36.05034 34.85459
# Shear Modulus (GPa) = 36.89407 40.88574 38.88991
#
# Velocity S-wave (km/s) = 4.02463 4.23676 4.13206
# Velocity P-wave (km/s) = 6.03110 6.30561 6.16988
#
# Compressibility (1/GPa) = 0.02970987
#
# Stress axis : x y z
#
# Youngs Moduli (GPa) = 98.30957 58.43428 75.93800
#
# Poissons Ratio (x) = 0.14320 -0.06922
# Poissons Ratio (y) = 0.24092 0.29106
# Poissons Ratio (z) = -0.08961 0.22397
#
# Static dielectric constant tensor:
#      x y z
#    x 4.631970 0.000000 0.002370 
#    y 0.000000 3.981290 0.000000 
#    z 0.002370 0.000000 4.524060 
# 
# 
# High freq. dielectric constant tensor:
#      x y z
#    x 1.927050 0.000000 -0.005610 
#    y 0.000000 1.868770 0.000000 
#    z -0.005610 0.000000 1.910780 
# 
# From -- ./inp_files/260294.got.cif
#   From: 2010.06.25/outbox.cif.g09.slc.cpg/sg12_131_cif.got.tgz:260294.got - 2010.06.28 00:19:55.
