data_PCOD8110907
_publ_section_title
;
Structure prediction by ZEFSAII (Michael W. Deem and Ramdas Pophale) SiO2 
 PCOD8110907
Probable space group: C 2/M
;
_chemical_formula_sum "Si O2"
_cell_formula_units_Z 48
_cell_length_a 28.991995
_cell_length_b 13.286346
_cell_length_c 8.994404
_cell_angle_alpha 90.000000
_cell_angle_beta 138.023389
_cell_angle_gamma 90.000000
_cell_volume 2317.234409
_symmetry_space_group_name_H-M "C 2/M"
_symmetry_group_IT_number 12
_symmetry_cell_setting 'monoclinic'
loop_
_space_group_symop_operation_xyz
x,y,z
-x,y,-z
-x,-y,-z
x,-y,z
1/2+x,1/2+y,z
1/2-x,1/2+y,-z
1/2-x,1/2-y,-z
1/2+x,1/2-y,z
loop_
_atom_site_type_symbol
_atom_site_label
_atom_site_fract_x
_atom_site_fract_y
_atom_site_fract_z
Si Si1 0.448509 0.389712 0.513685
Si Si2 0.713402 0.383977 0.512466
Si Si3 0.515173 0.198529 0.711937
Si Si4 0.183568 0.219378 0.748958
Si Si5 0.400033 0.886635 0.604250
Si Si6 0.642335 0.797242 0.200895
O O1 0.500000 0.400235 0.500000
O O2 0.441432 0.500000 0.573393
O O3 0.483661 0.304632 0.701787
O O4 0.372255 0.345812 0.288768
O O5 0.691659 0.500000 0.441322
O O6 0.703703 0.349092 0.657724
O O7 0.666920 0.317380 0.289081
O O8 0.793145 0.371195 0.661089
O O9 0.500000 0.187610 0.500000
O O10 0.475515 0.111920 0.707736
O O11 0.596661 0.196870 0.941038
O O12 0.153012 0.325770 0.625063
O O13 0.250000 0.250000 0.000000
O O14 0.404893 0.836551 0.777895
O O15 0.372794 0.000000 0.551173
#
# Coordination Sequence:
#
# PCOD8110907 Si02
#       6
#     8   8   8   8   8   8
#     4   9  19  36  58  86 121 160 200 247 313 376
#     4  10  22  39  63  89 120 167 214 256 315 380
#     4  10  22  38  61  90 126 159 203 264 317 371
#     4  10  22  38  60  90 128 161 205 270 315 372
#     4  10  22  40  59  85 120 163 209 252 315 378
#     4  10  22  40  62  88 125 164 208 263 307 377
#
# _framework density 20.714348000000001
#
# number of rings (size 3 to 8) (size 9 to 14) (size 15 to 20)
#    0.000    2.167    0.000    1.500    7.000    4.333 
#    0.000    0.000    0.000    6.000    0.000    0.000 
#    0.000    0.000    0.000    0.000    0.000    0.000 
#
# Total GULP energy -297417.327937 kJ/mol
# GULP energy per Si atom -12392.388664 kJ/mol
# Density = 2.066720 g / cm^3
# Si number density = 20.714348 Si / 1000 Ang^3
#
#
#
# Elastic Constant Matrix: (Units=GPa)
#
#
# Indices 1 2 3 4 5 6 
#
# 1 102.3593 26.5443 45.8664 0.0000 8.8866 0.0000
# 2 26.5443 134.4003 30.7420 0.0000 5.6424 0.0000
# 3 45.8664 30.7420 137.8603 0.0000 5.7669 0.0000
# 4 0.0000 0.0000 0.0000 13.9928 0.0000 1.2401
# 5 8.8866 5.6424 5.7669 0.0000 23.3254 0.0000
# 6 0.0000 0.0000 0.0000 1.2401 0.0000 23.5903
#
#
#
# Elastic Compliance Matrix: (Units=1/GPa)
#
#
# Indices 1 2 3 4 5 6 
#
# 1 0.012016 -0.001422 -0.003540 0.000000 -0.003359 0.000000
# 2 -0.001422 0.008060 -0.001278 0.000000 -0.001092 0.000000
# 3 -0.003540 -0.001278 0.008738 0.000000 -0.000502 0.000000
# 4 0.000000 0.000000 0.000000 0.071800 0.000000 -0.003774
# 5 -0.003359 -0.001092 -0.000502 0.000000 0.044540 0.000000
# 6 0.000000 0.000000 0.000000 -0.003774 0.000000 0.042589
#
#
# Mechanical properties :
#
#
# Convention : Reuss Voigt Hill
#
# Bulk Modulus (GPa) = 61.23086 64.54725 62.88906
# Shear Modulus (GPa) = 24.31113 30.27952 27.29532
#
# Velocity S-wave (km/s) = 3.42956 3.82745 3.63395
# Velocity P-wave (km/s) = 6.73099 7.12466 6.93062
#
# Compressibility (1/GPa) = 0.01633163
#
# Stress axis : x y z
#
# Youngs Moduli (GPa) = 83.22036 124.07518 114.44785
#
# Poissons Ratio (x) = 0.17649 0.40516
# Poissons Ratio (y) = 0.11838 0.14630
# Poissons Ratio (z) = 0.29461 0.15861
#
# Static dielectric constant tensor:
#      x y z
#    x 3.906130 0.000000 0.168430 
#    y 0.000000 4.224310 0.000000 
#    z 0.168430 0.000000 3.462590 
# 
# 
# High freq. dielectric constant tensor:
#      x y z
#    x 1.822800 0.000000 0.017390 
#    y 0.000000 1.816110 0.000000 
#    z 0.017390 0.000000 1.783800 
# 
# From -- ./inp_files/111767.got.cif
#   From: 2010.06.25/outbox.cif.g09.slc.cpg/sg12_56_cif.got.tgz:111767.got - 2010.06.28 00:19:55.
