data_PCOD8110466
_publ_section_title
;
Structure prediction by ZEFSAII (Michael W. Deem and Ramdas Pophale) SiO2 
 PCOD8110466
Probable space group: C 2/M
;
_chemical_formula_sum "Si O2"
_cell_formula_units_Z 36
_cell_length_a 19.612532
_cell_length_b 13.405007
_cell_length_c 20.803021
_cell_angle_alpha 90.000000
_cell_angle_beta 19.339277
_cell_angle_gamma 90.000000
_cell_volume 1811.201212
_symmetry_space_group_name_H-M "C 2/M"
_symmetry_group_IT_number 12
_symmetry_cell_setting 'monoclinic'
loop_
_space_group_symop_operation_xyz
x,y,z
-x,y,-z
-x,-y,-z
x,-y,z
1/2+x,1/2+y,z
1/2-x,1/2+y,-z
1/2-x,1/2-y,-z
1/2+x,1/2-y,z
loop_
_atom_site_type_symbol
_atom_site_label
_atom_site_fract_x
_atom_site_fract_y
_atom_site_fract_z
Si Si1 0.049482 0.500000 0.697054
Si Si2 0.000000 0.663378 0.500000
Si Si3 0.164021 0.335846 0.031985
Si Si4 0.941394 0.211912 0.123423
Si Si5 0.529706 0.500000 0.846926
Si Si6 0.491049 0.000000 0.604423
Si Si7 0.966524 0.000000 0.759527
O O1 0.928790 0.500000 0.735070
O O2 0.294860 0.500000 0.468855
O O3 0.993999 0.401613 0.785801
O O4 0.805810 0.726405 0.647763
O O5 0.093424 0.596957 0.358047
O O6 0.042718 0.290616 0.080503
O O7 0.250000 0.250000 0.000000
O O8 0.353262 0.400648 0.834188
O O9 0.020205 0.099202 0.068007
O O10 0.000000 0.243238 0.000000
O O11 0.765453 0.500000 0.617367
O O12 0.407578 0.500000 0.888306
#
# Coordination Sequence:
#
# PCOD8110466 Si02
#       7
#     4   4   8   8   4   4   4
#     4  10  24  41  65  86 128 170 199 252 321 348
#     4   9  20  36  56  89 132 150 198 241 304 395
#     4  11  24  40  62  97 125 156 217 257 294 376
#     4  11  23  37  61  92 125 165 198 252 317 364
#     4   9  17  37  59  93 127 152 193 248 313 389
#     4   8  17  35  57  89 119 162 187 236 315 385
#     4  10  21  43  64  88 130 162 201 258 310 364
#
# _framework density 19.876311999999999
#
# number of rings (size 3 to 8) (size 9 to 14) (size 15 to 20)
#    0.000    2.000    2.222    1.000    3.111    2.667 
#    0.000    2.222    0.000    4.000    0.000    0.000 
#    0.000    0.000    0.000    0.000    0.000    0.000 
#
# Total GULP energy -223190.550494 kJ/mol
# GULP energy per Si atom -12399.475027 kJ/mol
# Density = 1.983107 g / cm^3
# Si number density = 19.876312 Si / 1000 Ang^3
#
#
#
# Elastic Constant Matrix: (Units=GPa)
#
#
# Indices 1 2 3 4 5 6 
#
# 1 161.7631 73.0768 50.3432 -0.0564 2.5006 0.0149
# 2 73.0768 126.2406 49.9715 -0.0048 -3.5118 -0.0148
# 3 50.3432 49.9715 90.6171 -0.1643 3.8408 0.0264
# 4 -0.0564 -0.0048 -0.1643 21.0880 0.0099 -9.8079
# 5 2.5006 -3.5118 3.8408 0.0099 37.8222 0.0125
# 6 0.0149 -0.0148 0.0264 -9.8079 0.0125 38.7505
#
#
#
# Elastic Compliance Matrix: (Units=1/GPa)
#
#
# Indices 1 2 3 4 5 6 
#
# 1 0.008869 -0.004113 -0.002630 0.000001 -0.000701 -0.000003
# 2 -0.004113 0.012128 -0.004482 -0.000045 0.001853 -0.000003
# 3 -0.002630 -0.004482 0.015043 0.000119 -0.001770 0.000020
# 4 0.000001 -0.000045 0.000119 0.053748 -0.000035 0.013604
# 5 -0.000701 0.001853 -0.001770 -0.000035 0.026838 -0.000015
# 6 -0.000003 -0.000003 0.000020 0.013604 -0.000015 0.029249
#
#
# Mechanical properties :
#
#
# Convention : Reuss Voigt Hill
#
# Bulk Modulus (GPa) = 73.57347 80.60043 77.08695
# Shear Modulus (GPa) = 28.92625 33.21409 31.07017
#
# Velocity S-wave (km/s) = 3.81899 4.09227 3.95799
# Velocity P-wave (km/s) = 7.51946 7.93523 7.73014
#
# Compressibility (1/GPa) = 0.01359186
#
# Stress axis : x y z
#
# Youngs Moduli (GPa) = 112.75297 82.45644 66.47578
#
# Poissons Ratio (x) = 0.33911 0.17481
# Poissons Ratio (y) = 0.46370 0.29793
# Poissons Ratio (z) = 0.29650 0.36955
#
# Static dielectric constant tensor:
#      x y z
#    x 3.935800 0.000040 -0.201510 
#    y 0.000040 3.580210 0.000530 
#    z -0.201510 0.000530 3.510250 
# 
# 
# High freq. dielectric constant tensor:
#      x y z
#    x 1.783780 0.000000 -0.017170 
#    y 0.000000 1.749910 0.000030 
#    z -0.017170 0.000030 1.783110 
# 
# From -- ./inp_files/321498.got.cif
#   From: 2010.06.25/outbox.cif.g09.slc.cpg/sg12_161_cif.got.tgz:321498.got - 2010.06.28 00:19:55.
