data_PCOD8110210
_publ_section_title
;
Structure prediction by ZEFSAII (Michael W. Deem and Ramdas Pophale) SiO2 
 PCOD8110210
Probable space group: C 2/M
;
_chemical_formula_sum "Si O2"
_cell_formula_units_Z 40
_cell_length_a 29.485629
_cell_length_b 8.041676
_cell_length_c 26.559839
_cell_angle_alpha 90.000000
_cell_angle_beta 161.625067
_cell_angle_gamma 90.000000
_cell_volume 1985.250356
_symmetry_space_group_name_H-M "C 2/M"
_symmetry_group_IT_number 12
_symmetry_cell_setting 'monoclinic'
loop_
_space_group_symop_operation_xyz
x,y,z
-x,y,-z
-x,-y,-z
x,-y,z
1/2+x,1/2+y,z
1/2-x,1/2+y,-z
1/2-x,1/2-y,-z
1/2+x,1/2-y,z
loop_
_atom_site_type_symbol
_atom_site_label
_atom_site_fract_x
_atom_site_fract_y
_atom_site_fract_z
Si Si1 0.667607 0.000000 0.235326
Si Si2 0.677573 0.810149 0.974131
Si Si3 0.337864 0.000000 0.889571
Si Si4 0.696644 0.185812 0.793498
Si Si5 0.111185 0.311780 0.381167
Si Si6 0.920579 0.820324 0.542437
O O1 0.755381 0.165139 0.347307
O O2 0.665450 0.000000 0.173459
O O3 0.504149 0.000000 0.084474
O O4 0.508492 0.789060 0.787723
O O5 0.718756 0.000000 0.030052
O O6 0.750000 0.750000 0.000000
O O7 0.728592 0.695369 0.073375
O O8 0.259194 0.830681 0.823909
O O9 0.522763 0.198454 0.617792
O O10 0.727214 0.000000 0.803552
O O11 0.128195 0.500000 0.416619
O O12 0.250000 0.250000 0.500000
O O13 0.078302 0.213783 0.397232
O O14 0.996258 0.000000 0.616074
#
# Coordination Sequence:
#
# PCOD8110210 Si02
#       6
#     4   8   4   8   8   8
#     4   9  25  45  77  91 131 175 215 283 358 389
#     4  11  22  37  58  91 130 175 217 259 315 384
#     4  11  23  51  71  99 129 169 225 287 342 403
#     4  12  24  40  68 101 133 174 225 274 328 399
#     4  11  24  37  57  91 134 177 220 262 322 389
#     4  10  21  41  64  94 127 170 218 267 333 387
#
# _framework density 20.148593999999999
#
# number of rings (size 3 to 8) (size 9 to 14) (size 15 to 20)
#    0.600    0.600    4.000    1.800    2.800    4.000 
#    0.000    6.000    0.000    0.000    0.000    0.000 
#    0.000    0.000    0.000    0.000    0.000    0.000 
#
# Total GULP energy -247851.812017 kJ/mol
# GULP energy per Si atom -12392.590601 kJ/mol
# Density = 2.010273 g / cm^3
# Si number density = 20.148594 Si / 1000 Ang^3
#
#
#
# Elastic Constant Matrix: (Units=GPa)
#
#
# Indices 1 2 3 4 5 6 
#
# 1 56.7603 18.8227 8.4216 0.0021 12.3940 0.0003
# 2 18.8227 115.2487 30.4533 0.0057 10.4737 0.0025
# 3 8.4216 30.4533 99.7370 0.0077 15.2073 0.0040
# 4 0.0021 0.0057 0.0077 28.5509 0.0045 0.7600
# 5 12.3940 10.4737 15.2073 0.0045 36.0169 0.0016
# 6 0.0003 0.0025 0.0040 0.7600 0.0016 20.2870
#
#
#
# Elastic Compliance Matrix: (Units=1/GPa)
#
#
# Indices 1 2 3 4 5 6 
#
# 1 0.019830 -0.002708 0.000078 0.000000 -0.006069 0.000000
# 2 -0.002708 0.009899 -0.002669 -0.000001 -0.000820 -0.000001
# 3 0.000078 -0.002669 0.011458 -0.000002 -0.004089 -0.000002
# 4 0.000000 -0.000001 -0.000002 0.035060 -0.000003 -0.001313
# 5 -0.006069 -0.000820 -0.004089 -0.000003 0.031818 -0.000001
# 6 0.000000 -0.000001 -0.000002 -0.001313 -0.000001 0.049342
#
#
# Mechanical properties :
#
#
# Convention : Reuss Voigt Hill
#
# Bulk Modulus (GPa) = 32.69138 43.01568 37.85353
# Shear Modulus (GPa) = 28.05835 31.24085 29.64960
#
# Velocity S-wave (km/s) = 3.73577 3.94194 3.84024
# Velocity P-wave (km/s) = 5.90494 6.48954 6.20413
#
# Compressibility (1/GPa) = 0.03058910
#
# Stress axis : x y z
#
# Youngs Moduli (GPa) = 50.42988 101.02207 87.27452
#
# Poissons Ratio (x) = 0.27353 -0.00678
# Poissons Ratio (y) = 0.13654 0.23292
# Poissons Ratio (z) = -0.00392 0.26961
#
# Static dielectric constant tensor:
#      x y z
#    x 3.692770 0.000000 -0.108410 
#    y 0.000000 3.752780 0.000000 
#    z -0.108410 0.000000 4.098080 
# 
# 
# High freq. dielectric constant tensor:
#      x y z
#    x 1.776530 0.000000 0.006140 
#    y 0.000000 1.782150 0.000000 
#    z 0.006140 0.000000 1.796880 
# 
# From -- ./inp_files/370477.got.cif
#   From: 2010.06.25/outbox.cif.g09.slc.cpg/sg12_186_cif.got.tgz:370477.got - 2010.06.28 00:19:55.
