data_PCOD8110859
_publ_section_title
;
Structure prediction by ZEFSAII (Michael W. Deem and Ramdas Pophale) SiO2 
 PCOD8110859
Probable space group: C 2/M
;
_chemical_formula_sum "Si O2"
_cell_formula_units_Z 52
_cell_length_a 20.440239
_cell_length_b 24.296661
_cell_length_c 6.739180
_cell_angle_alpha 90.000000
_cell_angle_beta 133.949778
_cell_angle_gamma 90.000000
_cell_volume 2409.578073
_symmetry_space_group_name_H-M "C 2/M"
_symmetry_group_IT_number 12
_symmetry_cell_setting 'monoclinic'
loop_
_space_group_symop_operation_xyz
x,y,z
-x,y,-z
-x,-y,-z
x,-y,z
1/2+x,1/2+y,z
1/2-x,1/2+y,-z
1/2-x,1/2-y,-z
1/2+x,1/2-y,z
loop_
_atom_site_type_symbol
_atom_site_label
_atom_site_fract_x
_atom_site_fract_y
_atom_site_fract_z
Si Si1 0.000000 0.895859 0.000000
Si Si2 0.851975 0.733376 0.261242
Si Si3 0.902963 0.346212 0.704347
Si Si4 0.107259 0.848704 0.578873
Si Si5 0.835070 0.562665 0.305199
Si Si6 0.314878 0.860686 0.921466
Si Si7 0.627808 0.561990 0.946343
O O1 0.954807 0.857206 0.742088
O O2 0.077635 0.932295 0.053849
O O3 0.862287 0.706128 0.501506
O O4 0.914564 0.787998 0.376881
O O5 0.750000 0.750000 0.000000
O O6 0.878504 0.687302 0.153432
O O7 0.908235 0.399784 0.573991
O O8 0.834386 0.364079 0.732194
O O9 0.000000 0.331587 0.000000
O O10 0.209936 0.846901 0.723652
O O11 0.086719 0.895001 0.701034
O O12 0.867522 0.500000 0.384264
O O13 0.833427 0.581373 0.071375
O O14 0.735756 0.571870 0.195924
O O15 0.610980 0.500000 0.830220
#
# Coordination Sequence:
#
# PCOD8110859 Si02
#       7
#     4   8   8   8   8   8   8
#     4  12  23  34  56  92 122 154 195 252 306 354
#     4   9  21  40  61  84 116 161 204 252 307 367
#     4  11  23  38  61  94 124 156 202 260 313 365
#     4  10  22  38  59  86 114 157 204 251 296 362
#     4   9  20  40  64  89 120 162 208 249 303 372
#     4   9  20  41  63  81 119 163 206 247 312 364
#     4  10  22  41  60  83 120 162 202 245 297 364
#
# _framework density 21.580542000000001
#
# number of rings (size 3 to 8) (size 9 to 14) (size 15 to 20)
#    0.000    2.154    0.000    2.538    1.077    8.923 
#    2.769    3.846    0.000    0.000    0.000    0.000 
#    0.000    0.000    0.000    0.000    0.000    0.000 
#
# Total GULP energy -322278.697681 kJ/mol
# GULP energy per Si atom -12395.334526 kJ/mol
# Density = 2.153142 g / cm^3
# Si number density = 21.580542 Si / 1000 Ang^3
#
#
#
# Elastic Constant Matrix: (Units=GPa)
#
#
# Indices 1 2 3 4 5 6 
#
# 1 70.7495 18.9665 22.5500 0.0000 -10.9081 0.0000
# 2 18.9665 160.8229 57.5532 0.0000 -4.4855 0.0000
# 3 22.5500 57.5532 130.3013 0.0000 -2.2919 0.0000
# 4 0.0000 0.0000 0.0000 28.0518 0.0000 -10.8655
# 5 -10.9081 -4.4855 -2.2919 0.0000 21.7216 0.0000
# 6 0.0000 0.0000 0.0000 -10.8655 0.0000 -4.8151
#
#
#
# Elastic Compliance Matrix: (Units=1/GPa)
#
#
# Indices 1 2 3 4 5 6 
#
# 1 0.016299 -0.000885 -0.002293 0.000000 0.007760 0.000000
# 2 -0.000885 0.007464 -0.003130 0.000000 0.000767 0.000000
# 3 -0.002293 -0.003130 0.009440 0.000000 -0.000802 0.000000
# 4 0.000000 0.000000 0.000000 0.019022 0.000000 -0.042924
# 5 0.007760 0.000767 -0.000802 0.000000 0.050008 0.000000
# 6 0.000000 0.000000 0.000000 -0.042924 0.000000 -0.110819
#
#
# Mechanical properties :
#
#
# Convention : Reuss Voigt Hill
#
# Bulk Modulus (GPa) = 48.57701 62.22368 55.40034
# Shear Modulus (GPa) = 459.03002 26.51194 242.77098
#
# Velocity S-wave (km/s) = 14.60025 3.50882 10.61789
# Velocity P-wave (km/s) = 17.51518 6.73138 13.26825
#
# Compressibility (1/GPa) = 0.02058587
#
# Stress axis : x y z
#
# Youngs Moduli (GPa) = 61.35321 133.97736 105.93397
#
# Poissons Ratio (x) = 0.11858 0.24294
# Poissons Ratio (y) = 0.05430 0.33159
# Poissons Ratio (z) = 0.14070 0.41936
#
# Static dielectric constant tensor:
#      x y z
#    x 3.770390 0.000000 -0.047820 
#    y 0.000000 4.201020 0.000000 
#    z -0.047820 0.000000 3.932500 
# 
# 
# High freq. dielectric constant tensor:
#      x y z
#    x 1.834620 0.000000 0.001870 
#    y 0.000000 1.852150 0.000000 
#    z 0.001870 0.000000 1.850200 
# 
# From -- ./inp_files/22488.got.cif
#   From: 2010.06.25/outbox.cif.g09.slc.cpg/sg12_12_cif.got.tgz:22488.got - 2010.06.28 00:19:55.
