data_PCOD8110637
_publ_section_title
;
Structure prediction by ZEFSAII (Michael W. Deem and Ramdas Pophale) SiO2 
 PCOD8110637
Probable space group: C 2/M
;
_chemical_formula_sum "Si O2"
_cell_formula_units_Z 40
_cell_length_a 19.855464
_cell_length_b 9.976069
_cell_length_c 17.160988
_cell_angle_alpha 90.000000
_cell_angle_beta 142.016309
_cell_angle_gamma 90.000000
_cell_volume 2092.018295
_symmetry_space_group_name_H-M "C 2/M"
_symmetry_group_IT_number 12
_symmetry_cell_setting 'monoclinic'
loop_
_space_group_symop_operation_xyz
x,y,z
-x,y,-z
-x,-y,-z
x,-y,z
1/2+x,1/2+y,z
1/2-x,1/2+y,-z
1/2-x,1/2-y,-z
1/2+x,1/2-y,z
loop_
_atom_site_type_symbol
_atom_site_label
_atom_site_fract_x
_atom_site_fract_y
_atom_site_fract_z
Si Si1 0.374091 0.000000 0.405260
Si Si2 0.185308 0.726809 0.759413
Si Si3 0.827387 0.842947 0.020044
Si Si4 0.500548 0.748906 0.287507
Si Si5 0.637979 0.500000 0.465002
Si Si6 0.357988 0.000000 0.574049
Si Si7 0.369312 0.500000 0.368918
O O1 0.500000 0.000000 0.500000
O O2 0.320605 0.132567 0.320873
O O3 0.351955 0.000000 0.475898
O O4 0.090118 0.693408 0.735283
O O5 0.174271 0.877517 0.721374
O O6 0.303038 0.697626 0.908024
O O7 0.950144 0.808139 0.160496
O O8 0.803019 0.000000 0.011946
O O9 0.750000 0.750000 0.000000
O O10 0.564535 0.631264 0.388970
O O11 0.581360 0.868754 0.338427
O O12 0.734831 0.500000 0.491682
O O13 0.686134 0.500000 0.596592
O O14 0.500000 0.500000 0.500000
#
# Coordination Sequence:
#
# PCOD8110637 Si02
#       7
#     4   8   8   8   4   4   4
#     4  12  20  37  59  85 125 152 192 250 293 344
#     4  11  21  36  62  91 119 152 196 247 300 347
#     4  10  22  36  59  91 122 154 196 248 301 350
#     4  11  21  39  61  86 126 156 197 249 294 352
#     4  12  24  41  59  87 125 162 200 239 301 358
#     4  12  26  37  61  91 119 164 200 241 297 362
#     4  12  22  37  61  87 123 156 192 250 299 348
#
# _framework density 19.120293
#
# number of rings (size 3 to 8) (size 9 to 14) (size 15 to 20)
#    0.000    0.800    6.000    2.400    8.400    0.000 
#    0.000    0.000    0.000    7.200    0.000    0.000 
#    0.000    0.000    0.000    0.000    0.000    0.000 
#
# Total GULP energy -247997.818712 kJ/mol
# GULP energy per Si atom -12399.890936 kJ/mol
# Density = 1.907677 g / cm^3
# Si number density = 19.120293 Si / 1000 Ang^3
#
#
#
# Elastic Constant Matrix: (Units=GPa)
#
#
# Indices 1 2 3 4 5 6 
#
# 1 72.0402 5.3963 32.5825 0.0000 -9.1181 0.0000
# 2 5.3963 151.8791 57.9585 0.0000 -10.5477 0.0000
# 3 32.5825 57.9585 131.3725 0.0000 -23.9295 0.0000
# 4 0.0000 0.0000 0.0000 38.7110 0.0000 -11.8708
# 5 -9.1181 -10.5477 -23.9295 0.0000 19.0227 0.0000
# 6 0.0000 0.0000 0.0000 -11.8708 0.0000 19.0431
#
#
#
# Elastic Compliance Matrix: (Units=1/GPa)
#
#
# Indices 1 2 3 4 5 6 
#
# 1 0.015967 0.001135 -0.003829 0.000000 0.003465 0.000000
# 2 0.001135 0.007998 -0.003766 0.000000 0.000241 0.000000
# 3 -0.003829 -0.003766 0.012335 0.000000 0.011593 0.000000
# 4 0.000000 0.000000 0.000000 0.031937 0.000000 0.019909
# 5 0.003465 0.000241 0.011593 0.000000 0.068947 0.000000
# 6 0.000000 0.000000 0.000000 0.019909 0.000000 0.064923
#
#
# Mechanical properties :
#
#
# Convention : Reuss Voigt Hill
#
# Bulk Modulus (GPa) = 42.77536 60.79627 51.78582
# Shear Modulus (GPa) = 22.43967 32.64566 27.54267
#
# Velocity S-wave (km/s) = 3.42951 4.13653 3.79950
# Velocity P-wave (km/s) = 6.17271 7.39461 6.81112
#
# Compressibility (1/GPa) = 0.02337794
#
# Stress axis : x y z
#
# Youngs Moduli (GPa) = 62.63037 125.03565 81.07187
#
# Poissons Ratio (x) = -0.14188 0.31046
# Poissons Ratio (y) = -0.07107 0.30531
# Poissons Ratio (z) = 0.23984 0.47087
#
# Static dielectric constant tensor:
#      x y z
#    x 3.207220 0.000000 -0.315460 
#    y 0.000000 3.604970 0.000000 
#    z -0.315460 0.000000 4.335410 
# 
# 
# High freq. dielectric constant tensor:
#      x y z
#    x 1.691390 0.000000 -0.021000 
#    y 0.000000 1.767850 0.000000 
#    z -0.021000 0.000000 1.760490 
# 
# From -- ./inp_files/281919.got.cif
#   From: 2010.06.25/outbox.cif.g09.slc.cpg/sg12_141_cif.got.tgz:281919.got - 2010.06.28 00:19:55.
