data_PCOD8110694
_publ_section_title
;
Structure prediction by ZEFSAII (Michael W. Deem and Ramdas Pophale) SiO2 
 PCOD8110694
Probable space group: C 2/M
;
_chemical_formula_sum "Si O2"
_cell_formula_units_Z 32
_cell_length_a 9.520010
_cell_length_b 23.269328
_cell_length_c 17.801582
_cell_angle_alpha 90.000000
_cell_angle_beta 152.831935
_cell_angle_gamma 90.000000
_cell_volume 1800.602173
_symmetry_space_group_name_H-M "C 2/M"
_symmetry_group_IT_number 12
_symmetry_cell_setting 'monoclinic'
loop_
_space_group_symop_operation_xyz
x,y,z
-x,y,-z
-x,-y,-z
x,-y,z
1/2+x,1/2+y,z
1/2-x,1/2+y,-z
1/2-x,1/2-y,-z
1/2+x,1/2-y,z
loop_
_atom_site_type_symbol
_atom_site_label
_atom_site_fract_x
_atom_site_fract_y
_atom_site_fract_z
Si Si1 0.655373 0.862801 0.150723
Si Si2 0.845946 0.672734 0.142748
Si Si3 0.305962 0.064679 0.693811
Si Si4 0.687167 0.727440 0.387710
O O1 0.402184 0.826498 0.079046
O O2 0.764156 0.917487 0.252612
O O3 0.947880 0.824208 0.271598
O O4 0.500000 0.884296 0.000000
O O5 0.940954 0.609195 0.219410
O O6 0.071022 0.719345 0.283985
O O7 0.500000 0.687744 0.000000
O O8 0.000000 0.070136 0.500000
O O9 0.437415 0.000000 0.753506
O O10 0.750000 0.750000 0.500000
O O11 0.000000 0.703726 0.500000
#
# Coordination Sequence:
#
# PCOD8110694 Si02
#       4
#     8   8   8   8
#     4  10  23  38  55  89 116 155 184 236 295 331
#     4  10  22  37  56  86 117 148 193 229 285 347
#     4   9  19  40  63  82 112 151 197 237 280 338
#     4  12  22  36  58  82 121 153 193 235 281 348
#
# _framework density 17.771832
#
# number of rings (size 3 to 8) (size 9 to 14) (size 15 to 20)
#    1.500    0.250    2.500    3.000    3.500    3.000 
#    0.000    0.000    0.000    0.750    0.000    0.000 
#    0.000    0.000    0.000    0.000    0.000    0.000 
#
# Total GULP energy -198274.240622 kJ/mol
# GULP energy per Si atom -12392.140039 kJ/mol
# Density = 1.773138 g / cm^3
# Si number density = 17.771832 Si / 1000 Ang^3
#
#
#
# Elastic Constant Matrix: (Units=GPa)
#
#
# Indices 1 2 3 4 5 6 
#
# 1 93.8904 -0.3022 46.6763 0.0153 3.1657 0.0168
# 2 -0.3022 66.7268 25.5942 0.1621 5.6418 0.0051
# 3 46.6763 25.5942 92.0661 -0.7221 -5.6005 0.1776
# 4 0.0153 0.1621 -0.7221 1.1967 -0.0308 12.0223
# 5 3.1657 5.6418 -5.6005 -0.0308 48.6075 0.0026
# 6 0.0168 0.0051 0.1776 12.0223 0.0026 22.2715
#
#
#
# Elastic Compliance Matrix: (Units=1/GPa)
#
#
# Indices 1 2 3 4 5 6 
#
# 1 0.015129 0.003653 -0.008820 0.001506 -0.002425 -0.000754
# 2 0.003653 0.017956 -0.007020 0.001649 -0.003130 -0.000841
# 3 -0.008820 -0.007020 0.017466 -0.002941 0.003400 0.001456
# 4 0.001506 0.001649 -0.002941 -0.188417 -0.000753 0.101731
# 5 -0.002425 -0.003130 0.003400 -0.000753 0.021485 0.000379
# 6 -0.000754 -0.000841 0.001456 0.101731 0.000379 -0.010026
#
#
# Mechanical properties :
#
#
# Convention : Reuss Voigt Hill
#
# Bulk Modulus (GPa) = 38.20060 44.06887 41.13474
# Shear Modulus (GPa) = -53.58628 26.46280 -13.56174
#
# Velocity S-wave (km/s) = -5.49707 3.86298 -2.76543
# Velocity P-wave (km/s) = 4.32998 6.68937 3.60548
#
# Compressibility (1/GPa) = 0.02617760
#
# Stress axis : x y z
#
# Youngs Moduli (GPa) = 66.09932 55.69113 57.25531
#
# Poissons Ratio (x) = -0.20343 0.50498
# Poissons Ratio (y) = -0.24145 0.40191
# Poissons Ratio (z) = 0.58298 0.39093
#
# Static dielectric constant tensor:
#      x y z
#    x 3.287540 -0.000060 -0.089380 
#    y -0.000060 3.248680 -0.000270 
#    z -0.089380 -0.000270 3.216070 
# 
# 
# High freq. dielectric constant tensor:
#      x y z
#    x 1.681470 0.000000 -0.009850 
#    y 0.000000 1.676510 -0.000010 
#    z -0.009850 -0.000010 1.692650 
# 
# From -- ./inp_files/3909.got.cif
#   From: 2010.06.25/outbox.cif.g09.slc.cpg/sg12_2_cif.got.tgz:3909.got - 2010.06.28 00:19:55.
