data_PCOD8110107
_publ_section_title
;
Structure prediction by ZEFSAII (Michael W. Deem and Ramdas Pophale) SiO2 
 PCOD8110107
Probable space group: C 2/M
;
_chemical_formula_sum "Si O2"
_cell_formula_units_Z 44
_cell_length_a 24.778250
_cell_length_b 14.935191
_cell_length_c 8.796296
_cell_angle_alpha 90.000000
_cell_angle_beta 138.872802
_cell_angle_gamma 90.000000
_cell_volume 2141.069684
_symmetry_space_group_name_H-M "C 2/M"
_symmetry_group_IT_number 12
_symmetry_cell_setting 'monoclinic'
loop_
_space_group_symop_operation_xyz
x,y,z
-x,y,-z
-x,-y,-z
x,-y,z
1/2+x,1/2+y,z
1/2-x,1/2+y,-z
1/2-x,1/2-y,-z
1/2+x,1/2-y,z
loop_
_atom_site_type_symbol
_atom_site_label
_atom_site_fract_x
_atom_site_fract_y
_atom_site_fract_z
Si Si1 0.186817 0.102928 0.443388
Si Si2 0.500000 0.162387 0.000000
Si Si3 0.429241 0.292033 0.610807
Si Si4 0.841893 0.249789 0.134258
Si Si5 0.862027 0.600601 0.921954
Si Si6 0.401919 0.393736 0.049877
O O1 0.150298 0.150591 0.513830
O O2 0.284064 0.120644 0.648094
O O3 0.164138 0.000000 0.410057
O O4 0.144592 0.139232 0.200586
O O5 0.442772 0.221179 0.771578
O O6 0.442029 0.103634 0.985497
O O7 0.407880 0.240468 0.409998
O O8 0.505457 0.358903 0.756076
O O9 0.853729 0.152182 0.085297
O O10 0.750000 0.250000 0.000000
O O11 0.864623 0.328631 0.064798
O O12 0.855647 0.500000 0.976971
O O13 0.400317 0.500000 0.069325
#
# Coordination Sequence:
#
# PCOD8110107 Si02
#       6
#     8   4   8   8   8   8
#     4  10  21  40  68  99 131 173 221 273 330 390
#     4  12  25  42  73  96 128 180 229 280 325 390
#     4  12  22  40  68  98 136 173 215 271 342 399
#     4  12  26  42  66  96 138 179 219 268 339 399
#     4  11  25  47  68  96 134 179 231 277 322 386
#     4  11  24  42  67 102 135 169 218 274 337 406
#
# _framework density 20.550477000000001
#
# number of rings (size 3 to 8) (size 9 to 14) (size 15 to 20)
#    0.000    0.727    5.455    1.364    2.545    5.818 
#    0.000    2.727    0.000    0.000    0.000    0.000 
#    0.000    0.000    0.000    0.000    0.000    0.000 
#
# Total GULP energy -272841.421541 kJ/mol
# GULP energy per Si atom -12401.882797 kJ/mol
# Density = 2.050370 g / cm^3
# Si number density = 20.550477 Si / 1000 Ang^3
#
#
#
# Elastic Constant Matrix: (Units=GPa)
#
#
# Indices 1 2 3 4 5 6 
#
# 1 125.4577 44.1995 41.2175 0.0000 5.2795 0.0000
# 2 44.1995 88.4926 51.2999 0.0000 -8.1030 0.0000
# 3 41.2175 51.2999 141.1896 0.0000 -16.0502 0.0000
# 4 0.0000 0.0000 0.0000 25.8105 0.0000 7.9120
# 5 5.2795 -8.1030 -16.0502 0.0000 35.7279 0.0000
# 6 0.0000 0.0000 0.0000 7.9120 0.0000 26.0785
#
#
#
# Elastic Compliance Matrix: (Units=1/GPa)
#
#
# Indices 1 2 3 4 5 6 
#
# 1 0.010238 -0.004390 -0.001769 0.000000 -0.003303 0.000000
# 2 -0.004390 0.016230 -0.004345 0.000000 0.002378 0.000000
# 3 -0.001769 -0.004345 0.009585 0.000000 0.003582 0.000000
# 4 0.000000 0.000000 0.000000 0.042717 0.000000 -0.012960
# 5 -0.003303 0.002378 0.003582 0.000000 0.030626 0.000000
# 6 0.000000 0.000000 0.000000 -0.012960 0.000000 0.042278
#
#
# Mechanical properties :
#
#
# Convention : Reuss Voigt Hill
#
# Bulk Modulus (GPa) = 66.47261 69.84152 68.15707
# Shear Modulus (GPa) = 28.13788 32.08489 30.11138
#
# Velocity S-wave (km/s) = 3.70430 3.95558 3.83200
# Velocity P-wave (km/s) = 7.12123 7.41089 7.26751
#
# Compressibility (1/GPa) = 0.01504379
#
# Stress axis : x y z
#
# Youngs Moduli (GPa) = 97.67734 61.61502 104.32993
#
# Poissons Ratio (x) = 0.27052 0.18456
# Poissons Ratio (y) = 0.42885 0.45331
# Poissons Ratio (z) = 0.17279 0.26771
#
# Static dielectric constant tensor:
#      x y z
#    x 3.797190 0.000000 -0.026200 
#    y 0.000000 3.690610 0.000000 
#    z -0.026200 0.000000 3.935940 
# 
# 
# High freq. dielectric constant tensor:
#      x y z
#    x 1.811400 0.000000 0.005690 
#    y 0.000000 1.802910 0.000000 
#    z 0.005690 0.000000 1.814060 
# 
# From -- ./inp_files/104810.got.cif
#   From: 2010.06.25/outbox.cif.g09.slc.cpg/sg12_53_cif.got.tgz:104810.got - 2010.06.28 00:19:55.
