data_PCOD8110054
_publ_section_title
;
Structure prediction by ZEFSAII (Michael W. Deem and Ramdas Pophale) SiO2 
 PCOD8110054
Probable space group: C 2/M
;
_chemical_formula_sum "Si O2"
_cell_formula_units_Z 56
_cell_length_a 9.705435
_cell_length_b 28.314379
_cell_length_c 11.660103
_cell_angle_alpha 90.000000
_cell_angle_beta 120.773309
_cell_angle_gamma 90.000000
_cell_volume 2753.073847
_symmetry_space_group_name_H-M "C 2/M"
_symmetry_group_IT_number 12
_symmetry_cell_setting 'monoclinic'
loop_
_space_group_symop_operation_xyz
x,y,z
-x,y,-z
-x,-y,-z
x,-y,z
1/2+x,1/2+y,z
1/2-x,1/2+y,-z
1/2-x,1/2-y,-z
1/2+x,1/2-y,z
loop_
_atom_site_type_symbol
_atom_site_label
_atom_site_fract_x
_atom_site_fract_y
_atom_site_fract_z
Si Si1 0.734294 0.295558 0.914240
Si Si2 0.625225 0.197043 0.256706
Si Si3 0.168789 0.131089 0.521325
Si Si4 0.379021 0.698500 0.708144
Si Si5 0.817403 0.553237 0.441728
Si Si6 0.825718 0.946835 0.864547
Si Si7 0.709647 0.848163 0.850236
O O1 0.879329 0.298237 0.883912
O O2 0.568638 0.295324 0.775957
O O3 0.750000 0.250000 0.000000
O O4 0.728391 0.340177 0.995080
O O5 0.747283 0.155648 0.336213
O O6 0.686112 0.247810 0.330234
O O7 0.456548 0.179770 0.236860
O O8 0.183188 0.167583 0.422628
O O9 0.251594 0.082889 0.519656
O O10 0.000000 0.116691 0.500000
O O11 0.329282 0.672673 0.805237
O O12 0.829363 0.500000 0.490932
O O13 0.689444 0.556409 0.281021
O O14 0.000000 0.571880 0.500000
O O15 0.701633 0.905412 0.846629
O O16 0.769493 0.000000 0.877497
O O17 0.000000 0.937345 0.000000
#
# Coordination Sequence:
#
# PCOD8110054 Si02
#       7
#     8   8   8   8   8   8   8
#     4  12  23  41  63  89 130 172 216 258 324 389
#     4  12  25  42  60  92 131 172 215 268 320 383
#     4  12  26  42  61  91 133 169 213 265 331 392
#     4  12  23  42  61  90 126 175 214 264 316 387
#     4  10  22  44  71  96 126 168 222 276 329 397
#     4  10  21  40  67 101 130 163 219 283 335 385
#     4  12  24  37  69  95 126 168 219 270 322 389
#
# _framework density 20.340900999999999
#
# number of rings (size 3 to 8) (size 9 to 14) (size 15 to 20)
#    0.000    0.571    5.714    3.000    0.000    0.286 
#    0.000    0.000    0.000    2.571    0.000    0.000 
#    0.000    0.000    0.000    0.000    0.000    0.000 
#
# Total GULP energy -346898.170708 kJ/mol
# GULP energy per Si atom -12389.220382 kJ/mol
# Density = 2.029460 g / cm^3
# Si number density = 20.340901 Si / 1000 Ang^3
#
#
#
# Elastic Constant Matrix: (Units=GPa)
#
#
# Indices 1 2 3 4 5 6 
#
# 1 89.6501 55.2544 8.7795 0.0000 -5.6978 0.0000
# 2 55.2544 150.4707 19.5145 0.0000 -13.1299 0.0000
# 3 8.7795 19.5145 55.8596 0.0000 2.2043 0.0000
# 4 0.0000 0.0000 0.0000 22.5006 0.0000 -0.5865
# 5 -5.6978 -13.1299 2.2043 0.0000 33.8444 0.0000
# 6 0.0000 0.0000 0.0000 -0.5865 0.0000 30.3431
#
#
#
# Elastic Compliance Matrix: (Units=1/GPa)
#
#
# Indices 1 2 3 4 5 6 
#
# 1 0.014434 -0.005201 -0.000469 0.000000 0.000443 0.000000
# 2 -0.005201 0.009124 -0.002482 0.000000 0.002826 0.000000
# 3 -0.000469 -0.002482 0.018932 0.000000 -0.002275 0.000000
# 4 0.000000 0.000000 0.000000 0.044466 0.000000 0.000859
# 5 0.000443 0.002826 -0.002275 0.000000 0.030866 0.000000
# 6 0.000000 0.000000 0.000000 0.000859 0.000000 0.032973
#
#
# Mechanical properties :
#
#
# Convention : Reuss Voigt Hill
#
# Bulk Modulus (GPa) = 38.18634 51.45300 44.81967
# Shear Modulus (GPa) = 28.43699 31.49975 29.96837
#
# Velocity S-wave (km/s) = 3.74307 3.93948 3.84253
# Velocity P-wave (km/s) = 6.12329 6.78550 6.46288
#
# Compressibility (1/GPa) = 0.02618737
#
# Stress axis : x y z
#
# Youngs Moduli (GPa) = 69.28081 109.60096 52.81936
#
# Poissons Ratio (x) = 0.57002 0.02478
# Poissons Ratio (y) = 0.36032 0.13107
# Poissons Ratio (z) = 0.03250 0.27198
#
# Static dielectric constant tensor:
#      x y z
#    x 3.533170 0.000000 -0.062130 
#    y 0.000000 4.041950 0.000000 
#    z -0.062130 0.000000 3.421880 
# 
# 
# High freq. dielectric constant tensor:
#      x y z
#    x 1.780200 0.000000 0.004580 
#    y 0.000000 1.805070 0.000000 
#    z 0.004580 0.000000 1.799440 
# 
# From -- ./inp_files/125632.got.cif
#   From: 2010.06.25/outbox.cif.g09.slc.cpg/sg12_63_cif.got.tgz:125632.got - 2010.06.28 00:19:55.
