data_PCOD8110725
_publ_section_title
;
Structure prediction by ZEFSAII (Michael W. Deem and Ramdas Pophale) SiO2 
 PCOD8110725
Probable space group: C 2/M
;
_chemical_formula_sum "Si O2"
_cell_formula_units_Z 32
_cell_length_a 21.332538
_cell_length_b 7.798596
_cell_length_c 17.535040
_cell_angle_alpha 90.000000
_cell_angle_beta 33.916410
_cell_angle_gamma 90.000000
_cell_volume 1627.745600
_symmetry_space_group_name_H-M "C 2/M"
_symmetry_group_IT_number 12
_symmetry_cell_setting 'monoclinic'
loop_
_space_group_symop_operation_xyz
x,y,z
-x,y,-z
-x,-y,-z
x,-y,z
1/2+x,1/2+y,z
1/2-x,1/2+y,-z
1/2-x,1/2-y,-z
1/2+x,1/2-y,z
loop_
_atom_site_type_symbol
_atom_site_label
_atom_site_fract_x
_atom_site_fract_y
_atom_site_fract_z
Si Si1 0.012383 0.306146 0.071359
Si Si2 0.763035 0.703764 0.074431
Si Si3 0.698689 0.686633 0.630226
Si Si4 0.619836 0.000000 0.287087
Si Si5 0.370296 0.000000 0.544102
O O1 0.044685 0.500000 0.021592
O O2 0.897856 0.303615 0.236069
O O3 0.115361 0.232223 0.017166
O O4 0.000000 0.213746 0.000000
O O5 0.741702 0.500000 0.109192
O O6 0.673192 0.820884 0.207786
O O7 0.750000 0.750000 0.000000
O O8 0.642949 0.500000 0.672440
O O9 0.750000 0.750000 0.500000
O O10 0.802949 0.669759 0.584003
O O11 0.493332 0.000000 0.382236
O O12 0.621403 0.000000 0.375202
#
# Coordination Sequence:
#
# PCOD8110725 Si02
#       5
#     8   8   8   4   4
#     4  10  22  40  63  92 126 160 209 265 317 378
#     4  11  24  39  64  98 127 166 212 263 320 380
#     4  10  22  37  60  89 124 159 206 253 311 374
#     4  11  22  45  67  85 135 167 211 265 314 378
#     4   9  24  41  63  91 123 171 209 257 320 382
#
# _framework density 19.659091
#
# number of rings (size 3 to 8) (size 9 to 14) (size 15 to 20)
#    0.750    1.000    1.250    2.250    5.250    0.500 
#    0.000    5.000    0.000    0.000    0.000    0.000 
#    0.000    0.000    0.000    0.000    0.000    0.000 
#
# Total GULP energy -198227.501141 kJ/mol
# GULP energy per Si atom -12389.218821 kJ/mol
# Density = 1.961435 g / cm^3
# Si number density = 19.659091 Si / 1000 Ang^3
#
#
#
# Elastic Constant Matrix: (Units=GPa)
#
#
# Indices 1 2 3 4 5 6 
#
# 1 153.3757 26.9783 69.7215 -0.0003 -10.3910 0.0001
# 2 26.9783 86.4456 30.0339 0.0027 -7.9396 -0.0022
# 3 69.7215 30.0339 146.8568 -0.0001 -8.7948 -0.0004
# 4 -0.0003 0.0027 -0.0001 33.8311 -0.0005 3.1024
# 5 -10.3910 -7.9396 -8.7948 -0.0005 39.7851 0.0004
# 6 0.0001 -0.0022 -0.0004 3.1024 0.0004 26.5818
#
#
#
# Elastic Compliance Matrix: (Units=1/GPa)
#
#
# Indices 1 2 3 4 5 6 
#
# 1 0.008507 -0.001260 -0.003712 0.000000 0.001150 0.000000
# 2 -0.001260 0.012790 -0.001910 -0.000001 0.001801 0.000001
# 3 -0.003712 -0.001910 0.009001 0.000000 0.000639 0.000000
# 4 0.000000 -0.000001 0.000000 0.029878 0.000000 -0.003487
# 5 0.001150 0.001801 0.000639 0.000000 0.025936 0.000000
# 6 0.000000 0.000001 0.000000 -0.003487 0.000000 0.038027
#
#
# Mechanical properties :
#
#
# Convention : Reuss Voigt Hill
#
# Bulk Modulus (GPa) = 60.48049 71.12729 65.80389
# Shear Modulus (GPa) = 34.86423 37.36923 36.11673
#
# Velocity S-wave (km/s) = 4.21579 4.36462 4.29085
# Velocity P-wave (km/s) = 7.38435 7.85231 7.62192
#
# Compressibility (1/GPa) = 0.01653426
#
# Stress axis : x y z
#
# Youngs Moduli (GPa) = 117.55149 78.18589 111.10307
#
# Poissons Ratio (x) = 0.09848 0.41245
# Poissons Ratio (y) = 0.14806 0.21219
# Poissons Ratio (z) = 0.43638 0.14933
#
# Static dielectric constant tensor:
#      x y z
#    x 3.889470 0.000000 -0.242880 
#    y 0.000000 3.437750 0.000000 
#    z -0.242880 0.000000 3.497940 
# 
# 
# High freq. dielectric constant tensor:
#      x y z
#    x 1.783530 0.000000 0.002480 
#    y 0.000000 1.753740 0.000000 
#    z 0.002480 0.000000 1.768310 
# 
# From -- ./inp_files/287213.got.cif
#   From: 2010.06.25/outbox.cif.g09.slc.cpg/sg12_144_cif.got.tgz:287213.got - 2010.06.28 00:19:55.
