data_PCOD8110682
_publ_section_title
;
Structure prediction by ZEFSAII (Michael W. Deem and Ramdas Pophale) SiO2 
 PCOD8110682
Probable space group: C 2/M
;
_chemical_formula_sum "Si O2"
_cell_formula_units_Z 48
_cell_length_a 13.627638
_cell_length_b 21.851084
_cell_length_c 11.468212
_cell_angle_alpha 90.000000
_cell_angle_beta 49.372852
_cell_angle_gamma 90.000000
_cell_volume 2591.849729
_symmetry_space_group_name_H-M "C 2/M"
_symmetry_group_IT_number 12
_symmetry_cell_setting 'monoclinic'
loop_
_space_group_symop_operation_xyz
x,y,z
-x,y,-z
-x,-y,-z
x,-y,z
1/2+x,1/2+y,z
1/2-x,1/2+y,-z
1/2-x,1/2-y,-z
1/2+x,1/2-y,z
loop_
_atom_site_type_symbol
_atom_site_label
_atom_site_fract_x
_atom_site_fract_y
_atom_site_fract_z
Si Si1 0.147190 0.357263 0.870229
Si Si2 0.194126 0.431885 0.056597
Si Si3 0.602568 0.066661 0.686167
Si Si4 0.854751 0.069082 0.151929
Si Si5 0.244121 0.157665 0.580943
Si Si6 0.146181 0.781837 0.428759
O O1 0.139771 0.413937 0.787858
O O2 0.246539 0.307025 0.744615
O O3 0.207797 0.383034 0.942333
O O4 0.000000 0.330257 0.000000
O O5 0.243747 0.500000 0.980580
O O6 0.273086 0.406751 0.105380
O O7 0.049004 0.437030 0.211628
O O8 0.648444 0.113900 0.555004
O O9 0.665486 0.000000 0.616119
O O10 0.843180 0.117541 0.265400
O O11 0.810800 0.000000 0.223140
O O12 0.000000 0.067593 0.000000
O O13 0.154726 0.185747 0.548267
O O14 0.322530 0.210274 0.586971
O O15 0.000000 0.792624 0.500000
#
# Coordination Sequence:
#
# PCOD8110682 Si02
#       6
#     8   8   8   8   8   8
#     4   9  18  35  58  83 116 141 181 229 273 326
#     4   9  18  32  55  85 111 141 178 221 277 335
#     4   9  17  32  59  87 108 137 177 227 282 326
#     4  10  22  37  55  81 113 147 179 222 279 334
#     4  10  22  39  57  78 113 142 185 229 272 322
#     4  10  23  39  59  81 107 150 191 228 272 315
#
# _framework density 18.519593
#
# number of rings (size 3 to 8) (size 9 to 14) (size 15 to 20)
#    0.000    2.500    0.000    1.000    4.667    2.667 
#    0.000    3.333    0.000    3.000    0.000    0.000 
#    0.000    0.000    0.000    0.000    0.000    0.000 
#
# Total GULP energy -297527.960071 kJ/mol
# GULP energy per Si atom -12396.998336 kJ/mol
# Density = 1.847744 g / cm^3
# Si number density = 18.519593 Si / 1000 Ang^3
#
#
#
# Elastic Constant Matrix: (Units=GPa)
#
#
# Indices 1 2 3 4 5 6 
#
# 1 98.1641 49.3816 43.8663 0.0000 2.1887 0.0000
# 2 49.3816 123.9105 62.8951 0.0000 4.2629 0.0000
# 3 43.8663 62.8951 97.0726 0.0000 6.0352 0.0000
# 4 0.0000 0.0000 0.0000 33.2037 0.0000 8.1847
# 5 2.1887 4.2629 6.0352 0.0000 23.8396 0.0000
# 6 0.0000 0.0000 0.0000 8.1847 0.0000 19.6595
#
#
#
# Elastic Compliance Matrix: (Units=1/GPa)
#
#
# Indices 1 2 3 4 5 6 
#
# 1 0.013691 -0.003452 -0.003973 0.000000 0.000366 0.000000
# 2 -0.003452 0.012896 -0.006779 0.000000 -0.000273 0.000000
# 3 -0.003973 -0.006779 0.016653 0.000000 -0.002639 0.000000
# 4 0.000000 0.000000 0.000000 0.033561 0.000000 -0.013972
# 5 0.000366 -0.000273 -0.002639 0.000000 0.042630 0.000000
# 6 0.000000 0.000000 0.000000 -0.013972 0.000000 0.056683
#
#
# Mechanical properties :
#
#
# Convention : Reuss Voigt Hill
#
# Bulk Modulus (GPa) = 67.41899 70.15925 68.78912
# Shear Modulus (GPa) = 23.87017 26.20751 25.03884
#
# Velocity S-wave (km/s) = 3.59404 3.76589 3.68097
# Velocity P-wave (km/s) = 7.32844 7.54157 7.43577
#
# Compressibility (1/GPa) = 0.01483262
#
# Stress axis : x y z
#
# Youngs Moduli (GPa) = 73.04168 77.54147 60.04932
#
# Poissons Ratio (x) = 0.26769 0.23856
# Poissons Ratio (y) = 0.25216 0.40706
# Poissons Ratio (z) = 0.29018 0.52563
#
# Static dielectric constant tensor:
#      x y z
#    x 3.476140 0.000000 0.006800 
#    y 0.000000 3.536810 0.000000 
#    z 0.006800 0.000000 3.419070 
# 
# 
# High freq. dielectric constant tensor:
#      x y z
#    x 1.719410 0.000000 0.005610 
#    y 0.000000 1.719620 0.000000 
#    z 0.005610 0.000000 1.713210 
# 
# From -- ./inp_files/135197.got.cif
#   From: 2010.06.25/outbox.cif.g09.slc.cpg/sg12_68_cif.got.tgz:135197.got - 2010.06.28 00:19:55.
