data_PCOD8110028
_publ_section_title
;
Structure prediction by ZEFSAII (Michael W. Deem and Ramdas Pophale) SiO2 
 PCOD8110028
Probable space group: C 2/M
;
_chemical_formula_sum "Si O2"
_cell_formula_units_Z 40
_cell_length_a 22.524989
_cell_length_b 13.832648
_cell_length_c 19.741561
_cell_angle_alpha 90.000000
_cell_angle_beta 161.577770
_cell_angle_gamma 90.000000
_cell_volume 1943.846984
_symmetry_space_group_name_H-M "C 2/M"
_symmetry_group_IT_number 12
_symmetry_cell_setting 'monoclinic'
loop_
_space_group_symop_operation_xyz
x,y,z
-x,y,-z
-x,-y,-z
x,-y,z
1/2+x,1/2+y,z
1/2-x,1/2+y,-z
1/2-x,1/2-y,-z
1/2+x,1/2-y,z
loop_
_atom_site_type_symbol
_atom_site_label
_atom_site_fract_x
_atom_site_fract_y
_atom_site_fract_z
Si Si1 0.367961 0.216069 0.037313
Si Si2 0.873519 0.390961 0.426542
Si Si3 0.012042 0.109233 0.592978
Si Si4 0.638250 0.214576 0.206145
Si Si5 0.652276 0.890506 0.851883
O O1 0.329306 0.324149 0.022918
O O2 0.178866 0.176584 0.798584
O O3 0.536978 0.222813 0.168123
O O4 0.431175 0.146494 0.167032
O O5 0.799892 0.500000 0.334395
O O6 0.697006 0.319857 0.241249
O O7 0.000000 0.357161 0.500000
O O8 0.988932 0.383578 0.620330
O O9 0.816374 0.146303 0.411865
O O10 0.000000 0.116052 0.500000
O O11 0.047330 0.000000 0.655918
O O12 0.500000 0.168064 0.000000
O O13 0.726215 0.000000 0.938806
#
# Coordination Sequence:
#
# PCOD8110028 Si02
#       5
#     8   8   8   8   8
#     4  11  23  41  66  92 128 163 205 259 311 365
#     4  10  21  40  66  93 127 165 204 254 310 370
#     4  11  23  41  63  91 128 167 208 253 309 366
#     4  12  23  38  66  96 124 160 210 257 305 367
#     4  10  22  42  65  90 126 167 205 254 314 370
#
# _framework density 20.577750999999999
#
# number of rings (size 3 to 8) (size 9 to 14) (size 15 to 20)
#    0.000    1.200    4.000    2.400    0.000    4.000 
#    0.000    0.000    0.000    0.000    0.000    0.000 
#    0.000    0.000    0.000    0.000    0.000    0.000 
#
# Total GULP energy -248078.590394 kJ/mol
# GULP energy per Si atom -12403.929520 kJ/mol
# Density = 2.053092 g / cm^3
# Si number density = 20.577751 Si / 1000 Ang^3
#
#
#
# Elastic Constant Matrix: (Units=GPa)
#
#
# Indices 1 2 3 4 5 6 
#
# 1 165.1601 51.3196 45.8708 -0.0216 17.8653 0.0214
# 2 51.3196 144.6576 31.2721 -0.2068 13.8185 0.1289
# 3 45.8708 31.2721 76.3570 0.1585 8.9643 -0.0655
# 4 -0.0216 -0.2068 0.1585 -139.9256 0.2485 71.7975
# 5 17.8653 13.8185 8.9643 0.2485 39.0933 -0.1020
# 6 0.0214 0.1289 -0.0655 71.7975 -0.1020 -12.7854
#
#
#
# Elastic Compliance Matrix: (Units=1/GPa)
#
#
# Indices 1 2 3 4 5 6 
#
# 1 0.007880 -0.001782 -0.003756 -0.000005 -0.002110 0.000003
# 2 -0.001782 0.008146 -0.002079 -0.000019 -0.001588 -0.000004
# 3 -0.003756 -0.002079 0.016357 0.000017 -0.001299 -0.000006
# 4 -0.000005 -0.000019 0.000017 0.003799 0.000037 0.021331
# 5 -0.002110 -0.001588 -0.001299 0.000037 0.027403 -0.000026
# 6 0.000003 -0.000004 -0.000006 0.021331 -0.000026 0.041572
#
#
# Mechanical properties :
#
#
# Convention : Reuss Voigt Hill
#
# Bulk Modulus (GPa) = 58.31562 71.45552 64.88557
# Shear Modulus (GPa) = 39.64867 -5.54271 17.05298
#
# Velocity S-wave (km/s) = 4.39426 -1.64298 2.88185
# Velocity P-wave (km/s) = 7.35845 5.58577 6.53252
#
# Compressibility (1/GPa) = 0.01714807
#
# Stress axis : x y z
#
# Youngs Moduli (GPa) = 126.90522 122.75585 61.13592
#
# Poissons Ratio (x) = 0.21875 0.22964
# Poissons Ratio (y) = 0.22614 0.12712
# Poissons Ratio (z) = 0.47669 0.25525
#
# Static dielectric constant tensor:
#      x y z
#    x 3.884920 -0.000060 -0.186180 
#    y -0.000060 4.099280 -0.000030 
#    z -0.186180 -0.000030 3.572150 
# 
# 
# High freq. dielectric constant tensor:
#      x y z
#    x 1.813110 0.000000 -0.013570 
#    y 0.000000 1.817960 -0.000010 
#    z -0.013570 -0.000010 1.791490 
# 
# From -- ./inp_files/284405.got.cif
#   From: 2010.06.25/outbox.cif.g09.slc.cpg/sg12_143_cif.got.tgz:284405.got - 2010.06.28 00:19:55.
