data_PCOD8110361
_publ_section_title
;
Structure prediction by ZEFSAII (Michael W. Deem and Ramdas Pophale) SiO2 
 PCOD8110361
Probable space group: C 2/M
;
_chemical_formula_sum "Si O2"
_cell_formula_units_Z 40
_cell_length_a 17.319957
_cell_length_b 16.778097
_cell_length_c 11.478551
_cell_angle_alpha 90.000000
_cell_angle_beta 31.552283
_cell_angle_gamma 90.000000
_cell_volume 1745.451230
_symmetry_space_group_name_H-M "C 2/M"
_symmetry_group_IT_number 12
_symmetry_cell_setting 'monoclinic'
loop_
_space_group_symop_operation_xyz
x,y,z
-x,y,-z
-x,-y,-z
x,-y,z
1/2+x,1/2+y,z
1/2-x,1/2+y,-z
1/2-x,1/2-y,-z
1/2+x,1/2-y,z
loop_
_atom_site_type_symbol
_atom_site_label
_atom_site_fract_x
_atom_site_fract_y
_atom_site_fract_z
Si Si1 0.755903 0.408300 0.141210
Si Si2 0.130755 0.345951 0.424588
Si Si3 0.590727 0.088943 0.713403
Si Si4 0.152785 0.172742 0.490947
Si Si5 0.134904 0.904772 0.050695
O O1 0.716184 0.500000 0.202848
O O2 0.646515 0.363556 0.369359
O O3 0.726786 0.379797 0.047135
O O4 0.923269 0.389440 0.962840
O O5 0.102921 0.413548 0.556981
O O6 0.137208 0.266607 0.494583
O O7 0.000000 0.344455 0.500000
O O8 0.284364 0.364667 0.162925
O O9 0.694220 0.153295 0.641856
O O10 0.630564 0.000000 0.707403
O O11 0.025592 0.134845 0.734713
O O12 0.122720 0.000000 0.050066
#
# Coordination Sequence:
#
# PCOD8110361 Si02
#       5
#     8   8   8   8   8
#     4  10  21  41  71  98 131 180 230 276 332 408
#     4  12  26  44  71 100 140 182 226 278 344 411
#     4  11  24  45  71  99 135 181 230 278 336 409
#     4  12  26  42  67 101 144 176 221 287 348 399
#     4  11  24  44  72 102 135 182 234 281 333 404
#
# _framework density 22.916709999999998
#
# number of rings (size 3 to 8) (size 9 to 14) (size 15 to 20)
#    0.000    0.800    2.000    5.400    2.800    6.400 
#    3.600    2.000    0.000    0.000    0.000    0.000 
#    0.000    0.000    0.000    0.000    0.000    0.000 
#
# Total GULP energy -248091.147974 kJ/mol
# GULP energy per Si atom -12404.557399 kJ/mol
# Density = 2.286455 g / cm^3
# Si number density = 22.916710 Si / 1000 Ang^3
#
#
#
# Elastic Constant Matrix: (Units=GPa)
#
#
# Indices 1 2 3 4 5 6 
#
# 1 62.7610 26.7362 -6.5044 -0.0005 -2.2540 0.0003
# 2 26.7362 72.5504 37.4198 -0.0001 -2.5928 0.0001
# 3 -6.5044 37.4198 121.8330 -0.0004 13.5396 0.0003
# 4 -0.0005 -0.0001 -0.0004 25.2085 0.0004 1.7650
# 5 -2.2540 -2.5928 13.5396 0.0004 38.6027 -0.0003
# 6 0.0003 0.0001 0.0003 1.7650 -0.0003 18.1257
#
#
#
# Elastic Compliance Matrix: (Units=1/GPa)
#
#
# Indices 1 2 3 4 5 6 
#
# 1 0.020485 -0.009743 0.004189 0.000000 -0.000928 0.000000
# 2 -0.009743 0.021348 -0.007464 0.000000 0.003483 0.000000
# 3 0.004189 -0.007464 0.011189 0.000000 -0.004181 0.000000
# 4 0.000000 0.000000 0.000000 0.039942 -0.000001 -0.003889
# 5 -0.000928 0.003483 -0.004181 -0.000001 0.027551 0.000001
# 6 0.000000 0.000000 0.000000 -0.003889 0.000001 0.055549
#
#
# Mechanical properties :
#
#
# Convention : Reuss Voigt Hill
#
# Bulk Modulus (GPa) = 37.05606 41.38308 39.21957
# Shear Modulus (GPa) = 23.68606 29.68688 26.68647
#
# Velocity S-wave (km/s) = 3.21841 3.60311 3.41618
# Velocity P-wave (km/s) = 5.47867 5.95038 5.71939
#
# Compressibility (1/GPa) = 0.02698614
#
# Stress axis : x y z
#
# Youngs Moduli (GPa) = 48.81688 46.84227 89.37511
#
# Poissons Ratio (x) = 0.45638 -0.37440
# Poissons Ratio (y) = 0.47561 0.66711
# Poissons Ratio (z) = -0.20450 0.34964
#
# Static dielectric constant tensor:
#      x y z
#    x 4.107890 0.000000 0.123580 
#    y 0.000000 3.982420 0.000000 
#    z 0.123580 0.000000 4.217760 
# 
# 
# High freq. dielectric constant tensor:
#      x y z
#    x 1.911300 0.000000 0.007230 
#    y 0.000000 1.900140 0.000000 
#    z 0.007230 0.000000 1.916810 
# 
# From -- ./inp_files/158435.got.cif
#   From: 2010.06.25/outbox.cif.g09.slc.cpg/sg12_80_cif.got.tgz:158435.got - 2010.06.28 00:19:55.
