data_PCOD8110562
_publ_section_title
;
Structure prediction by ZEFSAII (Michael W. Deem and Ramdas Pophale) SiO2 
 PCOD8110562
Probable space group: C 2/M
;
_chemical_formula_sum "Si O2"
_cell_formula_units_Z 56
_cell_length_a 14.409949
_cell_length_b 29.326833
_cell_length_c 12.822965
_cell_angle_alpha 90.000000
_cell_angle_beta 31.862010
_cell_angle_gamma 90.000000
_cell_volume 2860.535976
_symmetry_space_group_name_H-M "C 2/M"
_symmetry_group_IT_number 12
_symmetry_cell_setting 'monoclinic'
loop_
_space_group_symop_operation_xyz
x,y,z
-x,y,-z
-x,-y,-z
x,-y,z
1/2+x,1/2+y,z
1/2-x,1/2+y,-z
1/2-x,1/2-y,-z
1/2+x,1/2-y,z
loop_
_atom_site_type_symbol
_atom_site_label
_atom_site_fract_x
_atom_site_fract_y
_atom_site_fract_z
Si Si1 0.296133 0.665020 0.729185
Si Si2 0.472181 0.446966 0.405854
Si Si3 0.697149 0.765282 0.292711
Si Si4 0.842673 0.383381 0.327012
Si Si5 0.786932 0.199877 0.419740
Si Si6 0.897066 0.165206 0.988207
Si Si7 0.238514 0.393252 0.976868
O O1 0.500000 0.661781 0.500000
O O2 0.212253 0.715668 0.796972
O O3 0.173877 0.632028 0.776875
O O4 0.276571 0.650168 0.866982
O O5 0.500000 0.431975 0.500000
O O6 0.429340 0.500000 0.439095
O O7 0.309903 0.420459 0.506409
O O8 0.649601 0.436202 0.171972
O O9 0.500000 0.751884 0.500000
O O10 0.743693 0.799347 0.340275
O O11 0.751494 0.794672 0.140390
O O12 0.824245 0.338114 0.414786
O O13 0.031564 0.405957 0.171339
O O14 0.750000 0.250000 0.500000
O O15 0.988675 0.183506 0.220151
O O16 0.798725 0.120074 0.037663
O O17 0.000000 0.154950 0.000000
#
# Coordination Sequence:
#
# PCOD8110562 Si02
#       7
#     8   8   8   8   8   8   8
#     4  11  20  35  55  84 131 166 208 249 302 364
#     4  11  24  44  66  94 129 160 201 259 320 382
#     4  10  22  35  52  84 119 167 215 256 293 356
#     4  12  22  38  62  92 125 166 207 254 305 373
#     4  11  21  35  56  81 123 168 209 249 300 358
#     4  10  23  40  57  83 125 165 213 262 308 350
#     4  12  23  38  64  89 118 167 209 254 319 372
#
# _framework density 19.576751000000002
#
# number of rings (size 3 to 8) (size 9 to 14) (size 15 to 20)
#    0.000    1.000    5.714    1.286    4.000    2.286 
#    0.000    1.429    0.000    0.429    0.000    1.000 
#    0.000    0.000    0.000    0.000    0.000    0.000 
#
# Total GULP energy -346883.552127 kJ/mol
# GULP energy per Si atom -12388.698290 kJ/mol
# Density = 1.953219 g / cm^3
# Si number density = 19.576751 Si / 1000 Ang^3
#
#
#
# Elastic Constant Matrix: (Units=GPa)
#
#
# Indices 1 2 3 4 5 6 
#
# 1 72.3146 25.0288 18.8473 0.0001 -10.3558 0.0000
# 2 25.0288 82.6243 18.2331 0.0000 -6.3689 0.0000
# 3 18.8473 18.2331 85.5108 0.0002 -15.9009 -0.0001
# 4 0.0001 0.0000 0.0002 23.1426 -0.0001 2.6309
# 5 -10.3558 -6.3689 -15.9009 -0.0001 31.0065 0.0001
# 6 0.0000 0.0000 -0.0001 2.6309 0.0001 22.4019
#
#
#
# Elastic Compliance Matrix: (Units=1/GPa)
#
#
# Indices 1 2 3 4 5 6 
#
# 1 0.016329 -0.004223 -0.002040 0.000000 0.003540 0.000000
# 2 -0.004223 0.013844 -0.001940 0.000000 0.000438 0.000000
# 3 -0.002040 -0.001940 0.013659 0.000000 0.005925 0.000000
# 4 0.000000 0.000000 0.000000 0.043795 0.000000 -0.005143
# 5 0.003540 0.000438 0.005925 0.000000 0.036562 0.000000
# 6 0.000000 0.000000 0.000000 -0.005143 0.000000 0.045243
#
#
# Mechanical properties :
#
#
# Convention : Reuss Voigt Hill
#
# Bulk Modulus (GPa) = 36.46143 40.51869 38.49006
# Shear Modulus (GPa) = 25.64353 27.19958 26.42156
#
# Velocity S-wave (km/s) = 3.62318 3.73148 3.67773
# Velocity P-wave (km/s) = 6.01403 6.26958 6.14313
#
# Compressibility (1/GPa) = 0.02742624
#
# Stress axis : x y z
#
# Youngs Moduli (GPa) = 61.24130 72.23281 73.20936
#
# Poissons Ratio (x) = 0.30506 0.14937
# Poissons Ratio (y) = 0.25864 0.14199
# Poissons Ratio (z) = 0.12495 0.14010
#
# Static dielectric constant tensor:
#      x y z
#    x 3.575410 0.000000 0.068000 
#    y 0.000000 3.558620 0.000000 
#    z 0.068000 0.000000 3.657890 
# 
# 
# High freq. dielectric constant tensor:
#      x y z
#    x 1.755740 0.000000 -0.005880 
#    y 0.000000 1.733950 0.000000 
#    z -0.005880 0.000000 1.770710 
# 
# From -- ./inp_files/150382.got.cif
#   From: 2010.06.25/outbox.cif.g09.slc.cpg/sg12_76_cif.got.tgz:150382.got - 2010.06.28 00:19:55.
