data_PCOD8110263
_publ_section_title
;
Structure prediction by ZEFSAII (Michael W. Deem and Ramdas Pophale) SiO2 
 PCOD8110263
Probable space group: C 2/M
;
_chemical_formula_sum "Si O2"
_cell_formula_units_Z 56
_cell_length_a 22.705796
_cell_length_b 21.057845
_cell_length_c 5.346025
_cell_angle_alpha 90.000000
_cell_angle_beta 105.332174
_cell_angle_gamma 90.000000
_cell_volume 2465.147653
_symmetry_space_group_name_H-M "C 2/M"
_symmetry_group_IT_number 12
_symmetry_cell_setting 'monoclinic'
loop_
_space_group_symop_operation_xyz
x,y,z
-x,y,-z
-x,-y,-z
x,-y,z
1/2+x,1/2+y,z
1/2-x,1/2+y,-z
1/2-x,1/2-y,-z
1/2+x,1/2-y,z
loop_
_atom_site_type_symbol
_atom_site_label
_atom_site_fract_x
_atom_site_fract_y
_atom_site_fract_z
Si Si1 0.429245 0.638243 0.860629
Si Si2 0.155043 0.617096 0.034698
Si Si3 0.615189 0.428163 0.688001
Si Si4 0.738476 0.184968 0.744383
Si Si5 0.761945 0.069645 0.434734
Si Si6 0.347512 0.756311 0.744235
Si Si7 0.028060 0.426930 0.778965
O O1 0.419715 0.596687 0.600056
O O2 0.402461 0.707738 0.769275
O O3 0.500000 0.645628 0.000000
O O4 0.397603 0.609832 0.072029
O O5 0.191597 0.570679 0.260584
O O6 0.123503 0.677473 0.132649
O O7 0.207860 0.644140 0.921518
O O8 0.101265 0.578717 0.841386
O O9 0.592542 0.500000 0.704167
O O10 0.688095 0.425168 0.729380
O O11 0.772492 0.131579 0.613503
O O12 0.688204 0.229302 0.553333
O O13 0.795665 0.230539 0.886157
O O14 0.769926 0.000000 0.577729
O O15 0.008298 0.500000 0.754836
O O16 0.000000 0.393475 0.500000
O O17 0.000000 0.395687 0.000000
#
# Coordination Sequence:
#
# PCOD8110263 Si02
#       7
#     8   8   8   8   8   8   8
#     4  12  26  45  69  97 133 179 228 273 323 393
#     4  11  23  39  67  95 128 174 227 272 329 402
#     4  11  25  46  70 100 136 173 218 277 339 392
#     4  10  21  41  66  93 131 172 216 272 341 395
#     4  10  22  38  65 101 134 166 215 280 338 396
#     4  10  23  40  63  95 133 174 218 272 332 394
#     4  10  24  45  67  94 135 178 220 276 335 393
#
# _framework density 22.716692999999999
#
# number of rings (size 3 to 8) (size 9 to 14) (size 15 to 20)
#    0.000    1.429    1.429    2.571    6.000    3.429 
#    0.000    0.000    0.000    0.000    0.000    0.000 
#    0.000    0.000    0.000    0.000    0.000    0.000 
#
# Total GULP energy -347006.635092 kJ/mol
# GULP energy per Si atom -12393.094110 kJ/mol
# Density = 2.266499 g / cm^3
# Si number density = 22.716693 Si / 1000 Ang^3
#
#
#
# Elastic Constant Matrix: (Units=GPa)
#
#
# Indices 1 2 3 4 5 6 
#
# 1 72.5128 32.8567 14.9899 0.0000 16.2115 0.0000
# 2 32.8567 102.9602 22.9941 0.0000 0.5203 0.0000
# 3 14.9899 22.9941 95.8557 0.0000 2.8151 0.0000
# 4 0.0000 0.0000 0.0000 7.3325 0.0000 12.0307
# 5 16.2115 0.5203 2.8151 0.0000 31.5921 0.0000
# 6 0.0000 0.0000 0.0000 12.0307 0.0000 23.5196
#
#
#
# Elastic Compliance Matrix: (Units=1/GPa)
#
#
# Indices 1 2 3 4 5 6 
#
# 1 0.018712 -0.005634 -0.001299 0.000000 -0.009394 0.000000
# 2 -0.005634 0.011959 -0.002072 0.000000 0.002879 0.000000
# 3 -0.001299 -0.002072 0.011141 0.000000 -0.000292 0.000000
# 4 0.000000 0.000000 0.000000 0.848429 0.000000 -0.433986
# 5 -0.009394 0.002879 -0.000292 0.000000 0.036452 0.000000
# 6 0.000000 0.000000 0.000000 -0.433986 0.000000 0.264509
#
#
# Mechanical properties :
#
#
# Convention : Reuss Voigt Hill
#
# Bulk Modulus (GPa) = 42.01326 45.89000 43.95163
# Shear Modulus (GPa) = 4.10797 25.85471 14.98134
#
# Velocity S-wave (km/s) = 1.34621 3.37729 2.57083
# Velocity P-wave (km/s) = 4.57722 5.95424 5.31055
#
# Compressibility (1/GPa) = 0.02380201
#
# Stress axis : x y z
#
# Youngs Moduli (GPa) = 53.44153 83.62183 89.75757
#
# Poissons Ratio (x) = 0.47111 0.11658
# Poissons Ratio (y) = 0.30108 0.18599
# Poissons Ratio (z) = 0.06941 0.17328
#
# Static dielectric constant tensor:
#      x y z
#    x 3.903060 0.000000 0.007430 
#    y 0.000000 4.305520 0.000000 
#    z 0.007430 0.000000 4.170180 
# 
# 
# High freq. dielectric constant tensor:
#      x y z
#    x 1.889550 0.000000 0.004830 
#    y 0.000000 1.905670 0.000000 
#    z 0.004830 0.000000 1.887320 
# 
# From -- ./inp_files/25448.got.cif
#   From: 2010.06.25/outbox.cif.g09.slc.cpg/sg12_13_cif.got.tgz:25448.got - 2010.06.28 00:19:55.
