data_PCOD8110146
_publ_section_title
;
Structure prediction by ZEFSAII (Michael W. Deem and Ramdas Pophale) SiO2 
 PCOD8110146
Probable space group: C 2/M
;
_chemical_formula_sum "Si O2"
_cell_formula_units_Z 64
_cell_length_a 13.883422
_cell_length_b 17.299922
_cell_length_c 22.615846
_cell_angle_alpha 90.000000
_cell_angle_beta 144.340256
_cell_angle_gamma 90.000000
_cell_volume 3166.650147
_symmetry_space_group_name_H-M "C 2/M"
_symmetry_group_IT_number 12
_symmetry_cell_setting 'monoclinic'
loop_
_space_group_symop_operation_xyz
x,y,z
-x,y,-z
-x,-y,-z
x,-y,z
1/2+x,1/2+y,z
1/2-x,1/2+y,-z
1/2-x,1/2-y,-z
1/2+x,1/2-y,z
loop_
_atom_site_type_symbol
_atom_site_label
_atom_site_fract_x
_atom_site_fract_y
_atom_site_fract_z
Si Si1 0.085196 0.086834 0.869514
Si Si2 0.030510 0.588588 0.946838
Si Si3 0.106561 0.911126 0.105677
Si Si4 0.221759 0.336452 0.505022
Si Si5 0.000822 0.089982 0.568336
Si Si6 0.387832 0.185955 0.286340
Si Si7 0.078816 0.211503 0.293737
Si Si8 0.694615 0.189687 0.249784
O O1 0.993611 0.102744 0.884717
O O2 0.024977 0.148782 0.792826
O O3 0.046566 0.000000 0.827118
O O4 0.279319 0.097086 0.975479
O O5 0.970069 0.500000 0.905512
O O6 0.939919 0.649556 0.859127
O O7 0.000000 0.611150 0.000000
O O8 0.291875 0.876943 0.199403
O O9 0.134309 0.000000 0.104781
O O10 0.000000 0.872054 0.000000
O O11 0.250000 0.250000 0.500000
O O12 0.331076 0.392507 0.518220
O O13 0.270317 0.336267 0.599109
O O14 0.028234 0.356132 0.396957
O O15 0.000000 0.117872 0.500000
O O16 0.149652 0.133598 0.673718
O O17 0.037970 0.000000 0.590787
O O18 0.460400 0.256120 0.285118
O O19 0.245748 0.224568 0.255063
O O20 0.128043 0.289191 0.282027
#
# Coordination Sequence:
#
# PCOD8110146 Si02
#       8
#     8   8   8   8   8   8   8   8
#     4  10  22  43  64  90 124 165 213 258 313 376
#     4  10  23  41  62  91 130 169 208 261 324 385
#     4  10  23  44  66  88 124 170 212 262 316 369
#     4  10  21  41  61  89 128 165 207 249 313 375
#     4  11  23  40  64  95 128 165 210 262 322 388
#     4  11  23  41  63  94 124 166 214 255 315 379
#     4  11  23  39  64  96 122 168 209 259 318 377
#     4  12  23  39  64  93 129 167 206 267 315 383
#
# _framework density 20.210632
#
# number of rings (size 3 to 8) (size 9 to 14) (size 15 to 20)
#    0.000    1.375    3.750    2.625    1.750    3.000 
#    0.000    0.625    0.000    1.500    0.000    0.000 
#    0.000    0.000    0.000    0.000    0.000    0.000 
#
# Total GULP energy -396668.377705 kJ/mol
# GULP energy per Si atom -12395.886803 kJ/mol
# Density = 2.016463 g / cm^3
# Si number density = 20.210632 Si / 1000 Ang^3
#
#
#
# Elastic Constant Matrix: (Units=GPa)
#
#
# Indices 1 2 3 4 5 6 
#
# 1 49.2920 32.0705 41.6255 0.0001 -4.7930 0.0000
# 2 32.0705 61.7753 53.5415 -0.0003 -0.4191 0.0000
# 3 41.6255 53.5415 161.0384 -0.0009 -1.1863 -0.0001
# 4 0.0001 -0.0003 -0.0009 28.3563 -0.0001 2.8298
# 5 -4.7930 -0.4191 -1.1863 -0.0001 30.9034 0.0000
# 6 0.0000 0.0000 -0.0001 2.8298 0.0000 31.5778
#
#
#
# Elastic Compliance Matrix: (Units=1/GPa)
#
#
# Indices 1 2 3 4 5 6 
#
# 1 0.032975 -0.013668 -0.003944 0.000000 0.004778 0.000000
# 2 -0.013668 0.028406 -0.005926 0.000000 -0.001962 0.000000
# 3 -0.003944 -0.005926 0.009197 0.000000 -0.000339 0.000000
# 4 0.000000 0.000000 0.000000 0.035584 0.000000 -0.003189
# 5 0.004778 -0.001962 -0.000339 0.000000 0.033060 0.000000
# 6 0.000000 0.000000 0.000000 -0.003189 0.000000 0.031954
#
#
# Mechanical properties :
#
#
# Convention : Reuss Voigt Hill
#
# Bulk Modulus (GPa) = 42.54931 58.50896 50.52913
# Shear Modulus (GPa) = 22.11544 27.82538 24.97041
#
# Velocity S-wave (km/s) = 3.31153 3.71451 3.51879
# Velocity P-wave (km/s) = 5.97664 6.88543 6.44707
#
# Compressibility (1/GPa) = 0.02350214
#
# Stress axis : x y z
#
# Youngs Moduli (GPa) = 30.32574 35.20346 108.73308
#
# Poissons Ratio (x) = 0.48117 0.42883
# Poissons Ratio (y) = 0.41450 0.64434
# Poissons Ratio (z) = 0.11960 0.20861
#
# Static dielectric constant tensor:
#      x y z
#    x 3.666480 0.000000 -0.175250 
#    y 0.000000 5.108340 0.000000 
#    z -0.175250 0.000000 4.387270 
# 
# 
# High freq. dielectric constant tensor:
#      x y z
#    x 1.790010 0.000000 -0.001230 
#    y 0.000000 1.782590 0.000000 
#    z -0.001230 0.000000 1.800450 
# 
# From -- ./inp_files/340886.got.cif
#   From: 2010.06.25/outbox.cif.g09.slc.cpg/sg12_171_cif.got.tgz:340886.got - 2010.06.28 00:19:55.
