data_PCOD8110845
_publ_section_title
;
Structure prediction by ZEFSAII (Michael W. Deem and Ramdas Pophale) SiO2 
 PCOD8110845
Probable space group: C 2/M
;
_chemical_formula_sum "Si O2"
_cell_formula_units_Z 56
_cell_length_a 16.710851
_cell_length_b 15.666922
_cell_length_c 12.402915
_cell_angle_alpha 90.000000
_cell_angle_beta 57.989773
_cell_angle_gamma 90.000000
_cell_volume 2753.455424
_symmetry_space_group_name_H-M "C 2/M"
_symmetry_group_IT_number 12
_symmetry_cell_setting 'monoclinic'
loop_
_space_group_symop_operation_xyz
x,y,z
-x,y,-z
-x,-y,-z
x,-y,z
1/2+x,1/2+y,z
1/2-x,1/2+y,-z
1/2-x,1/2-y,-z
1/2+x,1/2-y,z
loop_
_atom_site_type_symbol
_atom_site_label
_atom_site_fract_x
_atom_site_fract_y
_atom_site_fract_z
Si Si1 0.832376 0.097673 0.021797
Si Si2 0.225085 0.854097 0.278886
Si Si3 0.156245 0.595191 0.999262
Si Si4 0.664759 0.403855 0.548180
Si Si5 0.970513 0.751818 0.859035
Si Si6 0.326572 0.312947 0.239794
Si Si7 0.977319 0.185058 0.631214
O O1 0.733764 0.118535 0.033863
O O2 0.821602 0.109941 0.158011
O O3 0.864022 0.000000 0.976658
O O4 0.910020 0.163105 0.923004
O O5 0.231193 0.888327 0.396889
O O6 0.246896 0.753690 0.262304
O O7 0.121335 0.865568 0.302605
O O8 0.297721 0.905161 0.152372
O O9 0.114863 0.500000 0.048891
O O10 0.073710 0.665226 0.062981
O O11 0.675193 0.500000 0.579734
O O12 0.697702 0.344963 0.623425
O O13 0.556041 0.386394 0.597628
O O14 0.979691 0.743181 0.722697
O O15 0.072191 0.765307 0.840829
O O16 0.000000 0.230350 0.500000
#
# Coordination Sequence:
#
# PCOD8110845 Si02
#       7
#     8   8   8   8   8   8   8
#     4  11  22  36  60  89 115 151 194 242 298 347
#     4  11  20  38  59  83 116 158 195 235 286 345
#     4  11  23  38  61  88 116 156 201 244 285 339
#     4  10  22  38  58  88 119 149 191 245 296 348
#     4  11  21  39  57  86 123 156 193 240 294 348
#     4  11  23  37  59  83 121 158 193 233 295 353
#     4   9  20  35  60  85 112 152 191 240 294 348
#
# _framework density 20.338082
#
# number of rings (size 3 to 8) (size 9 to 14) (size 15 to 20)
#    0.000    1.429    2.857    3.000    0.000    6.571 
#    0.000    2.143    0.000    0.429    0.000    0.000 
#    0.000    0.000    0.000    0.000    0.000    0.000 
#
# Total GULP energy -347224.522981 kJ/mol
# GULP energy per Si atom -12400.875821 kJ/mol
# Density = 2.029179 g / cm^3
# Si number density = 20.338082 Si / 1000 Ang^3
#
#
#
# Elastic Constant Matrix: (Units=GPa)
#
#
# Indices 1 2 3 4 5 6 
#
# 1 47.9796 24.0933 26.9205 0.0000 15.5575 0.0000
# 2 24.0933 107.8245 37.4807 0.0000 -0.0714 0.0000
# 3 26.9205 37.4807 113.2302 0.0000 13.2080 0.0000
# 4 0.0000 0.0000 0.0000 22.5653 0.0000 5.1414
# 5 15.5575 -0.0714 13.2080 0.0000 27.7023 0.0000
# 6 0.0000 0.0000 0.0000 5.1414 0.0000 19.5736
#
#
#
# Elastic Compliance Matrix: (Units=1/GPa)
#
#
# Indices 1 2 3 4 5 6 
#
# 1 0.030744 -0.005616 -0.003637 0.000000 -0.015546 0.000000
# 2 -0.005616 0.011590 -0.003042 0.000000 0.004634 0.000000
# 3 -0.003637 -0.003042 0.011082 0.000000 -0.003249 0.000000
# 4 0.000000 0.000000 0.000000 0.047137 0.000000 -0.012381
# 5 -0.015546 0.004634 -0.003249 0.000000 0.046390 0.000000
# 6 0.000000 0.000000 0.000000 -0.012381 0.000000 0.054341
#
#
# Mechanical properties :
#
#
# Convention : Reuss Voigt Hill
#
# Bulk Modulus (GPa) = 34.69040 49.55818 42.12429
# Shear Modulus (GPa) = 21.23316 26.00423 23.61870
#
# Velocity S-wave (km/s) = 3.23462 3.57963 3.41149
# Velocity P-wave (km/s) = 5.57174 6.44244 6.02284
#
# Compressibility (1/GPa) = 0.02882642
#
# Stress axis : x y z
#
# Youngs Moduli (GPa) = 32.52705 86.28473 90.23556
#
# Poissons Ratio (x) = 0.48455 0.32819
# Poissons Ratio (y) = 0.18266 0.27447
# Poissons Ratio (z) = 0.11830 0.26245
#
# Static dielectric constant tensor:
#      x y z
#    x 3.652630 0.000000 0.195510 
#    y 0.000000 3.431280 0.000000 
#    z 0.195510 0.000000 4.008890 
# 
# 
# High freq. dielectric constant tensor:
#      x y z
#    x 1.789720 0.000000 0.018470 
#    y 0.000000 1.773410 0.000000 
#    z 0.018470 0.000000 1.809180 
# 
# From -- ./inp_files/156500.got.cif
#   From: 2010.06.25/outbox.cif.g09.slc.cpg/sg12_79_cif.got.tgz:156500.got - 2010.06.28 00:19:55.
