data_PCOD8110802
_publ_section_title
;
Structure prediction by ZEFSAII (Michael W. Deem and Ramdas Pophale) SiO2 
 PCOD8110802
Probable space group: C 2/M
;
_chemical_formula_sum "Si O2"
_cell_formula_units_Z 40
_cell_length_a 17.035646
_cell_length_b 18.834548
_cell_length_c 9.243396
_cell_angle_alpha 90.000000
_cell_angle_beta 45.636140
_cell_angle_gamma 90.000000
_cell_volume 2120.308646
_symmetry_space_group_name_H-M "C 2/M"
_symmetry_group_IT_number 12
_symmetry_cell_setting 'monoclinic'
loop_
_space_group_symop_operation_xyz
x,y,z
-x,y,-z
-x,-y,-z
x,-y,z
1/2+x,1/2+y,z
1/2-x,1/2+y,-z
1/2-x,1/2-y,-z
1/2+x,1/2-y,z
loop_
_atom_site_type_symbol
_atom_site_label
_atom_site_fract_x
_atom_site_fract_y
_atom_site_fract_z
Si Si1 0.119526 0.000000 0.780770
Si Si2 0.449776 0.215962 0.424585
Si Si3 0.812134 0.847692 0.617023
Si Si4 0.894132 0.000000 0.537106
Si Si5 0.726169 0.646156 0.664485
Si Si6 0.164867 0.257751 0.976923
O O1 0.084084 0.000000 0.660069
O O2 0.196120 0.935276 0.732431
O O3 0.000000 0.000000 0.000000
O O4 0.500000 0.176839 0.500000
O O5 0.402998 0.290501 0.550108
O O6 0.355858 0.162710 0.489085
O O7 0.540195 0.230193 0.185652
O O8 0.829533 0.927264 0.653727
O O9 0.818005 0.835577 0.437438
O O10 0.696960 0.825631 0.837668
O O11 0.000000 0.000000 0.500000
O O12 0.667839 0.689363 0.868267
O O13 0.250000 0.250000 0.000000
#
# Coordination Sequence:
#
# PCOD8110802 Si02
#       6
#     4   8   8   4   8   8
#     4  10  24  42  60  88 120 156 194 243 301 357
#     4  11  20  37  60  84 121 154 196 249 290 342
#     4  10  22  38  56  90 118 151 196 242 296 352
#     4  10  22  38  61  82 119 153 190 245 291 346
#     4  10  23  39  58  88 120 153 200 241 296 354
#     4  11  21  35  62  86 118 155 196 242 294 346
#
# _framework density 18.865176999999999
#
# number of rings (size 3 to 8) (size 9 to 14) (size 15 to 20)
#    0.000    1.600    4.000    3.000    5.600    2.400 
#    0.000    1.500    0.000    3.600    0.000    0.000 
#    0.000    0.000    0.000    0.000    0.000    0.000 
#
# Total GULP energy -247804.175686 kJ/mol
# GULP energy per Si atom -12390.208784 kJ/mol
# Density = 1.882224 g / cm^3
# Si number density = 18.865177 Si / 1000 Ang^3
#
#
#
# Elastic Constant Matrix: (Units=GPa)
#
#
# Indices 1 2 3 4 5 6 
#
# 1 89.3753 52.2940 27.3552 0.0000 -4.4506 0.0000
# 2 52.2940 156.5895 60.7231 0.0000 -10.9401 0.0000
# 3 27.3552 60.7231 140.6832 0.0000 -21.6148 0.0000
# 4 0.0000 0.0000 0.0000 18.9818 0.0000 -0.1018
# 5 -4.4506 -10.9401 -21.6148 0.0000 37.5294 0.0000
# 6 0.0000 0.0000 0.0000 -0.1018 0.0000 22.7298
#
#
#
# Elastic Compliance Matrix: (Units=1/GPa)
#
#
# Indices 1 2 3 4 5 6 
#
# 1 0.013990 -0.004345 -0.000860 0.000000 -0.000103 0.000000
# 2 -0.004345 0.009024 -0.002990 0.000000 0.000393 0.000000
# 3 -0.000860 -0.002990 0.009233 0.000000 0.004344 0.000000
# 4 0.000000 0.000000 0.000000 0.052683 0.000000 0.000236
# 5 -0.000103 0.000393 0.004344 0.000000 0.029250 0.000000
# 6 0.000000 0.000000 0.000000 0.000236 0.000000 0.043996
#
#
# Mechanical properties :
#
#
# Convention : Reuss Voigt Hill
#
# Bulk Modulus (GPa) = 63.06797 74.15472 68.61135
# Shear Modulus (GPa) = 27.80044 32.26659 30.03351
#
# Velocity S-wave (km/s) = 3.84296 4.14016 3.99433
# Velocity P-wave (km/s) = 7.29346 7.88972 7.59744
#
# Compressibility (1/GPa) = 0.01585591
#
# Stress axis : x y z
#
# Youngs Moduli (GPa) = 71.48204 110.81367 108.30252
#
# Poissons Ratio (x) = 0.48153 0.09319
# Poissons Ratio (y) = 0.31062 0.32379
# Poissons Ratio (z) = 0.06151 0.33130
#
# Static dielectric constant tensor:
#      x y z
#    x 3.615660 0.000000 0.035780 
#    y 0.000000 3.570620 0.000000 
#    z 0.035780 0.000000 3.667710 
# 
# 
# High freq. dielectric constant tensor:
#      x y z
#    x 1.740450 0.000000 0.011120 
#    y 0.000000 1.720870 0.000000 
#    z 0.011120 0.000000 1.739910 
# 
# From -- ./inp_files/62620.got.cif
#   From: 2010.06.25/outbox.cif.g09.slc.cpg/sg12_32_cif.got.tgz:62620.got - 2010.06.28 00:19:55.
