data_PCOD8110267
_publ_section_title
;
Structure prediction by ZEFSAII (Michael W. Deem and Ramdas Pophale) SiO2 
 PCOD8110267
Probable space group: C 2/M
;
_chemical_formula_sum "Si O2"
_cell_formula_units_Z 64
_cell_length_a 31.153990
_cell_length_b 8.971502
_cell_length_c 24.098571
_cell_angle_alpha 90.000000
_cell_angle_beta 151.917063
_cell_angle_gamma 90.000000
_cell_volume 3170.733031
_symmetry_space_group_name_H-M "C 2/M"
_symmetry_group_IT_number 12
_symmetry_cell_setting 'monoclinic'
loop_
_space_group_symop_operation_xyz
x,y,z
-x,y,-z
-x,-y,-z
x,-y,z
1/2+x,1/2+y,z
1/2-x,1/2+y,-z
1/2-x,1/2-y,-z
1/2+x,1/2-y,z
loop_
_atom_site_type_symbol
_atom_site_label
_atom_site_fract_x
_atom_site_fract_y
_atom_site_fract_z
Si Si1 0.100375 0.331917 0.589972
Si Si2 0.775478 0.175526 0.861699
Si Si3 0.706701 0.326878 0.323339
Si Si4 0.196406 0.325267 0.988627
Si Si5 0.002833 0.328444 0.277942
Si Si6 0.096401 0.826427 0.089520
Si Si7 0.609299 0.325408 0.486730
Si Si8 0.661011 0.174254 0.374504
O O1 0.120262 0.500000 0.590436
O O2 0.177202 0.288779 0.722440
O O3 0.103700 0.213907 0.544628
O O4 0.000000 0.322599 0.500000
O O5 0.858816 0.234530 0.916810
O O6 0.786019 0.000000 0.884147
O O7 0.776639 0.259337 0.921218
O O8 0.709805 0.500000 0.341693
O O9 0.672799 0.296463 0.222741
O O10 0.806879 0.260194 0.446043
O O11 0.639438 0.244433 0.289506
O O12 0.217486 0.500000 0.013201
O O13 0.091807 0.288468 0.858204
O O14 0.250000 0.250000 0.000000
O O15 0.007611 0.500000 0.301980
O O16 0.018628 0.228993 0.351010
O O17 0.076140 0.286133 0.315570
O O18 0.077676 0.000000 0.059854
O O19 0.000000 0.752051 0.000000
O O20 0.622821 0.500000 0.495107
O O21 0.750000 0.250000 0.500000
O O22 0.677683 0.000000 0.387745
#
# Coordination Sequence:
#
# PCOD8110267 Si02
#       8
#     8   8   8   8   8   8   8   8
#     4  10  22  41  66  92 122 163 202 244 312 383
#     4  10  21  41  66  94 127 164 209 257 305 371
#     4  11  21  37  60  86 124 166 204 251 310 374
#     4  11  26  47  68  92 124 168 215 266 320 374
#     4  10  24  44  64  85 124 172 212 254 315 385
#     4   9  19  36  60  90 122 161 205 249 301 364
#     4  12  24  38  62  94 126 158 205 264 314 366
#     4  11  22  37  58  88 122 161 205 251 306 368
#
# _framework density 20.184605999999999
#
# number of rings (size 3 to 8) (size 9 to 14) (size 15 to 20)
#    0.000    1.500    2.500    2.250    3.500    2.250 
#    0.000    0.000    0.000    1.875    0.000    0.000 
#    0.000    0.000    0.000    0.000    0.000    0.000 
#
# Total GULP energy -396814.713623 kJ/mol
# GULP energy per Si atom -12400.459801 kJ/mol
# Density = 2.013866 g / cm^3
# Si number density = 20.184606 Si / 1000 Ang^3
#
#
#
# Elastic Constant Matrix: (Units=GPa)
#
#
# Indices 1 2 3 4 5 6 
#
# 1 146.7473 60.2120 68.7797 0.0000 -8.1867 0.0000
# 2 60.2120 92.4850 52.6137 0.0000 -8.9620 0.0000
# 3 68.7797 52.6137 113.2831 0.0000 0.1606 0.0000
# 4 0.0000 0.0000 0.0000 24.8390 0.0000 -7.1078
# 5 -8.1867 -8.9620 0.1606 0.0000 35.8023 0.0000
# 6 0.0000 0.0000 0.0000 -7.1078 0.0000 36.1989
#
#
#
# Elastic Compliance Matrix: (Units=1/GPa)
#
#
# Indices 1 2 3 4 5 6 
#
# 1 0.010793 -0.004296 -0.004560 0.000000 0.001413 0.000000
# 2 -0.004296 0.016915 -0.005252 0.000000 0.003275 0.000000
# 3 -0.004560 -0.005252 0.014039 0.000000 -0.002420 0.000000
# 4 0.000000 0.000000 0.000000 0.042656 0.000000 0.008376
# 5 0.001413 0.003275 -0.002420 0.000000 0.029085 0.000000
# 6 0.000000 0.000000 0.000000 0.008376 0.000000 0.029270
#
#
# Mechanical properties :
#
#
# Convention : Reuss Voigt Hill
#
# Bulk Modulus (GPa) = 73.90689 79.52513 76.71601
# Shear Modulus (GPa) = 28.49266 30.76204 29.62735
#
# Velocity S-wave (km/s) = 3.76121 3.90812 3.83537
# Velocity P-wave (km/s) = 7.45367 7.73621 7.59626
#
# Compressibility (1/GPa) = 0.01353054
#
# Stress axis : x y z
#
# Youngs Moduli (GPa) = 92.65218 59.12000 71.23112
#
# Poissons Ratio (x) = 0.25397 0.32480
# Poissons Ratio (y) = 0.39802 0.37413
# Poissons Ratio (z) = 0.42248 0.31052
#
# Static dielectric constant tensor:
#      x y z
#    x 2.980930 0.000000 -0.815260 
#    y 0.000000 3.575940 0.000000 
#    z -0.815260 0.000000 2.910500 
# 
# 
# High freq. dielectric constant tensor:
#      x y z
#    x 1.802200 0.000000 -0.001670 
#    y 0.000000 1.771760 0.000000 
#    z -0.001670 0.000000 1.793500 
# 
# From -- ./inp_files/353534.got.cif
#   From: 2010.06.25/outbox.cif.g09.slc.cpg/sg12_177_cif.got.tgz:353534.got - 2010.06.28 00:19:55.
