data_PCOD8110549
_publ_section_title
;
Structure prediction by ZEFSAII (Michael W. Deem and Ramdas Pophale) SiO2 
 PCOD8110549
Probable space group: C 2/M
;
_chemical_formula_sum "Si O2"
_cell_formula_units_Z 40
_cell_length_a 10.503066
_cell_length_b 19.600363
_cell_length_c 9.097137
_cell_angle_alpha 90.000000
_cell_angle_beta 85.145835
_cell_angle_gamma 90.000000
_cell_volume 1866.055102
_symmetry_space_group_name_H-M "C 2/M"
_symmetry_group_IT_number 12
_symmetry_cell_setting 'monoclinic'
loop_
_space_group_symop_operation_xyz
x,y,z
-x,y,-z
-x,-y,-z
x,-y,z
1/2+x,1/2+y,z
1/2-x,1/2+y,-z
1/2-x,1/2-y,-z
1/2+x,1/2-y,z
loop_
_atom_site_type_symbol
_atom_site_label
_atom_site_fract_x
_atom_site_fract_y
_atom_site_fract_z
Si Si1 0.671499 0.658299 0.235557
Si Si2 0.500000 0.315546 0.000000
Si Si3 0.393031 0.076921 0.316278
Si Si4 0.321408 0.287272 0.267869
Si Si5 0.676061 0.078543 0.341696
Si Si6 0.000000 0.184421 0.500000
O O1 0.598087 0.640939 0.091332
O O2 0.807757 0.621874 0.215555
O O3 0.697973 0.739273 0.260705
O O4 0.581105 0.635886 0.381248
O O5 0.585676 0.271528 0.879321
O O6 0.541913 0.091091 0.271245
O O7 0.351537 0.093180 0.485796
O O8 0.359875 0.000000 0.280675
O O9 0.279676 0.367184 0.272800
O O10 0.402112 0.270226 0.409370
O O11 0.722884 0.000000 0.312545
#
# Coordination Sequence:
#
# PCOD8110549 Si02
#       6
#     8   4   8   8   8   4
#     4  11  22  39  61  85 122 155 199 242 291 349
#     4  10  26  42  53  86 119 164 200 230 302 352
#     4   9  19  36  61  93 121 149 191 246 301 342
#     4  11  22  39  61  85 122 155 199 242 291 349
#     4   9  19  36  61  93 121 149 191 246 301 342
#     4  10  22  34  57  96 109 142 206 238 298 344
#
# _framework density 21.435594999999999
#
# number of rings (size 3 to 8) (size 9 to 14) (size 15 to 20)
#    0.000    2.000    2.000    2.400    5.600    0.000 
#    0.000    7.000    0.000    2.400    0.000    0.000 
#    0.000    0.000    0.000    0.000    0.000    0.000 
#
# Total GULP energy -247823.500835 kJ/mol
# GULP energy per Si atom -12391.175042 kJ/mol
# Density = 2.138681 g / cm^3
# Si number density = 21.435595 Si / 1000 Ang^3
#
#
#
# Elastic Constant Matrix: (Units=GPa)
#
#
# Indices 1 2 3 4 5 6 
#
# 1 128.0890 49.7071 48.3272 0.0000 28.6363 0.0000
# 2 49.7071 97.0411 21.5799 0.0000 5.1176 0.0000
# 3 48.3272 21.5799 111.7550 0.0000 18.3808 0.0000
# 4 0.0000 0.0000 0.0000 9.1075 0.0000 4.0628
# 5 28.6363 5.1176 18.3808 0.0000 41.8978 0.0000
# 6 0.0000 0.0000 0.0000 4.0628 0.0000 32.4724
#
#
#
# Elastic Compliance Matrix: (Units=1/GPa)
#
#
# Indices 1 2 3 4 5 6 
#
# 1 0.012605 -0.005370 -0.003346 0.000000 -0.006491 0.000000
# 2 -0.005370 0.013062 -0.000583 0.000000 0.002331 0.000000
# 3 -0.003346 -0.000583 0.010907 0.000000 -0.002427 0.000000
# 4 0.000000 0.000000 0.000000 0.116290 0.000000 -0.014550
# 5 -0.006491 0.002331 -0.002427 0.000000 0.029084 0.000000
# 6 0.000000 0.000000 0.000000 -0.014550 0.000000 0.032616
#
#
# Mechanical properties :
#
#
# Convention : Reuss Voigt Hill
#
# Bulk Modulus (GPa) = 55.63388 64.01259 59.82324
# Shear Modulus (GPa) = 20.90692 31.18025 26.04359
#
# Velocity S-wave (km/s) = 3.12643 3.81806 3.48942
# Velocity P-wave (km/s) = 6.24844 7.02598 6.64859
#
# Compressibility (1/GPa) = 0.01797466
#
# Stress axis : x y z
#
# Youngs Moduli (GPa) = 79.33553 76.55544 91.68462
#
# Poissons Ratio (x) = 0.41111 0.30679
# Poissons Ratio (y) = 0.42603 0.05350
# Poissons Ratio (z) = 0.26547 0.04467
#
# Static dielectric constant tensor:
#      x y z
#    x 4.235150 0.000000 0.149500 
#    y 0.000000 3.463290 0.000000 
#    z 0.149500 0.000000 3.738980 
# 
# 
# High freq. dielectric constant tensor:
#      x y z
#    x 1.864760 0.000000 0.007310 
#    y 0.000000 1.796460 0.000000 
#    z 0.007310 0.000000 1.823320 
# 
# From -- ./inp_files/46982.got.cif
#   From: 2010.06.25/outbox.cif.g09.slc.cpg/sg12_24_cif.got.tgz:46982.got - 2010.06.28 00:19:55.
