data_PCOD8110322
_publ_section_title
;
Structure prediction by ZEFSAII (Michael W. Deem and Ramdas Pophale) SiO2 
 PCOD8110322
Probable space group: C 2/M
;
_chemical_formula_sum "Si O2"
_cell_formula_units_Z 52
_cell_length_a 23.953053
_cell_length_b 11.824641
_cell_length_c 11.051214
_cell_angle_alpha 90.000000
_cell_angle_beta 50.888023
_cell_angle_gamma 90.000000
_cell_volume 2428.693593
_symmetry_space_group_name_H-M "C 2/M"
_symmetry_group_IT_number 12
_symmetry_cell_setting 'monoclinic'
loop_
_space_group_symop_operation_xyz
x,y,z
-x,y,-z
-x,-y,-z
x,-y,z
1/2+x,1/2+y,z
1/2-x,1/2+y,-z
1/2-x,1/2-y,-z
1/2+x,1/2-y,z
loop_
_atom_site_type_symbol
_atom_site_label
_atom_site_fract_x
_atom_site_fract_y
_atom_site_fract_z
Si Si1 0.685333 0.258673 0.855401
Si Si2 0.424650 0.871337 0.151688
Si Si3 0.084979 0.212704 0.207592
Si Si4 0.374505 0.500000 0.411430
Si Si5 0.661004 0.500000 0.799983
Si Si6 0.152304 0.802751 0.364624
Si Si7 0.450787 0.871171 0.396382
Si Si8 0.531388 0.500000 0.138715
O O1 0.640457 0.204741 0.806668
O O2 0.697112 0.391055 0.812685
O O3 0.762149 0.200142 0.757834
O O4 0.645193 0.233902 0.036845
O O5 0.426930 0.863755 0.291094
O O6 0.414062 0.000000 0.119820
O O7 0.500000 0.821525 0.000000
O O8 0.122499 0.160295 0.274931
O O9 0.025544 0.307101 0.321717
O O10 0.046752 0.110537 0.194699
O O11 0.320387 0.500000 0.369899
O O12 0.369187 0.390143 0.501586
O O13 0.446857 0.500000 0.233198
O O14 0.575763 0.500000 0.952591
O O15 0.115992 0.681899 0.440013
O O16 0.461392 0.000000 0.423943
#
# Coordination Sequence:
#
# PCOD8110322 Si02
#       8
#     8   8   8   4   4   8   8   4
#     4  11  25  44  68  96 131 175 215 269 329 388
#     4  10  21  41  68  95 127 161 219 271 319 379
#     4  11  23  45  68  92 131 176 224 265 312 393
#     4  12  24  42  69 101 128 167 216 274 334 381
#     4  10  25  42  68  94 132 168 220 264 333 391
#     4  12  27  42  64  99 136 173 214 266 331 388
#     4  11  24  42  68  99 129 174 218 272 326 380
#     4  10  22  42  69  97 124 171 218 275 318 380
#
# _framework density 21.410688
#
# number of rings (size 3 to 8) (size 9 to 14) (size 15 to 20)
#    0.000    1.077    3.077    2.538    2.154    4.308 
#    0.000    0.000    0.000    0.000    0.000    0.000 
#    0.000    0.000    0.000    0.000    0.000    0.000 
#
# Total GULP energy -322450.800109 kJ/mol
# GULP energy per Si atom -12401.953850 kJ/mol
# Density = 2.136196 g / cm^3
# Si number density = 21.410688 Si / 1000 Ang^3
#
#
#
# Elastic Constant Matrix: (Units=GPa)
#
#
# Indices 1 2 3 4 5 6 
#
# 1 76.8355 14.0999 25.9008 0.0000 -10.9322 0.0000
# 2 14.0999 92.4874 9.5241 0.0000 -14.6707 0.0000
# 3 25.9008 9.5241 79.8731 0.0000 -13.3158 0.0000
# 4 0.0000 0.0000 0.0000 65.3751 0.0000 -15.3914
# 5 -10.9322 -14.6707 -13.3158 0.0000 37.5382 0.0000
# 6 0.0000 0.0000 0.0000 -15.3914 0.0000 -28.1062
#
#
#
# Elastic Compliance Matrix: (Units=1/GPa)
#
#
# Indices 1 2 3 4 5 6 
#
# 1 0.015071 -0.001492 -0.004331 0.000000 0.002270 0.000000
# 2 -0.001492 0.011708 -0.000236 0.000000 0.004057 0.000000
# 3 -0.004331 -0.000236 0.014590 0.000000 0.003822 0.000000
# 4 0.000000 0.000000 0.000000 0.013549 0.000000 -0.007420
# 5 0.002270 0.004057 0.003822 0.000000 0.030242 0.000000
# 6 0.000000 0.000000 0.000000 -0.007420 0.000000 -0.031516
#
#
# Mechanical properties :
#
#
# Convention : Reuss Voigt Hill
#
# Bulk Modulus (GPa) = 34.18614 38.69394 36.44004
# Shear Modulus (GPa) = 66.21504 28.27284 47.24394
#
# Velocity S-wave (km/s) = 5.56716 3.63781 4.70250
# Velocity P-wave (km/s) = 7.57139 5.97967 6.82211
#
# Compressibility (1/GPa) = 0.02925162
#
# Stress axis : x y z
#
# Youngs Moduli (GPa) = 66.35055 85.41472 68.54224
#
# Poissons Ratio (x) = 0.12740 0.29686
# Poissons Ratio (y) = 0.09897 0.01617
# Poissons Ratio (z) = 0.28736 0.02015
#
# Static dielectric constant tensor:
#      x y z
#    x 3.751080 0.000000 0.110320 
#    y 0.000000 3.994320 0.000000 
#    z 0.110320 0.000000 4.034720 
# 
# 
# High freq. dielectric constant tensor:
#      x y z
#    x 1.839260 0.000000 0.009760 
#    y 0.000000 1.843000 0.000000 
#    z 0.009760 0.000000 1.847840 
# 
# From -- ./inp_files/175221.got.cif
#   From: 2010.06.25/outbox.cif.g09.slc.cpg/sg12_88_cif.got.tgz:175221.got - 2010.06.28 00:19:55.
