data_PCOD8110240
_publ_section_title
;
Structure prediction by ZEFSAII (Michael W. Deem and Ramdas Pophale) SiO2 
 PCOD8110240
Probable space group: C 2/M
;
_chemical_formula_sum "Si O2"
_cell_formula_units_Z 52
_cell_length_a 9.229946
_cell_length_b 18.803033
_cell_length_c 20.125184
_cell_angle_alpha 90.000000
_cell_angle_beta 135.279911
_cell_angle_gamma 90.000000
_cell_volume 2457.648917
_symmetry_space_group_name_H-M "C 2/M"
_symmetry_group_IT_number 12
_symmetry_cell_setting 'monoclinic'
loop_
_space_group_symop_operation_xyz
x,y,z
-x,y,-z
-x,-y,-z
x,-y,z
1/2+x,1/2+y,z
1/2-x,1/2+y,-z
1/2-x,1/2-y,-z
1/2+x,1/2-y,z
loop_
_atom_site_type_symbol
_atom_site_label
_atom_site_fract_x
_atom_site_fract_y
_atom_site_fract_z
Si Si1 0.404319 0.753377 0.271360
Si Si2 0.713153 0.852898 0.031292
Si Si3 0.317540 0.374571 0.622258
Si Si4 0.948923 0.624053 0.589749
Si Si5 0.127095 0.000000 0.711965
Si Si6 0.764815 0.500000 0.906282
Si Si7 0.238078 0.000000 0.601000
Si Si8 0.449639 0.213828 0.144869
O O1 0.580138 0.695372 0.313217
O O2 0.481015 0.802807 0.354965
O O3 0.376846 0.800979 0.196183
O O4 0.196258 0.711121 0.220683
O O5 0.877756 0.792447 0.100386
O O6 0.822694 0.927675 0.088190
O O7 0.500000 0.838681 0.000000
O O8 0.654092 0.847923 0.933908
O O9 0.218080 0.354582 0.519455
O O10 0.490050 0.431063 0.663293
O O11 0.151189 0.407973 0.619130
O O12 0.854478 0.569104 0.611210
O O13 0.249889 0.000000 0.821532
O O14 0.266081 0.000000 0.690303
O O15 0.000000 0.500000 0.000000
O O16 0.000000 0.000000 0.500000
#
# Coordination Sequence:
#
# PCOD8110240 Si02
#       8
#     8   8   8   8   4   4   4   8
#     4  12  24  41  66 101 133 177 234 275 343 401
#     4  10  21  41  65  95 133 169 225 282 343 407
#     4  11  24  44  66  97 136 189 226 271 346 399
#     4  11  25  43  65  97 141 177 225 287 331 401
#     4  12  25  42  75  95 136 183 231 275 341 413
#     4  10  24  39  67 102 132 166 224 286 333 408
#     4  12  25  45  67 104 133 182 232 281 338 397
#     4  11  23  40  66  95 133 180 222 277 341 417
#
# _framework density 21.158431
#
# number of rings (size 3 to 8) (size 9 to 14) (size 15 to 20)
#    0.000    0.923    4.615    1.846    4.308    1.231 
#    2.769    0.000    0.000    0.923    0.000    0.000 
#    0.000    0.000    0.000    0.000    0.000    0.000 
#
# Total GULP energy -322354.083076 kJ/mol
# GULP energy per Si atom -12398.233964 kJ/mol
# Density = 2.111027 g / cm^3
# Si number density = 21.158431 Si / 1000 Ang^3
#
#
#
# Elastic Constant Matrix: (Units=GPa)
#
#
# Indices 1 2 3 4 5 6 
#
# 1 95.3749 29.8961 36.6381 0.0001 -12.3703 0.0000
# 2 29.8961 85.9968 40.6421 0.0000 -8.3733 0.0000
# 3 36.6381 40.6421 128.1279 0.0001 -19.6933 -0.0003
# 4 0.0001 0.0000 0.0001 34.1617 0.0001 -5.7957
# 5 -12.3703 -8.3733 -19.6933 0.0001 40.2305 0.0000
# 6 0.0000 0.0000 -0.0003 -5.7957 0.0000 34.3452
#
#
#
# Elastic Compliance Matrix: (Units=1/GPa)
#
#
# Indices 1 2 3 4 5 6 
#
# 1 0.012612 -0.003091 -0.002302 0.000000 0.002108 0.000000
# 2 -0.003091 0.014459 -0.003662 0.000000 0.000267 0.000000
# 3 -0.002302 -0.003662 0.010163 0.000000 0.003505 0.000000
# 4 0.000000 0.000000 0.000000 0.030135 0.000000 0.005085
# 5 0.002108 0.000267 0.003505 0.000000 0.027276 0.000000
# 6 0.000000 0.000000 0.000000 0.005085 0.000000 0.029974
#
#
# Mechanical properties :
#
#
# Convention : Reuss Voigt Hill
#
# Bulk Modulus (GPa) = 52.28813 58.20578 55.24696
# Shear Modulus (GPa) = 33.53366 35.23569 34.38468
#
# Velocity S-wave (km/s) = 3.98538 4.08527 4.03563
# Velocity P-wave (km/s) = 6.77820 7.05845 6.91975
#
# Compressibility (1/GPa) = 0.01912480
#
# Stress axis : x y z
#
# Youngs Moduli (GPa) = 79.29262 69.15906 98.39540
#
# Poissons Ratio (x) = 0.21379 0.22648
# Poissons Ratio (y) = 0.24511 0.36028
# Poissons Ratio (z) = 0.18251 0.25323
#
# Static dielectric constant tensor:
#      x y z
#    x 3.863180 0.000010 -0.134010 
#    y 0.000010 9.208910 -0.000010 
#    z -0.134010 -0.000010 4.327240 
# 
# 
# High freq. dielectric constant tensor:
#      x y z
#    x 1.823990 0.000000 -0.005990 
#    y 0.000000 1.818310 0.000000 
#    z -0.005990 0.000000 1.848340 
# 
# From -- ./inp_files/258576.got.cif
#   From: 2010.06.25/outbox.cif.g09.slc.cpg/sg12_130_cif.got.tgz:258576.got - 2010.06.28 00:19:55.
