data_PCOD8110904
_publ_section_title
;
Structure prediction by ZEFSAII (Michael W. Deem and Ramdas Pophale) SiO2 
 PCOD8110904
Probable space group: C 2/M
;
_chemical_formula_sum "Si O2"
_cell_formula_units_Z 44
_cell_length_a 15.967889
_cell_length_b 23.392823
_cell_length_c 6.003766
_cell_angle_alpha 90.000000
_cell_angle_beta 115.709023
_cell_angle_gamma 90.000000
_cell_volume 2020.611822
_symmetry_space_group_name_H-M "C 2/M"
_symmetry_group_IT_number 12
_symmetry_cell_setting 'monoclinic'
loop_
_space_group_symop_operation_xyz
x,y,z
-x,y,-z
-x,-y,-z
x,-y,z
1/2+x,1/2+y,z
1/2-x,1/2+y,-z
1/2-x,1/2-y,-z
1/2+x,1/2-y,z
loop_
_atom_site_type_symbol
_atom_site_label
_atom_site_fract_x
_atom_site_fract_y
_atom_site_fract_z
Si Si1 0.275171 0.435437 0.145413
Si Si2 0.907528 0.435250 0.777019
Si Si3 0.403869 0.760724 0.267258
Si Si4 0.500000 0.702435 0.000000
Si Si5 0.299297 0.136196 0.318329
Si Si6 0.648470 0.339591 0.488456
O O1 0.312560 0.500000 0.165828
O O2 0.174075 0.433507 0.137833
O O3 0.348223 0.400322 0.380424
O O4 0.266322 0.407882 0.890517
O O5 0.925290 0.500000 0.714782
O O6 0.883522 0.397326 0.534292
O O7 0.000000 0.410174 0.000000
O O8 0.500000 0.774080 0.500000
O O9 0.424015 0.742461 0.035720
O O10 0.340969 0.817394 0.195531
O O11 0.347340 0.710768 0.325986
O O12 0.551831 0.662776 0.240187
O O13 0.236731 0.167901 0.429703
#
# Coordination Sequence:
#
# PCOD8110904 Si02
#       6
#     8   8   8   4   8   8
#     4  10  22  38  60  90 123 158 205 253 300 361
#     4   9  20  37  57  85 124 167 211 247 286 351
#     4  10  23  39  60  93 124 160 200 250 299 369
#     4  10  22  42  65  86 123 158 202 256 312 360
#     4  11  22  37  63  91 126 164 200 246 308 355
#     4  10  22  42  62  88 122 162 202 251 307 363
#
# _framework density 21.775582
#
# number of rings (size 3 to 8) (size 9 to 14) (size 15 to 20)
#    0.000    2.000    0.000    2.182    2.545    9.455 
#    1.636    3.182    0.000   10.364    0.000    0.000 
#    0.000    0.000    0.000    0.000    0.000    0.000 
#
# Total GULP energy -272896.794571 kJ/mol
# GULP energy per Si atom -12404.399753 kJ/mol
# Density = 2.172602 g / cm^3
# Si number density = 21.775582 Si / 1000 Ang^3
#
#
#
# Elastic Constant Matrix: (Units=GPa)
#
#
# Indices 1 2 3 4 5 6 
#
# 1 70.9141 50.5384 34.7038 0.0000 -13.0353 0.0000
# 2 50.5384 142.3926 60.2583 0.0000 -7.9653 0.0000
# 3 34.7038 60.2583 119.3424 0.0000 -6.4228 0.0000
# 4 0.0000 0.0000 0.0000 31.9221 0.0000 3.4797
# 5 -13.0353 -7.9653 -6.4228 0.0000 33.0214 0.0000
# 6 0.0000 0.0000 0.0000 3.4797 0.0000 23.1464
#
#
#
# Elastic Compliance Matrix: (Units=1/GPa)
#
#
# Indices 1 2 3 4 5 6 
#
# 1 0.020771 -0.005861 -0.002744 0.000000 0.006252 0.000000
# 2 -0.005861 0.010640 -0.003693 0.000000 -0.000465 0.000000
# 3 -0.002744 -0.003693 0.011051 0.000000 0.000175 0.000000
# 4 0.000000 0.000000 0.000000 0.031848 0.000000 -0.004788
# 5 0.006252 -0.000465 0.000175 0.000000 0.032673 0.000000
# 6 0.000000 0.000000 0.000000 -0.004788 0.000000 0.043923
#
#
# Mechanical properties :
#
#
# Convention : Reuss Voigt Hill
#
# Bulk Modulus (GPa) = 55.97358 69.29446 62.63402
# Shear Modulus (GPa) = 27.55466 30.09455 28.82460
#
# Velocity S-wave (km/s) = 3.56109 3.72160 3.64223
# Velocity P-wave (km/s) = 6.53216 7.09636 6.82009
#
# Compressibility (1/GPa) = 0.01786557
#
# Stress axis : x y z
#
# Youngs Moduli (GPa) = 48.14487 93.98673 90.48690
#
# Poissons Ratio (x) = 0.55085 0.24831
# Poissons Ratio (y) = 0.28218 0.33416
# Poissons Ratio (z) = 0.13212 0.34709
#
# Static dielectric constant tensor:
#      x y z
#    x 3.845270 0.000000 -0.091690 
#    y 0.000000 4.001960 0.000000 
#    z -0.091690 0.000000 3.890490 
# 
# 
# High freq. dielectric constant tensor:
#      x y z
#    x 1.844160 0.000000 -0.006110 
#    y 0.000000 1.851120 0.000000 
#    z -0.006110 0.000000 1.859340 
# 
# From -- ./inp_files/17030.got.cif
#   From: 2010.06.25/outbox.cif.g09.slc.cpg/sg12_9_cif.got.tgz:17030.got - 2010.06.28 00:19:55.
