data_PCOD8110274
_publ_section_title
;
Structure prediction by ZEFSAII (Michael W. Deem and Ramdas Pophale) SiO2 
 PCOD8110274
Probable space group: C 2/M
;
_chemical_formula_sum "Si O2"
_cell_formula_units_Z 64
_cell_length_a 16.742449
_cell_length_b 13.735961
_cell_length_c 15.965024
_cell_angle_alpha 90.000000
_cell_angle_beta 132.294183
_cell_angle_gamma 90.000000
_cell_volume 2715.831913
_symmetry_space_group_name_H-M "C 2/M"
_symmetry_group_IT_number 12
_symmetry_cell_setting 'monoclinic'
loop_
_space_group_symop_operation_xyz
x,y,z
-x,y,-z
-x,-y,-z
x,-y,z
1/2+x,1/2+y,z
1/2-x,1/2+y,-z
1/2-x,1/2-y,-z
1/2+x,1/2-y,z
loop_
_atom_site_type_symbol
_atom_site_label
_atom_site_fract_x
_atom_site_fract_y
_atom_site_fract_z
Si Si1 0.819287 0.387924 0.527036
Si Si2 0.088516 0.785759 0.860909
Si Si3 0.697365 0.108394 0.200063
Si Si4 0.518134 0.238027 0.635323
Si Si5 0.579897 0.298197 0.131195
Si Si6 0.300248 0.888021 0.321403
Si Si7 0.295943 0.891321 0.990245
Si Si8 0.353815 0.386395 0.457423
O O1 0.844095 0.500000 0.563430
O O2 0.930074 0.330504 0.617919
O O3 0.777030 0.371746 0.402954
O O4 0.729182 0.350609 0.528919
O O5 0.186598 0.855458 0.958392
O O6 0.085836 0.783850 0.758832
O O7 0.978236 0.828236 0.822852
O O8 0.106649 0.678659 0.913752
O O9 0.600490 0.182380 0.149105
O O10 0.728012 0.112167 0.125114
O O11 0.802385 0.137315 0.329966
O O12 0.658290 0.000000 0.199010
O O13 0.595416 0.174981 0.629729
O O14 0.463180 0.324741 0.543437
O O15 0.692412 0.354770 0.196850
O O16 0.500000 0.326122 0.000000
O O17 0.325438 0.000000 0.317617
O O18 0.324416 0.000000 0.040596
O O19 0.383166 0.500000 0.487858
#
# Coordination Sequence:
#
# PCOD8110274 Si02
#       8
#     8   8   8   8   8   8   8   8
#     4  10  21  41  67 100 136 176 225 274 333 402
#     4  11  25  42  64  98 128 169 224 270 330 403
#     4  10  21  42  70 102 137 173 218 274 336 403
#     4  12  23  39  67 100 143 177 219 275 335 403
#     4  12  24  43  69  93 129 172 228 283 333 395
#     4  11  26  44  64  96 135 179 226 277 336 397
#     4  10  23  44  67  92 130 173 217 278 335 389
#     4  10  22  41  71 107 139 175 224 274 336 408
#
# _framework density 23.565524
#
# number of rings (size 3 to 8) (size 9 to 14) (size 15 to 20)
#    0.000    1.250    1.250    4.125    1.750    5.000 
#    0.000    0.625    0.000    8.250    0.000    0.000 
#    0.000    0.000    0.000    0.000    0.000    0.000 
#
# Total GULP energy -396941.745188 kJ/mol
# GULP energy per Si atom -12404.429537 kJ/mol
# Density = 2.351189 g / cm^3
# Si number density = 23.565524 Si / 1000 Ang^3
#
#
#
# Elastic Constant Matrix: (Units=GPa)
#
#
# Indices 1 2 3 4 5 6 
#
# 1 90.7752 42.2324 24.3055 0.0000 10.3961 0.0000
# 2 42.2324 72.6163 33.2184 0.0000 5.0219 0.0000
# 3 24.3055 33.2184 109.1080 0.0000 1.8241 0.0000
# 4 0.0000 0.0000 0.0000 29.1322 0.0000 -3.1249
# 5 10.3961 5.0219 1.8241 0.0000 42.1037 0.0000
# 6 0.0000 0.0000 0.0000 -3.1249 0.0000 26.4945
#
#
#
# Elastic Compliance Matrix: (Units=1/GPa)
#
#
# Indices 1 2 3 4 5 6 
#
# 1 0.015480 -0.008428 -0.000836 0.000000 -0.002781 0.000000
# 2 -0.008428 0.020710 -0.004425 0.000000 -0.000198 0.000000
# 3 -0.000836 -0.004425 0.010694 0.000000 0.000271 0.000000
# 4 0.000000 0.000000 0.000000 0.034766 0.000000 0.004100
# 5 -0.002781 -0.000198 0.000271 0.000000 0.024449 0.000000
# 6 0.000000 0.000000 0.000000 0.004100 0.000000 0.038227
#
#
# Mechanical properties :
#
#
# Convention : Reuss Voigt Hill
#
# Bulk Modulus (GPa) = 51.26378 52.44580 51.85479
# Shear Modulus (GPa) = 28.05747 31.06228 29.55988
#
# Velocity S-wave (km/s) = 3.45427 3.63454 3.54555
# Velocity P-wave (km/s) = 6.14087 6.31797 6.23005
#
# Compressibility (1/GPa) = 0.01950695
#
# Stress axis : x y z
#
# Youngs Moduli (GPa) = 64.60139 48.28529 93.51053
#
# Poissons Ratio (x) = 0.40695 0.07817
# Poissons Ratio (y) = 0.54446 0.41374
# Poissons Ratio (z) = 0.05400 0.21364
#
# Static dielectric constant tensor:
#      x y z
#    x 4.187420 0.000000 -0.053880 
#    y 0.000000 4.386260 0.000000 
#    z -0.053880 0.000000 4.100930 
# 
# 
# High freq. dielectric constant tensor:
#      x y z
#    x 1.939420 0.000000 -0.001220 
#    y 0.000000 1.936350 0.000000 
#    z -0.001220 0.000000 1.932400 
# 
# From -- ./inp_files/278181.got.cif
#   From: 2010.06.25/outbox.cif.g09.slc.cpg/sg12_140_cif.got.tgz:278181.got - 2010.06.28 00:19:55.
