data_PCOD8110123
_publ_section_title
;
Structure prediction by ZEFSAII (Michael W. Deem and Ramdas Pophale) SiO2 
 PCOD8110123
Probable space group: C 2/M
;
_chemical_formula_sum "Si O2"
_cell_formula_units_Z 48
_cell_length_a 26.457540
_cell_length_b 19.556260
_cell_length_c 9.431782
_cell_angle_alpha 90.000000
_cell_angle_beta 26.854546
_cell_angle_gamma 90.000000
_cell_volume 2204.474851
_symmetry_space_group_name_H-M "C 2/M"
_symmetry_group_IT_number 12
_symmetry_cell_setting 'monoclinic'
loop_
_space_group_symop_operation_xyz
x,y,z
-x,y,-z
-x,-y,-z
x,-y,z
1/2+x,1/2+y,z
1/2-x,1/2+y,-z
1/2-x,1/2-y,-z
1/2+x,1/2-y,z
loop_
_atom_site_type_symbol
_atom_site_label
_atom_site_fract_x
_atom_site_fract_y
_atom_site_fract_z
Si Si1 0.923170 0.314642 0.327361
Si Si2 0.066879 0.579061 0.472303
Si Si3 0.785623 0.182119 0.329220
Si Si4 0.373915 0.423354 0.313030
Si Si5 0.678566 0.423515 0.233704
Si Si6 0.977388 0.201375 0.403408
O O1 0.975941 0.377235 0.285293
O O2 0.801026 0.335106 0.578089
O O3 0.908441 0.250289 0.470197
O O4 0.000000 0.296386 0.000000
O O5 0.043086 0.500000 0.564955
O O6 0.000000 0.602155 0.500000
O O7 0.197599 0.595369 0.127011
O O8 0.750000 0.250000 0.500000
O O9 0.789281 0.119855 0.429684
O O10 0.905802 0.187281 0.960901
O O11 0.380481 0.500000 0.233756
O O12 0.319380 0.422353 0.602638
O O13 0.500000 0.391933 0.000000
O O14 0.645003 0.500000 0.264675
O O15 0.590143 0.368611 0.397092
O O16 0.000000 0.236278 0.500000
#
# Coordination Sequence:
#
# PCOD8110123 Si02
#       6
#     8   8   8   8   8   8
#     4  12  27  44  66  97 135 182 230 280 336 406
#     4  10  24  46  70  99 137 179 226 280 340 413
#     4  12  25  41  67  98 138 179 222 288 341 398
#     4  10  21  40  70 103 134 173 224 281 343 407
#     4  10  22  42  71 102 134 175 227 286 348 412
#     4  12  26  44  69  99 137 181 228 285 344 408
#
# _framework density 21.773893999999999
#
# number of rings (size 3 to 8) (size 9 to 14) (size 15 to 20)
#    0.000    1.000    3.333    2.500    2.333    6.667 
#    0.000    0.000    0.000    0.000    0.000    0.000 
#    0.000    0.000    0.000    0.000    0.000    0.000 
#
# Total GULP energy -297667.950838 kJ/mol
# GULP energy per Si atom -12402.831285 kJ/mol
# Density = 2.172434 g / cm^3
# Si number density = 21.773894 Si / 1000 Ang^3
#
#
#
# Elastic Constant Matrix: (Units=GPa)
#
#
# Indices 1 2 3 4 5 6 
#
# 1 145.6446 66.5839 19.6511 0.0000 -1.9770 0.0000
# 2 66.5839 116.4705 27.2891 0.0000 -1.0787 0.0000
# 3 19.6511 27.2891 60.1604 0.0000 1.6512 -0.0001
# 4 0.0000 0.0000 0.0000 4.2093 0.0000 -10.2522
# 5 -1.9770 -1.0787 1.6512 0.0000 37.6066 0.0000
# 6 0.0000 0.0000 -0.0001 -10.2522 0.0000 41.1324
#
#
#
# Elastic Compliance Matrix: (Units=1/GPa)
#
#
# Indices 1 2 3 4 5 6 
#
# 1 0.009327 -0.005161 -0.000716 0.000000 0.000374 0.000000
# 2 -0.005161 0.012471 -0.003978 0.000000 0.000261 0.000000
# 3 -0.000716 -0.003978 0.018687 0.000000 -0.000972 0.000000
# 4 0.000000 0.000000 0.000000 0.604598 -0.000001 0.150695
# 5 0.000374 0.000261 -0.000972 -0.000001 0.026661 0.000000
# 6 0.000000 0.000000 0.000000 0.150695 0.000000 0.061872
#
#
# Mechanical properties :
#
#
# Convention : Reuss Voigt Hill
#
# Bulk Modulus (GPa) = 48.13441 61.03599 54.58520
# Shear Modulus (GPa) = 6.57677 30.50643 18.54160
#
# Velocity S-wave (km/s) = 1.73984 3.74713 2.92130
# Velocity P-wave (km/s) = 5.11767 6.84207 6.04170
#
# Compressibility (1/GPa) = 0.02077516
#
# Stress axis : x y z
#
# Youngs Moduli (GPa) = 107.21449 80.18742 53.51231
#
# Poissons Ratio (x) = 0.41384 0.03831
# Poissons Ratio (y) = 0.55333 0.21288
# Poissons Ratio (z) = 0.07675 0.31900
#
# Static dielectric constant tensor:
#      x y z
#    x 4.526270 0.000000 0.094800 
#    y 0.000000 4.022380 0.000000 
#    z 0.094800 0.000000 3.906330 
# 
# 
# High freq. dielectric constant tensor:
#      x y z
#    x 1.860610 0.000000 0.002710 
#    y 0.000000 1.858690 0.000000 
#    z 0.002710 0.000000 1.858330 
# 
# From -- ./inp_files/106508.got.cif
#   From: 2010.06.25/outbox.cif.g09.slc.cpg/sg12_54_cif.got.tgz:106508.got - 2010.06.28 00:19:55.
