data_PCOD8110489
_publ_section_title
;
Structure prediction by ZEFSAII (Michael W. Deem and Ramdas Pophale) SiO2 
 PCOD8110489
Probable space group: C 2/M
;
_chemical_formula_sum "Si O2"
_cell_formula_units_Z 64
_cell_length_a 9.140385
_cell_length_b 27.744358
_cell_length_c 12.021660
_cell_angle_alpha 90.000000
_cell_angle_beta 80.455899
_cell_angle_gamma 90.000000
_cell_volume 3006.424010
_symmetry_space_group_name_H-M "C 2/M"
_symmetry_group_IT_number 12
_symmetry_cell_setting 'monoclinic'
loop_
_space_group_symop_operation_xyz
x,y,z
-x,y,-z
-x,-y,-z
x,-y,z
1/2+x,1/2+y,z
1/2-x,1/2+y,-z
1/2-x,1/2-y,-z
1/2+x,1/2-y,z
loop_
_atom_site_type_symbol
_atom_site_label
_atom_site_fract_x
_atom_site_fract_y
_atom_site_fract_z
Si Si1 0.845885 0.053778 0.647710
Si Si2 0.625188 0.800142 0.667011
Si Si3 0.823151 0.445399 0.105237
Si Si4 0.034055 0.798287 0.368198
Si Si5 0.654770 0.114964 0.505688
Si Si6 0.896146 0.891351 0.304744
Si Si7 0.467915 0.145119 0.887122
Si Si8 0.657335 0.605995 0.933528
O O1 0.790985 0.058843 0.779979
O O2 0.746130 0.087538 0.586120
O O3 0.016489 0.071068 0.626790
O O4 0.836957 0.000000 0.601676
O O5 0.794015 0.790014 0.678392
O O6 0.551560 0.749754 0.650100
O O7 0.619052 0.831798 0.556095
O O8 0.540372 0.826500 0.777377
O O9 0.886052 0.500000 0.088288
O O10 0.961132 0.409153 0.109830
O O11 0.725469 0.433871 0.007705
O O12 0.000000 0.814138 0.500000
O O13 0.984052 0.840745 0.291251
O O14 0.500000 0.087888 0.500000
O O15 0.736312 0.118416 0.377930
O O16 0.877444 0.914504 0.185067
O O17 0.288577 0.145137 0.897420
O O18 0.500000 0.172333 0.000000
O O19 0.500000 0.627063 0.000000
#
# Coordination Sequence:
#
# PCOD8110489 Si02
#       8
#     8   8   8   8   8   8   8   8
#     4  11  23  44  70  96 135 185 232 280 344 416
#     4  12  25  45  68 104 136 176 228 286 343 411
#     4  10  21  43  71  97 132 185 235 282 338 409
#     4  12  25  43  70 101 137 180 229 280 344 410
#     4  12  25  42  71  98 141 177 227 285 346 405
#     4  12  24  44  67 101 137 184 224 282 348 413
#     4  10  23  44  69  95 137 183 224 279 345 415
#     4  11  24  40  67  99 133 173 226 284 338 402
#
# _framework density 21.287749999999999
#
# number of rings (size 3 to 8) (size 9 to 14) (size 15 to 20)
#    0.000    0.750    5.000    1.875    5.250    4.250 
#    0.000    1.250    0.000    0.000    0.000    0.000 
#    0.000    0.000    0.000    0.000    0.000    0.000 
#
# Total GULP energy -396713.252679 kJ/mol
# GULP energy per Si atom -12397.289146 kJ/mol
# Density = 2.123930 g / cm^3
# Si number density = 21.287750 Si / 1000 Ang^3
#
#
#
# Elastic Constant Matrix: (Units=GPa)
#
#
# Indices 1 2 3 4 5 6 
#
# 1 155.5607 10.0814 28.4498 0.0000 -9.1288 0.0000
# 2 10.0814 62.8443 10.1923 0.0000 0.6153 0.0000
# 3 28.4498 10.1923 86.6284 0.0000 -1.2587 0.0000
# 4 0.0000 0.0000 0.0000 22.1245 0.0000 6.6407
# 5 -9.1288 0.6153 -1.2587 0.0000 42.4215 0.0000
# 6 0.0000 0.0000 0.0000 6.6407 0.0000 39.4841
#
#
#
# Elastic Compliance Matrix: (Units=1/GPa)
#
#
# Indices 1 2 3 4 5 6 
#
# 1 0.006961 -0.000778 -0.002174 0.000000 0.001445 0.000000
# 2 -0.000778 0.016313 -0.001670 0.000000 -0.000454 0.000000
# 3 -0.002174 -0.001670 0.012453 0.000000 -0.000074 0.000000
# 4 0.000000 0.000000 0.000000 0.047602 0.000000 -0.008006
# 5 0.001445 -0.000454 -0.000074 0.000000 0.023888 0.000000
# 6 0.000000 0.000000 0.000000 -0.008006 0.000000 0.026673
#
#
# Mechanical properties :
#
#
# Convention : Reuss Voigt Hill
#
# Bulk Modulus (GPa) = 37.76119 44.72006 41.24062
# Shear Modulus (GPa) = 32.90313 37.89335 35.39824
#
# Velocity S-wave (km/s) = 3.93572 4.22365 4.08222
# Velocity P-wave (km/s) = 6.19921 6.69616 6.45247
#
# Compressibility (1/GPa) = 0.02648222
#
# Stress axis : x y z
#
# Youngs Moduli (GPa) = 143.65560 61.30256 80.30314
#
# Poissons Ratio (x) = 0.04771 0.17454
# Poissons Ratio (y) = 0.11181 0.13413
# Poissons Ratio (z) = 0.31224 0.10239
#
# Static dielectric constant tensor:
#      x y z
#    x 4.286170 0.000000 -0.003600 
#    y 0.000000 3.692070 0.000000 
#    z -0.003600 0.000000 4.222280 
# 
# 
# High freq. dielectric constant tensor:
#      x y z
#    x 1.859380 0.000000 -0.006990 
#    y 0.000000 1.805090 0.000000 
#    z -0.006990 0.000000 1.849860 
# 
# From -- ./inp_files/125755.got.cif
#   From: 2010.06.25/outbox.cif.g09.slc.cpg/sg12_63_cif.got.tgz:125755.got - 2010.06.28 00:19:55.
