data_PCOD8110538
_publ_section_title
;
Structure prediction by ZEFSAII (Michael W. Deem and Ramdas Pophale) SiO2 
 PCOD8110538
Probable space group: C 2/M
;
_chemical_formula_sum "Si O2"
_cell_formula_units_Z 52
_cell_length_a 8.161469
_cell_length_b 17.463157
_cell_length_c 19.124844
_cell_angle_alpha 90.000000
_cell_angle_beta 93.000225
_cell_angle_gamma 90.000000
_cell_volume 2722.032537
_symmetry_space_group_name_H-M "C 2/M"
_symmetry_group_IT_number 12
_symmetry_cell_setting 'monoclinic'
loop_
_space_group_symop_operation_xyz
x,y,z
-x,y,-z
-x,-y,-z
x,-y,z
1/2+x,1/2+y,z
1/2-x,1/2+y,-z
1/2-x,1/2-y,-z
1/2+x,1/2-y,z
loop_
_atom_site_type_symbol
_atom_site_label
_atom_site_fract_x
_atom_site_fract_y
_atom_site_fract_z
Si Si1 0.937969 0.314059 0.173216
Si Si2 0.926419 0.800357 0.369083
Si Si3 0.173589 0.219518 0.267496
Si Si4 0.688334 0.410574 0.530391
Si Si5 0.000000 0.690386 0.500000
Si Si6 0.634408 0.300439 0.950247
Si Si7 0.906194 0.588371 0.928965
O O1 0.760544 0.326713 0.205948
O O2 0.942014 0.247784 0.114712
O O3 0.072450 0.290551 0.233506
O O4 0.985112 0.393622 0.137191
O O5 0.812038 0.749097 0.320691
O O6 0.823979 0.874026 0.392952
O O7 0.001185 0.746420 0.432683
O O8 0.063772 0.832086 0.317522
O O9 0.500000 0.398943 0.500000
O O10 0.737503 0.500000 0.532429
O O11 0.833566 0.362757 0.493929
O O12 0.732033 0.370262 0.917861
O O13 0.500000 0.334961 0.000000
O O14 0.750000 0.250000 0.000000
O O15 0.869589 0.500000 0.933054
O O16 0.000000 0.618519 0.000000
#
# Coordination Sequence:
#
# PCOD8110538 Si02
#       7
#     8   8   8   8   4   8   8
#     4  11  19  37  58  86 112 157 190 244 288 356
#     4  11  20  39  60  92 112 153 206 253 292 354
#     4  10  22  33  62  86 115 148 211 240 287 358
#     4  11  23  38  60  93 126 153 190 254 317 359
#     4  12  21  40  69  88 118 162 208 254 307 358
#     4  12  19  34  63  89 108 148 203 237 283 353
#     4  11  23  38  58  89 122 149 190 252 300 337
#
# _framework density 19.103370999999999
#
# number of rings (size 3 to 8) (size 9 to 14) (size 15 to 20)
#    0.000    0.923    6.923    1.615    0.000    0.308 
#    0.000    1.538    0.000    0.000    0.000    0.000 
#    0.000    0.000    0.000    0.000    0.000    0.000 
#
# Total GULP energy -322090.389857 kJ/mol
# GULP energy per Si atom -12388.091918 kJ/mol
# Density = 1.905989 g / cm^3
# Si number density = 19.103371 Si / 1000 Ang^3
#
#
#
# Elastic Constant Matrix: (Units=GPa)
#
#
# Indices 1 2 3 4 5 6 
#
# 1 62.0629 9.1417 18.1902 0.0000 -15.4053 0.0000
# 2 9.1417 61.8542 14.9789 0.0000 -6.1308 0.0000
# 3 18.1902 14.9789 89.4292 0.0000 -17.2600 0.0000
# 4 0.0000 0.0000 0.0000 13.6291 0.0000 -10.6173
# 5 -15.4053 -6.1308 -17.2600 0.0000 47.8690 0.0000
# 6 0.0000 0.0000 0.0000 -10.6173 0.0000 19.5400
#
#
#
# Elastic Compliance Matrix: (Units=1/GPa)
#
#
# Indices 1 2 3 4 5 6 
#
# 1 0.018274 -0.001617 -0.002527 0.000000 0.004763 0.000000
# 2 -0.001617 0.017061 -0.002373 0.000000 0.000809 0.000000
# 3 -0.002527 -0.002373 0.012766 0.000000 0.003486 0.000000
# 4 0.000000 0.000000 0.000000 0.127225 0.000000 0.069129
# 5 0.004763 0.000809 0.003486 0.000000 0.023784 0.000000
# 6 0.000000 0.000000 0.000000 0.069129 0.000000 0.088740
#
#
# Mechanical properties :
#
#
# Convention : Reuss Voigt Hill
#
# Bulk Modulus (GPa) = 28.51585 33.10753 30.81169
# Shear Modulus (GPa) = 15.99637 27.60999 21.80318
#
# Velocity S-wave (km/s) = 2.89685 3.80583 3.38202
# Velocity P-wave (km/s) = 5.11357 6.05647 5.60488
#
# Compressibility (1/GPa) = 0.03506822
#
# Stress axis : x y z
#
# Youngs Moduli (GPa) = 54.72365 58.61410 78.33183
#
# Poissons Ratio (x) = 0.09476 0.19794
# Poissons Ratio (y) = 0.08847 0.18584
# Poissons Ratio (z) = 0.13828 0.13906
#
# Static dielectric constant tensor:
#      x y z
#    x 3.818250 0.000000 -0.219110 
#    y 0.000000 3.300760 0.000000 
#    z -0.219110 0.000000 4.043260 
# 
# 
# High freq. dielectric constant tensor:
#      x y z
#    x 1.764160 0.000000 -0.011220 
#    y 0.000000 1.698730 0.000000 
#    z -0.011220 0.000000 1.754590 
# 
# From -- ./inp_files/256627.got.cif
#   From: 2010.06.25/outbox.cif.g09.slc.cpg/sg12_129_cif.got.tgz:256627.got - 2010.06.28 00:19:55.
