data_PCOD8110520
_publ_section_title
;
Structure prediction by ZEFSAII (Michael W. Deem and Ramdas Pophale) SiO2 
 PCOD8110520
Probable space group: C 2/M
;
_chemical_formula_sum "Si O2"
_cell_formula_units_Z 56
_cell_length_a 10.112834
_cell_length_b 29.398218
_cell_length_c 11.881707
_cell_angle_alpha 90.000000
_cell_angle_beta 131.167298
_cell_angle_gamma 90.000000
_cell_volume 2659.175436
_symmetry_space_group_name_H-M "C 2/M"
_symmetry_group_IT_number 12
_symmetry_cell_setting 'monoclinic'
loop_
_space_group_symop_operation_xyz
x,y,z
-x,y,-z
-x,-y,-z
x,-y,z
1/2+x,1/2+y,z
1/2-x,1/2+y,-z
1/2-x,1/2-y,-z
1/2+x,1/2-y,z
loop_
_atom_site_type_symbol
_atom_site_label
_atom_site_fract_x
_atom_site_fract_y
_atom_site_fract_z
Si Si1 0.298764 0.703850 0.888427
Si Si2 0.545687 0.947450 0.863974
Si Si3 0.709722 0.446357 0.805847
Si Si4 0.693970 0.809261 0.076727
Si Si5 0.294020 0.141872 0.365208
Si Si6 0.496863 0.364605 0.366429
Si Si7 0.150744 0.549491 0.675070
O O1 0.272654 0.757664 0.865887
O O2 0.216232 0.681498 0.731918
O O3 0.500000 0.689662 0.000000
O O4 0.209422 0.684674 0.951008
O O5 0.356492 0.929552 0.798111
O O6 0.562646 0.936451 0.743283
O O7 0.542057 0.000000 0.892066
O O8 0.713518 0.929548 0.029765
O O9 0.662584 0.500000 0.773941
O O10 0.533666 0.418382 0.675468
O O11 0.835495 0.838611 0.220484
O O12 0.500000 0.826077 0.000000
O O13 0.500000 0.135811 0.500000
O O14 0.222561 0.092002 0.283243
O O15 0.179490 0.152962 0.412246
O O16 0.500000 0.353565 0.500000
O O17 0.250087 0.500000 0.741003
O O18 0.000000 0.543297 0.500000
#
# Coordination Sequence:
#
# PCOD8110520 Si02
#       7
#     8   8   8   8   8   8   8
#     4  10  21  46  72  98 130 163 218 259 326 394
#     4   8  16  34  60  90 119 161 218 270 318 377
#     4   9  20  37  61  90 128 172 218 270 322 373
#     4  10  24  43  73 102 125 168 209 268 323 393
#     4  11  26  43  65  92 133 181 213 267 330 380
#     4  12  28  43  61  99 136 168 222 272 322 392
#     4   9  19  34  58  90 128 171 219 261 312 379
#
# _framework density 21.059161
#
# number of rings (size 3 to 8) (size 9 to 14) (size 15 to 20)
#    0.000    2.143    1.429    0.857   10.000    1.429 
#    0.000    1.429    0.000    3.000    0.000    0.000 
#    0.000    0.000    0.000    0.000    0.000    0.000 
#
# Total GULP energy -347011.711599 kJ/mol
# GULP energy per Si atom -12393.275414 kJ/mol
# Density = 2.101123 g / cm^3
# Si number density = 21.059161 Si / 1000 Ang^3
#
#
#
# Elastic Constant Matrix: (Units=GPa)
#
#
# Indices 1 2 3 4 5 6 
#
# 1 151.1941 36.2177 59.9764 0.0000 -16.9031 0.0000
# 2 36.2177 69.9210 30.2567 0.0000 -3.4691 0.0000
# 3 59.9764 30.2567 83.1615 0.0000 -20.6536 0.0000
# 4 0.0000 0.0000 0.0000 28.0640 0.0000 -2.4013
# 5 -16.9031 -3.4691 -20.6536 0.0000 40.7475 0.0000
# 6 0.0000 0.0000 0.0000 -2.4013 0.0000 26.7918
#
#
#
# Elastic Compliance Matrix: (Units=1/GPa)
#
#
# Indices 1 2 3 4 5 6 
#
# 1 0.009600 -0.002402 -0.005848 0.000000 0.000814 0.000000
# 2 -0.002402 0.017709 -0.005244 0.000000 -0.002147 0.000000
# 3 -0.005848 -0.005244 0.019948 0.000000 0.007239 0.000000
# 4 0.000000 0.000000 0.000000 0.035908 0.000000 0.003218
# 5 0.000814 -0.002147 0.007239 0.000000 0.028365 0.000000
# 6 0.000000 0.000000 0.000000 0.003218 0.000000 0.037613
#
#
# Mechanical properties :
#
#
# Convention : Reuss Voigt Hill
#
# Bulk Modulus (GPa) = 49.33439 61.90869 55.62154
# Shear Modulus (GPa) = 27.33940 30.97572 29.15756
#
# Velocity S-wave (km/s) = 3.60699 3.83938 3.72500
# Velocity P-wave (km/s) = 6.38941 7.00827 6.70598
#
# Compressibility (1/GPa) = 0.02026984
#
# Stress axis : x y z
#
# Youngs Moduli (GPa) = 104.16676 56.46973 50.13103
#
# Poissons Ratio (x) = 0.13563 0.29314
# Poissons Ratio (y) = 0.25019 0.26288
# Poissons Ratio (z) = 0.60912 0.29612
#
# Static dielectric constant tensor:
#      x y z
#    x 3.877420 0.000000 -0.185430 
#    y 0.000000 4.048710 0.000000 
#    z -0.185430 0.000000 3.633710 
# 
# 
# High freq. dielectric constant tensor:
#      x y z
#    x 1.824940 0.000000 -0.016980 
#    y 0.000000 1.829940 0.000000 
#    z -0.016980 0.000000 1.811720 
# 
# From -- ./inp_files/125843.got.cif
#   From: 2010.06.25/outbox.cif.g09.slc.cpg/sg12_63_cif.got.tgz:125843.got - 2010.06.28 00:19:55.
