data_PCOD8110408
_publ_section_title
;
Structure prediction by ZEFSAII (Michael W. Deem and Ramdas Pophale) SiO2 
 PCOD8110408
Probable space group: C 2/M
;
_chemical_formula_sum "Si O2"
_cell_formula_units_Z 64
_cell_length_a 28.319913
_cell_length_b 14.027386
_cell_length_c 8.987618
_cell_angle_alpha 90.000000
_cell_angle_beta 68.054254
_cell_angle_gamma 90.000000
_cell_volume 3311.654744
_symmetry_space_group_name_H-M "C 2/M"
_symmetry_group_IT_number 12
_symmetry_cell_setting 'monoclinic'
loop_
_space_group_symop_operation_xyz
x,y,z
-x,y,-z
-x,-y,-z
x,-y,z
1/2+x,1/2+y,z
1/2-x,1/2+y,-z
1/2-x,1/2-y,-z
1/2+x,1/2-y,z
loop_
_atom_site_type_symbol
_atom_site_label
_atom_site_fract_x
_atom_site_fract_y
_atom_site_fract_z
Si Si1 0.807740 0.752300 0.484572
Si Si2 0.693328 0.897759 0.258794
Si Si3 0.550581 0.392739 0.034671
Si Si4 0.212440 0.166646 0.998756
Si Si5 0.647889 0.390724 0.351589
Si Si6 0.630716 0.753433 0.876616
Si Si7 0.949499 0.786281 0.656694
Si Si8 0.897634 0.610476 0.849676
O O1 0.750000 0.750000 0.500000
O O2 0.817229 0.680547 0.606820
O O3 0.824524 0.855101 0.528919
O O4 0.842558 0.718957 0.307617
O O5 0.752074 0.904654 0.137068
O O6 0.657633 0.876772 0.159561
O O7 0.679230 0.000000 0.345673
O O8 0.572932 0.500000 0.026441
O O9 0.541259 0.349725 0.208595
O O10 0.500000 0.396666 0.000000
O O11 0.588027 0.325846 0.895675
O O12 0.167787 0.204862 0.950109
O O13 0.250000 0.250000 0.000000
O O14 0.188339 0.116082 0.169988
O O15 0.632146 0.500000 0.394256
O O16 0.597479 0.329010 0.381062
O O17 0.607473 0.850040 0.975439
O O18 0.938118 0.676117 0.713564
O O19 0.000000 0.788717 0.500000
O O20 0.915789 0.500000 0.830410
#
# Coordination Sequence:
#
# PCOD8110408 Si02
#       8
#     8   8   8   8   8   8   8   8
#     4  12  24  41  57  86 134 168 204 258 314 369
#     4  11  22  37  62  88 119 161 209 255 305 366
#     4  10  23  41  62  92 125 162 204 249 312 378
#     4  12  18  40  63  87 120 163 208 252 302 364
#     4  12  25  41  63  94 127 167 216 258 307 375
#     4  11  22  38  64  85 125 167 203 257 312 367
#     4  11  23  42  67  94 125 162 202 263 318 368
#     4  10  21  42  67  91 117 159 213 257 308 372
#
# _framework density 19.325686999999999
#
# number of rings (size 3 to 8) (size 9 to 14) (size 15 to 20)
#    0.000    0.875    7.500    0.750    1.750    3.250 
#    0.000    0.000    0.000    6.000    0.000    0.000 
#    0.000    0.000    0.000    0.000    0.000    0.000 
#
# Total GULP energy -396774.120636 kJ/mol
# GULP energy per Si atom -12399.191270 kJ/mol
# Density = 1.928170 g / cm^3
# Si number density = 19.325687 Si / 1000 Ang^3
#
#
#
# Elastic Constant Matrix: (Units=GPa)
#
#
# Indices 1 2 3 4 5 6 
#
# 1 74.2142 43.6983 26.8121 0.0000 -4.7128 0.0000
# 2 43.6983 147.1621 45.0239 0.0000 -3.6435 0.0000
# 3 26.8121 45.0239 104.7805 0.0000 -16.1028 0.0000
# 4 0.0000 0.0000 0.0000 14.2984 0.0000 1.0186
# 5 -4.7128 -3.6435 -16.1028 0.0000 35.1923 0.0000
# 6 0.0000 0.0000 0.0000 1.0186 0.0000 23.6291
#
#
#
# Elastic Compliance Matrix: (Units=1/GPa)
#
#
# Indices 1 2 3 4 5 6 
#
# 1 0.016894 -0.004272 -0.002375 0.000000 0.000734 0.000000
# 2 -0.004272 0.008924 -0.002891 0.000000 -0.000971 0.000000
# 3 -0.002375 -0.002891 0.012153 0.000000 0.004944 0.000000
# 4 0.000000 0.000000 0.000000 0.070154 0.000000 -0.003024
# 5 0.000734 -0.000971 0.004944 0.000000 0.030675 0.000000
# 6 0.000000 0.000000 0.000000 -0.003024 0.000000 0.042451
#
#
# Mechanical properties :
#
#
# Convention : Reuss Voigt Hill
#
# Bulk Modulus (GPa) = 52.91824 61.91394 57.41609
# Shear Modulus (GPa) = 24.19838 28.66543 26.43191
#
# Velocity S-wave (km/s) = 3.54239 3.85552 3.70227
# Velocity P-wave (km/s) = 6.64629 7.20602 6.93181
#
# Compressibility (1/GPa) = 0.01889708
#
# Stress axis : x y z
#
# Youngs Moduli (GPa) = 59.19117 112.05597 82.28215
#
# Poissons Ratio (x) = 0.47870 0.19540
# Poissons Ratio (y) = 0.25286 0.23786
# Poissons Ratio (z) = 0.14056 0.32392
#
# Static dielectric constant tensor:
#      x y z
#    x 3.674610 0.000000 -0.096170 
#    y 0.000000 3.833920 0.000000 
#    z -0.096170 0.000000 3.710790 
# 
# 
# High freq. dielectric constant tensor:
#      x y z
#    x 1.751580 0.000000 -0.000260 
#    y 0.000000 1.758130 0.000000 
#    z -0.000260 0.000000 1.749200 
# 
# From -- ./inp_files/104516.got.cif
#   From: 2010.06.25/outbox.cif.g09.slc.cpg/sg12_53_cif.got.tgz:104516.got - 2010.06.28 00:19:55.
