data_PCOD8110056
_publ_section_title
;
Structure prediction by ZEFSAII (Michael W. Deem and Ramdas Pophale) SiO2 
 PCOD8110056
Probable space group: C 2/M
;
_chemical_formula_sum "Si O2"
_cell_formula_units_Z 36
_cell_length_a 4.884604
_cell_length_b 28.989630
_cell_length_c 10.919900
_cell_angle_alpha 90.000000
_cell_angle_beta 75.406775
_cell_angle_gamma 90.000000
_cell_volume 1496.404221
_symmetry_space_group_name_H-M "C 2/M"
_symmetry_group_IT_number 12
_symmetry_cell_setting 'monoclinic'
loop_
_space_group_symop_operation_xyz
x,y,z
-x,y,-z
-x,-y,-z
x,-y,z
1/2+x,1/2+y,z
1/2-x,1/2+y,-z
1/2-x,1/2-y,-z
1/2+x,1/2-y,z
loop_
_atom_site_type_symbol
_atom_site_label
_atom_site_fract_x
_atom_site_fract_y
_atom_site_fract_z
Si Si1 0.602791 0.500000 0.622588
Si Si2 0.500000 0.924312 0.500000
Si Si3 0.288871 0.500000 0.889547
Si Si4 0.572638 0.220937 0.352090
Si Si5 0.868412 0.373852 0.284397
Si Si6 0.438235 0.402723 0.134937
O O1 0.500000 0.500000 0.500000
O O2 0.795577 0.454078 0.613370
O O3 0.313864 0.500000 0.736772
O O4 0.313537 0.892969 0.428281
O O5 0.464288 0.454792 0.901739
O O6 0.000000 0.500000 0.000000
O O7 0.500000 0.209152 0.500000
O O8 0.401540 0.264892 0.316308
O O9 0.498509 0.177449 0.275991
O O10 0.101722 0.404793 0.189742
O O11 0.584147 0.377251 0.235192
O O12 0.500000 0.375605 0.000000
#
# Coordination Sequence:
#
# PCOD8110056 Si02
#       6
#     4   4   4   8   8   8
#     4  11  23  43  64  97 149 184 239 296 359 425
#     4  11  24  40  68 104 138 188 232 286 372 411
#     4  12  24  45  68  98 141 195 247 294 349 409
#     4  10  21  40  67 103 139 172 214 281 363 432
#     4  12  24  44  72 102 141 178 234 291 352 430
#     4  12  27  45  68  98 136 192 242 289 340 405
#
# _framework density 24.057670999999999
#
# number of rings (size 3 to 8) (size 9 to 14) (size 15 to 20)
#    0.000    0.667    3.333    5.000    0.000    1.778 
#    0.000    0.000    0.000   13.333    0.000    0.000 
#    0.000    0.000    0.000    0.000    0.000    0.000 
#
# Total GULP energy -223004.283694 kJ/mol
# GULP energy per Si atom -12389.126872 kJ/mol
# Density = 2.400291 g / cm^3
# Si number density = 24.057671 Si / 1000 Ang^3
#
#
#
# Elastic Constant Matrix: (Units=GPa)
#
#
# Indices 1 2 3 4 5 6 
#
# 1 69.1935 -0.8657 17.9239 0.0000 4.1931 0.0000
# 2 -0.8657 88.1670 14.8273 0.0000 5.0200 0.0000
# 3 17.9239 14.8273 128.5384 0.0000 5.0994 0.0000
# 4 0.0000 0.0000 0.0000 -14.5903 0.0000 -27.5985
# 5 4.1931 5.0200 5.0994 0.0000 61.8423 0.0000
# 6 0.0000 0.0000 0.0000 -27.5985 0.0000 -9.3220
#
#
#
# Elastic Compliance Matrix: (Units=1/GPa)
#
#
# Indices 1 2 3 4 5 6 
#
# 1 0.015065 0.000557 -0.002130 0.000000 -0.000891 0.000000
# 2 0.000557 0.011630 -0.001385 0.000000 -0.000868 0.000000
# 3 -0.002130 -0.001385 0.008253 0.000000 -0.000424 0.000000
# 4 0.000000 0.000000 0.000000 0.014899 0.000000 -0.044111
# 5 -0.000891 -0.000868 -0.000424 0.000000 0.016336 0.000000
# 6 0.000000 0.000000 0.000000 -0.044111 0.000000 0.023320
#
#
# Mechanical properties :
#
#
# Convention : Reuss Voigt Hill
#
# Bulk Modulus (GPa) = 34.44371 38.85221 36.64796
# Shear Modulus (GPa) = 47.57576 24.52023 36.04799
#
# Velocity S-wave (km/s) = 4.45181 3.19600 3.87512
# Velocity P-wave (km/s) = 6.38538 5.45929 5.94041
#
# Compressibility (1/GPa) = 0.02903287
#
# Stress axis : x y z
#
# Youngs Moduli (GPa) = 66.37979 85.98558 121.16393
#
# Poissons Ratio (x) = -0.04788 0.25803
# Poissons Ratio (y) = -0.03696 0.16778
# Poissons Ratio (z) = 0.14136 0.11907
#
# Static dielectric constant tensor:
#      x y z
#    x 3.848380 0.000000 0.491760 
#    y 0.000000 3.351560 0.000000 
#    z 0.491760 0.000000 4.109370 
# 
# 
# High freq. dielectric constant tensor:
#      x y z
#    x 1.957260 0.000000 0.010750 
#    y 0.000000 1.940840 0.000000 
#    z 0.010750 0.000000 1.954830 
# 
# From -- ./inp_files/115396.got.cif
#   From: 2010.06.25/outbox.cif.g09.slc.cpg/sg12_58_cif.got.tgz:115396.got - 2010.06.28 00:19:55.
