data_PCOD8110852
_publ_section_title
;
Structure prediction by ZEFSAII (Michael W. Deem and Ramdas Pophale) SiO2 
 PCOD8110852
Probable space group: C 2/M
;
_chemical_formula_sum "Si O2"
_cell_formula_units_Z 48
_cell_length_a 9.490324
_cell_length_b 24.707394
_cell_length_c 10.854762
_cell_angle_alpha 90.000000
_cell_angle_beta 67.601040
_cell_angle_gamma 90.000000
_cell_volume 2353.206692
_symmetry_space_group_name_H-M "C 2/M"
_symmetry_group_IT_number 12
_symmetry_cell_setting 'monoclinic'
loop_
_space_group_symop_operation_xyz
x,y,z
-x,y,-z
-x,-y,-z
x,-y,z
1/2+x,1/2+y,z
1/2-x,1/2+y,-z
1/2-x,1/2-y,-z
1/2+x,1/2-y,z
loop_
_atom_site_type_symbol
_atom_site_label
_atom_site_fract_x
_atom_site_fract_y
_atom_site_fract_z
Si Si1 0.193191 0.859493 0.331237
Si Si2 0.500546 0.898614 0.132037
Si Si3 0.638912 0.635310 0.619885
Si Si4 0.385375 0.218236 0.888295
Si Si5 0.881806 0.437611 0.647107
Si Si6 0.294170 0.741123 0.278018
O O1 0.324329 0.887734 0.212884
O O2 0.175589 0.886207 0.471115
O O3 0.231298 0.797332 0.349497
O O4 0.042815 0.867607 0.298264
O O5 0.596720 0.843645 0.074029
O O6 0.560496 0.930825 0.231387
O O7 0.500000 0.930772 0.000000
O O8 0.726651 0.596814 0.686507
O O9 0.684872 0.698193 0.619842
O O10 0.547040 0.249174 0.850144
O O11 0.338074 0.215464 0.761939
O O12 0.250000 0.250000 0.000000
O O13 0.842385 0.500000 0.638521
O O14 0.000000 0.418156 0.500000
#
# Coordination Sequence:
#
# PCOD8110852 Si02
#       6
#     8   8   8   8   8   8
#     4  10  22  38  58  96 131 170 206 250 327 376
#     4  11  23  41  65  93 134 167 212 264 312 388
#     4  11  21  39  62  90 129 164 210 268 313 381
#     4  11  21  35  54  88 131 179 210 243 309 384
#     4  11  24  46  72  95 120 162 220 275 330 379
#     4  11  20  34  55  87 130 169 211 254 303 382
#
# _framework density 20.397697000000001
#
# number of rings (size 3 to 8) (size 9 to 14) (size 15 to 20)
#    0.000    1.167    5.000    3.000    0.000    0.333 
#    3.000    3.333    0.000    1.000    0.000    0.000 
#    0.000    0.000    0.000    0.000    0.000    0.000 
#
# Total GULP energy -297445.819414 kJ/mol
# GULP energy per Si atom -12393.575809 kJ/mol
# Density = 2.035127 g / cm^3
# Si number density = 20.397697 Si / 1000 Ang^3
#
#
#
# Elastic Constant Matrix: (Units=GPa)
#
#
# Indices 1 2 3 4 5 6 
#
# 1 141.6096 37.2065 36.5530 0.0000 1.4449 0.0000
# 2 37.2065 65.6884 17.6576 0.0000 -7.4395 0.0000
# 3 36.5530 17.6576 83.4809 0.0000 6.8557 0.0000
# 4 0.0000 0.0000 0.0000 17.9476 0.0000 4.6303
# 5 1.4449 -7.4395 6.8557 0.0000 36.8043 0.0000
# 6 0.0000 0.0000 0.0000 4.6303 0.0000 17.9607
#
#
#
# Elastic Compliance Matrix: (Units=1/GPa)
#
#
# Indices 1 2 3 4 5 6 
#
# 1 0.008978 -0.004370 -0.002951 0.000000 -0.000686 0.000000
# 2 -0.004370 0.018857 -0.002440 0.000000 0.004438 0.000000
# 3 -0.002951 -0.002440 0.014032 0.000000 -0.002991 0.000000
# 4 0.000000 0.000000 0.000000 0.059688 0.000000 -0.015388
# 5 -0.000686 0.004438 -0.002991 0.000000 0.028652 0.000000
# 6 0.000000 0.000000 0.000000 -0.015388 0.000000 0.059644
#
#
# Mechanical properties :
#
#
# Convention : Reuss Voigt Hill
#
# Bulk Modulus (GPa) = 44.74785 52.62368 48.68576
# Shear Modulus (GPa) = 23.06047 27.83329 25.44688
#
# Velocity S-wave (km/s) = 3.36600 3.69796 3.53588
# Velocity P-wave (km/s) = 6.09032 6.63989 6.37103
#
# Compressibility (1/GPa) = 0.02234744
#
# Stress axis : x y z
#
# Youngs Moduli (GPa) = 111.37725 53.03071 71.26363
#
# Poissons Ratio (x) = 0.23175 0.21027
# Poissons Ratio (y) = 0.48673 0.17385
# Poissons Ratio (z) = 0.32863 0.12937
#
# Static dielectric constant tensor:
#      x y z
#    x 4.064910 0.000000 0.158400 
#    y 0.000000 3.372660 0.000000 
#    z 0.158400 0.000000 3.632470 
# 
# 
# High freq. dielectric constant tensor:
#      x y z
#    x 1.817750 0.000000 0.011050 
#    y 0.000000 1.759200 0.000000 
#    z 0.011050 0.000000 1.793340 
# 
# From -- ./inp_files/122415.got.cif
#   From: 2010.06.25/outbox.cif.g09.slc.cpg/sg12_62_cif.got.tgz:122415.got - 2010.06.28 00:19:55.
