data_PCOD8110808
_publ_section_title
;
Structure prediction by ZEFSAII (Michael W. Deem and Ramdas Pophale) SiO2 
 PCOD8110808
Probable space group: C 2/M
;
_chemical_formula_sum "Si O2"
_cell_formula_units_Z 64
_cell_length_a 9.858863
_cell_length_b 27.144150
_cell_length_c 19.997453
_cell_angle_alpha 90.000000
_cell_angle_beta 136.062562
_cell_angle_gamma 90.000000
_cell_volume 3713.277778
_symmetry_space_group_name_H-M "C 2/M"
_symmetry_group_IT_number 12
_symmetry_cell_setting 'monoclinic'
loop_
_space_group_symop_operation_xyz
x,y,z
-x,y,-z
-x,-y,-z
x,-y,z
1/2+x,1/2+y,z
1/2-x,1/2+y,-z
1/2-x,1/2-y,-z
1/2+x,1/2-y,z
loop_
_atom_site_type_symbol
_atom_site_label
_atom_site_fract_x
_atom_site_fract_y
_atom_site_fract_z
Si Si1 0.137265 0.202956 0.985509
Si Si2 0.502831 0.152455 0.829328
Si Si3 0.145799 0.203047 0.493245
Si Si4 0.031914 0.690266 0.692916
Si Si5 0.005216 0.944676 0.112391
Si Si6 0.911333 0.807096 0.286769
Si Si7 0.682480 0.055070 0.890890
Si Si8 0.579222 0.651170 0.210349
O O1 0.002340 0.183990 0.878480
O O2 0.250000 0.250000 0.000000
O O3 0.300758 0.162354 0.058885
O O4 0.000000 0.215440 0.000000
O O5 0.528906 0.179558 0.769378
O O6 0.309301 0.173081 0.795369
O O7 0.499483 0.092841 0.822947
O O8 0.250000 0.250000 0.500000
O O9 0.323915 0.172431 0.588732
O O10 0.000000 0.219957 0.500000
O O11 0.027847 0.172934 0.393912
O O12 0.083236 0.748138 0.705079
O O13 0.187636 0.657316 0.708583
O O14 0.172515 0.931695 0.118261
O O15 0.018129 0.905950 0.178213
O O16 0.033482 0.000000 0.151079
O O17 0.796820 0.940931 0.001702
O O18 0.011688 0.828128 0.256916
O O19 0.597900 0.000000 0.852422
#
# Coordination Sequence:
#
# PCOD8110808 Si02
#       8
#     8   8   8   8   8   8   8   8
#     4  12  24  35  50  75 115 154 187 215 261 328
#     4  12  21  36  55  79 112 149 186 225 272 325
#     4  10  22  38  57  81 109 147 189 235 277 319
#     4  11  21  37  59  78 112 149 189 229 266 328
#     4   9  17  34  56  79 106 141 188 239 271 315
#     4  11  25  37  53  82 115 149 184 228 276 330
#     4   9  17  33  57  80 103 141 192 236 271 316
#     4  12  23  36  54  83 112 149 189 222 276 329
#
# _framework density 17.235446
#
# number of rings (size 3 to 8) (size 9 to 14) (size 15 to 20)
#    0.000    1.250    5.000    3.000    7.000    0.000 
#    0.000    0.625    0.000    1.500    0.000    5.250 
#    0.000    0.000    0.000    0.000    0.000    0.000 
#
# Total GULP energy -396687.086058 kJ/mol
# GULP energy per Si atom -12396.471439 kJ/mol
# Density = 1.719622 g / cm^3
# Si number density = 17.235446 Si / 1000 Ang^3
#
#
#
# Elastic Constant Matrix: (Units=GPa)
#
#
# Indices 1 2 3 4 5 6 
#
# 1 95.5638 3.4188 40.9542 0.0000 -4.3862 0.0000
# 2 3.4188 71.8204 25.6340 0.0000 -3.2741 0.0000
# 3 40.9542 25.6340 82.9106 0.0000 3.9577 0.0000
# 4 0.0000 0.0000 0.0000 -0.5511 0.0000 0.9463
# 5 -4.3862 -3.2741 3.9577 0.0000 27.8315 0.0000
# 6 0.0000 0.0000 0.0000 0.9463 0.0000 13.8900
#
#
#
# Elastic Compliance Matrix: (Units=1/GPa)
#
#
# Indices 1 2 3 4 5 6 
#
# 1 0.013849 0.002253 -0.007706 0.000000 0.003543 0.000000
# 2 0.002253 0.016199 -0.006271 0.000000 0.003152 0.000000
# 3 -0.007706 -0.006271 0.018022 0.000000 -0.004515 0.000000
# 4 0.000000 0.000000 0.000000 -1.624419 0.000001 0.110672
# 5 0.003543 0.003152 -0.004515 0.000001 0.037502 0.000000
# 6 0.000000 0.000000 0.000000 0.110672 0.000000 0.064454
#
#
# Mechanical properties :
#
#
# Convention : Reuss Voigt Hill
#
# Bulk Modulus (GPa) = 40.61800 43.36763 41.99282
# Shear Modulus (GPa) = -3.46564 20.25327 8.39381
#
# Velocity S-wave (km/s) = -1.41955 3.43168 2.20922
# Velocity P-wave (km/s) = 4.57503 6.39675 5.56099
#
# Compressibility (1/GPa) = 0.02461963
#
# Stress axis : x y z
#
# Youngs Moduli (GPa) = 72.20816 61.73411 55.48673
#
# Poissons Ratio (x) = -0.13908 0.42760
# Poissons Ratio (y) = -0.16267 0.34798
# Poissons Ratio (z) = 0.55646 0.38716
#
# Static dielectric constant tensor:
#      x y z
#    x 3.450830 0.000000 0.357660 
#    y 0.000000 3.188610 0.000000 
#    z 0.357660 0.000000 3.984980 
# 
# 
# High freq. dielectric constant tensor:
#      x y z
#    x 1.663100 0.000000 0.003520 
#    y 0.000000 1.645500 0.000000 
#    z 0.003520 0.000000 1.662720 
# 
# From -- ./inp_files/302649.got.cif
#   From: 2010.06.25/outbox.cif.g09.slc.cpg/sg12_152_cif.got.tgz:302649.got - 2010.06.28 00:19:55.
