data_PCOD8110013
_publ_section_title
;
Structure prediction by ZEFSAII (Michael W. Deem and Ramdas Pophale) SiO2 
 PCOD8110013
Probable space group: C 2/M
;
_chemical_formula_sum "Si O2"
_cell_formula_units_Z 48
_cell_length_a 19.041160
_cell_length_b 8.786789
_cell_length_c 29.430608
_cell_angle_alpha 90.000000
_cell_angle_beta 148.745125
_cell_angle_gamma 90.000000
_cell_volume 2554.825863
_symmetry_space_group_name_H-M "C 2/M"
_symmetry_group_IT_number 12
_symmetry_cell_setting 'monoclinic'
loop_
_space_group_symop_operation_xyz
x,y,z
-x,y,-z
-x,-y,-z
x,-y,z
1/2+x,1/2+y,z
1/2-x,1/2+y,-z
1/2-x,1/2-y,-z
1/2+x,1/2-y,z
loop_
_atom_site_type_symbol
_atom_site_label
_atom_site_fract_x
_atom_site_fract_y
_atom_site_fract_z
Si Si1 0.638218 0.321654 0.719179
Si Si2 0.917756 0.678866 0.218997
Si Si3 0.834013 0.825582 0.760494
Si Si4 0.194532 0.826504 0.356381
Si Si5 0.140607 0.176610 0.907148
Si Si6 0.632456 0.824360 0.464195
O O1 0.623160 0.500000 0.718041
O O2 0.657894 0.243006 0.778692
O O3 0.770214 0.284994 0.762446
O O4 0.507527 0.260831 0.620374
O O5 0.899471 0.500000 0.207135
O O6 0.848606 0.749074 0.136378
O O7 0.076316 0.719801 0.310509
O O8 0.769695 0.784718 0.675706
O O9 0.993769 0.794351 0.847602
O O10 0.801665 0.000000 0.755516
O O11 0.328151 0.808315 0.460870
O O12 0.138447 0.000000 0.326956
O O13 0.171741 0.000000 0.918994
O O14 0.250000 0.250000 0.000000
O O15 0.750000 0.750000 0.500000
O O16 0.615859 0.000000 0.440779
#
# Coordination Sequence:
#
# PCOD8110013 Si02
#       6
#     8   8   8   8   8   8
#     4  12  24  37  54  81 118 155 193 241 288 333
#     4  11  21  35  59  85 113 150 192 235 283 340
#     4   9  20  39  59  82 114 151 187 231 287 341
#     4   9  19  36  57  80 111 150 194 240 286 337
#     4  10  21  40  66  92 118 146 183 229 280 344
#     4  11  21  34  55  82 113 152 197 243 285 335
#
# _framework density 18.787973999999998
#
# number of rings (size 3 to 8) (size 9 to 14) (size 15 to 20)
#    0.000    1.667    1.667    5.000    0.000    4.667 
#    0.000    4.167    0.000    5.000    0.000    0.000 
#    0.000    0.000    0.000    0.000    0.000    0.000 
#
# Total GULP energy -297690.850858 kJ/mol
# GULP energy per Si atom -12403.785452 kJ/mol
# Density = 1.874521 g / cm^3
# Si number density = 18.787974 Si / 1000 Ang^3
#
#
#
# Elastic Constant Matrix: (Units=GPa)
#
#
# Indices 1 2 3 4 5 6 
#
# 1 129.0890 65.2080 54.2493 0.0000 -10.8182 -0.0003
# 2 65.2080 147.8636 55.7378 -0.0001 -8.4570 -0.0004
# 3 54.2493 55.7378 104.5297 -0.0001 -19.5792 0.0000
# 4 0.0000 -0.0001 -0.0001 32.7920 0.0000 -0.2090
# 5 -10.8182 -8.4570 -19.5792 0.0000 23.4958 0.0000
# 6 -0.0003 -0.0004 0.0000 -0.2090 0.0000 33.3533
#
#
#
# Elastic Compliance Matrix: (Units=1/GPa)
#
#
# Indices 1 2 3 4 5 6 
#
# 1 0.011147 -0.003435 -0.003820 0.000000 0.000713 0.000000
# 2 -0.003435 0.009537 -0.003503 0.000000 -0.001068 0.000000
# 3 -0.003820 -0.003503 0.015228 0.000000 0.009670 0.000000
# 4 0.000000 0.000000 0.000000 0.030496 0.000000 0.000191
# 5 0.000713 -0.001068 0.009670 0.000000 0.050563 0.000000
# 6 0.000000 0.000000 0.000000 0.000191 0.000000 0.029983
#
#
# Mechanical properties :
#
#
# Convention : Reuss Voigt Hill
#
# Bulk Modulus (GPa) = 69.45953 81.31919 75.38936
# Shear Modulus (GPa) = 28.85694 31.68071 30.26882
#
# Velocity S-wave (km/s) = 3.92334 4.11082 4.01817
# Velocity P-wave (km/s) = 7.58775 8.11839 7.85755
#
# Compressibility (1/GPa) = 0.01439687
#
# Stress axis : x y z
#
# Youngs Moduli (GPa) = 89.71187 104.85320 65.66821
#
# Poissons Ratio (x) = 0.36018 0.25084
# Poissons Ratio (y) = 0.30817 0.23001
# Poissons Ratio (z) = 0.34268 0.36727
#
# Static dielectric constant tensor:
#      x y z
#    x 3.478370 0.000000 -0.174710 
#    y 0.000000 3.528180 0.000000 
#    z -0.174710 0.000000 3.489310 
# 
# 
# High freq. dielectric constant tensor:
#      x y z
#    x 1.729760 0.000000 -0.016850 
#    y 0.000000 1.739630 0.000000 
#    z -0.016850 0.000000 1.717700 
# 
# From -- ./inp_files/295359.got.cif
#   From: 2010.06.25/outbox.cif.g09.slc.cpg/sg12_148_cif.got.tgz:295359.got - 2010.06.28 00:19:55.
