data_PCOD8110901
_publ_section_title
;
Structure prediction by ZEFSAII (Michael W. Deem and Ramdas Pophale) SiO2 
 PCOD8110901
Probable space group: C 2/M
;
_chemical_formula_sum "Si O2"
_cell_formula_units_Z 48
_cell_length_a 26.741162
_cell_length_b 11.269162
_cell_length_c 23.532563
_cell_angle_alpha 90.000000
_cell_angle_beta 160.462536
_cell_angle_gamma 90.000000
_cell_volume 2371.578280
_symmetry_space_group_name_H-M "C 2/M"
_symmetry_group_IT_number 12
_symmetry_cell_setting 'monoclinic'
loop_
_space_group_symop_operation_xyz
x,y,z
-x,y,-z
-x,-y,-z
x,-y,z
1/2+x,1/2+y,z
1/2-x,1/2+y,-z
1/2-x,1/2-y,-z
1/2+x,1/2-y,z
loop_
_atom_site_type_symbol
_atom_site_label
_atom_site_fract_x
_atom_site_fract_y
_atom_site_fract_z
Si Si1 0.060979 0.000000 0.476379
Si Si2 0.932063 0.260314 0.988606
Si Si3 0.039040 0.765081 0.388493
Si Si4 0.662419 0.364347 0.311347
Si Si5 0.052169 0.866466 0.822608
Si Si6 0.749622 0.500000 0.792812
Si Si7 0.281521 0.862971 0.165787
O O1 0.101869 0.886982 0.481561
O O2 0.174352 0.000000 0.650410
O O3 0.885193 0.000000 0.305625
O O4 0.861060 0.389971 0.920523
O O5 0.798282 0.168087 0.859861
O O6 0.000000 0.238284 0.000000
O O7 0.068458 0.234174 0.176786
O O8 0.165977 0.670529 0.509775
O O9 0.945951 0.784646 0.230889
O O10 0.934532 0.709019 0.324905
O O11 0.637226 0.500000 0.261549
O O12 0.610558 0.359885 0.321523
O O13 0.087475 0.000000 0.840527
O O14 0.175566 0.824042 0.000047
O O15 0.319938 0.000000 0.205650
#
# Coordination Sequence:
#
# PCOD8110901 Si02
#       7
#     4   8   8   8   8   4   8
#     4  11  24  38  66  94 124 154 203 260 305 353
#     4  11  22  41  65  86 119 159 201 249 304 360
#     4  12  20  39  62  89 122 164 201 252 305 363
#     4  10  23  39  60  91 125 160 203 251 300 356
#     4   9  19  37  59  86 123 158 202 252 302 356
#     4  11  23  44  62  92 124 156 202 258 307 354
#     4  10  22  38  60  89 120 163 205 249 302 362
#
# _framework density 20.239685999999999
#
# number of rings (size 3 to 8) (size 9 to 14) (size 15 to 20)
#    0.000    1.500    2.500    4.250    0.000    2.000 
#    0.000    0.000    7.333    3.000    0.000    0.000 
#    0.000    0.000    0.000    0.000    0.000    0.000 
#
# Total GULP energy -297537.628784 kJ/mol
# GULP energy per Si atom -12397.401199 kJ/mol
# Density = 2.019362 g / cm^3
# Si number density = 20.239686 Si / 1000 Ang^3
#
#
#
# Elastic Constant Matrix: (Units=GPa)
#
#
# Indices 1 2 3 4 5 6 
#
# 1 77.3965 37.2564 8.6228 0.0001 12.3290 -0.0022
# 2 37.2564 109.1113 45.2672 0.0000 -0.6821 -0.0046
# 3 8.6228 45.2672 55.0974 0.0033 12.8682 -0.0004
# 4 0.0001 0.0000 0.0033 27.8319 0.0013 6.8850
# 5 12.3290 -0.6821 12.8682 0.0013 33.5885 -0.0021
# 6 -0.0022 -0.0046 -0.0004 6.8850 -0.0021 31.5264
#
#
#
# Elastic Compliance Matrix: (Units=1/GPa)
#
#
# Indices 1 2 3 4 5 6 
#
# 1 0.018004 -0.009023 0.006789 0.000000 -0.009393 -0.000001
# 2 -0.009023 0.019276 -0.016792 0.000001 0.010136 0.000002
# 3 0.006789 -0.016792 0.034645 -0.000003 -0.016106 -0.000002
# 4 0.000000 0.000001 -0.000003 0.037982 -0.000001 -0.008295
# 5 -0.009393 0.010136 -0.016106 -0.000001 0.039596 0.000003
# 6 -0.000001 0.000002 -0.000002 -0.008295 0.000003 0.033531
#
#
# Mechanical properties :
#
#
# Convention : Reuss Voigt Hill
#
# Bulk Modulus (GPa) = 29.52229 47.09979 38.31104
# Shear Modulus (GPa) = 21.51694 28.61995 25.06845
#
# Velocity S-wave (km/s) = 3.26407 3.76447 3.52316
# Velocity P-wave (km/s) = 5.36875 6.49742 5.95987
#
# Compressibility (1/GPa) = 0.03387271
#
# Stress axis : x y z
#
# Youngs Moduli (GPa) = 55.54461 51.87891 28.86435
#
# Poissons Ratio (x) = 0.46808 -0.19596
# Poissons Ratio (y) = 0.50116 0.48469
# Poissons Ratio (z) = -0.37709 0.87115
#
# Static dielectric constant tensor:
#      x y z
#    x 3.785460 0.000000 0.189720 
#    y 0.000000 3.626130 -0.000010 
#    z 0.189720 -0.000010 3.506930 
# 
# 
# High freq. dielectric constant tensor:
#      x y z
#    x 1.795470 0.000000 0.017760 
#    y 0.000000 1.793950 0.000000 
#    z 0.017760 0.000000 1.778960 
# 
# From -- ./inp_files/351883.got.cif
#   From: 2010.06.25/outbox.cif.g09.slc.cpg/sg12_176_cif.got.tgz:351883.got - 2010.06.28 00:19:55.
