data_PCOD8110599
_publ_section_title
;
Structure prediction by ZEFSAII (Michael W. Deem and Ramdas Pophale) SiO2 
 PCOD8110599
Probable space group: C 2/M
;
_chemical_formula_sum "Si O2"
_cell_formula_units_Z 56
_cell_length_a 20.338494
_cell_length_b 25.894057
_cell_length_c 9.777743
_cell_angle_alpha 90.000000
_cell_angle_beta 144.302468
_cell_angle_gamma 90.000000
_cell_volume 3004.713076
_symmetry_space_group_name_H-M "C 2/M"
_symmetry_group_IT_number 12
_symmetry_cell_setting 'monoclinic'
loop_
_space_group_symop_operation_xyz
x,y,z
-x,y,-z
-x,-y,-z
x,-y,z
1/2+x,1/2+y,z
1/2-x,1/2+y,-z
1/2-x,1/2-y,-z
1/2+x,1/2-y,z
loop_
_atom_site_type_symbol
_atom_site_label
_atom_site_fract_x
_atom_site_fract_y
_atom_site_fract_z
Si Si1 0.928877 0.220049 0.013451
Si Si2 0.607606 0.000000 0.780721
Si Si3 0.370157 0.110586 0.237826
Si Si4 0.296997 0.835165 0.371119
Si Si5 0.302040 0.821099 0.876326
Si Si6 0.384758 0.000000 0.882728
Si Si7 0.366568 0.891143 0.753339
Si Si8 0.423417 0.733044 0.501108
O O1 0.008743 0.199755 0.270874
O O2 0.830756 0.180236 0.807837
O O3 0.879860 0.271776 0.994797
O O4 0.000000 0.232766 0.000000
O O5 0.500000 0.000000 0.500000
O O6 0.675845 0.052199 0.861895
O O7 0.584058 0.000000 0.903841
O O8 0.500000 0.110826 0.500000
O O9 0.291441 0.137039 0.216082
O O10 0.360664 0.140883 0.081056
O O11 0.341636 0.877529 0.553838
O O12 0.377138 0.784983 0.496370
O O13 0.296592 0.849285 0.721384
O O14 0.178961 0.803444 0.720089
O O15 0.321062 0.052105 0.723706
O O16 0.500000 0.000000 0.000000
O O17 0.500000 0.886372 0.000000
O O18 0.500000 0.747677 0.500000
#
# Coordination Sequence:
#
# PCOD8110599 Si02
#       8
#     8   4   8   8   8   4   8   8
#     4  11  22  37  54  80 115 144 187 232 269 321
#     4  10  22  36  56  84 116 146 178 226 280 332
#     4  11  21  35  56  82 117 145 180 225 276 334
#     4  11  23  35  55  84 109 151 187 218 278 331
#     4  11  21  35  57  81 108 152 189 219 276 334
#     4  10  22  36  54  84 116 147 180 224 278 335
#     4  11  21  35  56  81 115 145 183 221 273 334
#     4  11  22  37  55  80 114 148 187 233 269 322
#
# _framework density 18.637387
#
# number of rings (size 3 to 8) (size 9 to 14) (size 15 to 20)
#    0.000    1.143    1.429    6.857    6.000    4.571 
#    0.000    0.000    0.000    0.000    0.000   20.000 
#    0.000    0.000    0.000    0.000    0.000    0.000 
#
# Total GULP energy -347148.788817 kJ/mol
# GULP energy per Si atom -12398.171029 kJ/mol
# Density = 1.859497 g / cm^3
# Si number density = 18.637387 Si / 1000 Ang^3
#
#
#
# Elastic Constant Matrix: (Units=GPa)
#
#
# Indices 1 2 3 4 5 6 
#
# 1 76.9098 14.4879 30.7890 0.0000 2.4376 0.0000
# 2 14.4879 96.2876 30.0716 0.0000 6.7222 0.0000
# 3 30.7890 30.0716 85.0110 0.0000 -2.1548 0.0000
# 4 0.0000 0.0000 0.0000 36.5916 0.0000 -30.9610
# 5 2.4376 6.7222 -2.1548 0.0000 31.6415 0.0000
# 6 0.0000 0.0000 0.0000 -30.9610 0.0000 63.3885
#
#
#
# Elastic Compliance Matrix: (Units=1/GPa)
#
#
# Indices 1 2 3 4 5 6 
#
# 1 0.015306 -0.000517 -0.005397 0.000000 -0.001437 0.000000
# 2 -0.000517 0.011940 -0.004107 0.000000 -0.002776 0.000000
# 3 -0.005397 -0.004107 0.015229 0.000000 0.002325 0.000000
# 4 0.000000 0.000000 0.000000 0.046578 0.000000 0.022750
# 5 -0.001437 -0.002776 0.002325 0.000000 0.032463 0.000000
# 6 0.000000 0.000000 0.000000 0.022750 0.000000 0.026888
#
#
# Mechanical properties :
#
#
# Convention : Reuss Voigt Hill
#
# Bulk Modulus (GPa) = 44.57603 45.43396 45.00499
# Shear Modulus (GPa) = 28.42152 38.51497 33.46825
#
# Velocity S-wave (km/s) = 3.90933 4.55086 4.24224
# Velocity P-wave (km/s) = 6.65932 7.21419 6.94230
#
# Compressibility (1/GPa) = 0.02243358
#
# Stress axis : x y z
#
# Youngs Moduli (GPa) = 65.33512 83.75396 65.66250
#
# Poissons Ratio (x) = 0.04332 0.35437
# Poissons Ratio (y) = 0.03379 0.26965
# Poissons Ratio (z) = 0.35260 0.34394
#
# Static dielectric constant tensor:
#      x y z
#    x 3.477380 0.000000 -0.139920 
#    y 0.000000 4.076490 0.000000 
#    z -0.139920 0.000000 3.297700 
# 
# 
# High freq. dielectric constant tensor:
#      x y z
#    x 1.727200 0.000000 -0.025350 
#    y 0.000000 1.718800 0.000000 
#    z -0.025350 0.000000 1.711490 
# 
# From -- ./inp_files/80137.got.cif
#   From: 2010.06.25/outbox.cif.g09.slc.cpg/sg12_41_cif.got.tgz:80137.got - 2010.06.28 00:19:55.
