data_PCOD8110448
_publ_section_title
;
Structure prediction by ZEFSAII (Michael W. Deem and Ramdas Pophale) SiO2 
 PCOD8110448
Probable space group: C 2/M
;
_chemical_formula_sum "Si O2"
_cell_formula_units_Z 56
_cell_length_a 13.874175
_cell_length_b 14.356508
_cell_length_c 13.872053
_cell_angle_alpha 90.000000
_cell_angle_beta 109.680953
_cell_angle_gamma 90.000000
_cell_volume 2601.687487
_symmetry_space_group_name_H-M "C 2/M"
_symmetry_group_IT_number 12
_symmetry_cell_setting 'monoclinic'
loop_
_space_group_symop_operation_xyz
x,y,z
-x,y,-z
-x,-y,-z
x,-y,z
1/2+x,1/2+y,z
1/2-x,1/2+y,-z
1/2-x,1/2-y,-z
1/2+x,1/2-y,z
loop_
_atom_site_type_symbol
_atom_site_label
_atom_site_fract_x
_atom_site_fract_y
_atom_site_fract_z
Si Si1 0.839904 0.728580 0.804558
Si Si2 0.381603 0.605525 0.944234
Si Si3 0.798361 0.107223 0.125933
Si Si4 0.006831 0.604882 0.391031
Si Si5 0.771440 0.330211 0.582164
Si Si6 0.019936 0.233832 0.740158
Si Si7 0.573314 0.603490 0.441274
O O1 0.825719 0.830978 0.845999
O O2 0.810251 0.651411 0.876372
O O3 0.764868 0.710678 0.688639
O O4 0.959704 0.724176 0.812692
O O5 0.380722 0.500000 0.904934
O O6 0.500000 0.636415 0.000000
O O7 0.312845 0.614800 0.016687
O O8 0.888342 0.165854 0.205423
O O9 0.804271 0.000000 0.161955
O O10 0.968145 0.500000 0.357892
O O11 0.122743 0.616075 0.395173
O O12 0.000000 0.630462 0.500000
O O13 0.937748 0.678321 0.307538
O O14 0.750000 0.250000 0.500000
O O15 0.683512 0.404460 0.529375
O O16 0.933946 0.176348 0.649924
O O17 0.500000 0.641478 0.500000
O O18 0.542451 0.500000 0.394784
#
# Coordination Sequence:
#
# PCOD8110448 Si02
#       7
#     8   8   8   8   8   8   8
#     4  11  23  39  64  95 129 168 206 262 319 382
#     4  10  21  42  70  98 125 159 208 266 325 384
#     4  11  24  42  69  98 128 166 212 264 327 385
#     4  10  22  38  57  79 118 171 214 254 307 368
#     4  11  22  38  56  87 124 166 208 256 306 368
#     4  11  22  37  62  92 130 165 217 265 314 376
#     4  11  22  36  58  88 125 167 216 265 311 364
#
# _framework density 21.524491999999999
#
# number of rings (size 3 to 8) (size 9 to 14) (size 15 to 20)
#    0.000    1.286    4.286    2.571    2.000    4.571 
#    0.000    0.714    0.000    1.286    0.000    0.000 
#    0.000    0.000    0.000    0.000    0.000    0.000 
#
# Total GULP energy -347054.268330 kJ/mol
# GULP energy per Si atom -12394.795297 kJ/mol
# Density = 2.147550 g / cm^3
# Si number density = 21.524492 Si / 1000 Ang^3
#
#
#
# Elastic Constant Matrix: (Units=GPa)
#
#
# Indices 1 2 3 4 5 6 
#
# 1 78.0325 32.1256 21.9973 0.0000 -21.5415 0.0000
# 2 32.1256 144.7442 55.6504 0.0000 -16.0987 0.0000
# 3 21.9973 55.6504 82.9795 0.0000 -18.8577 0.0000
# 4 0.0000 0.0000 0.0000 34.4288 0.0000 1.8553
# 5 -21.5415 -16.0987 -18.8577 0.0000 33.7405 0.0000
# 6 0.0000 0.0000 0.0000 1.8553 0.0000 32.2495
#
#
#
# Elastic Compliance Matrix: (Units=1/GPa)
#
#
# Indices 1 2 3 4 5 6 
#
# 1 0.016479 -0.002377 -0.000735 0.000000 0.008976 0.000000
# 2 -0.002377 0.009687 -0.005912 0.000000 -0.000200 0.000000
# 3 -0.000735 -0.005912 0.017713 0.000000 0.006610 0.000000
# 4 0.000000 0.000000 0.000000 0.029136 0.000000 -0.001676
# 5 0.008976 -0.000200 0.006610 0.000000 0.038968 0.000000
# 6 0.000000 0.000000 0.000000 -0.001676 0.000000 0.031105
#
#
# Mechanical properties :
#
#
# Convention : Reuss Voigt Hill
#
# Bulk Modulus (GPa) = 38.71119 58.36697 48.53908
# Shear Modulus (GPa) = 29.45610 33.14928 31.30269
#
# Velocity S-wave (km/s) = 3.70333 3.92863 3.81764
# Velocity P-wave (km/s) = 6.02577 6.91045 6.48322
#
# Compressibility (1/GPa) = 0.02583232
#
# Stress axis : x y z
#
# Youngs Moduli (GPa) = 60.68458 103.23094 56.45591
#
# Poissons Ratio (x) = 0.24534 0.04147
# Poissons Ratio (y) = 0.14422 0.33376
# Poissons Ratio (z) = 0.04458 0.61030
#
# Static dielectric constant tensor:
#      x y z
#    x 4.168960 0.000000 -0.178340 
#    y 0.000000 4.025620 0.000000 
#    z -0.178340 0.000000 3.933370 
# 
# 
# High freq. dielectric constant tensor:
#      x y z
#    x 1.837620 0.000000 -0.026480 
#    y 0.000000 1.852610 0.000000 
#    z -0.026480 0.000000 1.831970 
# 
# From -- ./inp_files/214336.got.cif
#   From: 2010.06.25/outbox.cif.g09.slc.cpg/sg12_108_cif.got.tgz:214336.got - 2010.06.28 00:19:55.
