data_PCOD8110771
_publ_section_title
;
Structure prediction by ZEFSAII (Michael W. Deem and Ramdas Pophale) SiO2 
 PCOD8110771
Probable space group: C 2/M
;
_chemical_formula_sum "Si O2"
_cell_formula_units_Z 48
_cell_length_a 23.511160
_cell_length_b 9.522400
_cell_length_c 14.765537
_cell_angle_alpha 90.000000
_cell_angle_beta 129.180914
_cell_angle_gamma 90.000000
_cell_volume 2562.466917
_symmetry_space_group_name_H-M "C 2/M"
_symmetry_group_IT_number 12
_symmetry_cell_setting 'monoclinic'
loop_
_space_group_symop_operation_xyz
x,y,z
-x,y,-z
-x,-y,-z
x,-y,z
1/2+x,1/2+y,z
1/2-x,1/2+y,-z
1/2-x,1/2-y,-z
1/2+x,1/2-y,z
loop_
_atom_site_type_symbol
_atom_site_label
_atom_site_fract_x
_atom_site_fract_y
_atom_site_fract_z
Si Si1 0.781268 0.164253 0.755740
Si Si2 0.334822 0.158908 0.504428
Si Si3 0.205041 0.164753 0.029241
Si Si4 0.501642 0.842069 0.401504
Si Si5 0.611041 0.336937 0.284263
Si Si6 0.955126 0.161705 0.197270
O O1 0.717834 0.224129 0.626076
O O2 0.775854 0.226940 0.851745
O O3 0.860798 0.195123 0.789499
O O4 0.769223 0.000000 0.755264
O O5 0.415973 0.159801 0.548319
O O6 0.333877 0.254839 0.592909
O O7 0.310172 0.000000 0.504693
O O8 0.223758 0.000000 0.037538
O O9 0.250000 0.250000 0.000000
O O10 0.118157 0.190760 0.932392
O O11 0.500000 0.776615 0.500000
O O12 0.450611 0.749623 0.285223
O O13 0.469183 0.000000 0.369687
O O14 0.620507 0.500000 0.317354
O O15 0.525853 0.291086 0.208289
O O16 0.962564 0.000000 0.232442
#
# Coordination Sequence:
#
# PCOD8110771 Si02
#       6
#     8   8   8   8   8   8
#     4   9  18  32  53  76 100 134 171 207 249 299
#     4   9  17  30  48  75 105 130 165 209 249 297
#     4  10  22  38  54  74 101 136 174 212 251 298
#     4   9  18  30  49  74  98 134 175 205 243 297
#     4   9  17  32  53  77 103 131 163 205 258 305
#     4   9  19  34  51  74 103 130 164 211 257 297
#
# _framework density 18.731949
#
# number of rings (size 3 to 8) (size 9 to 14) (size 15 to 20)
#    0.000    2.833    0.000    0.500    2.333    1.667 
#    0.000    5.000    0.000    0.000    0.000    5.833 
#    0.000    0.000    0.000    0.000    0.000    0.000 
#
# Total GULP energy -297488.560237 kJ/mol
# GULP energy per Si atom -12395.356677 kJ/mol
# Density = 1.868931 g / cm^3
# Si number density = 18.731949 Si / 1000 Ang^3
#
#
#
# Elastic Constant Matrix: (Units=GPa)
#
#
# Indices 1 2 3 4 5 6 
#
# 1 74.9460 29.8525 62.4479 0.0000 -15.5889 0.0000
# 2 29.8525 45.0203 41.9889 0.0000 -6.2435 0.0000
# 3 62.4479 41.9889 124.1759 0.0000 -13.9729 0.0000
# 4 0.0000 0.0000 0.0000 26.3277 0.0000 -2.9381
# 5 -15.5889 -6.2435 -13.9729 0.0000 35.0894 0.0000
# 6 0.0000 0.0000 0.0000 -2.9381 0.0000 22.1748
#
#
#
# Elastic Compliance Matrix: (Units=1/GPa)
#
#
# Indices 1 2 3 4 5 6 
#
# 1 0.025584 -0.006945 -0.009818 0.000000 0.006221 0.000000
# 2 -0.006945 0.034402 -0.008164 0.000000 -0.000215 0.000000
# 3 -0.009818 -0.008164 0.015805 0.000000 0.000479 0.000000
# 4 0.000000 0.000000 0.000000 0.038553 0.000000 0.005108
# 5 0.006221 -0.000215 0.000479 0.000000 0.031415 0.000000
# 6 0.000000 0.000000 0.000000 0.005108 0.000000 0.045773
#
#
# Mechanical properties :
#
#
# Convention : Reuss Voigt Hill
#
# Bulk Modulus (GPa) = 38.55522 56.96896 47.76209
# Shear Modulus (GPa) = 19.99753 24.04190 22.01972
#
# Velocity S-wave (km/s) = 3.27090 3.58644 3.43230
# Velocity P-wave (km/s) = 5.90698 6.90136 6.42344
#
# Compressibility (1/GPa) = 0.02593682
#
# Stress axis : x y z
#
# Youngs Moduli (GPa) = 39.08755 29.06801 63.27125
#
# Poissons Ratio (x) = 0.20188 0.62117
# Poissons Ratio (y) = 0.27146 0.51657
# Poissons Ratio (z) = 0.38375 0.23732
#
# Static dielectric constant tensor:
#      x y z
#    x 3.532470 0.000000 -0.039110 
#    y 0.000000 3.436630 0.000000 
#    z -0.039110 0.000000 3.588020 
# 
# 
# High freq. dielectric constant tensor:
#      x y z
#    x 1.737590 0.000000 0.000580 
#    y 0.000000 1.697910 0.000000 
#    z 0.000580 0.000000 1.723500 
# 
# From -- ./inp_files/165188.got.cif
#   From: 2010.06.25/outbox.cif.g09.slc.cpg/sg12_83_cif.got.tgz:165188.got - 2010.06.28 00:19:55.
