data_PCOD8110848
_publ_section_title
;
Structure prediction by ZEFSAII (Michael W. Deem and Ramdas Pophale) SiO2 
 PCOD8110848
Probable space group: C 2/M
;
_chemical_formula_sum "Si O2"
_cell_formula_units_Z 56
_cell_length_a 29.168363
_cell_length_b 15.679497
_cell_length_c 10.779802
_cell_angle_alpha 90.000000
_cell_angle_beta 33.633437
_cell_angle_gamma 90.000000
_cell_volume 2730.666849
_symmetry_space_group_name_H-M "C 2/M"
_symmetry_group_IT_number 12
_symmetry_cell_setting 'monoclinic'
loop_
_space_group_symop_operation_xyz
x,y,z
-x,y,-z
-x,-y,-z
x,-y,z
1/2+x,1/2+y,z
1/2-x,1/2+y,-z
1/2-x,1/2-y,-z
1/2+x,1/2-y,z
loop_
_atom_site_type_symbol
_atom_site_label
_atom_site_fract_x
_atom_site_fract_y
_atom_site_fract_z
Si Si1 0.190504 0.189527 0.880754
Si Si2 0.803637 0.595524 0.443467
Si Si3 0.617662 0.142181 0.980696
Si Si4 0.348744 0.751440 0.658964
Si Si5 0.043142 0.324300 0.782793
Si Si6 0.097013 0.901689 0.295096
Si Si7 0.904480 0.595055 0.703505
O O1 0.233311 0.154684 0.660478
O O2 0.121343 0.256183 0.993279
O O3 0.254855 0.241447 0.822926
O O4 0.144095 0.114264 0.059212
O O5 0.773304 0.500000 0.529854
O O6 0.813825 0.614629 0.274369
O O7 0.889675 0.607490 0.322297
O O8 0.524733 0.122607 0.142547
O O9 0.634700 0.093274 0.070322
O O10 0.412801 0.752599 0.399844
O O11 0.362367 0.661888 0.696469
O O12 0.361146 0.834617 0.716656
O O13 0.000000 0.279824 0.000000
O O14 0.000000 0.881295 0.500000
O O15 0.111129 0.000000 0.303690
O O16 0.892630 0.500000 0.672808
O O17 0.000000 0.620830 0.500000
#
# Coordination Sequence:
#
# PCOD8110848 Si02
#       7
#     8   8   8   8   8   8   8
#     4  11  23  39  61  84 119 158 199 241 298 353
#     4  10  22  38  58  88 121 154 197 244 292 352
#     4  11  20  37  57  84 120 162 197 237 285 352
#     4  11  21  40  58  87 123 155 194 244 299 352
#     4   9  20  35  60  85 114 158 193 236 289 352
#     4  11  23  39  62  86 111 152 203 250 294 343
#     4  11  22  34  57  91 125 160 193 238 301 361
#
# _framework density 20.507809999999999
#
# number of rings (size 3 to 8) (size 9 to 14) (size 15 to 20)
#    0.000    1.429    2.857    3.000    0.000    6.000 
#    0.000    0.714    0.000    0.429    0.000    0.000 
#    0.000    0.000    0.000    0.000    0.000    0.000 
#
# Total GULP energy -347190.940144 kJ/mol
# GULP energy per Si atom -12399.676434 kJ/mol
# Density = 2.046113 g / cm^3
# Si number density = 20.507810 Si / 1000 Ang^3
#
#
#
# Elastic Constant Matrix: (Units=GPa)
#
#
# Indices 1 2 3 4 5 6 
#
# 1 64.8094 23.2794 25.6543 0.0000 19.2992 0.0000
# 2 23.2794 110.5032 19.5335 0.0000 9.4391 0.0000
# 3 25.6543 19.5335 103.9479 0.0000 18.8854 0.0000
# 4 0.0000 0.0000 0.0000 22.5635 0.0000 4.5245
# 5 19.2992 9.4391 18.8854 0.0000 30.4460 0.0000
# 6 0.0000 0.0000 0.0000 4.5245 0.0000 15.7141
#
#
#
# Elastic Compliance Matrix: (Units=1/GPa)
#
#
# Indices 1 2 3 4 5 6 
#
# 1 0.020688 -0.002992 -0.002625 0.000000 -0.010557 0.000000
# 2 -0.002992 0.009907 -0.001025 0.000000 -0.000539 0.000000
# 3 -0.002625 -0.001025 0.011384 0.000000 -0.005079 0.000000
# 4 0.000000 0.000000 0.000000 0.047035 0.000000 -0.013543
# 5 -0.010557 -0.000539 -0.005079 0.000000 0.042855 0.000000
# 6 0.000000 0.000000 0.000000 -0.013543 0.000000 0.067536
#
#
# Mechanical properties :
#
#
# Convention : Reuss Voigt Hill
#
# Bulk Modulus (GPa) = 34.85232 46.24388 40.54810
# Shear Modulus (GPa) = 22.49668 27.79759 25.14714
#
# Velocity S-wave (km/s) = 3.31566 3.68566 3.50554
# Velocity P-wave (km/s) = 5.62936 6.38047 6.01665
#
# Compressibility (1/GPa) = 0.02869250
#
# Stress axis : x y z
#
# Youngs Moduli (GPa) = 48.33767 100.93702 87.84576
#
# Poissons Ratio (x) = 0.30204 0.23062
# Poissons Ratio (y) = 0.14464 0.09007
# Poissons Ratio (z) = 0.12690 0.10349
#
# Static dielectric constant tensor:
#      x y z
#    x 3.794580 0.000000 0.235420 
#    y 0.000000 3.446730 0.000000 
#    z 0.235420 0.000000 3.990550 
# 
# 
# High freq. dielectric constant tensor:
#      x y z
#    x 1.795410 0.000000 0.015840 
#    y 0.000000 1.781970 0.000000 
#    z 0.015840 0.000000 1.818730 
# 
# From -- ./inp_files/189615.got.cif
#   From: 2010.06.25/outbox.cif.g09.slc.cpg/sg12_95_cif.got.tgz:189615.got - 2010.06.28 00:19:55.
