data_PCOD8110237
_publ_section_title
;
Structure prediction by ZEFSAII (Michael W. Deem and Ramdas Pophale) SiO2 
 PCOD8110237
Probable space group: C 2/M
;
_chemical_formula_sum "Si O2"
_cell_formula_units_Z 48
_cell_length_a 14.887302
_cell_length_b 17.651480
_cell_length_c 15.669599
_cell_angle_alpha 90.000000
_cell_angle_beta 35.529547
_cell_angle_gamma 90.000000
_cell_volume 2392.890663
_symmetry_space_group_name_H-M "C 2/M"
_symmetry_group_IT_number 12
_symmetry_cell_setting 'monoclinic'
loop_
_space_group_symop_operation_xyz
x,y,z
-x,y,-z
-x,-y,-z
x,-y,z
1/2+x,1/2+y,z
1/2-x,1/2+y,-z
1/2-x,1/2-y,-z
1/2+x,1/2-y,z
loop_
_atom_site_type_symbol
_atom_site_label
_atom_site_fract_x
_atom_site_fract_y
_atom_site_fract_z
Si Si1 0.565266 0.911213 0.540363
Si Si2 0.157018 0.411644 0.133539
Si Si3 0.971041 0.650872 0.117437
Si Si4 0.660717 0.411792 0.421635
Si Si5 0.831602 0.827499 0.410940
Si Si6 0.603945 0.295063 0.080775
O O1 0.500000 0.886034 0.500000
O O2 0.453914 0.884905 0.703693
O O3 0.727252 0.868436 0.421132
O O4 0.595065 0.000000 0.521931
O O5 0.191019 0.500000 0.112514
O O6 0.076228 0.392625 0.105598
O O7 0.324496 0.371188 0.016366
O O8 0.791328 0.637672 0.274781
O O9 0.006921 0.741316 0.091592
O O10 0.000000 0.619243 0.000000
O O11 0.500000 0.395866 0.500000
O O12 0.707248 0.500000 0.383344
O O13 0.646206 0.385364 0.529298
O O14 0.750000 0.750000 0.500000
O O15 0.999976 0.813996 0.242640
O O16 0.750000 0.250000 0.000000
#
# Coordination Sequence:
#
# PCOD8110237 Si02
#       6
#     8   8   8   8   8   8
#     4  10  22  42  68  94 124 170 220 268 324 379
#     4  10  21  41  65  93 132 169 212 271 325 386
#     4  11  23  42  64  93 134 176 214 258 326 395
#     4  11  25  42  64  99 135 169 218 272 324 389
#     4  12  22  42  67  93 127 170 215 270 324 379
#     4  10  23  41  61  90 128 171 216 257 320 387
#
# _framework density 20.059419999999999
#
# number of rings (size 3 to 8) (size 9 to 14) (size 15 to 20)
#    0.000    1.333    3.333    2.000    4.667    4.667 
#    0.000    0.000    0.000    3.500    0.000    0.000 
#    0.000    0.000    0.000    0.000    0.000    0.000 
#
# Total GULP energy -297609.888889 kJ/mol
# GULP energy per Si atom -12400.412037 kJ/mol
# Density = 2.001376 g / cm^3
# Si number density = 20.059420 Si / 1000 Ang^3
#
#
#
# Elastic Constant Matrix: (Units=GPa)
#
#
# Indices 1 2 3 4 5 6 
#
# 1 126.0951 54.2301 60.0843 0.0008 4.2949 0.0003
# 2 54.2301 85.7143 48.1267 -0.0044 -15.1177 -0.0062
# 3 60.0843 48.1267 155.8466 -0.0063 -8.0948 -0.0054
# 4 0.0008 -0.0044 -0.0063 14.4337 0.0032 -22.2889
# 5 4.2949 -15.1177 -8.0948 0.0032 40.2049 0.0037
# 6 0.0003 -0.0062 -0.0054 -22.2889 0.0037 25.9898
#
#
#
# Elastic Compliance Matrix: (Units=1/GPa)
#
#
# Indices 1 2 3 4 5 6 
#
# 1 0.012513 -0.007118 -0.002865 0.000018 -0.004590 0.000014
# 2 -0.007118 0.019008 -0.002743 -0.000025 0.007355 -0.000018
# 3 -0.002865 -0.002743 0.008419 -0.000013 0.000969 -0.000010
# 4 0.000018 -0.000025 -0.000013 -0.213616 0.000020 -0.183197
# 5 -0.004590 0.007355 0.000969 0.000020 0.028324 0.000015
# 6 0.000014 -0.000018 -0.000010 -0.183197 0.000015 -0.118633
#
#
# Mechanical properties :
#
#
# Convention : Reuss Voigt Hill
#
# Bulk Modulus (GPa) = 69.02582 76.94868 72.98725
# Shear Modulus (GPa) = -21.39449 29.80669 4.20610
#
# Velocity S-wave (km/s) = -3.26936 3.85894 1.44961
# Velocity P-wave (km/s) = 4.49820 7.63537 6.26629
#
# Compressibility (1/GPa) = 0.01448733
#
# Stress axis : x y z
#
# Youngs Moduli (GPa) = 79.91653 52.60999 118.78595
#
# Poissons Ratio (x) = 0.37448 0.34027
# Poissons Ratio (y) = 0.56884 0.32589
# Poissons Ratio (z) = 0.22892 0.14434
#
# Static dielectric constant tensor:
#      x y z
#    x 3.667670 -0.000220 -0.084920 
#    y -0.000220 1.605210 -0.000160 
#    z -0.084920 -0.000160 3.804510 
# 
# 
# High freq. dielectric constant tensor:
#      x y z
#    x 1.777300 0.000000 -0.003920 
#    y 0.000000 1.792280 0.000000 
#    z -0.003920 0.000000 1.790940 
# 
# From -- ./inp_files/88158.got.cif
#   From: 2010.06.25/outbox.cif.g09.slc.cpg/sg12_45_cif.got.tgz:88158.got - 2010.06.28 00:19:55.
