data_PCOD8110560
_publ_section_title
;
Structure prediction by ZEFSAII (Michael W. Deem and Ramdas Pophale) SiO2 
 PCOD8110560
Probable space group: C 2/M
;
_chemical_formula_sum "Si O2"
_cell_formula_units_Z 64
_cell_length_a 23.240729
_cell_length_b 22.602411
_cell_length_c 17.836486
_cell_angle_alpha 90.000000
_cell_angle_beta 157.113296
_cell_angle_gamma 90.000000
_cell_volume 3643.871994
_symmetry_space_group_name_H-M "C 2/M"
_symmetry_group_IT_number 12
_symmetry_cell_setting 'monoclinic'
loop_
_space_group_symop_operation_xyz
x,y,z
-x,y,-z
-x,-y,-z
x,-y,z
1/2+x,1/2+y,z
1/2-x,1/2+y,-z
1/2-x,1/2-y,-z
1/2+x,1/2-y,z
loop_
_atom_site_type_symbol
_atom_site_label
_atom_site_fract_x
_atom_site_fract_y
_atom_site_fract_z
Si Si1 0.672073 0.298447 0.458099
Si Si2 0.138377 0.798626 0.839983
Si Si3 0.845690 0.265412 0.285313
Si Si4 0.146070 0.866559 0.284496
Si Si5 0.116687 0.568879 0.511811
Si Si6 0.653415 0.433346 0.085580
Si Si7 0.203198 0.622784 0.869627
Si Si8 0.664478 0.245512 0.215523
O O1 0.750000 0.250000 0.500000
O O2 0.511425 0.281684 0.296445
O O3 0.652166 0.355898 0.381545
O O4 0.772505 0.305718 0.653269
O O5 0.123395 0.791484 0.731981
O O6 0.250000 0.750000 0.000000
O O7 0.210045 0.862656 0.948261
O O8 0.770375 0.319527 0.150924
O O9 0.746336 0.245090 0.234820
O O10 0.000000 0.290122 0.500000
O O11 0.273828 0.914978 0.424674
O O12 0.178926 0.808610 0.274385
O O13 0.986668 0.891381 0.067645
O O14 0.073808 0.500000 0.458312
O O15 0.206254 0.585820 0.694925
O O16 0.968547 0.607564 0.324753
O O17 0.604097 0.500000 0.045044
O O18 0.711316 0.430272 0.069542
O O19 0.500000 0.226981 0.000000
#
# Coordination Sequence:
#
# PCOD8110560 Si02
#       8
#     8   8   8   8   8   8   8   8
#     4  10  22  36  52  76 107 137 176 220 259 314
#     4  10  22  35  51  77 104 140 179 216 260 312
#     4  11  20  33  53  74 106 139 176 213 256 309
#     4  11  21  36  54  73 108 145 180 213 267 315
#     4  11  23  35  50  77 106 140 184 225 257 297
#     4  11  21  35  53  75 105 141 183 228 257 298
#     4  11  21  34  52  73 106 144 180 211 264 310
#     4  11  22  33  53  79 107 140 176 214 258 317
#
# _framework density 17.563735000000001
#
# number of rings (size 3 to 8) (size 9 to 14) (size 15 to 20)
#    0.000    1.250    2.500    5.250   10.500    2.000 
#    0.000    0.000    0.000    0.000    0.000    0.000 
#    0.000   20.000    0.000    0.000    0.000    0.000 
#
# Total GULP energy -396586.660052 kJ/mol
# GULP energy per Si atom -12393.333127 kJ/mol
# Density = 1.752376 g / cm^3
# Si number density = 17.563735 Si / 1000 Ang^3
#
#
#
# Elastic Constant Matrix: (Units=GPa)
#
#
# Indices 1 2 3 4 5 6 
#
# 1 119.8382 29.9419 46.8630 0.0000 9.4602 0.0000
# 2 29.9419 45.1036 29.5458 0.0000 -7.1786 0.0000
# 3 46.8630 29.5458 101.7514 0.0000 11.8690 0.0000
# 4 0.0000 0.0000 0.0000 27.1925 0.0000 -1.2138
# 5 9.4602 -7.1786 11.8690 0.0000 33.6747 0.0000
# 6 0.0000 0.0000 0.0000 -1.2138 0.0000 24.8034
#
#
#
# Elastic Compliance Matrix: (Units=1/GPa)
#
#
# Indices 1 2 3 4 5 6 
#
# 1 0.011321 -0.006049 -0.003062 0.000000 -0.003391 0.000000
# 2 -0.006049 0.033510 -0.008318 0.000000 0.011774 0.000000
# 3 -0.003062 -0.008318 0.014350 0.000000 -0.005971 0.000000
# 4 0.000000 0.000000 0.000000 0.036855 0.000000 0.001804
# 5 -0.003391 0.011774 -0.005971 0.000000 0.035263 0.000000
# 6 0.000000 0.000000 0.000000 0.001804 0.000000 0.040405
#
#
# Mechanical properties :
#
#
# Convention : Reuss Voigt Hill
#
# Bulk Modulus (GPa) = 41.11411 53.26607 47.19009
# Shear Modulus (GPa) = 23.29165 27.82364 25.55765
#
# Velocity S-wave (km/s) = 3.64555 3.98446 3.81876
# Velocity P-wave (km/s) = 6.41711 7.18060 6.80957
#
# Compressibility (1/GPa) = 0.02432255
#
# Stress axis : x y z
#
# Youngs Moduli (GPa) = 88.33055 29.84225 69.68748
#
# Poissons Ratio (x) = 0.18053 0.21338
# Poissons Ratio (y) = 0.53434 0.57963
# Poissons Ratio (z) = 0.27047 0.24822
#
# Static dielectric constant tensor:
#      x y z
#    x 3.711300 0.000000 -0.473720 
#    y 0.000000 3.428530 0.000000 
#    z -0.473720 0.000000 3.512600 
# 
# 
# High freq. dielectric constant tensor:
#      x y z
#    x 1.689140 0.000000 0.016710 
#    y 0.000000 1.633200 0.000000 
#    z 0.016710 0.000000 1.687920 
# 
# From -- ./inp_files/279393.got.cif
#   From: 2010.06.25/outbox.cif.g09.slc.cpg/sg12_140_cif.got.tgz:279393.got - 2010.06.28 00:19:55.
