data_PCOD8110605
_publ_section_title
;
Structure prediction by ZEFSAII (Michael W. Deem and Ramdas Pophale) SiO2 
 PCOD8110605
Probable space group: C 2/M
;
_chemical_formula_sum "Si O2"
_cell_formula_units_Z 48
_cell_length_a 21.660553
_cell_length_b 13.221755
_cell_length_c 12.296746
_cell_angle_alpha 90.000000
_cell_angle_beta 44.598854
_cell_angle_gamma 90.000000
_cell_volume 2472.702270
_symmetry_space_group_name_H-M "C 2/M"
_symmetry_group_IT_number 12
_symmetry_cell_setting 'monoclinic'
loop_
_space_group_symop_operation_xyz
x,y,z
-x,y,-z
-x,-y,-z
x,-y,z
1/2+x,1/2+y,z
1/2-x,1/2+y,-z
1/2-x,1/2-y,-z
1/2+x,1/2-y,z
loop_
_atom_site_type_symbol
_atom_site_label
_atom_site_fract_x
_atom_site_fract_y
_atom_site_fract_z
Si Si1 0.927717 0.699463 0.867598
Si Si2 0.882950 0.616075 0.344069
Si Si3 0.812755 0.612707 0.196091
Si Si4 0.232384 0.315685 0.326324
Si Si5 0.091600 0.616635 0.332878
Si Si6 0.581207 0.384050 0.975210
O O1 0.028677 0.669979 0.730806
O O2 0.885831 0.684993 0.800799
O O3 0.919142 0.815932 0.915658
O O4 0.878782 0.625876 0.013096
O O5 0.887212 0.500000 0.375426
O O6 0.870339 0.628393 0.231842
O O7 0.803026 0.669856 0.507461
O O8 0.771225 0.500000 0.244484
O O9 0.735681 0.696254 0.291618
O O10 0.170124 0.371662 0.319312
O O11 0.329257 0.364412 0.202851
O O12 0.084624 0.500000 0.305395
O O13 0.000000 0.653369 0.500000
O O14 0.573820 0.500000 0.021662
O O15 0.500000 0.353200 0.000000
#
# Coordination Sequence:
#
# PCOD8110605 Si02
#       6
#     8   8   8   8   8   8
#     4  11  21  37  60  88 120 150 193 248 296 344
#     4  11  20  35  61  88 116 149 195 248 297 346
#     4  10  22  36  55  87 120 153 186 237 307 358
#     4  11  22  39  61  86 116 155 202 243 282 346
#     4  11  22  38  62  88 115 151 198 250 294 340
#     4  10  22  40  61  88 122 160 198 235 287 355
#
# _framework density 19.411961000000002
#
# number of rings (size 3 to 8) (size 9 to 14) (size 15 to 20)
#    0.000    1.333    1.667    6.000    0.000    4.000 
#    0.000    5.000    0.000    1.000    0.000    0.000 
#    0.000    0.000    0.000    0.000    0.000    0.000 
#
# Total GULP energy -297695.155839 kJ/mol
# GULP energy per Si atom -12403.964827 kJ/mol
# Density = 1.936778 g / cm^3
# Si number density = 19.411961 Si / 1000 Ang^3
#
#
#
# Elastic Constant Matrix: (Units=GPa)
#
#
# Indices 1 2 3 4 5 6 
#
# 1 59.9856 8.2313 28.5117 0.0000 8.2175 0.0000
# 2 8.2313 109.1781 28.9425 0.0000 7.0776 0.0000
# 3 28.5117 28.9425 114.1077 0.0000 2.2329 0.0000
# 4 0.0000 0.0000 0.0000 22.5224 0.0000 2.0476
# 5 8.2175 7.0776 2.2329 0.0000 37.8328 0.0000
# 6 0.0000 0.0000 0.0000 2.0476 0.0000 29.3036
#
#
#
# Elastic Compliance Matrix: (Units=1/GPa)
#
#
# Indices 1 2 3 4 5 6 
#
# 1 0.019490 0.000062 -0.004808 0.000000 -0.003961 0.000000
# 2 0.000062 0.009929 -0.002500 0.000000 -0.001723 0.000000
# 3 -0.004808 -0.002500 0.010582 0.000000 0.000888 0.000000
# 4 0.000000 0.000000 0.000000 0.044684 0.000000 -0.003122
# 5 -0.003961 -0.001723 0.000888 0.000000 0.027563 0.000000
# 6 0.000000 0.000000 0.000000 -0.003122 0.000000 0.034344
#
#
# Mechanical properties :
#
#
# Convention : Reuss Voigt Hill
#
# Bulk Modulus (GPa) = 39.20273 46.07135 42.63704
# Shear Modulus (GPa) = 29.48339 32.43749 30.96044
#
# Velocity S-wave (km/s) = 3.90144 4.09223 3.99797
# Velocity P-wave (km/s) = 6.36663 6.79069 6.58207
#
# Compressibility (1/GPa) = 0.02550842
#
# Stress axis : x y z
#
# Youngs Moduli (GPa) = 51.30792 100.71312 94.50156
#
# Poissons Ratio (x) = -0.00624 0.45438
# Poissons Ratio (y) = -0.00318 0.23627
# Poissons Ratio (z) = 0.24670 0.25180
#
# Static dielectric constant tensor:
#      x y z
#    x 3.417260 0.000000 0.057560 
#    y 0.000000 3.733240 0.000000 
#    z 0.057560 0.000000 3.653840 
# 
# 
# High freq. dielectric constant tensor:
#      x y z
#    x 1.745180 0.000000 0.005230 
#    y 0.000000 1.759580 0.000000 
#    z 0.005230 0.000000 1.761310 
# 
# From -- ./inp_files/167544.got.cif
#   From: 2010.06.25/outbox.cif.g09.slc.cpg/sg12_84_cif.got.tgz:167544.got - 2010.06.28 00:19:55.
