data_PCOD8110182
_publ_section_title
;
Structure prediction by ZEFSAII (Michael W. Deem and Ramdas Pophale) SiO2 
 PCOD8110182
Probable space group: C 2/M
;
_chemical_formula_sum "Si O2"
_cell_formula_units_Z 36
_cell_length_a 7.793134
_cell_length_b 26.241122
_cell_length_c 14.300972
_cell_angle_alpha 90.000000
_cell_angle_beta 147.325146
_cell_angle_gamma 90.000000
_cell_volume 1578.883391
_symmetry_space_group_name_H-M "C 2/M"
_symmetry_group_IT_number 12
_symmetry_cell_setting 'monoclinic'
loop_
_space_group_symop_operation_xyz
x,y,z
-x,y,-z
-x,-y,-z
x,-y,z
1/2+x,1/2+y,z
1/2-x,1/2+y,-z
1/2-x,1/2-y,-z
1/2+x,1/2-y,z
loop_
_atom_site_type_symbol
_atom_site_label
_atom_site_fract_x
_atom_site_fract_y
_atom_site_fract_z
Si Si1 0.452907 0.327747 0.690884
Si Si2 0.000000 0.402529 0.000000
Si Si3 0.361232 0.942559 0.138385
Si Si4 0.150066 0.651186 0.372274
Si Si5 0.945773 0.263228 0.800953
O O1 0.675000 0.370900 0.837867
O O2 0.169955 0.350503 0.495229
O O3 0.298242 0.290792 0.697692
O O4 0.683073 0.289427 0.742566
O O5 0.066177 0.435890 0.938366
O O6 0.561299 0.904189 0.293426
O O7 0.458719 0.000000 0.210398
O O8 0.000000 0.931908 0.000000
O O9 0.500000 0.664848 0.500000
O O10 0.944029 0.697156 0.231995
O O11 0.250000 0.250000 0.000000
#
# Coordination Sequence:
#
# PCOD8110182 Si02
#       5
#     8   4   8   8   8
#     4  11  22  38  61  95 134 182 228 257 338 401
#     4  12  21  46  68 100 138 174 221 276 340 408
#     4  11  25  46  73 101 128 171 228 284 344 403
#     4  10  21  41  63  92 135 174 222 275 333 396
#     4  11  19  35  57  88 129 172 221 263 309 396
#
# _framework density 22.800924999999999
#
# number of rings (size 3 to 8) (size 9 to 14) (size 15 to 20)
#    0.000    1.111    6.667    1.000    0.000    4.000 
#    0.000    3.333    0.000    2.667    0.000    0.000 
#    0.000    0.000    0.000    0.000    0.000    0.000 
#
# Total GULP energy -223073.285733 kJ/mol
# GULP energy per Si atom -12392.960318 kJ/mol
# Density = 2.274903 g / cm^3
# Si number density = 22.800925 Si / 1000 Ang^3
#
#
#
# Elastic Constant Matrix: (Units=GPa)
#
#
# Indices 1 2 3 4 5 6 
#
# 1 54.6432 4.9866 11.6991 0.0000 -18.5415 0.0000
# 2 4.9866 116.4407 65.4461 0.0000 -17.2432 0.0000
# 3 11.6991 65.4461 144.9724 0.0000 -37.1157 0.0000
# 4 0.0000 0.0000 0.0000 35.0193 0.0000 -12.8369
# 5 -18.5415 -17.2432 -37.1157 0.0000 28.6257 0.0000
# 6 0.0000 0.0000 0.0000 -12.8369 0.0000 28.0017
#
#
#
# Elastic Compliance Matrix: (Units=1/GPa)
#
#
# Indices 1 2 3 4 5 6 
#
# 1 0.024357 0.000194 0.003018 0.000000 0.019806 0.000000
# 2 0.000194 0.011511 -0.005097 0.000000 0.000451 0.000000
# 3 0.003018 -0.005097 0.012978 0.000000 0.015711 0.000000
# 4 0.000000 0.000000 0.000000 0.034324 0.000000 0.015735
# 5 0.019806 0.000451 0.015711 0.000000 0.068405 0.000000
# 6 0.000000 0.000000 0.000000 0.015735 0.000000 0.042926
#
#
# Mechanical properties :
#
#
# Convention : Reuss Voigt Hill
#
# Bulk Modulus (GPa) = 22.18489 53.36888 37.77689
# Shear Modulus (GPa) = 23.44154 33.92428 28.68291
#
# Velocity S-wave (km/s) = 3.20987 3.86145 3.55064
# Velocity P-wave (km/s) = 4.84651 6.58318 5.78044
#
# Compressibility (1/GPa) = 0.04507572
#
# Stress axis : x y z
#
# Youngs Moduli (GPa) = 41.05521 86.87171 77.05615
#
# Poissons Ratio (x) = -0.01683 -0.23253
# Poissons Ratio (y) = -0.00796 0.39274
# Poissons Ratio (z) = -0.12389 0.44276
#
# Static dielectric constant tensor:
#      x y z
#    x 4.611040 0.000000 -0.930100 
#    y 0.000000 4.159920 0.000000 
#    z -0.930100 0.000000 4.880730 
# 
# 
# High freq. dielectric constant tensor:
#      x y z
#    x 1.913360 0.000000 -0.013090 
#    y 0.000000 1.890550 0.000000 
#    z -0.013090 0.000000 1.908320 
# 
# From -- ./inp_files/200083.got.cif
#   From: 2010.06.25/outbox.cif.g09.slc.cpg/sg12_101_cif.got.tgz:200083.got - 2010.06.28 00:19:55.
