data_PCOD8110985
_publ_section_title
;
Structure prediction by ZEFSAII (Michael W. Deem and Ramdas Pophale) SiO2 
 PCOD8110985
Probable space group: C 2/M
;
_chemical_formula_sum "Si O2"
_cell_formula_units_Z 36
_cell_length_a 10.796358
_cell_length_b 22.604718
_cell_length_c 11.774555
_cell_angle_alpha 90.000000
_cell_angle_beta 141.880893
_cell_angle_gamma 90.000000
_cell_volume 1773.846076
_symmetry_space_group_name_H-M "C 2/M"
_symmetry_group_IT_number 12
_symmetry_cell_setting 'monoclinic'
loop_
_space_group_symop_operation_xyz
x,y,z
-x,y,-z
-x,-y,-z
x,-y,z
1/2+x,1/2+y,z
1/2-x,1/2+y,-z
1/2-x,1/2-y,-z
1/2+x,1/2-y,z
loop_
_atom_site_type_symbol
_atom_site_label
_atom_site_fract_x
_atom_site_fract_y
_atom_site_fract_z
Si Si1 0.347126 0.881251 0.991609
Si Si2 0.738923 0.500000 0.034162
Si Si3 0.983919 0.816451 0.621420
Si Si4 0.018436 0.684616 0.318814
Si Si5 0.500000 0.100323 0.500000
Si Si6 0.282810 0.500000 0.711917
O O1 0.434591 0.829435 0.134005
O O2 0.500000 0.890533 0.000000
O O3 0.126999 0.862648 0.789557
O O4 0.342435 0.942121 0.057700
O O5 0.507920 0.500000 0.832347
O O6 0.756664 0.500000 0.181834
O O7 0.053438 0.750118 0.700623
O O8 0.757202 0.824521 0.499691
O O9 0.000000 0.828797 0.500000
O O10 0.919961 0.640744 0.339513
O O11 0.681747 0.058849 0.587850
#
# Coordination Sequence:
#
# PCOD8110985 Si02
#       6
#     8   4   8   8   4   4
#     4  12  24  43  64  90 125 166 207 252 303 368
#     4  11  23  42  58  93 123 161 208 252 309 361
#     4  11  23  42  63  93 128 162 203 254 306 364
#     4  11  23  41  66  93 126 160 205 253 307 370
#     4  11  20  40  66  94 118 163 206 252 314 361
#     4  10  22  38  65  89 127 156 201 265 303 364
#
# _framework density 20.294882999999999
#
# number of rings (size 3 to 8) (size 9 to 14) (size 15 to 20)
#    0.000    0.889    5.556    2.333    0.000    0.000 
#    0.000    0.556    0.000    0.000    0.000    0.000 
#    0.000    0.000    0.000    0.000    0.000    0.000 
#
# Total GULP energy -223281.364144 kJ/mol
# GULP energy per Si atom -12404.520230 kJ/mol
# Density = 2.024869 g / cm^3
# Si number density = 20.294883 Si / 1000 Ang^3
#
#
#
# Elastic Constant Matrix: (Units=GPa)
#
#
# Indices 1 2 3 4 5 6 
#
# 1 50.3204 5.0343 4.2963 0.0000 -6.5696 0.0000
# 2 5.0343 94.0766 20.0672 0.0000 -8.2914 0.0000
# 3 4.2963 20.0672 81.7624 0.0000 -1.3553 0.0000
# 4 0.0000 0.0000 0.0000 13.0729 0.0000 -2.7198
# 5 -6.5696 -8.2914 -1.3553 0.0000 35.5172 0.0000
# 6 0.0000 0.0000 0.0000 -2.7198 0.0000 19.6520
#
#
#
# Elastic Compliance Matrix: (Units=1/GPa)
#
#
# Indices 1 2 3 4 5 6 
#
# 1 0.020478 -0.000591 -0.000871 0.000000 0.003617 0.000000
# 2 -0.000591 0.011463 -0.002742 0.000000 0.002462 0.000000
# 3 -0.000871 -0.002742 0.012944 0.000000 -0.000307 0.000000
# 4 0.000000 0.000000 0.000000 0.078762 0.000000 0.010901
# 5 0.003617 0.002462 -0.000307 0.000000 0.029387 0.000000
# 6 0.000000 0.000000 0.000000 0.010901 0.000000 0.052394
#
#
# Mechanical properties :
#
#
# Convention : Reuss Voigt Hill
#
# Bulk Modulus (GPa) = 27.41391 31.66167 29.53779
# Shear Modulus (GPa) = 22.12431 26.76586 24.44509
#
# Velocity S-wave (km/s) = 3.30531 3.63553 3.47435
# Velocity P-wave (km/s) = 5.30131 5.76693 5.53902
#
# Compressibility (1/GPa) = 0.03647783
#
# Stress axis : x y z
#
# Youngs Moduli (GPa) = 48.83207 87.23677 77.25525
#
# Poissons Ratio (x) = 0.05158 0.06729
# Poissons Ratio (y) = 0.02888 0.21180
# Poissons Ratio (z) = 0.04253 0.23916
#
# Static dielectric constant tensor:
#      x y z
#    x 3.542410 0.000000 0.004530 
#    y 0.000000 3.702550 0.000000 
#    z 0.004530 0.000000 3.682400 
# 
# 
# High freq. dielectric constant tensor:
#      x y z
#    x 1.788910 0.000000 -0.004130 
#    y 0.000000 1.803680 0.000000 
#    z -0.004130 0.000000 1.797290 
# 
# From -- ./inp_files/46692.got.cif
#   From: 2010.06.25/outbox.cif.g09.slc.cpg/sg12_24_cif.got.tgz:46692.got - 2010.06.28 00:19:55.
