data_PCOD8110583
_publ_section_title
;
Structure prediction by ZEFSAII (Michael W. Deem and Ramdas Pophale) SiO2 
 PCOD8110583
Probable space group: C 2/M
;
_chemical_formula_sum "Si O2"
_cell_formula_units_Z 64
_cell_length_a 19.219987
_cell_length_b 17.353273
_cell_length_c 14.559071
_cell_angle_alpha 90.000000
_cell_angle_beta 140.686154
_cell_angle_gamma 90.000000
_cell_volume 3076.530961
_symmetry_space_group_name_H-M "C 2/M"
_symmetry_group_IT_number 12
_symmetry_cell_setting 'monoclinic'
loop_
_space_group_symop_operation_xyz
x,y,z
-x,y,-z
-x,-y,-z
x,-y,z
1/2+x,1/2+y,z
1/2-x,1/2+y,-z
1/2-x,1/2-y,-z
1/2+x,1/2-y,z
loop_
_atom_site_type_symbol
_atom_site_label
_atom_site_fract_x
_atom_site_fract_y
_atom_site_fract_z
Si Si1 0.264793 0.914464 0.504225
Si Si2 0.182629 0.909574 0.976242
Si Si3 0.154615 0.686020 0.736247
Si Si4 0.838502 0.585373 0.780067
Si Si5 0.232885 0.662270 0.113085
Si Si6 0.551399 0.328911 0.293553
Si Si7 0.912672 0.303516 0.537615
Si Si8 0.001412 0.714948 0.098809
O O1 0.266354 0.913962 0.615538
O O2 0.139297 0.893213 0.356470
O O3 0.351795 0.855296 0.550793
O O4 0.289491 0.000000 0.490316
O O5 0.248978 0.899210 0.949175
O O6 0.066908 0.866962 0.842893
O O7 0.165251 0.000000 0.978334
O O8 0.252493 0.873292 0.132183
O O9 0.175517 0.771218 0.798031
O O10 0.157388 0.691940 0.628059
O O11 0.033993 0.660408 0.646854
O O12 0.874180 0.500000 0.845265
O O13 0.765022 0.621329 0.786125
O O14 0.949229 0.631477 0.873007
O O15 0.117369 0.704212 0.977525
O O16 0.573586 0.285790 0.414130
O O17 0.574743 0.261519 0.244143
O O18 0.000000 0.760958 0.000000
#
# Coordination Sequence:
#
# PCOD8110583 Si02
#       8
#     8   8   8   8   8   8   8   8
#     4  11  25  41  63  93 131 170 215 272 332 388
#     4  12  26  42  67  98 137 176 215 274 337 394
#     4  11  24  43  67 100 128 169 228 271 321 394
#     4  10  22  39  60  97 134 164 212 273 332 387
#     4  11  21  41  64  94 130 169 216 266 326 399
#     4  12  22  43  65  96 130 174 224 267 324 398
#     4  11  24  42  71  95 126 175 226 276 319 389
#     4  10  22  35  64  96 125 168 212 270 322 390
#
# _framework density 20.802651000000001
#
# number of rings (size 3 to 8) (size 9 to 14) (size 15 to 20)
#    0.000    1.000    3.750    3.000    3.500    3.750 
#    0.000    1.250    0.000    5.250    0.000    0.000 
#    0.000    0.000    0.000    0.000    0.000    0.000 
#
# Total GULP energy -396690.829963 kJ/mol
# GULP energy per Si atom -12396.588436 kJ/mol
# Density = 2.075530 g / cm^3
# Si number density = 20.802651 Si / 1000 Ang^3
#
#
#
# Elastic Constant Matrix: (Units=GPa)
#
#
# Indices 1 2 3 4 5 6 
#
# 1 82.9911 39.8719 44.6765 0.0000 -1.5840 0.0000
# 2 39.8719 125.3414 59.8164 0.0000 -9.4264 0.0000
# 3 44.6765 59.8164 118.2393 0.0000 -1.5006 0.0000
# 4 0.0000 0.0000 0.0000 23.5735 0.0000 -5.5819
# 5 -1.5840 -9.4264 -1.5006 0.0000 32.5251 0.0000
# 6 0.0000 0.0000 0.0000 -5.5819 0.0000 21.0687
#
#
#
# Elastic Compliance Matrix: (Units=1/GPa)
#
#
# Indices 1 2 3 4 5 6 
#
# 1 0.015882 -0.002910 -0.004532 0.000000 -0.000279 0.000000
# 2 -0.002910 0.011313 -0.004586 0.000000 0.002925 0.000000
# 3 -0.004532 -0.004586 0.012478 0.000000 -0.000974 0.000000
# 4 0.000000 0.000000 0.000000 0.045260 0.000000 0.011991
# 5 -0.000279 0.002925 -0.000974 0.000000 0.031535 0.000000
# 6 0.000000 0.000000 0.000000 0.011991 0.000000 0.050641
#
#
# Mechanical properties :
#
#
# Convention : Reuss Voigt Hill
#
# Bulk Modulus (GPa) = 64.04111 68.36681 66.20396
# Shear Modulus (GPa) = 25.46207 27.58060 26.52133
#
# Velocity S-wave (km/s) = 3.50234 3.64513 3.57445
# Velocity P-wave (km/s) = 6.87074 7.11701 6.99496
#
# Compressibility (1/GPa) = 0.01561497
#
# Stress axis : x y z
#
# Youngs Moduli (GPa) = 62.96342 88.39647 80.14278
#
# Poissons Ratio (x) = 0.25726 0.36323
# Poissons Ratio (y) = 0.18324 0.36755
# Poissons Ratio (z) = 0.28537 0.40541
#
# Static dielectric constant tensor:
#      x y z
#    x 3.769010 0.000000 -0.236480 
#    y 0.000000 3.769390 0.000000 
#    z -0.236480 0.000000 3.929110 
# 
# 
# High freq. dielectric constant tensor:
#      x y z
#    x 1.815320 0.000000 -0.005020 
#    y 0.000000 1.803530 0.000000 
#    z -0.005020 0.000000 1.826670 
# 
# From -- ./inp_files/226901.got.cif
#   From: 2010.06.25/outbox.cif.g09.slc.cpg/sg12_114_cif.got.tgz:226901.got - 2010.06.28 00:19:55.
