data_PCOD8110536
_publ_section_title
;
Structure prediction by ZEFSAII (Michael W. Deem and Ramdas Pophale) SiO2 
 PCOD8110536
Probable space group: C 2/M
;
_chemical_formula_sum "Si O2"
_cell_formula_units_Z 64
_cell_length_a 14.427991
_cell_length_b 26.647022
_cell_length_c 9.514448
_cell_angle_alpha 90.000000
_cell_angle_beta 105.489984
_cell_angle_gamma 90.000000
_cell_volume 3525.085895
_symmetry_space_group_name_H-M "C 2/M"
_symmetry_group_IT_number 12
_symmetry_cell_setting 'monoclinic'
loop_
_space_group_symop_operation_xyz
x,y,z
-x,y,-z
-x,-y,-z
x,-y,z
1/2+x,1/2+y,z
1/2-x,1/2+y,-z
1/2-x,1/2-y,-z
1/2+x,1/2-y,z
loop_
_atom_site_type_symbol
_atom_site_label
_atom_site_fract_x
_atom_site_fract_y
_atom_site_fract_z
Si Si1 0.680228 0.215844 0.561546
Si Si2 0.906423 0.185077 0.049476
Si Si3 0.907692 0.186867 0.377342
Si Si4 0.802741 0.347632 0.680178
Si Si5 0.904554 0.443488 0.647317
Si Si6 0.890100 0.299121 0.983753
Si Si7 0.774720 0.350171 0.165117
Si Si8 0.121877 0.443854 0.692090
O O1 0.750000 0.250000 0.500000
O O2 0.601310 0.253008 0.597130
O O3 0.639307 0.175709 0.431081
O O4 0.737351 0.185330 0.703955
O O5 0.928496 0.178032 0.222023
O O6 0.869893 0.240820 0.000747
O O7 0.821958 0.148136 0.965831
O O8 0.000000 0.170714 0.000000
O O9 0.812901 0.155945 0.388290
O O10 0.000000 0.166287 0.500000
O O11 0.838920 0.404948 0.710794
O O12 0.824355 0.315407 0.827003
O O13 0.885055 0.500000 0.695533
O O14 0.876268 0.439980 0.474098
O O15 0.016816 0.429743 0.710185
O O16 0.863390 0.329717 0.110845
O O17 0.000000 0.311123 0.000000
O O18 0.797573 0.407070 0.215380
O O19 0.149200 0.500000 0.750729
#
# Coordination Sequence:
#
# PCOD8110536 Si02
#       8
#     8   8   8   8   8   8   8   8
#     4  10  22  33  55  81 111 150 194 230 270 326
#     4  11  24  37  55  80 115 154 192 230 285 332
#     4  11  24  37  54  80 115 150 192 238 272 328
#     4  11  21  38  55  83 114 150 192 227 278 344
#     4   9  18  35  58  85 115 143 182 235 283 335
#     4  11  23  36  56  82 118 153 187 231 284 342
#     4  12  20  39  59  79 116 157 186 232 287 342
#     4   9  19  34  57  88 113 142 188 235 282 338
#
# _framework density 18.155586
#
# number of rings (size 3 to 8) (size 9 to 14) (size 15 to 20)
#    0.000    1.500    3.750    3.375    7.000    1.000 
#    0.000    0.625    0.000    3.000    0.000    0.000 
#    0.000    0.000    0.000    0.000    0.000    0.000 
#
# Total GULP energy -396777.937194 kJ/mol
# GULP energy per Si atom -12399.310537 kJ/mol
# Density = 1.811426 g / cm^3
# Si number density = 18.155586 Si / 1000 Ang^3
#
#
#
# Elastic Constant Matrix: (Units=GPa)
#
#
# Indices 1 2 3 4 5 6 
#
# 1 80.3477 42.5945 40.9668 0.0000 9.2697 0.0000
# 2 42.5945 91.5796 43.0688 0.0000 10.8044 0.0000
# 3 40.9668 43.0688 113.6634 0.0000 3.3851 0.0000
# 4 0.0000 0.0000 0.0000 20.0461 0.0000 3.0832
# 5 9.2697 10.8044 3.3851 0.0000 31.7288 0.0000
# 6 0.0000 0.0000 0.0000 3.0832 0.0000 21.0172
#
#
#
# Elastic Compliance Matrix: (Units=1/GPa)
#
#
# Indices 1 2 3 4 5 6 
#
# 1 0.018135 -0.006175 -0.004115 0.000000 -0.002757 0.000000
# 2 -0.006175 0.015916 -0.003709 0.000000 -0.003220 0.000000
# 3 -0.004115 -0.003709 0.011650 0.000000 0.001222 0.000000
# 4 0.000000 0.000000 0.000000 0.051036 0.000000 -0.007487
# 5 -0.002757 -0.003220 0.001222 0.000000 0.033289 0.000000
# 6 0.000000 0.000000 0.000000 -0.007487 0.000000 0.048678
#
#
# Mechanical properties :
#
#
# Convention : Reuss Voigt Hill
#
# Bulk Modulus (GPa) = 56.48480 59.87230 58.17855
# Shear Modulus (GPa) = 23.51807 25.15579 24.33693
#
# Velocity S-wave (km/s) = 3.60302 3.72636 3.66521
# Velocity P-wave (km/s) = 6.96334 7.18076 7.07288
#
# Compressibility (1/GPa) = 0.01770388
#
# Stress axis : x y z
#
# Youngs Moduli (GPa) = 55.14162 62.83123 85.83684
#
# Poissons Ratio (x) = 0.38795 0.35318
# Poissons Ratio (y) = 0.34047 0.31840
# Poissons Ratio (z) = 0.22688 0.23306
#
# Static dielectric constant tensor:
#      x y z
#    x 3.256910 0.000000 -0.099940 
#    y 0.000000 3.499020 0.000000 
#    z -0.099940 0.000000 3.434880 
# 
# 
# High freq. dielectric constant tensor:
#      x y z
#    x 1.692870 0.000000 -0.007490 
#    y 0.000000 1.680620 0.000000 
#    z -0.007490 0.000000 1.709110 
# 
# From -- ./inp_files/67008.got.cif
#   From: 2010.06.25/outbox.cif.g09.slc.cpg/sg12_34_cif.got.tgz:67008.got - 2010.06.28 00:19:55.
