data_PCOD8110930
_publ_section_title
;
Structure prediction by ZEFSAII (Michael W. Deem and Ramdas Pophale) SiO2 
 PCOD8110930
Probable space group: C 2/M
;
_chemical_formula_sum "Si O2"
_cell_formula_units_Z 60
_cell_length_a 14.298199
_cell_length_b 19.797560
_cell_length_c 21.139535
_cell_angle_alpha 90.000000
_cell_angle_beta 151.599407
_cell_angle_gamma 90.000000
_cell_volume 2846.169104
_symmetry_space_group_name_H-M "C 2/M"
_symmetry_group_IT_number 12
_symmetry_cell_setting 'monoclinic'
loop_
_space_group_symop_operation_xyz
x,y,z
-x,y,-z
-x,-y,-z
x,-y,z
1/2+x,1/2+y,z
1/2-x,1/2+y,-z
1/2-x,1/2-y,-z
1/2+x,1/2-y,z
loop_
_atom_site_type_symbol
_atom_site_label
_atom_site_fract_x
_atom_site_fract_y
_atom_site_fract_z
Si Si1 0.261756 0.371449 0.930726
Si Si2 0.887545 0.925297 0.783425
Si Si3 0.412136 0.076844 0.290371
Si Si4 0.899889 0.692876 0.749051
Si Si5 0.500000 0.623116 0.500000
Si Si6 0.006246 0.170627 0.748738
Si Si7 0.135388 0.078332 0.446964
Si Si8 0.404213 0.226410 0.009860
O O1 0.248903 0.384107 0.848233
O O2 0.304376 0.294568 0.975161
O O3 0.033115 0.375234 0.817512
O O4 0.419274 0.419876 0.057105
O O5 0.679304 0.914264 0.694619
O O6 0.882637 0.872939 0.724294
O O7 0.893337 0.000000 0.757756
O O8 0.636220 0.102892 0.418773
O O9 0.409439 0.000000 0.265509
O O10 0.676283 0.674054 0.613868
O O11 0.936622 0.751456 0.716916
O O12 0.930712 0.713258 0.840259
O O13 0.542702 0.578847 0.462429
O O14 0.975439 0.134682 0.662173
O O15 0.239674 0.167645 0.904325
O O16 0.116452 0.000000 0.411176
O O17 0.500000 0.241143 0.000000
#
# Coordination Sequence:
#
# PCOD8110930 Si02
#       8
#     8   8   8   8   4   8   8   8
#     4  11  19  39  61  91 125 160 210 257 319 379
#     4  11  21  36  63  94 128 166 208 263 319 384
#     4  10  22  38  61  93 125 165 215 262 314 380
#     4  11  23  41  65  97 128 167 212 266 322 380
#     4  12  25  46  70  96 127 170 226 268 322 388
#     4  11  23  42  63  94 133 169 214 261 325 385
#     4  11  25  46  67  91 131 177 220 268 320 386
#     4  11  21  39  66  93 131 168 208 266 322 380
#
# _framework density 21.080967999999999
#
# number of rings (size 3 to 8) (size 9 to 14) (size 15 to 20)
#    0.000    1.067    4.000    3.800    0.000    3.200 
#    0.000    2.000    0.000    1.600    0.000    0.000 
#    0.000    0.000    0.000    0.000    0.000    0.000 
#
# Total GULP energy -371731.413284 kJ/mol
# GULP energy per Si atom -12391.047109 kJ/mol
# Density = 2.103299 g / cm^3
# Si number density = 21.080968 Si / 1000 Ang^3
#
#
#
# Elastic Constant Matrix: (Units=GPa)
#
#
# Indices 1 2 3 4 5 6 
#
# 1 88.6862 18.4948 31.3151 -0.0038 5.8464 -0.0008
# 2 18.4948 61.9431 20.7105 0.0076 2.3893 0.0038
# 3 31.3151 20.7105 83.0103 0.0043 4.1586 0.0008
# 4 -0.0038 0.0076 0.0043 21.6918 -0.0009 -3.6038
# 5 5.8464 2.3893 4.1586 -0.0009 39.2259 0.0000
# 6 -0.0008 0.0038 0.0008 -3.6038 0.0000 34.4544
#
#
#
# Elastic Compliance Matrix: (Units=1/GPa)
#
#
# Indices 1 2 3 4 5 6 
#
# 1 0.013432 -0.002494 -0.004376 0.000004 -0.001386 0.000001
# 2 -0.002494 0.018091 -0.003555 -0.000007 -0.000353 -0.000003
# 3 -0.004376 -0.003555 0.014618 -0.000003 -0.000681 0.000000
# 4 0.000004 -0.000007 -0.000003 0.046916 0.000001 0.004907
# 5 -0.001386 -0.000353 -0.000681 0.000001 0.025794 0.000000
# 6 0.000001 -0.000003 0.000000 0.004907 0.000000 0.029537
#
#
# Mechanical properties :
#
#
# Convention : Reuss Voigt Hill
#
# Bulk Modulus (GPa) = 39.53787 41.63117 40.58452
# Shear Modulus (GPa) = 28.14246 29.94905 29.04576
#
# Velocity S-wave (km/s) = 3.65769 3.77326 3.71593
# Velocity P-wave (km/s) = 6.05262 6.22691 6.14038
#
# Compressibility (1/GPa) = 0.02529221
#
# Stress axis : x y z
#
# Youngs Moduli (GPa) = 74.44790 55.27692 68.40704
#
# Poissons Ratio (x) = 0.13787 0.29932
# Poissons Ratio (y) = 0.18568 0.24318
# Poissons Ratio (z) = 0.32575 0.19650
#
# Static dielectric constant tensor:
#      x y z
#    x 3.842280 -0.000010 0.064840 
#    y -0.000010 3.721030 -0.000010 
#    z 0.064840 -0.000010 3.901420 
# 
# 
# High freq. dielectric constant tensor:
#      x y z
#    x 1.833230 0.000000 0.004500 
#    y 0.000000 1.812320 0.000000 
#    z 0.004500 0.000000 1.826610 
# 
# From -- ./inp_files/312154.got.cif
#   From: 2010.06.25/outbox.cif.g09.slc.cpg/sg12_157_cif.got.tgz:312154.got - 2010.06.28 00:19:55.
