data_PCOD8110994
_publ_section_title
;
Structure prediction by ZEFSAII (Michael W. Deem and Ramdas Pophale) SiO2 
 PCOD8110994
Probable space group: C 2/M
;
_chemical_formula_sum "Si O2"
_cell_formula_units_Z 32
_cell_length_a 12.286145
_cell_length_b 18.015460
_cell_length_c 16.340994
_cell_angle_alpha 90.000000
_cell_angle_beta 27.942532
_cell_angle_gamma 90.000000
_cell_volume 1694.839266
_symmetry_space_group_name_H-M "C 2/M"
_symmetry_group_IT_number 12
_symmetry_cell_setting 'monoclinic'
loop_
_space_group_symop_operation_xyz
x,y,z
-x,y,-z
-x,-y,-z
x,-y,z
1/2+x,1/2+y,z
1/2-x,1/2+y,-z
1/2-x,1/2-y,-z
1/2+x,1/2-y,z
loop_
_atom_site_type_symbol
_atom_site_label
_atom_site_fract_x
_atom_site_fract_y
_atom_site_fract_z
Si Si1 0.539538 0.000000 0.569496
Si Si2 0.258828 0.500000 0.706271
Si Si3 0.381480 0.119466 0.939568
Si Si4 0.080839 0.000000 0.218715
Si Si5 0.749840 0.626949 0.843723
Si Si6 0.500000 0.234368 0.000000
O O1 0.500000 0.000000 0.500000
O O2 0.438393 0.075781 0.674342
O O3 0.808218 0.000000 0.412907
O O4 0.500000 0.500000 0.500000
O O5 0.286505 0.500000 0.784323
O O6 0.116437 0.572450 0.776159
O O7 0.319160 0.145146 0.890576
O O8 0.160811 0.072800 0.117258
O O9 0.425818 0.187342 0.970875
O O10 0.713819 0.710412 0.829977
O O11 0.500000 0.584836 0.000000
#
# Coordination Sequence:
#
# PCOD8110994 Si02
#       6
#     4   4   8   4   8   4
#     4  12  23  42  61  93 124 155 209 253 300 358
#     4  11  21  35  63  91 117 156 203 258 300 340
#     4  11  19  42  62  91 121 157 207 249 302 360
#     4  11  21  35  67  85 117 158 205 254 298 343
#     4  10  23  38  64  89 117 164 204 248 303 353
#     4  10  22  38  66  86 124 164 200 240 310 366
#
# _framework density 18.880845999999998
#
# number of rings (size 3 to 8) (size 9 to 14) (size 15 to 20)
#    0.750    0.500    2.500    6.375    0.000    0.000 
#    0.000    2.500    0.000    0.000    0.000    0.000 
#    0.000    0.000    0.000    0.000    0.000    0.000 
#
# Total GULP energy -198274.129600 kJ/mol
# GULP energy per Si atom -12392.133100 kJ/mol
# Density = 1.883787 g / cm^3
# Si number density = 18.880846 Si / 1000 Ang^3
#
#
#
# Elastic Constant Matrix: (Units=GPa)
#
#
# Indices 1 2 3 4 5 6 
#
# 1 135.2982 47.0831 32.5380 0.0064 4.3564 0.2236
# 2 47.0831 147.8402 58.0248 0.0014 -2.3944 -0.1624
# 3 32.5380 58.0248 115.4167 0.2552 -17.8778 0.1187
# 4 0.0064 0.0014 0.2552 6.7032 0.1047 -14.4614
# 5 4.3564 -2.3944 -17.8778 0.1047 39.0484 -0.2065
# 6 0.2236 -0.1624 0.1187 -14.4614 -0.2065 16.1017
#
#
#
# Elastic Compliance Matrix: (Units=1/GPa)
#
#
# Indices 1 2 3 4 5 6 
#
# 1 0.008582 -0.002119 -0.001639 0.000261 -0.001838 0.000082
# 2 -0.002119 0.009035 -0.004113 -0.000500 -0.001093 -0.000312
# 3 -0.001639 -0.004113 0.012035 0.000663 0.005442 0.000558
# 4 0.000261 -0.000500 0.000663 -0.159051 -0.000085 -0.142863
# 5 -0.001838 -0.001093 0.005442 -0.000085 0.028240 0.000260
# 6 0.000082 -0.000312 0.000558 -0.142863 0.000260 -0.066209
#
#
# Mechanical properties :
#
#
# Convention : Reuss Voigt Hill
#
# Bulk Modulus (GPa) = 71.89465 74.87188 73.38326
# Shear Modulus (GPa) = -34.01640 29.76461 -2.12589
#
# Velocity S-wave (km/s) = -4.24917 3.97475 -1.06226
# Velocity P-wave (km/s) = 3.75324 7.79782 6.11934
#
# Compressibility (1/GPa) = 0.01390924
#
# Stress axis : x y z
#
# Youngs Moduli (GPa) = 116.52442 110.67877 83.09150
#
# Poissons Ratio (x) = 0.23457 0.13621
# Poissons Ratio (y) = 0.24696 0.34173
# Poissons Ratio (z) = 0.19101 0.45519
#
# Static dielectric constant tensor:
#      x y z
#    x 3.713690 -0.000520 -0.050490 
#    y -0.000520 3.414130 0.001150 
#    z -0.050490 0.001150 3.061280 
# 
# 
# High freq. dielectric constant tensor:
#      x y z
#    x 1.763220 -0.000010 -0.005360 
#    y -0.000010 1.734480 0.000020 
#    z -0.005360 0.000020 1.710660 
# 
# From -- ./inp_files/46058.got.cif
#   From: 2010.06.25/outbox.cif.g09.slc.cpg/sg12_24_cif.got.tgz:46058.got - 2010.06.28 00:19:55.
