data_PCOD8110152
_publ_section_title
;
Structure prediction by ZEFSAII (Michael W. Deem and Ramdas Pophale) SiO2 
 PCOD8110152
Probable space group: C 2/M
;
_chemical_formula_sum "Si O2"
_cell_formula_units_Z 64
_cell_length_a 30.896010
_cell_length_b 9.096851
_cell_length_c 14.081115
_cell_angle_alpha 90.000000
_cell_angle_beta 57.079567
_cell_angle_gamma 90.000000
_cell_volume 3322.102236
_symmetry_space_group_name_H-M "C 2/M"
_symmetry_group_IT_number 12
_symmetry_cell_setting 'monoclinic'
loop_
_space_group_symop_operation_xyz
x,y,z
-x,y,-z
-x,-y,-z
x,-y,z
1/2+x,1/2+y,z
1/2-x,1/2+y,-z
1/2-x,1/2-y,-z
1/2+x,1/2-y,z
loop_
_atom_site_type_symbol
_atom_site_label
_atom_site_fract_x
_atom_site_fract_y
_atom_site_fract_z
Si Si1 0.413110 0.173391 0.498948
Si Si2 0.357121 0.173081 0.069815
Si Si3 0.303515 0.672358 0.957748
Si Si4 0.035671 0.829985 0.045940
Si Si5 0.604118 0.333275 0.287387
Si Si6 0.504057 0.333414 0.290293
Si Si7 0.712379 0.829039 0.669671
Si Si8 0.687090 0.827068 0.489083
O O1 0.406619 0.224847 0.613971
O O2 0.466291 0.227696 0.391632
O O3 0.365868 0.233438 0.492048
O O4 0.414654 0.000000 0.497075
O O5 0.327813 0.213192 0.201505
O O6 0.356108 0.000000 0.049435
O O7 0.329249 0.258045 0.019095
O O8 0.415309 0.225011 0.013818
O O9 0.294805 0.500000 0.986369
O O10 0.340028 0.698890 0.823484
O O11 0.250000 0.750000 0.000000
O O12 0.002347 0.799690 0.180292
O O13 0.053735 0.000000 0.021075
O O14 0.000000 0.788280 0.000000
O O15 0.600601 0.500000 0.329363
O O16 0.562247 0.304910 0.255337
O O17 0.486915 0.500000 0.332029
O O18 0.687909 0.779956 0.598382
O O19 0.765707 0.744593 0.624439
O O20 0.725694 0.000000 0.653952
O O21 0.691794 0.000000 0.470444
#
# Coordination Sequence:
#
# PCOD8110152 Si02
#       8
#     8   8   8   8   8   8   8   8
#     4  11  24  37  58  90 119 148 193 248 297 348
#     4  11  23  39  63  94 125 161 201 247 307 367
#     4  11  24  43  65  91 125 162 204 252 303 361
#     4  10  22  41  64  91 123 161 208 254 300 361
#     4  10  22  42  63  82 115 157 196 241 295 356
#     4  10  21  41  62  84 115 156 197 239 297 357
#     4   9  20  38  59  82 116 155 195 237 288 353
#     4   9  20  39  57  82 117 153 192 241 293 344
#
# _framework density 19.26491
#
# number of rings (size 3 to 8) (size 9 to 14) (size 15 to 20)
#    0.000    1.875    1.250    1.500    3.500    5.750 
#    0.000    0.000    0.000    0.000    0.000    0.000 
#    0.000    0.000    0.000    0.000    0.000    0.000 
#
# Total GULP energy -396943.411553 kJ/mol
# GULP energy per Si atom -12404.481611 kJ/mol
# Density = 1.922106 g / cm^3
# Si number density = 19.264910 Si / 1000 Ang^3
#
#
#
# Elastic Constant Matrix: (Units=GPa)
#
#
# Indices 1 2 3 4 5 6 
#
# 1 116.5358 53.3396 61.6480 0.0000 -7.2958 0.0000
# 2 53.3396 74.7523 51.2583 0.0000 4.9218 0.0000
# 3 61.6480 51.2583 114.1354 0.0000 10.2762 0.0000
# 4 0.0000 0.0000 0.0000 32.7874 0.0000 -4.4805
# 5 -7.2958 4.9218 10.2762 0.0000 19.1199 0.0000
# 6 0.0000 0.0000 0.0000 -4.4805 0.0000 34.3390
#
#
#
# Elastic Compliance Matrix: (Units=1/GPa)
#
#
# Indices 1 2 3 4 5 6 
#
# 1 0.016332 -0.008168 -0.006204 0.000000 0.011669 0.000000
# 2 -0.008168 0.023417 -0.005550 0.000000 -0.006162 0.000000
# 3 -0.006204 -0.005550 0.015436 0.000000 -0.009235 0.000000
# 4 0.000000 0.000000 0.000000 0.031053 0.000000 0.004052
# 5 0.011669 -0.006162 -0.009235 0.000000 0.063304 0.000000
# 6 0.000000 0.000000 0.000000 0.004052 0.000000 0.029650
#
#
# Mechanical properties :
#
#
# Convention : Reuss Voigt Hill
#
# Bulk Modulus (GPa) = 65.18119 70.87947 68.03033
# Shear Modulus (GPa) = 22.30645 26.52777 24.41711
#
# Velocity S-wave (km/s) = 3.40645 3.71482 3.56397
# Velocity P-wave (km/s) = 7.02706 7.43450 7.23365
#
# Compressibility (1/GPa) = 0.01534185
#
# Stress axis : x y z
#
# Youngs Moduli (GPa) = 61.22956 42.70346 64.78185
#
# Poissons Ratio (x) = 0.34880 0.40189
# Poissons Ratio (y) = 0.50012 0.35955
# Poissons Ratio (z) = 0.37985 0.23701
#
# Static dielectric constant tensor:
#      x y z
#    x 3.437030 0.000000 0.107480 
#    y 0.000000 3.504020 0.000000 
#    z 0.107480 0.000000 3.554640 
# 
# 
# High freq. dielectric constant tensor:
#      x y z
#    x 1.758410 0.000000 0.001690 
#    y 0.000000 1.749420 0.000000 
#    z 0.001690 0.000000 1.758930 
# 
# From -- ./inp_files/249716.got.cif
#   From: 2010.06.25/outbox.cif.g09.slc.cpg/sg12_125_cif.got.tgz:249716.got - 2010.06.28 00:19:55.
