data_PCOD8110927
_publ_section_title
;
Structure prediction by ZEFSAII (Michael W. Deem and Ramdas Pophale) SiO2 
 PCOD8110927
Probable space group: C 2/M
;
_chemical_formula_sum "Si O2"
_cell_formula_units_Z 56
_cell_length_a 29.114150
_cell_length_b 8.917106
_cell_length_c 20.999667
_cell_angle_alpha 90.000000
_cell_angle_beta 29.635580
_cell_angle_gamma 90.000000
_cell_volume 2695.818761
_symmetry_space_group_name_H-M "C 2/M"
_symmetry_group_IT_number 12
_symmetry_cell_setting 'monoclinic'
loop_
_space_group_symop_operation_xyz
x,y,z
-x,y,-z
-x,-y,-z
x,-y,z
1/2+x,1/2+y,z
1/2-x,1/2+y,-z
1/2-x,1/2-y,-z
1/2+x,1/2-y,z
loop_
_atom_site_type_symbol
_atom_site_label
_atom_site_fract_x
_atom_site_fract_y
_atom_site_fract_z
Si Si1 0.856817 0.168207 0.049813
Si Si2 0.312814 0.332084 0.239273
Si Si3 0.958605 0.324778 0.142642
Si Si4 0.133937 0.167913 0.496411
Si Si5 0.033260 0.177945 0.388809
Si Si6 0.780997 0.678452 0.895166
Si Si7 0.652684 0.330078 0.616207
O O1 0.788997 0.171142 0.192860
O O2 0.801979 0.219055 0.053350
O O3 0.897840 0.000000 0.990728
O O4 0.934756 0.284461 0.976358
O O5 0.326002 0.500000 0.248234
O O6 0.409219 0.247712 0.140318
O O7 0.226696 0.263530 0.379986
O O8 0.947326 0.500000 0.147891
O O9 0.912194 0.268564 0.262416
O O10 0.104322 0.169241 0.605507
O O11 0.049367 0.233445 0.557469
O O12 0.156794 0.000000 0.444991
O O13 0.125723 0.256651 0.249817
O O14 0.000000 0.226426 0.500000
O O15 0.050223 0.000000 0.365057
O O16 0.792698 0.500000 0.889330
O O17 0.750000 0.750000 0.000000
O O18 0.662903 0.500000 0.629166
O O19 0.750000 0.250000 0.500000
#
# Coordination Sequence:
#
# PCOD8110927 Si02
#       7
#     8   8   8   8   8   8   8
#     4  10  24  44  64  88 122 164 207 256 312 369
#     4  11  22  39  64  92 124 163 205 252 309 370
#     4  12  25  39  60  91 125 162 206 253 305 369
#     4  10  22  38  61  91 124 162 202 251 310 368
#     4  10  22  42  68  98 131 167 211 266 327 385
#     4  11  25  45  68  95 130 169 216 271 324 381
#     4  11  22  38  59  86 123 163 204 251 303 364
#
# _framework density 20.772911000000001
#
# number of rings (size 3 to 8) (size 9 to 14) (size 15 to 20)
#    0.000    1.286    1.429    3.857    2.000    5.429 
#    0.000    0.000    0.000    0.000    0.000    0.000 
#    0.000    0.000    0.000    0.000    0.000    0.000 
#
# Total GULP energy -347099.938281 kJ/mol
# GULP energy per Si atom -12396.426367 kJ/mol
# Density = 2.072563 g / cm^3
# Si number density = 20.772911 Si / 1000 Ang^3
#
#
#
# Elastic Constant Matrix: (Units=GPa)
#
#
# Indices 1 2 3 4 5 6 
#
# 1 160.2952 48.8233 48.3984 0.0019 4.9723 -0.0020
# 2 48.8233 122.2854 39.6730 -0.0068 -8.6696 -0.0002
# 3 48.3984 39.6730 103.2611 0.0027 2.8913 -0.0022
# 4 0.0019 -0.0068 0.0027 39.0848 -0.0044 -2.3506
# 5 4.9723 -8.6696 2.8913 -0.0044 35.9812 0.0031
# 6 -0.0020 -0.0002 -0.0022 -2.3506 0.0031 29.4124
#
#
#
# Elastic Compliance Matrix: (Units=1/GPa)
#
#
# Indices 1 2 3 4 5 6 
#
# 1 0.007818 -0.002338 -0.002726 -0.000001 -0.001425 0.000000
# 2 -0.002338 0.010280 -0.002939 0.000002 0.003036 0.000000
# 3 -0.002726 -0.002939 0.012128 -0.000001 -0.001306 0.000001
# 4 -0.000001 0.000002 -0.000001 0.025709 0.000004 0.002055
# 5 -0.001425 0.003036 -0.001306 0.000004 0.028826 -0.000003
# 6 0.000000 0.000000 0.000001 0.002055 -0.000003 0.034164
#
#
# Mechanical properties :
#
#
# Convention : Reuss Voigt Hill
#
# Bulk Modulus (GPa) = 70.32527 73.29233 71.80880
# Shear Modulus (GPa) = 35.79907 37.49215 36.64561
#
# Velocity S-wave (km/s) = 4.15583 4.25297 4.20468
# Velocity P-wave (km/s) = 7.54690 7.71209 7.62994
#
# Compressibility (1/GPa) = 0.01421964
#
# Stress axis : x y z
#
# Youngs Moduli (GPa) = 127.91204 97.27944 82.45707
#
# Poissons Ratio (x) = 0.22743 0.22479
# Poissons Ratio (y) = 0.29905 0.24232
# Poissons Ratio (z) = 0.34870 0.28587
#
# Static dielectric constant tensor:
#      x y z
#    x 5.101210 0.000000 1.593020 
#    y 0.000000 3.795450 0.000030 
#    z 1.593020 0.000030 5.616050 
# 
# 
# High freq. dielectric constant tensor:
#      x y z
#    x 1.830470 0.000000 0.011570 
#    y 0.000000 1.814190 0.000000 
#    z 0.011570 0.000000 1.815520 
# 
# From -- ./inp_files/329469.got.cif
#   From: 2010.06.25/outbox.cif.g09.slc.cpg/sg12_165_cif.got.tgz:329469.got - 2010.06.28 00:19:55.
