data_PCOD8110990
_publ_section_title
;
Structure prediction by ZEFSAII (Michael W. Deem and Ramdas Pophale) SiO2 
 PCOD8110990
Probable space group: C 2/M
;
_chemical_formula_sum "Si O2"
_cell_formula_units_Z 44
_cell_length_a 18.668667
_cell_length_b 22.177421
_cell_length_c 15.403872
_cell_angle_alpha 90.000000
_cell_angle_beta 161.132711
_cell_angle_gamma 90.000000
_cell_volume 2062.356262
_symmetry_space_group_name_H-M "C 2/M"
_symmetry_group_IT_number 12
_symmetry_cell_setting 'monoclinic'
loop_
_space_group_symop_operation_xyz
x,y,z
-x,y,-z
-x,-y,-z
x,-y,z
1/2+x,1/2+y,z
1/2-x,1/2+y,-z
1/2-x,1/2-y,-z
1/2+x,1/2-y,z
loop_
_atom_site_type_symbol
_atom_site_label
_atom_site_fract_x
_atom_site_fract_y
_atom_site_fract_z
Si Si1 0.406998 0.500000 0.668525
Si Si2 0.341444 0.500000 0.395697
Si Si3 0.500000 0.269071 0.500000
Si Si4 0.454089 0.815204 0.093672
Si Si5 0.097101 0.500000 0.708767
Si Si6 0.000000 0.599983 0.000000
Si Si7 0.622114 0.101160 0.427414
Si Si8 0.696048 0.285859 0.289205
O O1 0.455577 0.500000 0.621460
O O2 0.261873 0.558845 0.523704
O O3 0.635324 0.500000 0.984954
O O4 0.500000 0.500000 0.500000
O O5 0.209591 0.559615 0.223137
O O6 0.581015 0.231115 0.508554
O O7 0.700618 0.307568 0.771204
O O8 0.461333 0.850065 0.194623
O O9 0.615444 0.755891 0.279020
O O10 0.572787 0.859996 0.164043
O O11 0.000000 0.500000 0.500000
O O12 0.017615 0.560413 0.666409
O O13 0.794814 0.143804 0.676002
O O14 0.500000 0.273784 0.000000
#
# Coordination Sequence:
#
# PCOD8110990 Si02
#       8
#     4   4   4   8   4   4   8   8
#     4  11  26  47  67  98 132 174 224 278 333 387
#     4  11  26  38  70  97 131 178 210 261 335 393
#     4  10  22  38  66 100 138 168 212 266 334 396
#     4  11  22  42  65 101 134 174 213 265 331 410
#     4  11  30  46  67 101 126 174 238 285 329 386
#     4  11  22  40  64  96 142 165 212 258 328 405
#     4  11  26  44  70  93 135 172 228 277 330 390
#     4  10  23  41  67  97 128 176 220 267 340 396
#
# _framework density 21.334820000000001
#
# number of rings (size 3 to 8) (size 9 to 14) (size 15 to 20)
#    0.000    1.273    4.545    0.545    7.636    4.364 
#    0.000    0.000    0.000    0.000    0.000    0.000 
#    0.000    0.000    0.000    0.000    0.000    0.000 
#
# Total GULP energy -272544.902591 kJ/mol
# GULP energy per Si atom -12388.404663 kJ/mol
# Density = 2.128626 g / cm^3
# Si number density = 21.334820 Si / 1000 Ang^3
#
#
#
# Elastic Constant Matrix: (Units=GPa)
#
#
# Indices 1 2 3 4 5 6 
#
# 1 111.3912 44.0590 42.7325 0.0002 1.8579 -0.0018
# 2 44.0590 140.6190 35.5572 -0.0001 8.4589 -0.0004
# 3 42.7325 35.5572 94.5605 -0.0008 10.9670 -0.0005
# 4 0.0002 -0.0001 -0.0008 22.6299 0.0001 22.4015
# 5 1.8579 8.4589 10.9670 0.0001 32.9757 -0.0027
# 6 -0.0018 -0.0004 -0.0005 22.4015 -0.0027 -123.0219
#
#
#
# Elastic Compliance Matrix: (Units=1/GPa)
#
#
# Indices 1 2 3 4 5 6 
#
# 1 0.011709 -0.002627 -0.004478 0.000000 0.001503 0.000000
# 2 -0.002627 0.008485 -0.001839 0.000000 -0.001417 0.000000
# 3 -0.004478 -0.001839 0.013736 0.000000 -0.003844 0.000000
# 4 0.000000 0.000000 0.000000 0.037440 0.000000 0.006818
# 5 0.001503 -0.001417 -0.003844 0.000000 0.031883 -0.000001
# 6 0.000000 0.000000 0.000000 0.006818 -0.000001 -0.006887
#
#
# Mechanical properties :
#
#
# Convention : Reuss Voigt Hill
#
# Bulk Modulus (GPa) = 62.33527 65.69644 64.01586
# Shear Modulus (GPa) = 41.80545 1.46486 21.63516
#
# Velocity S-wave (km/s) = 4.43142 0.82952 3.18791
# Velocity P-wave (km/s) = 7.44744 5.63714 6.60461
#
# Compressibility (1/GPa) = 0.01604228
#
# Stress axis : x y z
#
# Youngs Moduli (GPa) = 85.40289 117.85889 72.79977
#
# Poissons Ratio (x) = 0.30960 0.32600
# Poissons Ratio (y) = 0.22434 0.13388
# Poissons Ratio (z) = 0.38244 0.21675
#
# Static dielectric constant tensor:
#      x y z
#    x 4.676730 0.000000 0.172770 
#    y 0.000000 4.125930 0.000000 
#    z 0.172770 0.000000 3.790480 
# 
# 
# High freq. dielectric constant tensor:
#      x y z
#    x 1.838700 0.000000 -0.004730 
#    y 0.000000 1.852450 0.000000 
#    z -0.004730 0.000000 1.833420 
# 
# From -- ./inp_files/16872.got.cif
#   From: 2010.06.25/outbox.cif.g09.slc.cpg/sg12_9_cif.got.tgz:16872.got - 2010.06.28 00:19:55.
