data_PCOD8110769
_publ_section_title
;
Structure prediction by ZEFSAII (Michael W. Deem and Ramdas Pophale) SiO2 
 PCOD8110769
Probable space group: C 2/M
;
_chemical_formula_sum "Si O2"
_cell_formula_units_Z 56
_cell_length_a 20.274977
_cell_length_b 9.108275
_cell_length_c 22.816351
_cell_angle_alpha 90.000000
_cell_angle_beta 133.331545
_cell_angle_gamma 90.000000
_cell_volume 3064.876940
_symmetry_space_group_name_H-M "C 2/M"
_symmetry_group_IT_number 12
_symmetry_cell_setting 'monoclinic'
loop_
_space_group_symop_operation_xyz
x,y,z
-x,y,-z
-x,-y,-z
x,-y,z
1/2+x,1/2+y,z
1/2-x,1/2+y,-z
1/2-x,1/2-y,-z
1/2+x,1/2-y,z
loop_
_atom_site_type_symbol
_atom_site_label
_atom_site_fract_x
_atom_site_fract_y
_atom_site_fract_z
Si Si1 0.051734 0.329510 0.332825
Si Si2 0.051857 0.325661 0.923622
Si Si3 0.138435 0.831095 0.189370
Si Si4 0.121161 0.674235 0.840943
Si Si5 0.288924 0.833373 0.662212
Si Si6 0.812806 0.169604 0.912198
Si Si7 0.328714 0.329941 0.513591
O O1 0.046221 0.500000 0.345738
O O2 0.126414 0.300312 0.328553
O O3 0.076367 0.242289 0.407877
O O4 0.956392 0.267331 0.250465
O O5 0.049245 0.500000 0.926648
O O6 0.102027 0.271257 0.895194
O O7 0.950256 0.267946 0.861614
O O8 0.104172 0.261141 0.011135
O O9 0.208777 0.777292 0.281783
O O10 0.188427 0.810732 0.158145
O O11 0.111861 0.000000 0.183874
O O12 0.118786 0.500000 0.837472
O O13 0.218568 0.734171 0.879821
O O14 0.193651 0.809973 0.569240
O O15 0.295694 0.000000 0.689582
O O16 0.825807 0.000000 0.937955
O O17 0.328370 0.500000 0.530705
O O18 0.250000 0.250000 0.500000
#
# Coordination Sequence:
#
# PCOD8110769 Si02
#       7
#     8   8   8   8   8   8   8
#     4   9  16  30  51  75 101 131 166 207 254 299
#     4  11  21  36  57  77  99 132 173 214 257 305
#     4  11  22  34  52  77 105 135 170 212 255 301
#     4   9  18  35  56  75 102 136 170 210 256 302
#     4   9  17  31  50  73 103 134 168 207 252 300
#     4  10  22  38  53  74 104 136 170 212 258 302
#     4   9  17  28  45  73 105 133 163 206 253 297
#
# _framework density 18.271532000000001
#
# number of rings (size 3 to 8) (size 9 to 14) (size 15 to 20)
#    0.000    2.286    1.429    3.000    0.000    5.714 
#    0.000    1.429    0.000    0.857    0.000    6.000 
#    0.000    0.000    0.000    0.000    0.000    0.000 
#
# Total GULP energy -347158.341600 kJ/mol
# GULP energy per Si atom -12398.512200 kJ/mol
# Density = 1.822995 g / cm^3
# Si number density = 18.271532 Si / 1000 Ang^3
#
#
#
# Elastic Constant Matrix: (Units=GPa)
#
#
# Indices 1 2 3 4 5 6 
#
# 1 53.9662 24.1906 15.7353 0.0000 -12.1862 0.0000
# 2 24.1906 80.5309 52.5962 0.0000 -9.3473 0.0000
# 3 15.7353 52.5962 125.4463 0.0000 -9.6437 0.0000
# 4 0.0000 0.0000 0.0000 35.5305 0.0000 -1.9167
# 5 -12.1862 -9.3473 -9.6437 0.0000 13.9133 0.0000
# 6 0.0000 0.0000 0.0000 -1.9167 0.0000 17.7916
#
#
#
# Elastic Compliance Matrix: (Units=1/GPa)
#
#
# Indices 1 2 3 4 5 6 
#
# 1 0.025147 -0.005880 0.000740 0.000000 0.018588 0.000000
# 2 -0.005880 0.019123 -0.007065 0.000000 0.002801 0.000000
# 3 0.000740 -0.007065 0.011118 0.000000 0.003608 0.000000
# 4 0.000000 0.000000 0.000000 0.028309 0.000000 0.003050
# 5 0.018588 0.002801 0.003608 0.000000 0.092537 0.000000
# 6 0.000000 0.000000 0.000000 0.003050 0.000000 0.056535
#
#
# Mechanical properties :
#
#
# Convention : Reuss Voigt Hill
#
# Bulk Modulus (GPa) = 32.27975 49.44306 40.86141
# Shear Modulus (GPa) = 18.69121 24.60852 21.64986
#
# Velocity S-wave (km/s) = 3.20186 3.67389 3.44597
# Velocity P-wave (km/s) = 5.60127 6.71681 6.18424
#
# Compressibility (1/GPa) = 0.03097918
#
# Stress axis : x y z
#
# Youngs Moduli (GPa) = 39.76547 52.29278 89.94223
#
# Poissons Ratio (x) = 0.30746 -0.06654
# Poissons Ratio (y) = 0.23381 0.63544
# Poissons Ratio (z) = -0.02942 0.36945
#
# Static dielectric constant tensor:
#      x y z
#    x 3.149440 0.000000 0.043410 
#    y 0.000000 3.327820 0.000000 
#    z 0.043410 0.000000 3.982680 
# 
# 
# High freq. dielectric constant tensor:
#      x y z
#    x 1.667940 0.000000 0.000330 
#    y 0.000000 1.700060 0.000000 
#    z 0.000330 0.000000 1.727680 
# 
# From -- ./inp_files/320200.got.cif
#   From: 2010.06.25/outbox.cif.g09.slc.cpg/sg12_161_cif.got.tgz:320200.got - 2010.06.28 00:19:55.
