data_PCOD8110393
_publ_section_title
;
Structure prediction by ZEFSAII (Michael W. Deem and Ramdas Pophale) SiO2 
 PCOD8110393
Probable space group: C 2/M
;
_chemical_formula_sum "Si O2"
_cell_formula_units_Z 40
_cell_length_a 14.734542
_cell_length_b 18.885203
_cell_length_c 8.425150
_cell_angle_alpha 90.000000
_cell_angle_beta 129.251579
_cell_angle_gamma 90.000000
_cell_volume 1815.462908
_symmetry_space_group_name_H-M "C 2/M"
_symmetry_group_IT_number 12
_symmetry_cell_setting 'monoclinic'
loop_
_space_group_symop_operation_xyz
x,y,z
-x,y,-z
-x,-y,-z
x,-y,z
1/2+x,1/2+y,z
1/2-x,1/2+y,-z
1/2-x,1/2-y,-z
1/2+x,1/2-y,z
loop_
_atom_site_type_symbol
_atom_site_label
_atom_site_fract_x
_atom_site_fract_y
_atom_site_fract_z
Si Si1 0.303032 0.500000 0.762029
Si Si2 0.874354 0.365697 0.791631
Si Si3 0.952394 0.000000 0.245273
Si Si4 0.879739 0.376533 0.437031
Si Si5 0.000000 0.878379 0.500000
Si Si6 0.794392 0.230189 0.219412
Si Si7 0.286812 0.500000 0.372891
O O1 0.225179 0.431045 0.708544
O O2 0.349094 0.500000 0.627810
O O3 0.405444 0.500000 0.011990
O O4 0.899107 0.355638 0.637235
O O5 0.816020 0.294085 0.796323
O O6 0.792584 0.432069 0.731139
O O7 0.000000 0.381598 0.000000
O O8 0.030681 0.928921 0.378337
O O9 0.857807 0.000000 0.284102
O O10 0.853515 0.301773 0.334630
O O11 0.000000 0.408971 0.500000
O O12 0.889262 0.832308 0.327633
O O13 0.750000 0.250000 0.000000
#
# Coordination Sequence:
#
# PCOD8110393 Si02
#       7
#     4   8   4   8   4   8   4
#     4  10  23  40  67  98 128 177 225 269 341 391
#     4  11  24  42  66  98 130 177 224 275 338 396
#     4  11  21  42  62  97 130 178 219 277 329 402
#     4  11  23  44  66  97 136 172 223 282 329 404
#     4  11  24  40  68  93 134 170 226 277 332 404
#     4  12  24  43  66  96 132 176 222 278 338 399
#     4  10  21  42  65  93 136 170 223 282 321 403
#
# _framework density 22.032948999999999
#
# number of rings (size 3 to 8) (size 9 to 14) (size 15 to 20)
#    0.000    1.000    3.000    3.900    0.000    0.000 
#    0.000    0.000    0.000    0.000    0.000    0.000 
#    0.000    0.000    0.000    0.000    0.000    0.000 
#
# Total GULP energy -247778.693848 kJ/mol
# GULP energy per Si atom -12388.934692 kJ/mol
# Density = 2.198280 g / cm^3
# Si number density = 22.032949 Si / 1000 Ang^3
#
#
#
# Elastic Constant Matrix: (Units=GPa)
#
#
# Indices 1 2 3 4 5 6 
#
# 1 105.0470 16.1135 40.9773 0.0000 -19.2279 0.0000
# 2 16.1135 114.2380 42.1794 0.0000 -0.9335 0.0000
# 3 40.9773 42.1794 170.8571 0.0000 5.1910 0.0000
# 4 0.0000 0.0000 0.0000 -656.5359 0.0000 -292.4321
# 5 -19.2279 -0.9335 5.1910 0.0000 23.0973 0.0000
# 6 0.0000 0.0000 0.0000 -292.4321 0.0000 -94.8764
#
#
#
# Elastic Compliance Matrix: (Units=1/GPa)
#
#
# Indices 1 2 3 4 5 6 
#
# 1 0.013022 -0.000505 -0.003350 0.000000 0.011573 0.000000
# 2 -0.000505 0.009671 -0.002281 0.000000 0.000483 0.000000
# 3 -0.003350 -0.002281 0.007357 0.000000 -0.004534 0.000000
# 4 0.000000 0.000000 0.000000 0.004085 0.000000 -0.012590
# 5 0.011573 0.000483 -0.004534 0.000000 0.053968 0.000000
# 6 0.000000 0.000000 0.000000 -0.012590 0.000000 0.028266
#
#
# Mechanical properties :
#
#
# Convention : Reuss Voigt Hill
#
# Bulk Modulus (GPa) = 56.24997 65.40916 60.82957
# Shear Modulus (GPa) = 37.15591 -126.27153 -44.55781
#
# Velocity S-wave (km/s) = 4.11101 -7.57857 -4.50191
# Velocity P-wave (km/s) = 6.93680 6.84311 0.80343
#
# Compressibility (1/GPa) = 0.01777779
#
# Stress axis : x y z
#
# Youngs Moduli (GPa) = 76.79181 103.40122 135.92201
#
# Poissons Ratio (x) = 0.05225 0.45534
# Poissons Ratio (y) = 0.03881 0.31003
# Poissons Ratio (z) = 0.25725 0.23585
#
# Static dielectric constant tensor:
#      x y z
#    x 4.377920 0.000000 0.025720 
#    y 0.000000 4.406100 0.000000 
#    z 0.025720 0.000000 4.096310 
# 
# 
# High freq. dielectric constant tensor:
#      x y z
#    x 1.887750 0.000000 0.004580 
#    y 0.000000 1.883300 0.000000 
#    z 0.004580 0.000000 1.883940 
# 
# From -- ./inp_files/63860.got.cif
#   From: 2010.06.25/outbox.cif.g09.slc.cpg/sg12_32_cif.got.tgz:63860.got - 2010.06.28 00:19:55.
