data_PCOD8110392
_publ_section_title
;
Structure prediction by ZEFSAII (Michael W. Deem and Ramdas Pophale) SiO2 
 PCOD8110392
Probable space group: C 2/M
;
_chemical_formula_sum "Si O2"
_cell_formula_units_Z 48
_cell_length_a 9.463801
_cell_length_b 28.012266
_cell_length_c 8.790522
_cell_angle_alpha 90.000000
_cell_angle_beta 87.624472
_cell_angle_gamma 90.000000
_cell_volume 2328.386776
_symmetry_space_group_name_H-M "C 2/M"
_symmetry_group_IT_number 12
_symmetry_cell_setting 'monoclinic'
loop_
_space_group_symop_operation_xyz
x,y,z
-x,y,-z
-x,-y,-z
x,-y,z
1/2+x,1/2+y,z
1/2-x,1/2+y,-z
1/2-x,1/2-y,-z
1/2+x,1/2-y,z
loop_
_atom_site_type_symbol
_atom_site_label
_atom_site_fract_x
_atom_site_fract_y
_atom_site_fract_z
Si Si1 0.150257 0.210496 0.070446
Si Si2 0.145882 0.633872 0.042088
Si Si3 0.836886 0.099920 0.543731
Si Si4 0.848643 0.789221 0.572345
Si Si5 0.837905 0.554826 0.196434
Si Si6 0.089336 0.597667 0.358263
O O1 0.141824 0.218073 0.249066
O O2 0.250000 0.250000 0.000000
O O3 0.215380 0.159483 0.025143
O O4 0.000000 0.214420 0.000000
O O5 0.142772 0.633735 0.225474
O O6 0.145745 0.581179 0.966161
O O7 0.000000 0.660622 0.000000
O O8 0.802129 0.156487 0.538294
O O9 0.795403 0.078197 0.708876
O O10 0.733362 0.075174 0.422790
O O11 0.000000 0.088483 0.500000
O O12 0.750000 0.750000 0.500000
O O13 0.000000 0.778498 0.500000
O O14 0.805125 0.500000 0.164360
O O15 0.983555 0.559046 0.287310
O O16 0.000000 0.623137 0.500000
#
# Coordination Sequence:
#
# PCOD8110392 Si02
#       6
#     8   8   8   8   8   8
#     4  12  26  44  66  99 133 173 218 267 321 388
#     4  10  22  40  64  95 130 169 213 269 324 382
#     4  10  22  40  63  95 130 169 215 263 326 382
#     4  11  25  43  66  96 133 174 214 264 322 390
#     4  10  21  42  65  92 128 169 218 269 323 385
#     4   9  21  37  62  93 122 166 211 265 318 381
#
# _framework density 20.615131999999999
#
# number of rings (size 3 to 8) (size 9 to 14) (size 15 to 20)
#    0.000    1.667    1.667    1.500    7.000    8.333 
#    0.000    0.000    0.000    3.500    0.000    0.000 
#    0.000    0.000    0.000    0.000    0.000    0.000 
#
# Total GULP energy -297446.055459 kJ/mol
# GULP energy per Si atom -12393.585644 kJ/mol
# Density = 2.056821 g / cm^3
# Si number density = 20.615132 Si / 1000 Ang^3
#
#
#
# Elastic Constant Matrix: (Units=GPa)
#
#
# Indices 1 2 3 4 5 6 
#
# 1 156.2863 52.2161 64.0160 0.0000 -8.3090 0.0000
# 2 52.2161 110.3311 37.4310 0.0000 -8.7725 0.0000
# 3 64.0160 37.4310 177.6552 0.0000 -15.4254 0.0000
# 4 0.0000 0.0000 0.0000 23.3799 0.0000 -6.4668
# 5 -8.3090 -8.7725 -15.4254 0.0000 33.6932 0.0000
# 6 0.0000 0.0000 0.0000 -6.4668 0.0000 24.5598
#
#
#
# Elastic Compliance Matrix: (Units=1/GPa)
#
#
# Indices 1 2 3 4 5 6 
#
# 1 0.008434 -0.003179 -0.002354 0.000000 0.000174 0.000000
# 2 -0.003179 0.011050 -0.001042 0.000000 0.001616 0.000000
# 3 -0.002354 -0.001042 0.006897 0.000000 0.002306 0.000000
# 4 0.000000 0.000000 0.000000 0.046132 0.000000 0.012147
# 5 0.000174 0.001616 0.002306 0.000000 0.031199 0.000000
# 6 0.000000 0.000000 0.000000 0.012147 0.000000 0.043915
#
#
# Mechanical properties :
#
#
# Convention : Reuss Voigt Hill
#
# Bulk Modulus (GPa) = 75.58485 83.51099 79.54792
# Shear Modulus (GPa) = 30.26840 35.70054 32.98447
#
# Velocity S-wave (km/s) = 3.83595 4.16596 4.00436
# Velocity P-wave (km/s) = 7.50757 7.98360 7.74924
#
# Compressibility (1/GPa) = 0.01323016
#
# Stress axis : x y z
#
# Youngs Moduli (GPa) = 118.56422 90.49518 144.99026
#
# Poissons Ratio (x) = 0.28769 0.34134
# Poissons Ratio (y) = 0.37693 0.15114
# Poissons Ratio (z) = 0.27913 0.09433
#
# Static dielectric constant tensor:
#      x y z
#    x 4.312510 0.000000 -0.198030 
#    y 0.000000 2.324120 0.000000 
#    z -0.198030 0.000000 4.010790 
# 
# 
# High freq. dielectric constant tensor:
#      x y z
#    x 1.817940 0.000000 -0.012600 
#    y 0.000000 1.775080 0.000000 
#    z -0.012600 0.000000 1.825430 
# 
# From -- ./inp_files/42240.got.cif
#   From: 2010.06.25/outbox.cif.g09.slc.cpg/sg12_22_cif.got.tgz:42240.got - 2010.06.28 00:19:55.
