data_PCOD8110402
_publ_section_title
;
Structure prediction by ZEFSAII (Michael W. Deem and Ramdas Pophale) SiO2 
 PCOD8110402
Probable space group: C 2/M
;
_chemical_formula_sum "Si O2"
_cell_formula_units_Z 64
_cell_length_a 23.777455
_cell_length_b 8.818120
_cell_length_c 14.945593
_cell_angle_alpha 90.000000
_cell_angle_beta 75.324046
_cell_angle_gamma 90.000000
_cell_volume 3031.440226
_symmetry_space_group_name_H-M "C 2/M"
_symmetry_group_IT_number 12
_symmetry_cell_setting 'monoclinic'
loop_
_space_group_symop_operation_xyz
x,y,z
-x,y,-z
-x,-y,-z
x,-y,z
1/2+x,1/2+y,z
1/2-x,1/2+y,-z
1/2-x,1/2-y,-z
1/2+x,1/2-y,z
loop_
_atom_site_type_symbol
_atom_site_label
_atom_site_fract_x
_atom_site_fract_y
_atom_site_fract_z
Si Si1 0.935461 0.827965 0.925412
Si Si2 0.544898 0.678838 0.373414
Si Si3 0.573391 0.819312 0.549498
Si Si4 0.324113 0.824640 0.217658
Si Si5 0.876076 0.672628 0.800236
Si Si6 0.934937 0.171556 0.133135
Si Si7 0.748893 0.325187 0.903343
Si Si8 0.802520 0.321578 0.424375
O O1 0.893337 0.707990 0.895408
O O2 0.999779 0.808382 0.857079
O O3 0.913802 0.000000 0.918035
O O4 0.935138 0.787926 0.028856
O O5 0.541244 0.500000 0.392863
O O6 0.570760 0.764305 0.448610
O O7 0.480518 0.742219 0.375716
O O8 0.589613 0.710515 0.275716
O O9 0.634649 0.763372 0.566223
O O10 0.566927 0.000000 0.556879
O O11 0.392484 0.786778 0.201534
O O12 0.301745 0.735239 0.140190
O O13 0.293886 0.777691 0.323446
O O14 0.314773 0.000000 0.202517
O O15 0.891658 0.500000 0.768617
O O16 0.807413 0.701954 0.822745
O O17 0.913335 0.000000 0.157867
O O18 0.737149 0.500000 0.926505
O O19 0.750000 0.250000 0.000000
O O20 0.799670 0.500000 0.439408
O O21 0.750000 0.250000 0.500000
#
# Coordination Sequence:
#
# PCOD8110402 Si02
#       8
#     8   8   8   8   8   8   8   8
#     4   9  19  36  58  88 123 157 200 247 299 360
#     4  11  23  39  63  95 124 160 206 254 308 370
#     4  10  21  42  66  91 127 164 201 253 312 368
#     4  11  24  41  62  93 126 162 209 258 309 371
#     4  11  24  39  59  88 122 159 203 253 310 370
#     4   9  19  37  60  87 122 162 199 245 301 363
#     4  11  25  44  66  92 124 167 213 262 318 374
#     4  10  25  44  65  93 127 166 209 258 312 369
#
# _framework density 21.112075999999998
#
# number of rings (size 3 to 8) (size 9 to 14) (size 15 to 20)
#    0.000    1.750    0.000    4.875    3.500    7.000 
#    0.000    1.250    0.000    0.000    0.000    0.000 
#    0.000    0.000    0.000    0.000    0.000    0.000 
#
# Total GULP energy -396814.672001 kJ/mol
# GULP energy per Si atom -12400.458500 kJ/mol
# Density = 2.106402 g / cm^3
# Si number density = 21.112076 Si / 1000 Ang^3
#
#
#
# Elastic Constant Matrix: (Units=GPa)
#
#
# Indices 1 2 3 4 5 6 
#
# 1 94.1924 37.1269 23.7431 0.0000 -4.7828 0.0000
# 2 37.1269 77.9267 36.5360 0.0000 -8.0645 0.0000
# 3 23.7431 36.5360 75.5651 0.0000 -13.5685 0.0000
# 4 0.0000 0.0000 0.0000 34.0955 0.0000 -2.7850
# 5 -4.7828 -8.0645 -13.5685 0.0000 31.6467 0.0000
# 6 0.0000 0.0000 0.0000 -2.7850 0.0000 32.6100
#
#
#
# Elastic Compliance Matrix: (Units=1/GPa)
#
#
# Indices 1 2 3 4 5 6 
#
# 1 0.013190 -0.005615 -0.001439 0.000000 -0.000055 0.000000
# 2 -0.005615 0.019006 -0.007267 0.000000 0.000879 0.000000
# 3 -0.001439 -0.007267 0.018232 0.000000 0.005747 0.000000
# 4 0.000000 0.000000 0.000000 0.029535 0.000000 0.002522
# 5 -0.000055 0.000879 0.005747 0.000000 0.034279 0.000000
# 6 0.000000 0.000000 0.000000 0.002522 0.000000 0.030881
#
#
# Mechanical properties :
#
#
# Convention : Reuss Voigt Hill
#
# Bulk Modulus (GPa) = 45.90482 49.16626 47.53554
# Shear Modulus (GPa) = 27.62017 29.68898 28.65457
#
# Velocity S-wave (km/s) = 3.62092 3.75408 3.68810
# Velocity P-wave (km/s) = 6.26674 6.49073 6.37972
#
# Compressibility (1/GPa) = 0.02178421
#
# Stress axis : x y z
#
# Youngs Moduli (GPa) = 75.81638 52.61504 54.84948
#
# Poissons Ratio (x) = 0.29543 0.07894
# Poissons Ratio (y) = 0.42570 0.39862
# Poissons Ratio (z) = 0.10912 0.38238
#
# Static dielectric constant tensor:
#      x y z
#    x 4.084670 0.000000 -0.106370 
#    y 0.000000 3.706160 0.000000 
#    z -0.106370 0.000000 3.751370 
# 
# 
# High freq. dielectric constant tensor:
#      x y z
#    x 1.834840 0.000000 -0.005580 
#    y 0.000000 1.824520 0.000000 
#    z -0.005580 0.000000 1.830580 
# 
# From -- ./inp_files/243838.got.cif
#   From: 2010.06.25/outbox.cif.g09.slc.cpg/sg12_122_cif.got.tgz:243838.got - 2010.06.28 00:19:55.
