data_PCOD8110603
_publ_section_title
;
Structure prediction by ZEFSAII (Michael W. Deem and Ramdas Pophale) SiO2 
 PCOD8110603
Probable space group: C 2/M
;
_chemical_formula_sum "Si O2"
_cell_formula_units_Z 44
_cell_length_a 17.288272
_cell_length_b 24.790047
_cell_length_c 5.140449
_cell_angle_alpha 90.000000
_cell_angle_beta 111.325747
_cell_angle_gamma 90.000000
_cell_volume 2052.229179
_symmetry_space_group_name_H-M "C 2/M"
_symmetry_group_IT_number 12
_symmetry_cell_setting 'monoclinic'
loop_
_space_group_symop_operation_xyz
x,y,z
-x,y,-z
-x,-y,-z
x,-y,z
1/2+x,1/2+y,z
1/2-x,1/2+y,-z
1/2-x,1/2-y,-z
1/2+x,1/2-y,z
loop_
_atom_site_type_symbol
_atom_site_label
_atom_site_fract_x
_atom_site_fract_y
_atom_site_fract_z
Si Si1 0.082452 0.441804 0.936924
Si Si2 0.500000 0.859634 0.500000
Si Si3 0.639178 0.209893 0.566137
Si Si4 0.206842 0.869803 0.178363
Si Si5 0.595953 0.273553 0.038476
Si Si6 0.261758 0.562496 0.292948
O O1 0.093292 0.500000 0.806959
O O2 0.072722 0.394511 0.719639
O O3 0.162359 0.431777 0.215195
O O4 0.000000 0.442646 0.000000
O O5 0.443533 0.823685 0.623194
O O6 0.717677 0.172244 0.711362
O O7 0.653614 0.250367 0.343816
O O8 0.615710 0.240285 0.803453
O O9 0.123352 0.835448 0.028888
O O10 0.194703 0.904264 0.425619
O O11 0.216557 0.912313 0.958652
O O12 0.500000 0.272589 0.000000
O O13 0.290274 0.500000 0.334497
#
# Coordination Sequence:
#
# PCOD8110603 Si02
#       6
#     8   4   8   8   8   8
#     4  10  22  36  55  86 125 170 212 246 293 357
#     4  12  21  34  60  82 132 158 205 242 296 348
#     4  12  24  39  63  92 130 167 209 246 303 370
#     4  12  24  43  67  90 127 166 208 253 316 369
#     4  12  25  44  63  94 124 164 209 264 311 370
#     4  11  24  42  65  93 124 163 210 259 310 374
#
# _framework density 21.440099
#
# number of rings (size 3 to 8) (size 9 to 14) (size 15 to 20)
#    0.000    0.545    3.636    5.182    2.545    0.000 
#    0.000    0.000    0.000    3.273    0.000    0.000 
#    0.000    0.000    0.000    0.000    0.000    0.000 
#
# Total GULP energy -272730.531395 kJ/mol
# GULP energy per Si atom -12396.842336 kJ/mol
# Density = 2.139130 g / cm^3
# Si number density = 21.440099 Si / 1000 Ang^3
#
#
#
# Elastic Constant Matrix: (Units=GPa)
#
#
# Indices 1 2 3 4 5 6 
#
# 1 35.0912 38.3713 28.3359 0.0000 -3.0025 0.0000
# 2 38.3713 131.4938 48.9157 0.0000 0.8529 0.0000
# 3 28.3359 48.9157 104.6812 0.0000 -15.5631 0.0000
# 4 0.0000 0.0000 0.0000 37.5467 0.0000 7.3252
# 5 -3.0025 0.8529 -15.5631 0.0000 24.1508 0.0000
# 6 0.0000 0.0000 0.0000 7.3252 0.0000 23.6597
#
#
#
# Elastic Compliance Matrix: (Units=1/GPa)
#
#
# Indices 1 2 3 4 5 6 
#
# 1 0.046325 -0.010825 -0.007264 0.000000 0.001461 0.000000
# 2 -0.010825 0.011998 -0.003251 0.000000 -0.003864 0.000000
# 3 -0.007264 -0.003251 0.014290 0.000000 0.008420 0.000000
# 4 0.000000 0.000000 0.000000 0.028346 0.000000 -0.008776
# 5 0.001461 -0.003864 0.008420 0.000000 0.047151 0.000000
# 6 0.000000 0.000000 0.000000 -0.008776 0.000000 0.044983
#
#
# Mechanical properties :
#
#
# Convention : Reuss Voigt Hill
#
# Bulk Modulus (GPa) = 33.40801 55.83467 44.62134
# Shear Modulus (GPa) = 20.34583 27.44767 23.89675
#
# Velocity S-wave (km/s) = 3.08386 3.58187 3.34216
# Velocity P-wave (km/s) = 5.31941 6.57306 5.97918
#
# Compressibility (1/GPa) = 0.02993294
#
# Stress axis : x y z
#
# Youngs Moduli (GPa) = 21.58663 83.34540 69.97916
#
# Poissons Ratio (x) = 0.90225 0.50832
# Poissons Ratio (y) = 0.23368 0.22749
# Poissons Ratio (z) = 0.15680 0.27094
#
# Static dielectric constant tensor:
#      x y z
#    x 3.872170 0.000000 -0.276070 
#    y 0.000000 4.437520 0.000000 
#    z -0.276070 0.000000 4.545110 
# 
# 
# High freq. dielectric constant tensor:
#      x y z
#    x 1.826080 0.000000 -0.009350 
#    y 0.000000 1.860670 0.000000 
#    z -0.009350 0.000000 1.833260 
# 
# From -- ./inp_files/16213.got.cif
#   From: 2010.06.25/outbox.cif.g09.slc.cpg/sg12_9_cif.got.tgz:16213.got - 2010.06.28 00:19:55.
