data_PCOD8110209
_publ_section_title
;
Structure prediction by ZEFSAII (Michael W. Deem and Ramdas Pophale) SiO2 
 PCOD8110209
Probable space group: C 2/M
;
_chemical_formula_sum "Si O2"
_cell_formula_units_Z 56
_cell_length_a 11.216741
_cell_length_b 15.672246
_cell_length_c 15.241123
_cell_angle_alpha 90.000000
_cell_angle_beta 89.889933
_cell_angle_gamma 90.000000
_cell_volume 2679.255300
_symmetry_space_group_name_H-M "C 2/M"
_symmetry_group_IT_number 12
_symmetry_cell_setting 'monoclinic'
loop_
_space_group_symop_operation_xyz
x,y,z
-x,y,-z
-x,-y,-z
x,-y,z
1/2+x,1/2+y,z
1/2-x,1/2+y,-z
1/2-x,1/2-y,-z
1/2+x,1/2-y,z
loop_
_atom_site_type_symbol
_atom_site_label
_atom_site_fract_x
_atom_site_fract_y
_atom_site_fract_z
Si Si1 0.108708 0.398874 0.308790
Si Si2 0.974163 0.832652 0.093866
Si Si3 0.262963 0.098703 0.866964
Si Si4 0.698817 0.597570 0.176769
Si Si5 0.381634 0.148880 0.036036
Si Si6 0.848213 0.599283 0.332872
Si Si7 0.360459 0.186564 0.510861
O O1 0.117392 0.500000 0.321763
O O2 0.177267 0.368184 0.222288
O O3 0.162833 0.356204 0.395483
O O4 0.974032 0.365526 0.297171
O O5 0.877968 0.888979 0.146021
O O6 0.926560 0.737288 0.078042
O O7 0.096087 0.836619 0.149037
O O8 0.000000 0.876751 0.000000
O O9 0.294651 0.000000 0.885875
O O10 0.299234 0.159060 0.949242
O O11 0.651348 0.500000 0.182217
O O12 0.810374 0.596919 0.109342
O O13 0.742477 0.634841 0.271041
O O14 0.500000 0.099158 0.000000
O O15 0.846465 0.500000 0.317624
O O16 0.835049 0.617833 0.435271
O O17 0.500000 0.220918 0.500000
O O18 0.250000 0.250000 0.500000
#
# Coordination Sequence:
#
# PCOD8110209 Si02
#       7
#     8   8   8   8   8   8   8
#     4   9  19  38  66  94 119 155 205 258 307 363
#     4  11  24  40  59  83 125 169 209 247 319 380
#     4  11  22  38  61  89 120 158 209 263 310 366
#     4  11  23  41  64  90 121 163 213 260 304 373
#     4  11  24  38  58  85 123 159 206 257 315 361
#     4   9  19  39  65  92 119 156 204 254 310 362
#     4  10  21  41  64  94 127 162 201 251 313 380
#
# _framework density 20.901330999999999
#
# number of rings (size 3 to 8) (size 9 to 14) (size 15 to 20)
#    0.000    1.714    1.429    2.571    2.000    5.714 
#    7.714    0.000    0.000    0.857    0.000    0.000 
#    0.000    0.000    0.000    0.000    0.000    0.000 
#
# Total GULP energy -346961.718150 kJ/mol
# GULP energy per Si atom -12391.489934 kJ/mol
# Density = 2.085376 g / cm^3
# Si number density = 20.901331 Si / 1000 Ang^3
#
#
#
# Elastic Constant Matrix: (Units=GPa)
#
#
# Indices 1 2 3 4 5 6 
#
# 1 108.2995 32.4394 48.7502 0.0000 20.8697 0.0000
# 2 32.4394 54.9770 35.9036 0.0000 9.4693 0.0000
# 3 48.7502 35.9036 140.0198 0.0000 22.3696 0.0000
# 4 0.0000 0.0000 0.0000 23.0669 0.0000 6.0886
# 5 20.8697 9.4693 22.3696 0.0000 38.4291 0.0000
# 6 0.0000 0.0000 0.0000 6.0886 0.0000 29.9996
#
#
#
# Elastic Compliance Matrix: (Units=1/GPa)
#
#
# Indices 1 2 3 4 5 6 
#
# 1 0.012683 -0.005182 -0.002415 0.000000 -0.004205 0.000000
# 2 -0.005182 0.024158 -0.004288 0.000000 -0.000643 0.000000
# 3 -0.002415 -0.004288 0.009596 0.000000 -0.003218 0.000000
# 4 0.000000 0.000000 0.000000 0.045806 0.000000 -0.009297
# 5 -0.004205 -0.000643 -0.003218 0.000000 0.030337 0.000000
# 6 0.000000 0.000000 0.000000 -0.009297 0.000000 0.035221
#
#
# Mechanical properties :
#
#
# Convention : Reuss Voigt Hill
#
# Bulk Modulus (GPa) = 44.11626 59.72029 51.91827
# Shear Modulus (GPa) = 26.43719 30.71267 28.57493
#
# Velocity S-wave (km/s) = 3.56034 3.83745 3.70149
# Velocity P-wave (km/s) = 6.16880 6.94760 6.56975
#
# Compressibility (1/GPa) = 0.02266738
#
# Stress axis : x y z
#
# Youngs Moduli (GPa) = 78.84259 41.39413 104.20711
#
# Poissons Ratio (x) = 0.21452 0.25169
# Poissons Ratio (y) = 0.40858 0.44680
# Poissons Ratio (z) = 0.19043 0.17748
#
# Static dielectric constant tensor:
#      x y z
#    x 4.115860 0.000000 -0.016410 
#    y 0.000000 3.405940 0.000000 
#    z -0.016410 0.000000 4.185000 
# 
# 
# High freq. dielectric constant tensor:
#      x y z
#    x 1.828650 0.000000 0.004850 
#    y 0.000000 1.794010 0.000000 
#    z 0.004850 0.000000 1.823520 
# 
# From -- ./inp_files/204989.got.cif
#   From: 2010.06.25/outbox.cif.g09.slc.cpg/sg12_103_cif.got.tgz:204989.got - 2010.06.28 00:19:55.
