data_PCOD8110710
_publ_section_title
;
Structure prediction by ZEFSAII (Michael W. Deem and Ramdas Pophale) SiO2 
 PCOD8110710
Probable space group: C 2/M
;
_chemical_formula_sum "Si O2"
_cell_formula_units_Z 56
_cell_length_a 19.597831
_cell_length_b 8.678715
_cell_length_c 29.488789
_cell_angle_alpha 90.000000
_cell_angle_beta 146.867541
_cell_angle_gamma 90.000000
_cell_volume 2741.392955
_symmetry_space_group_name_H-M "C 2/M"
_symmetry_group_IT_number 12
_symmetry_cell_setting 'monoclinic'
loop_
_space_group_symop_operation_xyz
x,y,z
-x,y,-z
-x,-y,-z
x,-y,z
1/2+x,1/2+y,z
1/2-x,1/2+y,-z
1/2-x,1/2-y,-z
1/2+x,1/2-y,z
loop_
_atom_site_type_symbol
_atom_site_label
_atom_site_fract_x
_atom_site_fract_y
_atom_site_fract_z
Si Si1 0.849027 0.816685 0.136431
Si Si2 0.690202 0.180561 0.567129
Si Si3 0.041262 0.182563 0.317141
Si Si4 0.008542 0.820320 0.141462
Si Si5 0.002529 0.176812 0.606813
Si Si6 0.744523 0.675066 0.688473
Si Si7 0.429986 0.182376 0.005762
O O1 0.941940 0.747459 0.226177
O O2 0.897273 0.766329 0.113346
O O3 0.848803 0.000000 0.139241
O O4 0.710622 0.750008 0.068759
O O5 0.820506 0.237681 0.618471
O O6 0.578867 0.218041 0.471305
O O7 0.669739 0.272613 0.602204
O O8 0.690930 0.000000 0.578014
O O9 0.010930 0.244625 0.350240
O O10 0.031135 0.000000 0.310585
O O11 0.139114 0.786996 0.238751
O O12 0.004814 0.728645 0.092362
O O13 0.998331 0.000000 0.125228
O O14 0.148390 0.189142 0.676394
O O15 0.955876 0.000000 0.577362
O O16 0.792196 0.500000 0.709938
O O17 0.425700 0.000000 0.000227
O O18 0.500000 0.248931 0.000000
#
# Coordination Sequence:
#
# PCOD8110710 Si02
#       7
#     8   8   8   8   8   8   8
#     4   9  18  36  61  86 115 152 193 235 282 339
#     4  11  21  37  60  84 115 153 193 238 291 348
#     4   9  18  35  59  84 113 151 194 237 286 338
#     4  11  22  39  62  85 118 156 191 234 287 342
#     4  10  22  37  58  84 115 153 193 243 291 336
#     4  11  23  38  59  86 116 151 198 243 283 338
#     4  10  22  38  63  93 119 149 189 235 283 342
#
# _framework density 20.427571
#
# number of rings (size 3 to 8) (size 9 to 14) (size 15 to 20)
#    0.000    1.857    1.429    2.571    2.000    3.143 
#    0.000    1.429    0.000    0.000    0.000    0.000 
#    0.000    0.000    0.000    0.000    0.000    0.000 
#
# Total GULP energy -347284.013778 kJ/mol
# GULP energy per Si atom -12403.000492 kJ/mol
# Density = 2.038108 g / cm^3
# Si number density = 20.427571 Si / 1000 Ang^3
#
#
#
# Elastic Constant Matrix: (Units=GPa)
#
#
# Indices 1 2 3 4 5 6 
#
# 1 139.5749 26.0053 42.7655 0.0000 -9.8335 0.0000
# 2 26.0053 26.0036 9.7363 -0.0002 6.3989 0.0005
# 3 42.7655 9.7363 94.7636 0.0000 -4.4636 0.0001
# 4 0.0000 -0.0002 0.0000 28.3766 0.0000 -1.2815
# 5 -9.8335 6.3989 -4.4636 0.0000 35.2219 0.0000
# 6 0.0000 0.0005 0.0001 -1.2815 0.0000 20.4121
#
#
#
# Elastic Compliance Matrix: (Units=1/GPa)
#
#
# Indices 1 2 3 4 5 6 
#
# 1 0.010428 -0.010200 -0.003454 0.000000 0.004327 0.000000
# 2 -0.010200 0.052243 -0.001354 0.000000 -0.012510 -0.000001
# 3 -0.003454 -0.001354 0.012290 0.000000 0.000839 0.000000
# 4 0.000000 0.000000 0.000000 0.035340 0.000000 0.002219
# 5 0.004327 -0.012510 0.000839 0.000000 0.031979 0.000000
# 6 0.000000 -0.000001 0.000000 0.002219 0.000000 0.049130
#
#
# Mechanical properties :
#
#
# Convention : Reuss Voigt Hill
#
# Bulk Modulus (GPa) = 22.24968 46.37293 34.31131
# Shear Modulus (GPa) = 21.14988 28.92446 25.03717
#
# Velocity S-wave (km/s) = 3.22119 3.76700 3.50473
# Velocity P-wave (km/s) = 4.97498 6.45529 5.76286
#
# Compressibility (1/GPa) = 0.04494446
#
# Stress axis : x y z
#
# Youngs Moduli (GPa) = 95.89223 19.14147 81.36654
#
# Poissons Ratio (x) = 0.19525 0.28107
# Poissons Ratio (y) = 0.97814 0.11013
# Poissons Ratio (z) = 0.33125 0.02591
#
# Static dielectric constant tensor:
#      x y z
#    x 3.998490 0.000000 0.012100 
#    y 0.000000 3.303400 0.000000 
#    z 0.012100 0.000000 3.682740 
# 
# 
# High freq. dielectric constant tensor:
#      x y z
#    x 1.814710 0.000000 -0.000970 
#    y 0.000000 1.764610 0.000000 
#    z -0.000970 0.000000 1.803120 
# 
# From -- ./inp_files/363087.got.cif
#   From: 2010.06.25/outbox.cif.g09.slc.cpg/sg12_182_cif.got.tgz:363087.got - 2010.06.28 00:19:55.
