data_PCOD8110598
_publ_section_title
;
Structure prediction by ZEFSAII (Michael W. Deem and Ramdas Pophale) SiO2 
 PCOD8110598
Probable space group: C 2/M
;
_chemical_formula_sum "Si O2"
_cell_formula_units_Z 64
_cell_length_a 12.694748
_cell_length_b 14.416450
_cell_length_c 28.591830
_cell_angle_alpha 90.000000
_cell_angle_beta 36.101166
_cell_angle_gamma 90.000000
_cell_volume 3083.163389
_symmetry_space_group_name_H-M "C 2/M"
_symmetry_group_IT_number 12
_symmetry_cell_setting 'monoclinic'
loop_
_space_group_symop_operation_xyz
x,y,z
-x,y,-z
-x,-y,-z
x,-y,z
1/2+x,1/2+y,z
1/2-x,1/2+y,-z
1/2-x,1/2-y,-z
1/2+x,1/2-y,z
loop_
_atom_site_type_symbol
_atom_site_label
_atom_site_fract_x
_atom_site_fract_y
_atom_site_fract_z
Si Si1 0.581292 0.395331 0.516461
Si Si2 0.020715 0.340804 0.632396
Si Si3 0.393487 0.105495 0.582942
Si Si4 0.513514 0.331023 0.698463
Si Si5 0.186978 0.104637 0.310748
Si Si6 0.317773 0.606631 0.091881
Si Si7 0.163527 0.896000 0.805708
Si Si8 0.008224 0.258123 0.197685
O O1 0.500000 0.342375 0.500000
O O2 0.515665 0.500000 0.536741
O O3 0.794918 0.394715 0.440909
O O4 0.487841 0.359547 0.597596
O O5 0.069195 0.246808 0.641080
O O6 0.938194 0.326782 0.610119
O O7 0.871743 0.394772 0.716038
O O8 0.500000 0.142476 0.500000
O O9 0.183207 0.105720 0.648570
O O10 0.450248 0.000000 0.574954
O O11 0.360420 0.391153 0.727590
O O12 0.433131 0.290493 0.775065
O O13 0.342523 0.175237 0.268090
O O14 0.248031 0.000000 0.301013
O O15 0.255945 0.500000 0.106048
O O16 0.347977 0.626776 0.135612
O O17 0.171588 0.676961 0.122312
O O18 0.500000 0.627855 0.000000
O O19 0.043468 0.819789 0.821899
O O20 0.089747 0.000000 0.821744
#
# Coordination Sequence:
#
# PCOD8110598 Si02
#       8
#     8   8   8   8   8   8   8   8
#     4  10  22  36  54  81 117 162 213 264 315 363
#     4  12  22  39  59  83 120 164 216 263 307 366
#     4  11  24  40  58  81 117 170 222 269 317 364
#     4  12  23  37  56  87 121 156 206 267 307 365
#     4  11  23  39  57  85 122 164 208 261 316 365
#     4  10  23  44  71 102 131 160 198 250 313 383
#     4  11  23  41  67  95 125 166 211 253 305 375
#     4  12  22  42  65  95 126 163 209 254 309 374
#
# _framework density 20.757899999999999
#
# number of rings (size 3 to 8) (size 9 to 14) (size 15 to 20)
#    0.000    0.875    3.750    3.375    0.000    6.500 
#    0.000    0.000    0.000    0.375    0.000    0.000 
#    0.000    0.000    0.000    0.000    0.000    0.000 
#
# Total GULP energy -396696.993684 kJ/mol
# GULP energy per Si atom -12396.781053 kJ/mol
# Density = 2.071065 g / cm^3
# Si number density = 20.757900 Si / 1000 Ang^3
#
#
#
# Elastic Constant Matrix: (Units=GPa)
#
#
# Indices 1 2 3 4 5 6 
#
# 1 102.2481 37.5877 50.1403 -0.0002 4.8810 0.0000
# 2 37.5877 106.9575 38.9086 0.0007 -5.8432 0.0001
# 3 50.1403 38.9086 130.5784 0.0043 -0.0477 0.0005
# 4 -0.0002 0.0007 0.0043 -49.9368 -0.0009 -3.6425
# 5 4.8810 -5.8432 -0.0477 -0.0009 26.9926 -0.0001
# 6 0.0000 0.0001 0.0005 -3.6425 -0.0001 34.0764
#
#
#
# Elastic Compliance Matrix: (Units=1/GPa)
#
#
# Indices 1 2 3 4 5 6 
#
# 1 0.013135 -0.003309 -0.004059 0.000000 -0.003099 0.000000
# 2 -0.003309 0.011460 -0.002143 0.000000 0.003075 0.000000
# 3 -0.004059 -0.002143 0.009855 0.000001 0.000287 0.000000
# 4 0.000000 0.000000 0.000001 -0.019870 -0.000001 -0.002124
# 5 -0.003099 0.003075 0.000287 -0.000001 0.038274 0.000000
# 6 0.000000 0.000000 0.000000 -0.002124 0.000000 0.029119
#
#
# Mechanical properties :
#
#
# Convention : Reuss Voigt Hill
#
# Bulk Modulus (GPa) = 64.81346 65.89525 65.35436
# Shear Modulus (GPa) = 47.10925 16.43626 31.77275
#
# Velocity S-wave (km/s) = 4.76905 2.81696 3.91658
# Velocity P-wave (km/s) = 7.84962 6.51106 7.21146
#
# Compressibility (1/GPa) = 0.01542889
#
# Stress axis : x y z
#
# Youngs Moduli (GPa) = 76.13419 87.26095 101.46681
#
# Poissons Ratio (x) = 0.28872 0.41183
# Poissons Ratio (y) = 0.25190 0.21745
# Poissons Ratio (z) = 0.30901 0.18701
#
# Static dielectric constant tensor:
#      x y z
#    x 3.891860 0.000000 0.173570 
#    y 0.000000 3.856100 0.000000 
#    z 0.173570 0.000000 3.622080 
# 
# 
# High freq. dielectric constant tensor:
#      x y z
#    x 1.818840 0.000000 0.011610 
#    y 0.000000 1.823230 0.000000 
#    z 0.011610 0.000000 1.781900 
# 
# From -- ./inp_files/358410.got.cif
#   From: 2010.06.25/outbox.cif.g09.slc.cpg/sg12_180_cif.got.tgz:358410.got - 2010.06.28 00:19:55.
