data_PCOD8110050
_publ_section_title
;
Structure prediction by ZEFSAII (Michael W. Deem and Ramdas Pophale) SiO2 
 PCOD8110050
Probable space group: C 2/M
;
_chemical_formula_sum "Si O2"
_cell_formula_units_Z 56
_cell_length_a 25.088161
_cell_length_b 8.326687
_cell_length_c 13.573002
_cell_angle_alpha 90.000000
_cell_angle_beta 111.984813
_cell_angle_gamma 90.000000
_cell_volume 2629.234567
_symmetry_space_group_name_H-M "C 2/M"
_symmetry_group_IT_number 12
_symmetry_cell_setting 'monoclinic'
loop_
_space_group_symop_operation_xyz
x,y,z
-x,y,-z
-x,-y,-z
x,-y,z
1/2+x,1/2+y,z
1/2-x,1/2+y,-z
1/2-x,1/2-y,-z
1/2+x,1/2-y,z
loop_
_atom_site_type_symbol
_atom_site_label
_atom_site_fract_x
_atom_site_fract_y
_atom_site_fract_z
Si Si1 0.399469 0.683323 0.516314
Si Si2 0.617625 0.184064 0.707728
Si Si3 0.828468 0.185657 0.812361
Si Si4 0.956641 0.809086 0.888796
Si Si5 0.732211 0.685482 0.881935
Si Si6 0.306381 0.815325 0.588548
Si Si7 0.506170 0.686902 0.717013
O O1 0.383179 0.500000 0.530979
O O2 0.391650 0.707608 0.394889
O O3 0.358362 0.801212 0.547858
O O4 0.465067 0.717785 0.594464
O O5 0.677167 0.220857 0.803102
O O6 0.565304 0.216768 0.745952
O O7 0.617937 0.000000 0.674842
O O8 0.893137 0.249945 0.874806
O O9 0.785641 0.293397 0.845891
O O10 0.815932 0.203400 0.688802
O O11 0.821231 0.000000 0.838074
O O12 0.974636 0.746503 0.793184
O O13 0.957225 0.000000 0.888000
O O14 0.000000 0.738641 0.000000
O O15 0.715722 0.500000 0.878333
O O16 0.750000 0.750000 0.000000
O O17 0.250000 0.750000 0.500000
O O18 0.299341 0.000000 0.615710
O O19 0.521549 0.500000 0.738921
#
# Coordination Sequence:
#
# PCOD8110050 Si02
#       7
#     8   8   8   8   8   8   8
#     4  11  22  41  65  94 130 171 219 269 327 395
#     4  12  26  43  64  96 133 173 219 271 327 389
#     4  11  22  42  68  98 132 170 215 267 319 386
#     4   9  19  37  65  99 130 168 213 257 316 385
#     4  12  27  48  70  96 129 172 219 271 327 387
#     4  12  24  39  62  92 129 171 214 268 326 387
#     4  10  21  40  66  97 132 174 218 264 324 393
#
# _framework density 21.298974000000001
#
# number of rings (size 3 to 8) (size 9 to 14) (size 15 to 20)
#    0.000    1.000    1.429    6.000    2.000    2.857 
#    0.000    0.000    0.000    2.143    0.000    0.000 
#    0.000    0.000    0.000    0.000    0.000    0.000 
#
# Total GULP energy -347367.091685 kJ/mol
# GULP energy per Si atom -12405.967560 kJ/mol
# Density = 2.125050 g / cm^3
# Si number density = 21.298974 Si / 1000 Ang^3
#
#
#
# Elastic Constant Matrix: (Units=GPa)
#
#
# Indices 1 2 3 4 5 6 
#
# 1 148.3608 21.7649 52.5767 0.0000 12.4271 0.0000
# 2 21.7649 72.4466 11.5380 0.0000 3.8421 0.0000
# 3 52.5767 11.5380 121.9448 0.0000 24.3814 0.0000
# 4 0.0000 0.0000 0.0000 27.8223 0.0000 -3.6315
# 5 12.4271 3.8421 24.3814 0.0000 36.6234 0.0000
# 6 0.0000 0.0000 0.0000 -3.6315 0.0000 35.3097
#
#
#
# Elastic Compliance Matrix: (Units=1/GPa)
#
#
# Indices 1 2 3 4 5 6 
#
# 1 0.008219 -0.001925 -0.003281 0.000000 -0.000403 0.000000
# 2 -0.001925 0.014480 -0.000423 0.000000 -0.000584 0.000000
# 3 -0.003281 -0.000423 0.010871 0.000000 -0.006079 0.000000
# 4 0.000000 0.000000 0.000000 0.036431 0.000000 0.003747
# 5 -0.000403 -0.000584 -0.006079 0.000000 0.031550 0.000000
# 6 0.000000 0.000000 0.000000 0.003747 0.000000 0.028706
#
#
# Mechanical properties :
#
#
# Convention : Reuss Voigt Hill
#
# Bulk Modulus (GPa) = 44.82155 57.16793 50.99474
# Shear Modulus (GPa) = 33.56748 37.07590 35.32169
#
# Velocity S-wave (km/s) = 3.97421 4.17674 4.07673
# Velocity P-wave (km/s) = 6.49221 7.08231 6.79367
#
# Compressibility (1/GPa) = 0.02231070
#
# Stress axis : x y z
#
# Youngs Moduli (GPa) = 121.66527 69.06042 91.99155
#
# Poissons Ratio (x) = 0.13297 0.30183
# Poissons Ratio (y) = 0.23425 0.03893
# Poissons Ratio (z) = 0.39919 0.02922
#
# Static dielectric constant tensor:
#      x y z
#    x 4.679770 0.000000 0.309510 
#    y 0.000000 3.749760 0.000000 
#    z 0.309510 0.000000 4.206110 
# 
# 
# High freq. dielectric constant tensor:
#      x y z
#    x 1.849360 0.000000 0.004930 
#    y 0.000000 1.823010 0.000000 
#    z 0.004930 0.000000 1.842920 
# 
# From -- ./inp_files/181015.got.cif
#   From: 2010.06.25/outbox.cif.g09.slc.cpg/sg12_91_cif.got.tgz:181015.got - 2010.06.28 00:19:55.
