data_PCOD8110813
_publ_section_title
;
Structure prediction by ZEFSAII (Michael W. Deem and Ramdas Pophale) SiO2 
 PCOD8110813
Probable space group: C 2/M
;
_chemical_formula_sum "Si O2"
_cell_formula_units_Z 48
_cell_length_a 26.840008
_cell_length_b 23.058587
_cell_length_c 9.067411
_cell_angle_alpha 90.000000
_cell_angle_beta 152.394271
_cell_angle_gamma 90.000000
_cell_volume 2600.400681
_symmetry_space_group_name_H-M "C 2/M"
_symmetry_group_IT_number 12
_symmetry_cell_setting 'monoclinic'
loop_
_space_group_symop_operation_xyz
x,y,z
-x,y,-z
-x,-y,-z
x,-y,z
1/2+x,1/2+y,z
1/2-x,1/2+y,-z
1/2-x,1/2-y,-z
1/2+x,1/2-y,z
loop_
_atom_site_type_symbol
_atom_site_label
_atom_site_fract_x
_atom_site_fract_y
_atom_site_fract_z
Si Si1 0.608637 0.432405 0.870951
Si Si2 0.437231 0.232309 0.701781
Si Si3 0.231543 0.834336 0.059788
Si Si4 0.088475 0.262870 0.838664
Si Si5 0.212496 0.165687 0.660060
Si Si6 0.385421 0.435001 0.773312
O O1 0.500000 0.414072 0.500000
O O2 0.632285 0.500000 0.909286
O O3 0.710359 0.397659 0.072195
O O4 0.598898 0.415482 0.016744
O O5 0.352303 0.187557 0.407718
O O6 0.525864 0.256462 0.820553
O O7 0.379417 0.288196 0.621230
O O8 0.500000 0.200455 0.000000
O O9 0.145023 0.790909 0.904570
O O10 0.215418 0.839333 0.843732
O O11 0.000000 0.291152 0.500000
O O12 0.174134 0.311940 0.104654
O O13 0.194454 0.105689 0.527956
O O14 0.337570 0.500000 0.639868
O O15 0.500000 0.432190 0.000000
#
# Coordination Sequence:
#
# PCOD8110813 Si02
#       6
#     8   8   8   8   8   8
#     4  10  22  38  58  83 113 148 184 230 284 330
#     4  11  24  36  54  87 117 148 187 227 278 332
#     4  11  22  36  58  84 112 151 188 226 278 334
#     4  11  20  38  57  81 119 150 181 230 276 331
#     4  11  22  36  59  84 112 151 188 227 278 332
#     4  10  22  38  57  84 114 144 185 236 281 327
#
# _framework density 18.458694999999999
#
# number of rings (size 3 to 8) (size 9 to 14) (size 15 to 20)
#    0.000    1.333    3.333    3.000    7.000    3.333 
#    0.000    0.000    0.000    2.000    0.000    0.000 
#    0.000    0.000    0.000    0.000    0.000    0.000 
#
# Total GULP energy -297576.543098 kJ/mol
# GULP energy per Si atom -12399.022629 kJ/mol
# Density = 1.841668 g / cm^3
# Si number density = 18.458695 Si / 1000 Ang^3
#
#
#
# Elastic Constant Matrix: (Units=GPa)
#
#
# Indices 1 2 3 4 5 6 
#
# 1 92.5612 36.0138 64.8308 0.0000 -4.7780 0.0000
# 2 36.0138 91.3802 54.4074 0.0000 -6.2665 0.0000
# 3 64.8308 54.4074 116.7904 0.0000 -12.7227 0.0000
# 4 0.0000 0.0000 0.0000 26.0307 0.0000 -8.1555
# 5 -4.7780 -6.2665 -12.7227 0.0000 38.0953 0.0000
# 6 0.0000 0.0000 0.0000 -8.1555 0.0000 27.5765
#
#
#
# Elastic Compliance Matrix: (Units=1/GPa)
#
#
# Indices 1 2 3 4 5 6 
#
# 1 0.017884 -0.001580 -0.009314 0.000000 -0.001128 0.000000
# 2 -0.001580 0.015284 -0.006217 0.000000 0.000240 0.000000
# 3 -0.009314 -0.006217 0.017009 0.000000 0.003490 0.000000
# 4 0.000000 0.000000 0.000000 0.042339 0.000000 0.012521
# 5 -0.001128 0.000240 0.003490 0.000000 0.027313 0.000000
# 6 0.000000 0.000000 0.000000 0.012521 0.000000 0.039966
#
#
# Mechanical properties :
#
#
# Convention : Reuss Voigt Hill
#
# Bulk Modulus (GPa) = 62.67743 67.91508 65.29625
# Shear Modulus (GPa) = 25.08325 28.03916 26.56120
#
# Velocity S-wave (km/s) = 3.69031 3.90169 3.79747
# Velocity P-wave (km/s) = 7.22406 7.56112 7.39451
#
# Compressibility (1/GPa) = 0.01595471
#
# Stress axis : x y z
#
# Youngs Moduli (GPa) = 55.91585 65.42818 58.79189
#
# Poissons Ratio (x) = 0.10337 0.54761
# Poissons Ratio (y) = 0.08834 0.36551
# Poissons Ratio (z) = 0.52082 0.40677
#
# Static dielectric constant tensor:
#      x y z
#    x 3.565910 0.000000 -0.056560 
#    y 0.000000 3.387940 0.000000 
#    z -0.056560 0.000000 3.486250 
# 
# 
# High freq. dielectric constant tensor:
#      x y z
#    x 1.731650 0.000000 -0.011480 
#    y 0.000000 1.695370 0.000000 
#    z -0.011480 0.000000 1.715040 
# 
# From -- ./inp_files/51447.got.cif
#   From: 2010.06.25/outbox.cif.g09.slc.cpg/sg12_26_cif.got.tgz:51447.got - 2010.06.28 00:19:55.
