data_PCOD8110945
_publ_section_title
;
Structure prediction by ZEFSAII (Michael W. Deem and Ramdas Pophale) SiO2 
 PCOD8110945
Probable space group: C 2/M
;
_chemical_formula_sum "Si O2"
_cell_formula_units_Z 56
_cell_length_a 13.926702
_cell_length_b 13.294011
_cell_length_c 17.961369
_cell_angle_alpha 90.000000
_cell_angle_beta 54.933913
_cell_angle_gamma 90.000000
_cell_volume 2721.805484
_symmetry_space_group_name_H-M "C 2/M"
_symmetry_group_IT_number 12
_symmetry_cell_setting 'monoclinic'
loop_
_space_group_symop_operation_xyz
x,y,z
-x,y,-z
-x,-y,-z
x,-y,z
1/2+x,1/2+y,z
1/2-x,1/2+y,-z
1/2-x,1/2-y,-z
1/2+x,1/2-y,z
loop_
_atom_site_type_symbol
_atom_site_label
_atom_site_fract_x
_atom_site_fract_y
_atom_site_fract_z
Si Si1 0.003606 0.000000 0.371490
Si Si2 0.681029 0.380694 0.078711
Si Si3 0.768062 0.887987 0.232218
Si Si4 0.676827 0.818832 0.590531
Si Si5 0.545903 0.654357 0.732610
Si Si6 0.033758 0.385883 0.407707
Si Si7 0.863671 0.226551 0.049717
Si Si8 0.821493 0.000000 0.583965
O O1 0.980048 0.902704 0.332447
O O2 0.133169 0.000000 0.350495
O O3 0.920311 0.000000 0.478391
O O4 0.684505 0.500000 0.092100
O O5 0.576412 0.328114 0.170973
O O6 0.802130 0.330503 0.052048
O O7 0.658574 0.359791 0.001743
O O8 0.865379 0.903687 0.252712
O O9 0.648643 0.837245 0.318194
O O10 0.811857 0.812848 0.149834
O O11 0.742926 0.000000 0.210666
O O12 0.750000 0.750000 0.500000
O O13 0.608004 0.757512 0.683868
O O14 0.580889 0.884274 0.590928
O O15 0.752889 0.896602 0.603270
O O16 0.070624 0.500000 0.409673
O O17 0.000000 0.329282 0.500000
O O18 0.000000 0.250177 0.000000
#
# Coordination Sequence:
#
# PCOD8110945 Si02
#       8
#     4   8   8   8   8   8   8   4
#     4  11  24  44  67  95 131 175 238 268 341 408
#     4  11  24  44  71 100 139 178 218 277 340 401
#     4  11  22  40  70 101 131 170 223 282 335 390
#     4  12  24  40  66  91 133 176 226 275 333 401
#     4  12  23  41  69  97 128 175 225 281 326 406
#     4  10  22  38  62  93 129 167 214 273 333 389
#     4  11  24  43  70 105 135 173 227 277 336 404
#     4  11  26  46  62  95 133 185 222 288 338 397
#
# _framework density 20.574577000000001
#
# number of rings (size 3 to 8) (size 9 to 14) (size 15 to 20)
#    0.000    0.857    5.000    2.143    0.000    4.286 
#    0.000    0.000    1.571    0.000    0.000    0.000 
#    0.000    0.000    0.000    0.000    0.000    0.000 
#
# Total GULP energy -347184.761435 kJ/mol
# GULP energy per Si atom -12399.455766 kJ/mol
# Density = 2.052775 g / cm^3
# Si number density = 20.574577 Si / 1000 Ang^3
#
#
#
# Elastic Constant Matrix: (Units=GPa)
#
#
# Indices 1 2 3 4 5 6 
#
# 1 160.0050 45.0805 59.8803 0.0000 -1.4419 0.0000
# 2 45.0805 102.9572 45.8339 0.0000 -1.9503 0.0000
# 3 59.8803 45.8339 143.5840 0.0000 -8.8486 0.0000
# 4 0.0000 0.0000 0.0000 16.2975 0.0000 -7.2955
# 5 -1.4419 -1.9503 -8.8486 0.0000 39.4742 0.0000
# 6 0.0000 0.0000 0.0000 -7.2955 0.0000 18.7471
#
#
#
# Elastic Compliance Matrix: (Units=1/GPa)
#
#
# Indices 1 2 3 4 5 6 
#
# 1 0.007856 -0.002305 -0.002565 0.000000 -0.000402 0.000000
# 2 -0.002305 0.012001 -0.002878 0.000000 -0.000136 0.000000
# 3 -0.002565 -0.002878 0.009064 0.000000 0.001796 0.000000
# 4 0.000000 0.000000 0.000000 0.074303 0.000000 0.028916
# 5 -0.000402 -0.000136 0.001796 0.000000 0.025714 0.000000
# 6 0.000000 0.000000 0.000000 0.028916 0.000000 0.064594
#
#
# Mechanical properties :
#
#
# Convention : Reuss Voigt Hill
#
# Bulk Modulus (GPa) = 74.49528 78.68174 76.58851
# Shear Modulus (GPa) = 23.41895 31.95384 27.68640
#
# Velocity S-wave (km/s) = 3.37745 3.94518 3.67230
# Velocity P-wave (km/s) = 7.17604 7.68621 7.43550
#
# Compressibility (1/GPa) = 0.01342367
#
# Stress axis : x y z
#
# Youngs Moduli (GPa) = 127.29717 83.32836 110.33209
#
# Poissons Ratio (x) = 0.19210 0.28300
# Poissons Ratio (y) = 0.29347 0.31751
# Poissons Ratio (z) = 0.32651 0.23980
#
# Static dielectric constant tensor:
#      x y z
#    x 4.004140 0.000000 -0.033570 
#    y 0.000000 3.500410 0.000000 
#    z -0.033570 0.000000 3.917050 
# 
# 
# High freq. dielectric constant tensor:
#      x y z
#    x 1.816720 0.000000 -0.002570 
#    y 0.000000 1.791920 0.000000 
#    z -0.002570 0.000000 1.814160 
# 
# From -- ./inp_files/263291.got.cif
#   From: 2010.06.25/outbox.cif.g09.slc.cpg/sg12_132_cif.got.tgz:263291.got - 2010.06.28 00:19:55.
