data_PCOD8110692
_publ_section_title
;
Structure prediction by ZEFSAII (Michael W. Deem and Ramdas Pophale) SiO2 
 PCOD8110692
Probable space group: C 2/M
;
_chemical_formula_sum "Si O2"
_cell_formula_units_Z 40
_cell_length_a 29.538564
_cell_length_b 8.949216
_cell_length_c 7.768992
_cell_angle_alpha 90.000000
_cell_angle_beta 75.020950
_cell_angle_gamma 90.000000
_cell_volume 1983.925411
_symmetry_space_group_name_H-M "C 2/M"
_symmetry_group_IT_number 12
_symmetry_cell_setting 'monoclinic'
loop_
_space_group_symop_operation_xyz
x,y,z
-x,y,-z
-x,-y,-z
x,-y,z
1/2+x,1/2+y,z
1/2-x,1/2+y,-z
1/2-x,1/2-y,-z
1/2+x,1/2-y,z
loop_
_atom_site_type_symbol
_atom_site_label
_atom_site_fract_x
_atom_site_fract_y
_atom_site_fract_z
Si Si1 0.889762 0.323314 0.789033
Si Si2 0.202812 0.171659 0.602307
Si Si3 0.701752 0.674008 0.000086
Si Si4 0.895864 0.177131 0.437596
Si Si5 0.054716 0.672328 0.925340
O O1 0.885688 0.500000 0.775525
O O2 0.914005 0.256419 0.593830
O O3 0.838422 0.252095 0.850303
O O4 0.920554 0.275853 0.922675
O O5 0.250000 0.250000 0.500000
O O6 0.190870 0.201507 0.811872
O O7 0.157883 0.229499 0.540942
O O8 0.211667 0.000000 0.555712
O O9 0.703693 0.500000 0.046774
O O10 0.750000 0.750000 0.000000
O O11 0.927973 0.226895 0.248046
O O12 0.899721 0.000000 0.452163
O O13 0.066464 0.500000 0.873500
O O14 0.000000 0.699172 0.000000
#
# Coordination Sequence:
#
# PCOD8110692 Si02
#       5
#     8   8   8   8   8
#     4  11  23  40  64  93 125 165 209 259 316 372
#     4  10  22  37  56  84 121 162 204 251 301 363
#     4  11  22  38  58  87 125 165 211 257 308 369
#     4  11  23  41  64  92 127 166 208 259 316 374
#     4  10  23  44  68  93 124 165 213 264 316 374
#
# _framework density 20.162047000000001
#
# number of rings (size 3 to 8) (size 9 to 14) (size 15 to 20)
#    0.000    1.400    2.000    3.000    0.000    8.400 
#    0.000    4.000    0.000    0.000    0.000    0.000 
#    0.000    0.000    0.000    0.000    0.000    0.000 
#
# Total GULP energy -248095.500327 kJ/mol
# GULP energy per Si atom -12404.775016 kJ/mol
# Density = 2.011616 g / cm^3
# Si number density = 20.162047 Si / 1000 Ang^3
#
#
#
# Elastic Constant Matrix: (Units=GPa)
#
#
# Indices 1 2 3 4 5 6 
#
# 1 98.9494 41.6469 51.3854 0.0000 4.0767 0.0000
# 2 41.6469 94.1945 64.0128 0.0000 5.2660 0.0000
# 3 51.3854 64.0128 131.1325 0.0000 11.2502 0.0000
# 4 0.0000 0.0000 0.0000 43.1671 0.0000 -1.0282
# 5 4.0767 5.2660 11.2502 0.0000 26.6512 0.0000
# 6 0.0000 0.0000 0.0000 -1.0282 0.0000 27.7666
#
#
#
# Elastic Compliance Matrix: (Units=1/GPa)
#
#
# Indices 1 2 3 4 5 6 
#
# 1 0.013431 -0.003534 -0.003550 0.000000 0.000142 0.000000
# 2 -0.003534 0.016817 -0.006833 0.000000 0.000102 0.000000
# 3 -0.003550 -0.006833 0.012648 0.000000 -0.003446 0.000000
# 4 0.000000 0.000000 0.000000 0.023186 0.000000 0.000859
# 5 0.000142 0.000102 -0.003446 0.000000 0.038934 0.000000
# 6 0.000000 0.000000 0.000000 0.000859 0.000000 0.036046
#
#
# Mechanical properties :
#
#
# Convention : Reuss Voigt Hill
#
# Bulk Modulus (GPa) = 66.39272 70.92962 68.66117
# Shear Modulus (GPa) = 28.74905 30.66573 29.70739
#
# Velocity S-wave (km/s) = 3.78020 3.90418 3.84269
# Velocity P-wave (km/s) = 7.21487 7.45518 7.33601
#
# Compressibility (1/GPa) = 0.01506189
#
# Stress axis : x y z
#
# Youngs Moduli (GPa) = 74.45257 59.46469 79.06102
#
# Poissons Ratio (x) = 0.21013 0.28070
# Poissons Ratio (y) = 0.26309 0.54024
# Poissons Ratio (z) = 0.26434 0.40634
#
# Static dielectric constant tensor:
#      x y z
#    x 3.717570 0.000000 0.164880 
#    y 0.000000 3.222210 0.000000 
#    z 0.164880 0.000000 3.733360 
# 
# 
# High freq. dielectric constant tensor:
#      x y z
#    x 1.789030 0.000000 0.008560 
#    y 0.000000 1.790360 0.000000 
#    z 0.008560 0.000000 1.801600 
# 
# From -- ./inp_files/107785.got.cif
#   From: 2010.06.25/outbox.cif.g09.slc.cpg/sg12_54_cif.got.tgz:107785.got - 2010.06.28 00:19:55.
