data_PCOD8110069
_publ_section_title
;
Structure prediction by ZEFSAII (Michael W. Deem and Ramdas Pophale) SiO2 
 PCOD8110069
Probable space group: C 2/M
;
_chemical_formula_sum "Si O2"
_cell_formula_units_Z 64
_cell_length_a 15.321946
_cell_length_b 28.083093
_cell_length_c 12.408984
_cell_angle_alpha 90.000000
_cell_angle_beta 35.040775
_cell_angle_gamma 90.000000
_cell_volume 3065.684471
_symmetry_space_group_name_H-M "C 2/M"
_symmetry_group_IT_number 12
_symmetry_cell_setting 'monoclinic'
loop_
_space_group_symop_operation_xyz
x,y,z
-x,y,-z
-x,-y,-z
x,-y,z
1/2+x,1/2+y,z
1/2-x,1/2+y,-z
1/2-x,1/2-y,-z
1/2+x,1/2-y,z
loop_
_atom_site_type_symbol
_atom_site_label
_atom_site_fract_x
_atom_site_fract_y
_atom_site_fract_z
Si Si1 0.321165 0.374873 0.551525
Si Si2 0.166849 0.700947 0.346988
Si Si3 0.173506 0.404892 0.313623
Si Si4 0.826378 0.945860 0.366854
Si Si5 0.831582 0.869235 0.783926
Si Si6 0.318508 0.552837 0.964534
Si Si7 0.381276 0.782320 0.031618
Si Si8 0.144856 0.294273 0.614432
O O1 0.271283 0.420480 0.532246
O O2 0.308550 0.390362 0.688116
O O3 0.495249 0.358645 0.356420
O O4 0.210195 0.331174 0.636203
O O5 0.192929 0.650748 0.260059
O O6 0.158018 0.684625 0.481308
O O7 0.000000 0.724486 0.500000
O O8 0.298521 0.736141 0.169594
O O9 0.264964 0.416288 0.328892
O O10 0.000000 0.418542 0.500000
O O11 0.229984 0.438828 0.163113
O O12 0.006476 0.943125 0.181730
O O13 0.765893 0.000000 0.426858
O O14 0.762949 0.908981 0.932449
O O15 0.744567 0.819551 0.878135
O O16 0.281780 0.500000 0.957308
O O17 0.479135 0.774900 0.822279
O O18 0.500000 0.801907 0.000000
O O19 0.250000 0.250000 0.500000
#
# Coordination Sequence:
#
# PCOD8110069 Si02
#       8
#     8   8   8   8   8   8   8   8
#     4  10  21  41  64  95 127 168 211 268 320 384
#     4  11  27  45  63  97 134 170 222 270 322 391
#     4  11  24  42  63  92 131 168 212 265 324 382
#     4  10  21  40  67  95 126 168 215 264 323 383
#     4  10  23  40  66  92 128 169 215 263 323 384
#     4  10  23  42  65  95 127 167 216 268 320 382
#     4  12  25  41  66  95 126 174 216 260 324 388
#     4  12  24  43  65  91 132 173 214 273 323 385
#
# _framework density 20.876252000000001
#
# number of rings (size 3 to 8) (size 9 to 14) (size 15 to 20)
#    0.000    1.250    3.750    0.750    7.000    6.000 
#    0.000    2.500    0.000    0.375    0.000    0.000 
#    0.000    0.000    0.000    0.000    0.000    0.000 
#
# Total GULP energy -396604.403733 kJ/mol
# GULP energy per Si atom -12393.887617 kJ/mol
# Density = 2.082874 g / cm^3
# Si number density = 20.876252 Si / 1000 Ang^3
#
#
#
# Elastic Constant Matrix: (Units=GPa)
#
#
# Indices 1 2 3 4 5 6 
#
# 1 79.7047 39.2303 25.3310 0.0005 9.9226 -0.0007
# 2 39.2303 108.9914 47.3324 -0.0006 -1.6686 0.0009
# 3 25.3310 47.3324 102.7870 0.0015 13.7200 -0.0020
# 4 0.0005 -0.0006 0.0015 45.4598 -0.0011 -20.2698
# 5 9.9226 -1.6686 13.7200 -0.0011 23.5880 0.0014
# 6 -0.0007 0.0009 -0.0020 -20.2698 0.0014 70.5393
#
#
#
# Elastic Compliance Matrix: (Units=1/GPa)
#
#
# Indices 1 2 3 4 5 6 
#
# 1 0.016437 -0.005846 -0.000413 0.000000 -0.007088 0.000000
# 2 -0.005846 0.013946 -0.005900 0.000000 0.006877 0.000000
# 3 -0.000413 -0.005900 0.013639 0.000000 -0.008177 0.000000
# 4 0.000000 0.000000 0.000000 0.025230 0.000001 0.007250
# 5 -0.007088 0.006877 -0.008177 0.000001 0.050618 -0.000001
# 6 0.000000 0.000000 0.000000 0.007250 -0.000001 0.016260
#
#
# Mechanical properties :
#
#
# Convention : Reuss Voigt Hill
#
# Bulk Modulus (GPa) = 50.74539 57.25229 53.99884
# Shear Modulus (GPa) = 29.93739 39.89005 34.91372
#
# Velocity S-wave (km/s) = 3.79098 4.37600 4.09395
# Velocity P-wave (km/s) = 6.59716 7.28125 6.94763
#
# Compressibility (1/GPa) = 0.01970622
#
# Stress axis : x y z
#
# Youngs Moduli (GPa) = 60.83814 71.70300 73.32074
#
# Poissons Ratio (x) = 0.41914 0.03027
# Poissons Ratio (y) = 0.35563 0.43256
# Poissons Ratio (z) = 0.02512 0.42302
#
# Static dielectric constant tensor:
#      x y z
#    x 3.661950 0.000000 -0.020880 
#    y 0.000000 3.985440 -0.000010 
#    z -0.020880 -0.000010 3.301830 
# 
# 
# High freq. dielectric constant tensor:
#      x y z
#    x 1.823750 0.000000 0.004930 
#    y 0.000000 1.813340 0.000000 
#    z 0.004930 0.000000 1.821850 
# 
# From -- ./inp_files/149736.got.cif
#   From: 2010.06.25/outbox.cif.g09.slc.cpg/sg12_75_cif.got.tgz:149736.got - 2010.06.28 00:19:55.
