data_PCOD8110846
_publ_section_title
;
Structure prediction by ZEFSAII (Michael W. Deem and Ramdas Pophale) SiO2 
 PCOD8110846
Probable space group: C 2/M
;
_chemical_formula_sum "Si O2"
_cell_formula_units_Z 40
_cell_length_a 17.932409
_cell_length_b 14.863291
_cell_length_c 20.569343
_cell_angle_alpha 90.000000
_cell_angle_beta 158.410115
_cell_angle_gamma 90.000000
_cell_volume 2017.321531
_symmetry_space_group_name_H-M "C 2/M"
_symmetry_group_IT_number 12
_symmetry_cell_setting 'monoclinic'
loop_
_space_group_symop_operation_xyz
x,y,z
-x,y,-z
-x,-y,-z
x,-y,z
1/2+x,1/2+y,z
1/2-x,1/2+y,-z
1/2-x,1/2-y,-z
1/2+x,1/2-y,z
loop_
_atom_site_type_symbol
_atom_site_label
_atom_site_fract_x
_atom_site_fract_y
_atom_site_fract_z
Si Si1 0.505300 0.897729 0.929153
Si Si2 0.190124 0.100012 0.351262
Si Si3 0.237384 0.644797 0.001080
Si Si4 0.809102 0.398384 0.593550
Si Si5 0.818352 0.779751 0.400225
O O1 0.375897 0.822733 0.789410
O O2 0.424801 0.000000 0.855129
O O3 0.500000 0.872057 0.000000
O O4 0.716478 0.884700 0.060910
O O5 0.272016 0.125631 0.488750
O O6 0.289792 0.172670 0.383820
O O7 0.947121 0.101410 0.148030
O O8 0.263858 0.000000 0.391060
O O9 0.250000 0.750000 0.000000
O O10 0.047629 0.608986 0.804882
O O11 0.737501 0.500000 0.550447
O O12 0.663878 0.329934 0.515872
O O13 0.000000 0.802274 0.500000
#
# Coordination Sequence:
#
# PCOD8110846 Si02
#       5
#     8   8   8   8   8
#     4  10  22  38  58  88 120 151 188 236 298 355
#     4  11  23  40  63  86 115 159 200 240 289 343
#     4  11  20  37  64  87 120 154 192 245 289 346
#     4  10  22  39  61  90 118 148 195 245 294 352
#     4  11  23  38  58  84 120 153 191 242 290 347
#
# _framework density 19.828272999999999
#
# number of rings (size 3 to 8) (size 9 to 14) (size 15 to 20)
#    0.000    1.400    4.000    4.200    2.800    2.000 
#    0.000    0.000    0.000    0.600    0.000    0.000 
#    0.000    0.000    0.000    0.000    0.000    0.000 
#
# Total GULP energy -247838.088195 kJ/mol
# GULP energy per Si atom -12391.904410 kJ/mol
# Density = 1.978314 g / cm^3
# Si number density = 19.828273 Si / 1000 Ang^3
#
#
#
# Elastic Constant Matrix: (Units=GPa)
#
#
# Indices 1 2 3 4 5 6 
#
# 1 51.5311 32.0799 11.3974 0.0112 -7.5236 -0.0108
# 2 32.0799 144.0313 3.0846 -0.0007 -12.4457 -0.0221
# 3 11.3974 3.0846 48.9746 0.0474 -2.5866 -0.0334
# 4 0.0112 -0.0007 0.0474 25.9680 0.0009 -3.3167
# 5 -7.5236 -12.4457 -2.5866 0.0009 27.1556 0.0090
# 6 -0.0108 -0.0221 -0.0334 -3.3167 0.0090 29.2480
#
#
#
# Elastic Compliance Matrix: (Units=1/GPa)
#
#
# Indices 1 2 3 4 5 6 
#
# 1 0.024185 -0.004936 -0.005109 -0.000002 0.003952 -0.000002
# 2 -0.004936 0.008240 0.000761 0.000001 0.002482 0.000005
# 3 -0.005109 0.000761 0.021612 -0.000035 0.000992 0.000019
# 4 -0.000002 0.000001 -0.000035 0.039075 -0.000006 0.004431
# 5 0.003952 0.002482 0.000992 -0.000006 0.039151 -0.000008
# 6 -0.000002 0.000005 0.000019 0.004431 -0.000008 0.034693
#
#
# Mechanical properties :
#
#
# Convention : Reuss Voigt Hill
#
# Bulk Modulus (GPa) = 28.19277 37.51785 32.85531
# Shear Modulus (GPa) = 25.33586 29.67267 27.50427
#
# Velocity S-wave (km/s) = 3.57846 3.87264 3.72845
# Velocity P-wave (km/s) = 5.59671 6.24171 5.92799
#
# Compressibility (1/GPa) = 0.03547009
#
# Stress axis : x y z
#
# Youngs Moduli (GPa) = 41.34720 121.35267 46.27017
#
# Poissons Ratio (x) = 0.59898 0.23639
# Poissons Ratio (y) = 0.20409 -0.03520
# Poissons Ratio (z) = 0.21124 -0.09232
#
# Static dielectric constant tensor:
#      x y z
#    x 4.600950 0.000040 0.395710 
#    y 0.000040 3.914650 -0.000080 
#    z 0.395710 -0.000080 3.904680 
# 
# 
# High freq. dielectric constant tensor:
#      x y z
#    x 1.760680 0.000000 -0.004110 
#    y 0.000000 1.793590 -0.000010 
#    z -0.004110 -0.000010 1.759090 
# 
# From -- ./inp_files/72355.got.cif
#   From: 2010.06.25/outbox.cif.g09.slc.cpg/sg12_37_cif.got.tgz:72355.got - 2010.06.28 00:19:55.
