data_PCOD8110249
_publ_section_title
;
Structure prediction by ZEFSAII (Michael W. Deem and Ramdas Pophale) SiO2 
 PCOD8110249
Probable space group: C 2/M
;
_chemical_formula_sum "Si O2"
_cell_formula_units_Z 60
_cell_length_a 19.521642
_cell_length_b 19.778721
_cell_length_c 9.635801
_cell_angle_alpha 90.000000
_cell_angle_beta 130.469988
_cell_angle_gamma 90.000000
_cell_volume 2830.362590
_symmetry_space_group_name_H-M "C 2/M"
_symmetry_group_IT_number 12
_symmetry_cell_setting 'monoclinic'
loop_
_space_group_symop_operation_xyz
x,y,z
-x,y,-z
-x,-y,-z
x,-y,z
1/2+x,1/2+y,z
1/2-x,1/2+y,-z
1/2-x,1/2-y,-z
1/2+x,1/2-y,z
loop_
_atom_site_type_symbol
_atom_site_label
_atom_site_fract_x
_atom_site_fract_y
_atom_site_fract_z
Si Si1 0.500000 0.821758 0.500000
Si Si2 0.416426 0.333092 0.048512
Si Si3 0.083564 0.769078 0.378020
Si Si4 0.780262 0.126739 0.364672
Si Si5 0.896469 0.698951 0.868360
Si Si6 0.187008 0.922384 0.285937
Si Si7 0.659230 0.924433 0.723489
Si Si8 0.681867 0.425852 0.872934
O O1 0.479187 0.775268 0.604492
O O2 0.582915 0.869526 0.645224
O O3 0.522604 0.326597 0.221482
O O4 0.372055 0.364372 0.127951
O O5 0.382947 0.257177 0.966960
O O6 0.396073 0.380020 0.888112
O O7 0.165024 0.802820 0.569501
O O8 0.129449 0.724524 0.319175
O O9 0.674309 0.139248 0.195203
O O10 0.797494 0.090060 0.532287
O O11 0.818914 0.080229 0.293724
O O12 0.000000 0.672312 0.000000
O O13 0.278148 0.902494 0.323843
O O14 0.163278 0.000000 0.227826
O O15 0.619501 0.000000 0.645632
O O16 0.716105 0.923454 0.939410
O O17 0.639938 0.500000 0.854895
#
# Coordination Sequence:
#
# PCOD8110249 Si02
#       8
#     4   8   8   8   8   8   8   8
#     4  12  23  36  62  92 129 160 204 254 318 356
#     4  10  21  42  62  85 126 160 206 255 297 365
#     4  11  24  38  57  99 126 157 205 259 303 372
#     4  12  23  39  64  92 128 162 199 257 315 359
#     4  10  23  39  62  89 123 158 203 250 304 371
#     4  10  21  41  66  88 119 165 214 253 297 360
#     4   9  21  40  62  87 118 164 214 254 294 368
#     4  10  23  41  62  89 124 161 206 255 306 363
#
# _framework density 21.198696999999999
#
# number of rings (size 3 to 8) (size 9 to 14) (size 15 to 20)
#    0.000    1.600    1.333    3.800    7.467    0.533 
#    0.000    4.000    0.000    0.800    0.000    0.000 
#    0.000    0.000    0.000    0.000    0.000    0.000 
#
# Total GULP energy -371909.054997 kJ/mol
# GULP energy per Si atom -12396.968500 kJ/mol
# Density = 2.115045 g / cm^3
# Si number density = 21.198697 Si / 1000 Ang^3
#
#
#
# Elastic Constant Matrix: (Units=GPa)
#
#
# Indices 1 2 3 4 5 6 
#
# 1 80.2505 28.2442 26.6349 0.0000 -14.5580 0.0000
# 2 28.2442 50.2332 7.5499 0.0000 3.6216 0.0000
# 3 26.6349 7.5499 78.6006 0.0000 -16.1364 0.0000
# 4 0.0000 0.0000 0.0000 23.9787 0.0000 0.6212
# 5 -14.5580 3.6216 -16.1364 0.0000 42.0728 0.0000
# 6 0.0000 0.0000 0.0000 0.6212 0.0000 30.9797
#
#
#
# Elastic Compliance Matrix: (Units=1/GPa)
#
#
# Indices 1 2 3 4 5 6 
#
# 1 0.018426 -0.010153 -0.004103 0.000000 0.005676 0.000000
# 2 -0.010153 0.026078 -0.000268 0.000000 -0.005860 0.000000
# 3 -0.004103 -0.000268 0.015036 0.000000 0.004370 0.000000
# 4 0.000000 0.000000 0.000000 0.041725 0.000000 -0.000837
# 5 0.005676 -0.005860 0.004370 0.000000 0.027913 0.000000
# 6 0.000000 0.000000 0.000000 -0.000837 0.000000 0.032296
#
#
# Mechanical properties :
#
#
# Convention : Reuss Voigt Hill
#
# Bulk Modulus (GPa) = 32.79485 37.10467 34.94976
# Shear Modulus (GPa) = 24.91461 29.18326 27.04894
#
# Velocity S-wave (km/s) = 3.43197 3.71435 3.57595
# Velocity P-wave (km/s) = 5.58644 5.99471 5.79417
#
# Compressibility (1/GPa) = 0.03049259
#
# Stress axis : x y z
#
# Youngs Moduli (GPa) = 54.27209 38.34609 66.50749
#
# Poissons Ratio (x) = 0.38931 0.27291
# Poissons Ratio (y) = 0.55100 0.01781
# Poissons Ratio (z) = 0.22270 0.01027
#
# Static dielectric constant tensor:
#      x y z
#    x 3.756050 0.000000 -0.081600 
#    y 0.000000 3.727090 0.000000 
#    z -0.081600 0.000000 3.851190 
# 
# 
# High freq. dielectric constant tensor:
#      x y z
#    x 1.826280 0.000000 -0.009670 
#    y 0.000000 1.820730 0.000000 
#    z -0.009670 0.000000 1.837490 
# 
# From -- ./inp_files/89868.got.cif
#   From: 2010.06.25/outbox.cif.g09.slc.cpg/sg12_45_cif.got.tgz:89868.got - 2010.06.28 00:19:55.
