data_PCOD8110494
_publ_section_title
;
Structure prediction by ZEFSAII (Michael W. Deem and Ramdas Pophale) SiO2 
 PCOD8110494
Probable space group: C 2/M
;
_chemical_formula_sum "Si O2"
_cell_formula_units_Z 40
_cell_length_a 8.884670
_cell_length_b 18.843016
_cell_length_c 10.247830
_cell_angle_alpha 90.000000
_cell_angle_beta 97.848734
_cell_angle_gamma 90.000000
_cell_volume 1699.558054
_symmetry_space_group_name_H-M "C 2/M"
_symmetry_group_IT_number 12
_symmetry_cell_setting 'monoclinic'
loop_
_space_group_symop_operation_xyz
x,y,z
-x,y,-z
-x,-y,-z
x,-y,z
1/2+x,1/2+y,z
1/2-x,1/2+y,-z
1/2-x,1/2-y,-z
1/2+x,1/2-y,z
loop_
_atom_site_type_symbol
_atom_site_label
_atom_site_fract_x
_atom_site_fract_y
_atom_site_fract_z
Si Si1 0.333149 0.079595 0.036686
Si Si2 0.836593 0.324826 0.289694
Si Si3 0.330334 0.418947 0.237310
Si Si4 0.684940 0.203189 0.371111
Si Si5 0.880845 0.079749 0.594868
O O1 0.222064 0.108826 0.910292
O O2 0.286533 0.000000 0.074957
O O3 0.500000 0.079930 0.000000
O O4 0.327432 0.130090 0.159052
O O5 0.737396 0.253439 0.255663
O O6 0.766068 0.370134 0.404134
O O7 0.004540 0.303743 0.354726
O O8 0.272564 0.500000 0.251012
O O9 0.257637 0.374391 0.350541
O O10 0.514513 0.416145 0.261438
O O11 0.750000 0.250000 0.500000
O O12 0.000000 0.106496 0.500000
O O13 0.825278 0.000000 0.558151
#
# Coordination Sequence:
#
# PCOD8110494 Si02
#       5
#     8   8   8   8   8
#     4  10  21  43  75 110 146 187 242 298 359 437
#     4  12  25  44  70 101 144 192 240 299 364 426
#     4  10  22  44  73 105 145 191 238 297 361 429
#     4  12  26  44  69 104 142 191 246 298 360 433
#     4  10  22  42  70 105 144 187 238 296 360 433
#
# _framework density 23.535530000000001
#
# number of rings (size 3 to 8) (size 9 to 14) (size 15 to 20)
#    0.000    1.200    2.000    3.600    0.000    2.400 
#    0.000    4.000    0.000    7.200    0.000    0.000 
#    0.000    0.000    0.000    0.000    0.000    0.000 
#
# Total GULP energy -247865.046275 kJ/mol
# GULP energy per Si atom -12393.252314 kJ/mol
# Density = 2.348196 g / cm^3
# Si number density = 23.535530 Si / 1000 Ang^3
#
#
#
# Elastic Constant Matrix: (Units=GPa)
#
#
# Indices 1 2 3 4 5 6 
#
# 1 165.1038 72.4776 45.1167 0.0000 9.8573 0.0000
# 2 72.4776 141.3205 64.3097 0.0000 -11.1593 0.0000
# 3 45.1167 64.3097 105.1600 0.0000 5.6222 0.0000
# 4 0.0000 0.0000 0.0000 54.0283 0.0000 9.8155
# 5 9.8573 -11.1593 5.6222 0.0000 36.4931 0.0000
# 6 0.0000 0.0000 0.0000 9.8155 0.0000 93.4555
#
#
#
# Elastic Compliance Matrix: (Units=1/GPa)
#
#
# Indices 1 2 3 4 5 6 
#
# 1 0.008309 -0.004140 -0.000852 0.000000 -0.003379 0.000000
# 2 -0.004140 0.012468 -0.006163 0.000000 0.005881 0.000000
# 3 -0.000852 -0.006163 0.013846 0.000000 -0.003788 0.000000
# 4 0.000000 0.000000 0.000000 0.018869 0.000000 -0.001982
# 5 -0.003379 0.005881 -0.003788 0.000000 0.030697 0.000000
# 6 0.000000 0.000000 0.000000 -0.001982 0.000000 0.010908
#
#
# Mechanical properties :
#
#
# Convention : Reuss Voigt Hill
#
# Bulk Modulus (GPa) = 81.21684 86.15468 83.68576
# Shear Modulus (GPa) = 41.14772 52.10740 46.62756
#
# Velocity S-wave (km/s) = 4.18583 4.71041 4.45585
# Velocity P-wave (km/s) = 7.61214 8.14062 7.88081
#
# Compressibility (1/GPa) = 0.01231272
#
# Stress axis : x y z
#
# Youngs Moduli (GPa) = 120.35221 80.20216 72.22115
#
# Poissons Ratio (x) = 0.33207 0.06154
# Poissons Ratio (y) = 0.49831 0.44510
# Poissons Ratio (z) = 0.10255 0.49429
#
# Static dielectric constant tensor:
#      x y z
#    x 4.904820 0.000000 -0.472230 
#    y 0.000000 4.732520 0.000000 
#    z -0.472230 0.000000 5.138940 
# 
# 
# High freq. dielectric constant tensor:
#      x y z
#    x 1.929350 0.000000 0.008860 
#    y 0.000000 1.946900 0.000000 
#    z 0.008860 0.000000 1.935970 
# 
# From -- ./inp_files/120325.got.cif
#   From: 2010.06.25/outbox.cif.g09.slc.cpg/sg12_61_cif.got.tgz:120325.got - 2010.06.28 00:19:55.
