data_PCOD8110952
_publ_section_title
;
Structure prediction by ZEFSAII (Michael W. Deem and Ramdas Pophale) SiO2 
 PCOD8110952
Probable space group: C 2/M
;
_chemical_formula_sum "Si O2"
_cell_formula_units_Z 48
_cell_length_a 11.360288
_cell_length_b 19.031172
_cell_length_c 25.340365
_cell_angle_alpha 90.000000
_cell_angle_beta 156.511250
_cell_angle_gamma 90.000000
_cell_volume 2183.590799
_symmetry_space_group_name_H-M "C 2/M"
_symmetry_group_IT_number 12
_symmetry_cell_setting 'monoclinic'
loop_
_space_group_symop_operation_xyz
x,y,z
-x,y,-z
-x,-y,-z
x,-y,z
1/2+x,1/2+y,z
1/2-x,1/2+y,-z
1/2-x,1/2-y,-z
1/2+x,1/2-y,z
loop_
_atom_site_type_symbol
_atom_site_label
_atom_site_fract_x
_atom_site_fract_y
_atom_site_fract_z
Si Si1 0.283193 0.149092 0.648355
Si Si2 0.045509 0.575982 0.457288
Si Si3 0.634805 0.301978 0.159503
Si Si4 0.730666 0.419923 0.735999
Si Si5 0.471483 0.161592 0.048833
Si Si6 0.078884 0.273632 0.623269
O O1 0.587975 0.147274 0.740669
O O2 0.362695 0.111640 0.736151
O O3 0.202179 0.231327 0.623959
O O4 0.000000 0.115398 0.500000
O O5 0.939194 0.500000 0.389817
O O6 0.385218 0.587645 0.584457
O O7 0.000000 0.573925 0.500000
O O8 0.871789 0.642610 0.362857
O O9 0.550663 0.245137 0.080089
O O10 0.723805 0.252711 0.245579
O O11 0.356390 0.349851 0.061737
O O12 0.835898 0.500000 0.784454
O O13 0.813375 0.382053 0.824671
O O14 0.500000 0.134410 0.000000
O O15 0.750000 0.250000 0.500000
#
# Coordination Sequence:
#
# PCOD8110952 Si02
#       6
#     8   8   8   8   8   8
#     4  12  23  39  69 103 134 169 216 275 335 399
#     4  10  22  38  62  95 132 170 211 269 335 393
#     4  11  24  40  65 100 132 167 223 280 325 392
#     4  11  25  46  65  93 138 178 221 272 333 394
#     4  11  25  44  65  94 129 177 225 277 327 379
#     4  12  20  37  64 100 133 168 216 266 330 395
#
# _framework density 21.982143000000001
#
# number of rings (size 3 to 8) (size 9 to 14) (size 15 to 20)
#    0.000    0.833    5.000    1.500    7.000    0.667 
#    0.000    3.333    0.000    0.000    0.000    0.000 
#    0.000    0.000    0.000    0.000    0.000    0.000 
#
# Total GULP energy -297450.269322 kJ/mol
# GULP energy per Si atom -12393.761222 kJ/mol
# Density = 2.193211 g / cm^3
# Si number density = 21.982143 Si / 1000 Ang^3
#
#
#
# Elastic Constant Matrix: (Units=GPa)
#
#
# Indices 1 2 3 4 5 6 
#
# 1 103.0327 29.3091 22.8857 -0.0021 -6.7913 0.0018
# 2 29.3091 111.7803 16.5950 -0.0041 -6.8440 0.0029
# 3 22.8857 16.5950 52.0098 0.0131 -1.0602 0.0199
# 4 -0.0021 -0.0041 0.0131 22.7491 0.0103 -7.2246
# 5 -6.7913 -6.8440 -1.0602 0.0103 48.7049 -0.0002
# 6 0.0018 0.0029 0.0199 -7.2246 -0.0002 29.9320
#
#
#
# Elastic Compliance Matrix: (Units=1/GPa)
#
#
# Indices 1 2 3 4 5 6 
#
# 1 0.011376 -0.002279 -0.004255 0.000004 0.001173 0.000003
# 2 -0.002279 0.009925 -0.002143 0.000003 0.001030 0.000001
# 3 -0.004255 -0.002143 0.021774 -0.000019 -0.000420 -0.000019
# 4 0.000004 0.000003 -0.000019 0.047607 -0.000010 0.011491
# 5 0.001173 0.001030 -0.000420 -0.000010 0.020831 -0.000002
# 6 0.000003 0.000001 -0.000019 0.011491 -0.000002 0.036183
#
#
# Mechanical properties :
#
#
# Convention : Reuss Voigt Hill
#
# Bulk Modulus (GPa) = 38.87715 44.93359 41.90537
# Shear Modulus (GPa) = 28.79779 33.47941 31.13860
#
# Velocity S-wave (km/s) = 3.62339 3.90683 3.76778
# Velocity P-wave (km/s) = 5.93544 6.39034 6.16709
#
# Compressibility (1/GPa) = 0.02572205
#
# Stress axis : x y z
#
# Youngs Moduli (GPa) = 87.90069 100.75577 45.92529
#
# Poissons Ratio (x) = 0.22967 0.19540
# Poissons Ratio (y) = 0.20036 0.09841
# Poissons Ratio (z) = 0.37399 0.21590
#
# Static dielectric constant tensor:
#      x y z
#    x 4.056640 -0.000230 -0.066160 
#    y -0.000230 4.490110 -0.000030 
#    z -0.066160 -0.000030 3.998300 
# 
# 
# High freq. dielectric constant tensor:
#      x y z
#    x 1.875870 0.000000 -0.001330 
#    y 0.000000 1.840600 -0.000010 
#    z -0.001330 -0.000010 1.857710 
# 
# From -- ./inp_files/359070.got.cif
#   From: 2010.06.25/outbox.cif.g09.slc.cpg/sg12_180_cif.got.tgz:359070.got - 2010.06.28 00:19:55.
