data_PCOD8110608
_publ_section_title
;
Structure prediction by ZEFSAII (Michael W. Deem and Ramdas Pophale) SiO2 
 PCOD8110608
Probable space group: C 2/M
;
_chemical_formula_sum "Si O2"
_cell_formula_units_Z 52
_cell_length_a 15.955540
_cell_length_b 28.380080
_cell_length_c 11.279534
_cell_angle_alpha 90.000000
_cell_angle_beta 32.007165
_cell_angle_gamma 90.000000
_cell_volume 2707.153549
_symmetry_space_group_name_H-M "C 2/M"
_symmetry_group_IT_number 12
_symmetry_cell_setting 'monoclinic'
loop_
_space_group_symop_operation_xyz
x,y,z
-x,y,-z
-x,-y,-z
x,-y,z
1/2+x,1/2+y,z
1/2-x,1/2+y,-z
1/2-x,1/2-y,-z
1/2+x,1/2-y,z
loop_
_atom_site_type_symbol
_atom_site_label
_atom_site_fract_x
_atom_site_fract_y
_atom_site_fract_z
Si Si1 0.500000 0.295923 0.000000
Si Si2 0.472328 0.717159 0.667951
Si Si3 0.559637 0.447489 0.613358
Si Si4 0.005424 0.624659 0.863940
Si Si5 0.377231 0.222326 0.973010
Si Si6 0.641370 0.643528 0.622563
Si Si7 0.258650 0.947540 0.146698
O O1 0.626063 0.263432 0.921547
O O2 0.401410 0.329212 0.206347
O O3 0.500000 0.731668 0.500000
O O4 0.503612 0.760751 0.720599
O O5 0.579140 0.672871 0.581428
O O6 0.284627 0.708379 0.900233
O O7 0.597205 0.500000 0.618099
O O8 0.562330 0.408279 0.713816
O O9 0.691560 0.432971 0.357084
O O10 0.386158 0.447246 0.768803
O O11 0.172553 0.632757 0.601739
O O12 0.930326 0.675549 0.972773
O O13 0.000000 0.600997 0.000000
O O14 0.889743 0.588263 0.934239
O O15 0.332128 0.000000 0.064474
#
# Coordination Sequence:
#
# PCOD8110608 Si02
#       7
#     4   8   8   8   8   8   8
#     4  10  24  40  55  78 117 152 196 226 278 328
#     4  10  22  36  56  76 106 150 188 232 268 330
#     4   9  18  35  58  82 109 146 183 224 279 338
#     4  12  21  32  55  86 114 143 180 232 288 333
#     4  10  22  38  54  79 108 147 193 231 274 322
#     4  11  23  36  58  82 115 151 184 233 275 336
#     4   9  19  34  55  85 117 140 175 231 287 337
#
# _framework density 19.208366999999999
#
# number of rings (size 3 to 8) (size 9 to 14) (size 15 to 20)
#    0.000    1.846    2.308    2.769    4.308    2.154 
#    0.000    0.385    0.000    0.000    0.000    2.154 
#    0.000    0.000    0.000    0.000    0.000    0.000 
#
# Total GULP energy -322091.187955 kJ/mol
# GULP energy per Si atom -12388.122614 kJ/mol
# Density = 1.916465 g / cm^3
# Si number density = 19.208367 Si / 1000 Ang^3
#
#
#
# Elastic Constant Matrix: (Units=GPa)
#
#
# Indices 1 2 3 4 5 6 
#
# 1 62.4031 43.3095 36.2124 0.0002 2.0066 0.0000
# 2 43.3095 135.6859 53.4020 0.0000 -8.0235 0.0000
# 3 36.2124 53.4020 93.0404 0.0002 -9.4310 0.0000
# 4 0.0002 0.0000 0.0002 15.4377 -0.0001 -5.1824
# 5 2.0066 -8.0235 -9.4310 -0.0001 32.0973 0.0000
# 6 0.0000 0.0000 0.0000 -5.1824 0.0000 25.8437
#
#
#
# Elastic Compliance Matrix: (Units=1/GPa)
#
#
# Indices 1 2 3 4 5 6 
#
# 1 0.023682 -0.005197 -0.006716 0.000000 -0.004753 0.000000
# 2 -0.005197 0.010681 -0.003921 0.000000 0.001843 0.000000
# 3 -0.006716 -0.003921 0.016033 0.000000 0.004151 0.000000
# 4 0.000000 0.000000 0.000000 0.069452 0.000000 0.013927
# 5 -0.004753 0.001843 0.004151 0.000000 0.033133 0.000000
# 6 0.000000 0.000000 0.000000 0.013927 0.000000 0.041487
#
#
# Mechanical properties :
#
#
# Convention : Reuss Voigt Hill
#
# Bulk Modulus (GPa) = 53.39612 61.88637 57.64124
# Shear Modulus (GPa) = 21.51668 25.22279 23.36974
#
# Velocity S-wave (km/s) = 3.35053 3.62762 3.49183
# Velocity P-wave (km/s) = 6.54422 7.05936 6.80666
#
# Compressibility (1/GPa) = 0.01872795
#
# Stress axis : x y z
#
# Youngs Moduli (GPa) = 42.22658 93.62530 62.37004
#
# Poissons Ratio (x) = 0.48654 0.41889
# Poissons Ratio (y) = 0.21944 0.24456
# Poissons Ratio (z) = 0.28360 0.36711
#
# Static dielectric constant tensor:
#      x y z
#    x 3.539780 0.000000 -0.151660 
#    y 0.000000 3.795290 0.000000 
#    z -0.151660 0.000000 3.358870 
# 
# 
# High freq. dielectric constant tensor:
#      x y z
#    x 1.737000 0.000000 -0.024240 
#    y 0.000000 1.757320 0.000000 
#    z -0.024240 0.000000 1.719880 
# 
# From -- ./inp_files/160795.got.cif
#   From: 2010.06.25/outbox.cif.g09.slc.cpg/sg12_81_cif.got.tgz:160795.got - 2010.06.28 00:19:55.
