data_PCOD8110368
_publ_section_title
;
Structure prediction by ZEFSAII (Michael W. Deem and Ramdas Pophale) SiO2 
 PCOD8110368
Probable space group: C 2/M
;
_chemical_formula_sum "Si O2"
_cell_formula_units_Z 52
_cell_length_a 12.727266
_cell_length_b 31.760188
_cell_length_c 8.593713
_cell_angle_alpha 90.000000
_cell_angle_beta 132.280990
_cell_angle_gamma 90.000000
_cell_volume 2570.071842
_symmetry_space_group_name_H-M "C 2/M"
_symmetry_group_IT_number 12
_symmetry_cell_setting 'monoclinic'
loop_
_space_group_symop_operation_xyz
x,y,z
-x,y,-z
-x,-y,-z
x,-y,z
1/2+x,1/2+y,z
1/2-x,1/2+y,-z
1/2-x,1/2-y,-z
1/2+x,1/2-y,z
loop_
_atom_site_type_symbol
_atom_site_label
_atom_site_fract_x
_atom_site_fract_y
_atom_site_fract_z
Si Si1 0.949267 0.602803 0.282704
Si Si2 0.279740 0.091516 0.643405
Si Si3 0.044222 0.304557 0.795272
Si Si4 0.000000 0.237739 0.500000
Si Si5 0.769069 0.952874 0.094703
Si Si6 0.057926 0.047931 0.224340
Si Si7 0.273034 0.185525 0.720508
O O1 0.922920 0.652694 0.265426
O O2 0.000000 0.586062 0.500000
O O3 0.058803 0.592662 0.253525
O O4 0.805125 0.579044 0.097887
O O5 0.263945 0.056134 0.758509
O O6 0.238001 0.135958 0.679210
O O7 0.182007 0.079774 0.398678
O O8 0.069208 0.265869 0.704497
O O9 0.880491 0.303139 0.688215
O O10 0.154747 0.301338 0.045993
O O11 0.124729 0.209481 0.551153
O O12 0.936776 0.949151 0.234332
O O13 0.715773 0.000000 0.004220
O O14 0.115929 0.000000 0.268561
O O15 0.000000 0.063206 0.000000
#
# Coordination Sequence:
#
# PCOD8110368 Si02
#       7
#     8   8   8   4   8   8   8
#     4  11  22  39  61  86 118 163 200 246 299 354
#     4  11  22  38  61  88 122 157 202 248 296 357
#     4  10  21  42  60  85 124 155 192 245 305 353
#     4  12  22  38  66  90 114 158 198 248 296 364
#     4  11  23  38  62  90 119 158 204 245 293 356
#     4  10  22  40  60  87 125 162 195 247 303 349
#     4  10  23  38  62  91 118 156 198 244 296 357
#
# _framework density 20.232899
#
# number of rings (size 3 to 8) (size 9 to 14) (size 15 to 20)
#    0.000    1.385    2.308    3.231    2.154    3.385 
#    0.000    0.000    3.385    0.000    0.000    0.000 
#    0.000    0.000    0.000    0.000    0.000    0.000 
#
# Total GULP energy -322544.776033 kJ/mol
# GULP energy per Si atom -12405.568309 kJ/mol
# Density = 2.018685 g / cm^3
# Si number density = 20.232899 Si / 1000 Ang^3
#
#
#
# Elastic Constant Matrix: (Units=GPa)
#
#
# Indices 1 2 3 4 5 6 
#
# 1 44.3568 28.6735 -3.8064 0.0000 -1.5627 0.0000
# 2 28.6735 94.8240 27.1108 0.0000 12.8952 0.0000
# 3 -3.8064 27.1108 76.8347 0.0000 -2.3909 0.0000
# 4 0.0000 0.0000 0.0000 32.9082 0.0000 -5.3636
# 5 -1.5627 12.8952 -2.3909 0.0000 34.1598 0.0000
# 6 0.0000 0.0000 0.0000 -5.3636 0.0000 23.8925
#
#
#
# Elastic Compliance Matrix: (Units=1/GPa)
#
#
# Indices 1 2 3 4 5 6 
#
# 1 0.030991 -0.011932 0.005943 0.000000 0.006338 0.000000
# 2 -0.011932 0.017138 -0.006871 0.000000 -0.007496 0.000000
# 3 0.005943 -0.006871 0.015858 0.000000 0.003976 0.000000
# 4 0.000000 0.000000 0.000000 0.031542 0.000000 0.007081
# 5 0.006338 -0.007496 0.003976 0.000000 0.032672 0.000000
# 6 0.000000 0.000000 0.000000 0.007081 0.000000 0.043444
#
#
# Mechanical properties :
#
#
# Convention : Reuss Voigt Hill
#
# Bulk Modulus (GPa) = 26.13366 35.55236 30.84301
# Shear Modulus (GPa) = 23.79579 29.12795 26.46187
#
# Velocity S-wave (km/s) = 3.43314 3.79837 3.62036
# Velocity P-wave (km/s) = 5.35348 6.07013 5.72303
#
# Compressibility (1/GPa) = 0.03826483
#
# Stress axis : x y z
#
# Youngs Moduli (GPa) = 32.26736 58.34972 63.06103
#
# Poissons Ratio (x) = 0.69624 -0.37476
# Poissons Ratio (y) = 0.38502 0.43332
# Poissons Ratio (z) = -0.19176 0.40095
#
# Static dielectric constant tensor:
#      x y z
#    x 3.596280 0.000000 -0.040950 
#    y 0.000000 3.638580 0.000000 
#    z -0.040950 0.000000 3.547450 
# 
# 
# High freq. dielectric constant tensor:
#      x y z
#    x 1.790230 0.000000 -0.006530 
#    y 0.000000 1.788300 0.000000 
#    z -0.006530 0.000000 1.791870 
# 
# From -- ./inp_files/68664.got.cif
#   From: 2010.06.25/outbox.cif.g09.slc.cpg/sg12_35_cif.got.tgz:68664.got - 2010.06.28 00:19:55.
