data_PCOD8110125
_publ_section_title
;
Structure prediction by ZEFSAII (Michael W. Deem and Ramdas Pophale) SiO2 
 PCOD8110125
Probable space group: C 2/M
;
_chemical_formula_sum "Si O2"
_cell_formula_units_Z 56
_cell_length_a 11.575099
_cell_length_b 25.243869
_cell_length_c 9.303474
_cell_angle_alpha 90.000000
_cell_angle_beta 73.438105
_cell_angle_gamma 90.000000
_cell_volume 2605.694513
_symmetry_space_group_name_H-M "C 2/M"
_symmetry_group_IT_number 12
_symmetry_cell_setting 'monoclinic'
loop_
_space_group_symop_operation_xyz
x,y,z
-x,y,-z
-x,-y,-z
x,-y,z
1/2+x,1/2+y,z
1/2-x,1/2+y,-z
1/2-x,1/2-y,-z
1/2+x,1/2-y,z
loop_
_atom_site_type_symbol
_atom_site_label
_atom_site_fract_x
_atom_site_fract_y
_atom_site_fract_z
Si Si1 0.610563 0.393773 0.550919
Si Si2 0.699780 0.220414 0.155428
Si Si3 0.252771 0.560937 0.988620
Si Si4 0.361221 0.725343 0.551506
Si Si5 0.818916 0.439088 0.309138
Si Si6 0.535779 0.872643 0.149469
Si Si7 0.893860 0.865040 0.125056
O O1 0.500000 0.418803 0.500000
O O2 0.635737 0.335620 0.484775
O O3 0.728127 0.429121 0.473948
O O4 0.578479 0.392608 0.731351
O O5 0.677443 0.268554 0.270296
O O6 0.577113 0.186112 0.182365
O O7 0.794342 0.179232 0.188746
O O8 0.750000 0.250000 0.000000
O O9 0.260522 0.500000 0.022464
O O10 0.141023 0.584244 0.117524
O O11 0.366986 0.589665 0.016455
O O12 0.246237 0.571479 0.820360
O O13 0.500000 0.749224 0.500000
O O14 0.250000 0.750000 0.500000
O O15 0.865391 0.500000 0.299161
O O16 0.928745 0.397105 0.284905
O O17 0.500000 0.865371 0.000000
O O18 0.000000 0.834982 0.000000
#
# Coordination Sequence:
#
# PCOD8110125 Si02
#       7
#     8   8   8   8   8   8   8
#     4  11  25  43  65  92 133 175 223 283 340 413
#     4  11  26  39  65  96 129 174 228 277 334 412
#     4   9  19  38  63  93 127 166 213 267 333 404
#     4  11  26  45  67  97 136 185 225 282 348 410
#     4  10  21  40  70  98 130 172 222 278 348 412
#     4   9  20  37  63  98 132 169 212 280 333 406
#     4  11  24  42  62  90 127 169 220 275 334 400
#
# _framework density 21.491391
#
# number of rings (size 3 to 8) (size 9 to 14) (size 15 to 20)
#    0.000    1.714    1.429    1.286   12.000    3.429 
#    0.000    2.143    0.000    4.286    0.000    0.000 
#    0.000    0.000    0.000    0.000    0.000    0.000 
#
# Total GULP energy -346912.773040 kJ/mol
# GULP energy per Si atom -12389.741894 kJ/mol
# Density = 2.144248 g / cm^3
# Si number density = 21.491391 Si / 1000 Ang^3
#
#
#
# Elastic Constant Matrix: (Units=GPa)
#
#
# Indices 1 2 3 4 5 6 
#
# 1 92.3443 23.1037 25.6860 0.0000 -9.8757 0.0000
# 2 23.1037 84.4931 27.7289 0.0000 1.0269 0.0000
# 3 25.6860 27.7289 129.8583 0.0000 -13.8956 0.0000
# 4 0.0000 0.0000 0.0000 30.0330 0.0000 -1.7610
# 5 -9.8757 1.0269 -13.8956 0.0000 26.0860 0.0000
# 6 0.0000 0.0000 0.0000 -1.7610 0.0000 22.1070
#
#
#
# Elastic Compliance Matrix: (Units=1/GPa)
#
#
# Indices 1 2 3 4 5 6 
#
# 1 0.012396 -0.002987 -0.001378 0.000000 0.004076 0.000000
# 2 -0.002987 0.013553 -0.002631 0.000000 -0.003066 0.000000
# 3 -0.001378 -0.002631 0.009004 0.000000 0.004378 0.000000
# 4 0.000000 0.000000 0.000000 0.033453 0.000000 0.002665
# 5 0.004076 -0.003066 0.004378 0.000000 0.042331 0.000000
# 6 0.000000 0.000000 0.000000 0.002665 0.000000 0.045447
#
#
# Mechanical properties :
#
#
# Convention : Reuss Voigt Hill
#
# Bulk Modulus (GPa) = 47.70974 51.08146 49.39560
# Shear Modulus (GPa) = 28.22295 30.99034 29.60665
#
# Velocity S-wave (km/s) = 3.62777 3.80147 3.71564
# Velocity P-wave (km/s) = 6.30835 6.56416 6.43753
#
# Compressibility (1/GPa) = 0.02096008
#
# Stress axis : x y z
#
# Youngs Moduli (GPa) = 80.67442 73.78571 111.06710
#
# Poissons Ratio (x) = 0.22038 0.15304
# Poissons Ratio (y) = 0.24096 0.29224
# Poissons Ratio (z) = 0.11116 0.19415
#
# Static dielectric constant tensor:
#      x y z
#    x 4.654890 0.000000 -0.097990 
#    y 0.000000 3.814290 0.000000 
#    z -0.097990 0.000000 3.829850 
# 
# 
# High freq. dielectric constant tensor:
#      x y z
#    x 1.850860 0.000000 -0.006370 
#    y 0.000000 1.837140 0.000000 
#    z -0.006370 0.000000 1.840030 
# 
# From -- ./inp_files/53155.got.cif
#   From: 2010.06.25/outbox.cif.g09.slc.cpg/sg12_27_cif.got.tgz:53155.got - 2010.06.28 00:19:55.
