data_PCOD8110874
_publ_section_title
;
Structure prediction by ZEFSAII (Michael W. Deem and Ramdas Pophale) SiO2 
 PCOD8110874
Probable space group: C 2/M
;
_chemical_formula_sum "Si O2"
_cell_formula_units_Z 40
_cell_length_a 10.290947
_cell_length_b 15.025821
_cell_length_c 13.851258
_cell_angle_alpha 90.000000
_cell_angle_beta 112.635530
_cell_angle_gamma 90.000000
_cell_volume 1976.838412
_symmetry_space_group_name_H-M "C 2/M"
_symmetry_group_IT_number 12
_symmetry_cell_setting 'monoclinic'
loop_
_space_group_symop_operation_xyz
x,y,z
-x,y,-z
-x,-y,-z
x,-y,z
1/2+x,1/2+y,z
1/2-x,1/2+y,-z
1/2-x,1/2-y,-z
1/2+x,1/2-y,z
loop_
_atom_site_type_symbol
_atom_site_label
_atom_site_fract_x
_atom_site_fract_y
_atom_site_fract_z
Si Si1 0.164065 0.787466 0.565848
Si Si2 0.164159 0.100925 0.056241
Si Si3 0.297404 0.401426 0.148814
Si Si4 0.123445 0.597703 0.277734
Si Si5 0.861563 0.282181 0.240420
O O1 0.250000 0.750000 0.500000
O O2 0.236201 0.879488 0.620885
O O3 0.178020 0.717165 0.657847
O O4 0.000000 0.806177 0.500000
O O5 0.233761 0.170645 0.148522
O O6 0.183403 0.000000 0.100842
O O7 0.240017 0.111186 0.974264
O O8 0.000000 0.124684 0.000000
O O9 0.370709 0.500000 0.183505
O O10 0.155110 0.399015 0.171984
O O11 0.392229 0.318564 0.211541
O O12 0.071494 0.500000 0.293378
O O13 0.005790 0.667870 0.267767
#
# Coordination Sequence:
#
# PCOD8110874 Si02
#       5
#     8   8   8   8   8
#     4  11  23  43  66  92 127 169 219 272 329 384
#     4  10  22  38  59  93 133 169 213 260 317 388
#     4   9  21  39  59  89 128 167 209 254 313 389
#     4  10  22  40  65  97 128 165 216 268 322 388
#     4  11  22  38  67  89 129 167 217 264 323 376
#
# _framework density 20.23433
#
# number of rings (size 3 to 8) (size 9 to 14) (size 15 to 20)
#    0.000    1.800    2.000    1.200    5.600    1.200 
#    0.000    6.000    0.000    0.000    0.000    0.000 
#    0.000    0.000    0.000    0.000    0.000    0.000 
#
# Total GULP energy -247872.220904 kJ/mol
# GULP energy per Si atom -12393.611045 kJ/mol
# Density = 2.018828 g / cm^3
# Si number density = 20.234330 Si / 1000 Ang^3
#
#
#
# Elastic Constant Matrix: (Units=GPa)
#
#
# Indices 1 2 3 4 5 6 
#
# 1 106.1100 65.4360 61.9118 0.0000 -1.3578 0.0000
# 2 65.4360 162.0627 63.8509 0.0000 4.2762 0.0000
# 3 61.9118 63.8509 126.5883 0.0000 -7.8360 0.0000
# 4 0.0000 0.0000 0.0000 20.7136 0.0000 0.3684
# 5 -1.3578 4.2762 -7.8360 0.0000 43.1002 0.0000
# 6 0.0000 0.0000 0.0000 0.3684 0.0000 29.7918
#
#
#
# Elastic Compliance Matrix: (Units=1/GPa)
#
#
# Indices 1 2 3 4 5 6 
#
# 1 0.014966 -0.003936 -0.005341 0.000000 -0.000109 0.000000
# 2 -0.003936 0.008831 -0.002621 0.000000 -0.001477 0.000000
# 3 -0.005341 -0.002621 0.011974 0.000000 0.002269 0.000000
# 4 0.000000 0.000000 0.000000 0.048288 0.000000 -0.000597
# 5 -0.000109 -0.001477 0.002269 0.000000 0.023757 0.000000
# 6 0.000000 0.000000 0.000000 -0.000597 0.000000 0.033574
#
#
# Mechanical properties :
#
#
# Convention : Reuss Voigt Hill
#
# Bulk Modulus (GPa) = 83.50062 86.35093 84.92578
# Shear Modulus (GPa) = 29.55453 32.29195 30.92324
#
# Velocity S-wave (km/s) = 3.82594 3.99920 3.91353
# Velocity P-wave (km/s) = 7.80215 8.00581 7.90463
#
# Compressibility (1/GPa) = 0.01197596
#
# Stress axis : x y z
#
# Youngs Moduli (GPa) = 66.81671 113.23561 83.51122
#
# Poissons Ratio (x) = 0.44565 0.44606
# Poissons Ratio (y) = 0.26297 0.21888
# Poissons Ratio (z) = 0.35689 0.29679
#
# Static dielectric constant tensor:
#      x y z
#    x 3.662750 0.000000 -0.234160 
#    y 0.000000 3.925890 0.000000 
#    z -0.234160 0.000000 3.798990 
# 
# 
# High freq. dielectric constant tensor:
#      x y z
#    x 1.789170 0.000000 -0.019410 
#    y 0.000000 1.797720 0.000000 
#    z -0.019410 0.000000 1.783160 
# 
# From -- ./inp_files/194665.got.cif
#   From: 2010.06.25/outbox.cif.g09.slc.cpg/sg12_98_cif.got.tgz:194665.got - 2010.06.28 00:19:55.
