data_PCOD8110684
_publ_section_title
;
Structure prediction by ZEFSAII (Michael W. Deem and Ramdas Pophale) SiO2 
 PCOD8110684
Probable space group: C 2/M
;
_chemical_formula_sum "Si O2"
_cell_formula_units_Z 56
_cell_length_a 13.470402
_cell_length_b 23.916004
_cell_length_c 8.834974
_cell_angle_alpha 90.000000
_cell_angle_beta 108.358390
_cell_angle_gamma 90.000000
_cell_volume 2701.398841
_symmetry_space_group_name_H-M "C 2/M"
_symmetry_group_IT_number 12
_symmetry_cell_setting 'monoclinic'
loop_
_space_group_symop_operation_xyz
x,y,z
-x,y,-z
-x,-y,-z
x,-y,z
1/2+x,1/2+y,z
1/2-x,1/2+y,-z
1/2-x,1/2-y,-z
1/2+x,1/2-y,z
loop_
_atom_site_type_symbol
_atom_site_label
_atom_site_fract_x
_atom_site_fract_y
_atom_site_fract_z
Si Si1 0.423313 0.761250 0.842288
Si Si2 0.288576 0.937162 0.600431
Si Si3 0.766463 0.169238 0.262765
Si Si4 0.732723 0.327116 0.098343
Si Si5 0.487880 0.063891 0.159546
Si Si6 0.784870 0.564136 0.242044
Si Si7 0.077030 0.738432 0.663864
O O1 0.344817 0.806903 0.732042
O O2 0.361613 0.711181 0.892966
O O3 0.497960 0.736650 0.749685
O O4 0.500000 0.790982 0.000000
O O5 0.218494 0.893175 0.662531
O O6 0.408476 0.927353 0.696081
O O7 0.281641 0.927892 0.419290
O O8 0.252138 0.000000 0.627882
O O9 0.859499 0.208064 0.371116
O O10 0.760862 0.174195 0.079038
O O11 0.704075 0.390720 0.134982
O O12 0.841639 0.306552 0.227747
O O13 0.393455 0.085612 0.218569
O O14 0.461630 0.000000 0.114637
O O15 0.500000 0.093785 0.000000
O O16 0.756902 0.500000 0.185096
O O17 0.000000 0.711606 0.500000
#
# Coordination Sequence:
#
# PCOD8110684 Si02
#       7
#     8   8   8   8   8   8   8
#     4  11  21  42  64  86 124 158 193 255 303 353
#     4  10  22  37  55  83 121 158 197 250 302 352
#     4  11  23  39  63  92 119 161 206 240 301 369
#     4  11  23  39  63  91 118 162 205 240 303 364
#     4   9  17  31  51  76 109 153 195 234 290 352
#     4  10  22  37  55  84 122 157 199 251 298 353
#     4  11  25  40  62  94 123 155 199 252 304 355
#
# _framework density 20.730001999999999
#
# number of rings (size 3 to 8) (size 9 to 14) (size 15 to 20)
#    0.000    1.571    2.857    2.143    6.000    5.143 
#    0.000    0.000    0.000    1.714    0.000    0.000 
#    0.000    0.000    0.000    0.000    0.000    0.000 
#
# Total GULP energy -346944.535021 kJ/mol
# GULP energy per Si atom -12390.876251 kJ/mol
# Density = 2.068282 g / cm^3
# Si number density = 20.730002 Si / 1000 Ang^3
#
#
#
# Elastic Constant Matrix: (Units=GPa)
#
#
# Indices 1 2 3 4 5 6 
#
# 1 81.0414 33.7214 20.3335 0.0000 -10.0452 0.0000
# 2 33.7214 118.4841 13.2601 0.0000 -8.1179 0.0000
# 3 20.3335 13.2601 55.2513 0.0000 3.9132 0.0000
# 4 0.0000 0.0000 0.0000 31.1067 0.0000 -8.8338
# 5 -10.0452 -8.1179 3.9132 0.0000 28.1229 0.0000
# 6 0.0000 0.0000 0.0000 -8.8338 0.0000 8.3295
#
#
#
# Elastic Compliance Matrix: (Units=1/GPa)
#
#
# Indices 1 2 3 4 5 6 
#
# 1 0.015820 -0.003535 -0.005354 0.000000 0.005375 0.000000
# 2 -0.003535 0.009690 -0.001145 0.000000 0.001694 0.000000
# 3 -0.005354 -0.001145 0.020707 0.000000 -0.005124 0.000000
# 4 0.000000 0.000000 0.000000 0.046002 0.000000 0.048787
# 5 0.005375 0.001694 -0.005124 0.000000 0.038680 0.000000
# 6 0.000000 0.000000 0.000000 0.048787 0.000000 0.171796
#
#
# Mechanical properties :
#
#
# Convention : Reuss Voigt Hill
#
# Bulk Modulus (GPa) = 38.24167 43.26742 40.75455
# Shear Modulus (GPa) = 15.08388 26.00928 20.54658
#
# Velocity S-wave (km/s) = 2.70040 3.54597 3.15167
# Velocity P-wave (km/s) = 5.31135 6.13860 5.73990
#
# Compressibility (1/GPa) = 0.02614948
#
# Stress axis : x y z
#
# Youngs Moduli (GPa) = 63.21125 103.19736 48.29221
#
# Poissons Ratio (x) = 0.36480 0.25857
# Poissons Ratio (y) = 0.22345 0.05528
# Poissons Ratio (z) = 0.33846 0.11812
#
# Static dielectric constant tensor:
#      x y z
#    x 3.709680 0.000000 -0.131340 
#    y 0.000000 3.873810 0.000000 
#    z -0.131340 0.000000 3.886710 
# 
# 
# High freq. dielectric constant tensor:
#      x y z
#    x 1.789460 0.000000 -0.018560 
#    y 0.000000 1.812180 0.000000 
#    z -0.018560 0.000000 1.812720 
# 
# From -- ./inp_files/65425.got.cif
#   From: 2010.06.25/outbox.cif.g09.slc.cpg/sg12_33_cif.got.tgz:65425.got - 2010.06.28 00:19:55.
