data_PCOD8110535
_publ_section_title
;
Structure prediction by ZEFSAII (Michael W. Deem and Ramdas Pophale) SiO2 
 PCOD8110535
Probable space group: C 2/M
;
_chemical_formula_sum "Si O2"
_cell_formula_units_Z 60
_cell_length_a 18.646683
_cell_length_b 26.867095
_cell_length_c 7.027848
_cell_angle_alpha 90.000000
_cell_angle_beta 120.620302
_cell_angle_gamma 90.000000
_cell_volume 3029.888328
_symmetry_space_group_name_H-M "C 2/M"
_symmetry_group_IT_number 12
_symmetry_cell_setting 'monoclinic'
loop_
_space_group_symop_operation_xyz
x,y,z
-x,y,-z
-x,-y,-z
x,-y,z
1/2+x,1/2+y,z
1/2-x,1/2+y,-z
1/2-x,1/2-y,-z
1/2+x,1/2-y,z
loop_
_atom_site_type_symbol
_atom_site_label
_atom_site_fract_x
_atom_site_fract_y
_atom_site_fract_z
Si Si1 0.245664 0.627862 0.595885
Si Si2 0.738843 0.057662 0.254023
Si Si3 0.425895 0.351824 0.773431
Si Si4 0.574934 0.445989 0.458015
Si Si5 0.708032 0.788112 0.240739
Si Si6 0.500000 0.820582 0.500000
Si Si7 0.619114 0.254217 0.439483
Si Si8 0.844232 0.363993 0.127311
O O1 0.232141 0.575711 0.464827
O O2 0.341738 0.638237 0.778964
O O3 0.216430 0.670200 0.413604
O O4 0.193933 0.627396 0.717775
O O5 0.835565 0.067097 0.321789
O O6 0.712609 0.000000 0.204585
O O7 0.676921 0.088652 0.032912
O O8 0.453539 0.404353 0.726296
O O9 0.415371 0.310589 0.592007
O O10 0.500000 0.331047 0.000000
O O11 0.500000 0.450227 0.500000
O O12 0.586061 0.500000 0.371275
O O13 0.632417 0.755364 0.228188
O O14 0.790743 0.753904 0.332370
O O15 0.688765 0.812698 0.011882
O O16 0.441106 0.785971 0.548872
O O17 0.443766 0.856322 0.289855
#
# Coordination Sequence:
#
# PCOD8110535 Si02
#       8
#     8   8   8   8   8   4   8   8
#     4   9  19  40  57  85 119 158 204 251 301 370
#     4   9  20  40  65  89 118 162 202 254 321 371
#     4  10  22  33  54  86 122 156 201 251 299 355
#     4   9  19  37  58  85 122 157 199 252 305 367
#     4   9  20  42  61  79 121 165 204 248 309 355
#     4  12  26  38  59  96 121 164 214 254 308 362
#     4  10  22  40  55  87 124 160 210 257 292 364
#     4  11  23  39  66  89 121 163 207 252 308 377
#
# _framework density 19.802710000000001
#
# number of rings (size 3 to 8) (size 9 to 14) (size 15 to 20)
#    0.000    2.267    1.333    0.800    4.667    2.400 
#    0.000    0.333    0.000    0.800    0.000    0.000 
#    0.000    0.000    0.000    0.000    0.000    0.000 
#
# Total GULP energy -371741.491080 kJ/mol
# GULP energy per Si atom -12391.383036 kJ/mol
# Density = 1.975764 g / cm^3
# Si number density = 19.802710 Si / 1000 Ang^3
#
#
#
# Elastic Constant Matrix: (Units=GPa)
#
#
# Indices 1 2 3 4 5 6 
#
# 1 109.6056 48.5297 58.5763 0.0000 5.2621 0.0000
# 2 48.5297 101.5763 40.5901 0.0000 6.6905 0.0000
# 3 58.5763 40.5901 97.2950 0.0000 8.5153 0.0000
# 4 0.0000 0.0000 0.0000 27.1567 0.0000 2.0727
# 5 5.2621 6.6905 8.5153 0.0000 28.5400 0.0000
# 6 0.0000 0.0000 0.0000 2.0727 0.0000 21.5516
#
#
#
# Elastic Compliance Matrix: (Units=1/GPa)
#
#
# Indices 1 2 3 4 5 6 
#
# 1 0.014823 -0.004234 -0.007193 0.000000 0.000406 0.000000
# 2 -0.004234 0.013074 -0.002777 0.000000 -0.001455 0.000000
# 3 -0.007193 -0.002777 0.016013 0.000000 -0.002800 0.000000
# 4 0.000000 0.000000 0.000000 0.037096 0.000000 -0.003568
# 5 0.000406 -0.001455 -0.002800 0.000000 0.036140 0.000000
# 6 0.000000 0.000000 0.000000 -0.003568 0.000000 0.046743
#
#
# Mechanical properties :
#
#
# Convention : Reuss Voigt Hill
#
# Bulk Modulus (GPa) = 64.51972 67.09658 65.80815
# Shear Modulus (GPa) = 25.32092 26.16841 25.74466
#
# Velocity S-wave (km/s) = 3.57971 3.63913 3.60954
# Velocity P-wave (km/s) = 7.05250 7.18427 7.11869
#
# Compressibility (1/GPa) = 0.01549914
#
# Stress axis : x y z
#
# Youngs Moduli (GPa) = 67.46143 76.49020 62.45097
#
# Poissons Ratio (x) = 0.32388 0.44923
# Poissons Ratio (y) = 0.28565 0.17346
# Poissons Ratio (z) = 0.48527 0.21245
#
# Static dielectric constant tensor:
#      x y z
#    x 3.697180 0.000000 0.100780 
#    y 0.000000 4.021400 0.000000 
#    z 0.100780 0.000000 3.455860 
# 
# 
# High freq. dielectric constant tensor:
#      x y z
#    x 1.764870 0.000000 0.009200 
#    y 0.000000 1.782910 0.000000 
#    z 0.009200 0.000000 1.747800 
# 
# From -- ./inp_files/18342.got.cif
#   From: 2010.06.25/outbox.cif.g09.slc.cpg/sg12_10_cif.got.tgz:18342.got - 2010.06.28 00:19:55.
