data_PCOD8110993
_publ_section_title
;
Structure prediction by ZEFSAII (Michael W. Deem and Ramdas Pophale) SiO2 
 PCOD8110993
Probable space group: C 2/M
;
_chemical_formula_sum "Si O2"
_cell_formula_units_Z 32
_cell_length_a 4.903663
_cell_length_b 28.343723
_cell_length_c 8.753386
_cell_angle_alpha 90.000000
_cell_angle_beta 93.520515
_cell_angle_gamma 90.000000
_cell_volume 1214.320283
_symmetry_space_group_name_H-M "C 2/M"
_symmetry_group_IT_number 12
_symmetry_cell_setting 'monoclinic'
loop_
_space_group_symop_operation_xyz
x,y,z
-x,y,-z
-x,-y,-z
x,-y,z
1/2+x,1/2+y,z
1/2-x,1/2+y,-z
1/2-x,1/2-y,-z
1/2+x,1/2-y,z
loop_
_atom_site_type_symbol
_atom_site_label
_atom_site_fract_x
_atom_site_fract_y
_atom_site_fract_z
Si Si1 0.586454 0.645902 0.670761
Si Si2 0.264894 0.108876 0.104548
Si Si3 0.889478 0.446960 0.665291
Si Si4 0.495059 0.778438 0.319640
O O1 0.500000 0.664253 0.500000
O O2 0.329801 0.650790 0.779546
O O3 0.643164 0.589903 0.676067
O O4 0.858915 0.673539 0.737447
O O5 0.377290 0.063805 0.201614
O O6 0.500000 0.128844 0.000000
O O7 0.000000 0.092324 0.000000
O O8 0.778736 0.500000 0.685240
O O9 0.000000 0.439491 0.500000
O O10 0.500000 0.781914 0.500000
O O11 0.180390 0.766342 0.264626
#
# Coordination Sequence:
#
# PCOD8110993 Si02
#       4
#     8   8   8   8
#     4  12  24  43  76 103 145 189 240 291 363 417
#     4  12  27  47  69 103 144 194 240 291 351 421
#     4  11  25  45  73 109 144 186 242 295 354 423
#     4  10  22  38  66 109 144 175 230 301 359 414
#
# _framework density 26.352191999999999
#
# number of rings (size 3 to 8) (size 9 to 14) (size 15 to 20)
#    0.000    0.750    5.000    3.000    3.500    2.500 
#    0.000    0.000    0.000    4.500    0.000    0.000 
#    0.000    0.000    0.000    0.000    0.000    0.000 
#
# Total GULP energy -198270.326493 kJ/mol
# GULP energy per Si atom -12391.895406 kJ/mol
# Density = 2.629221 g / cm^3
# Si number density = 26.352192 Si / 1000 Ang^3
#
#
#
# Elastic Constant Matrix: (Units=GPa)
#
#
# Indices 1 2 3 4 5 6 
#
# 1 157.9384 0.9359 40.0954 0.0000 -29.7383 0.0000
# 2 0.9359 101.0950 18.2331 0.0000 -39.1210 0.0000
# 3 40.0954 18.2331 141.4523 0.0000 -18.9638 0.0000
# 4 0.0000 0.0000 0.0000 -3.8041 0.0000 4.0692
# 5 -29.7383 -39.1210 -18.9638 0.0000 49.9796 0.0000
# 6 0.0000 0.0000 0.0000 4.0692 0.0000 26.1027
#
#
#
# Elastic Compliance Matrix: (Units=1/GPa)
#
#
# Indices 1 2 3 4 5 6 
#
# 1 0.007905 0.002591 -0.001762 0.000000 0.006063 0.000000
# 2 0.002591 0.015056 -0.000936 0.000000 0.012971 0.000000
# 3 -0.001762 -0.000936 0.007850 0.000000 0.001198 0.000000
# 4 0.000000 0.000000 0.000000 -0.225301 0.000000 0.035123
# 5 0.006063 0.012971 0.001198 0.000000 0.034223 0.000000
# 6 0.000000 0.000000 0.000000 0.035123 0.000000 0.032835
#
#
# Mechanical properties :
#
#
# Convention : Reuss Voigt Hill
#
# Bulk Modulus (GPa) = 32.68287 57.66828 45.17557
# Shear Modulus (GPa) = -42.72838 37.20372 -2.76233
#
# Velocity S-wave (km/s) = -4.03107 3.76145 -1.02494
# Velocity P-wave (km/s) = 3.03921 6.38717 3.97235
#
# Compressibility (1/GPa) = 0.03059707
#
# Stress axis : x y z
#
# Youngs Moduli (GPa) = 126.50032 66.41822 127.38629
#
# Poissons Ratio (x) = -0.17208 0.22444
# Poissons Ratio (y) = -0.32774 0.11925
# Poissons Ratio (z) = 0.22288 0.06217
#
# Static dielectric constant tensor:
#      x y z
#    x 5.418560 0.000000 -0.309680 
#    y 0.000000 4.709010 0.000000 
#    z -0.309680 0.000000 4.988690 
# 
# 
# High freq. dielectric constant tensor:
#      x y z
#    x 2.085780 0.000000 -0.013030 
#    y 0.000000 2.050510 0.000000 
#    z -0.013030 0.000000 2.034570 
# 
# From -- ./inp_files/34309.got.cif
#   From: 2010.06.25/outbox.cif.g09.slc.cpg/sg12_18_cif.got.tgz:34309.got - 2010.06.28 00:19:55.
