data_PCOD8110766
_publ_section_title
;
Structure prediction by ZEFSAII (Michael W. Deem and Ramdas Pophale) SiO2 
 PCOD8110766
Probable space group: C 2/M
;
_chemical_formula_sum "Si O2"
_cell_formula_units_Z 64
_cell_length_a 14.834394
_cell_length_b 9.434619
_cell_length_c 25.272964
_cell_angle_alpha 90.000000
_cell_angle_beta 73.842464
_cell_angle_gamma 90.000000
_cell_volume 3397.408830
_symmetry_space_group_name_H-M "C 2/M"
_symmetry_group_IT_number 12
_symmetry_cell_setting 'monoclinic'
loop_
_space_group_symop_operation_xyz
x,y,z
-x,y,-z
-x,-y,-z
x,-y,z
1/2+x,1/2+y,z
1/2-x,1/2+y,-z
1/2-x,1/2-y,-z
1/2+x,1/2-y,z
loop_
_atom_site_type_symbol
_atom_site_label
_atom_site_fract_x
_atom_site_fract_y
_atom_site_fract_z
Si Si1 0.220777 0.663656 0.248011
Si Si2 0.489602 0.166824 0.061709
Si Si3 0.460670 0.337534 0.363590
Si Si4 0.860981 0.662958 0.631145
Si Si5 0.232668 0.833432 0.556084
Si Si6 0.399168 0.340037 0.875179
Si Si7 0.702115 0.834876 0.853155
Si Si8 0.951847 0.159418 0.755522
O O1 0.234519 0.500000 0.230903
O O2 0.221179 0.688408 0.311410
O O3 0.298713 0.752880 0.203134
O O4 0.119062 0.716022 0.246604
O O5 0.571976 0.237532 0.082310
O O6 0.387517 0.215172 0.098660
O O7 0.504012 0.000000 0.063948
O O8 0.500000 0.219127 0.000000
O O9 0.472148 0.500000 0.378439
O O10 0.547536 0.256948 0.375408
O O11 0.363503 0.277087 0.401815
O O12 0.460265 0.323348 0.298978
O O13 0.893337 0.500000 0.628435
O O14 0.817787 0.701761 0.581587
O O15 0.250000 0.750000 0.500000
O O16 0.227293 0.000000 0.545129
O O17 0.398279 0.500000 0.897262
O O18 0.295619 0.297665 0.871183
O O19 0.474857 0.325155 0.814263
O O20 0.696688 0.000000 0.840946
O O21 0.907600 0.000000 0.754707
#
# Coordination Sequence:
#
# PCOD8110766 Si02
#       8
#     8   8   8   8   8   8   8   8
#     4   9  16  28  51  81 106 129 164 207 250 303
#     4  10  22  38  53  72 101 137 176 214 252 297
#     4   9  18  34  56  78 102 135 172 207 249 306
#     4   9  19  35  54  77 106 135 164 207 260 304
#     4  10  22  38  53  73 102 137 177 216 253 298
#     4   9  18  33  54  78 103 132 166 206 253 304
#     4   9  19  36  54  74 105 139 166 202 257 309
#     4   8  15  30  52  77 106 136 163 199 254 312
#
# _framework density 18.837886999999998
#
# number of rings (size 3 to 8) (size 9 to 14) (size 15 to 20)
#    0.000    2.875    0.000    1.125    0.000    6.250 
#    0.000    5.000    0.000    0.000    0.000    0.000 
#    0.000    0.000    0.000    0.000    0.000    0.000 
#
# Total GULP energy -396567.456028 kJ/mol
# GULP energy per Si atom -12392.733001 kJ/mol
# Density = 1.879501 g / cm^3
# Si number density = 18.837887 Si / 1000 Ang^3
#
#
#
# Elastic Constant Matrix: (Units=GPa)
#
#
# Indices 1 2 3 4 5 6 
#
# 1 42.4382 15.2042 9.7869 0.0000 -5.5655 0.0000
# 2 15.2042 45.6233 25.8205 0.0000 3.0117 0.0000
# 3 9.7869 25.8205 84.7436 0.0000 -1.5295 0.0000
# 4 0.0000 0.0000 0.0000 33.7324 0.0000 2.2619
# 5 -5.5655 3.0117 -1.5295 0.0000 33.0656 0.0000
# 6 0.0000 0.0000 0.0000 2.2619 0.0000 22.0409
#
#
#
# Elastic Compliance Matrix: (Units=1/GPa)
#
#
# Indices 1 2 3 4 5 6 
#
# 1 0.027736 -0.009487 -0.000213 0.000000 0.005523 0.000000
# 2 -0.009487 0.029990 -0.008127 0.000000 -0.004704 0.000000
# 3 -0.000213 -0.008127 0.014326 0.000000 0.001367 0.000000
# 4 0.000000 0.000000 0.000000 0.029850 0.000000 -0.003063
# 5 0.005523 -0.004704 0.001367 0.000000 0.031664 0.000000
# 6 0.000000 0.000000 0.000000 -0.003063 0.000000 0.045685
#
#
# Mechanical properties :
#
#
# Convention : Reuss Voigt Hill
#
# Bulk Modulus (GPa) = 27.47409 30.49202 28.98306
# Shear Modulus (GPa) = 22.02272 25.90068 23.96170
#
# Velocity S-wave (km/s) = 3.42287 3.71202 3.57037
# Velocity P-wave (km/s) = 5.49887 5.88165 5.69348
#
# Compressibility (1/GPa) = 0.03639793
#
# Stress axis : x y z
#
# Youngs Moduli (GPa) = 36.05417 33.34405 69.80428
#
# Poissons Ratio (x) = 0.31635 0.01485
# Poissons Ratio (y) = 0.34206 0.56730
# Poissons Ratio (z) = 0.00767 0.27099
#
# Static dielectric constant tensor:
#      x y z
#    x 3.189740 0.000000 -0.156410 
#    y 0.000000 3.379280 0.000000 
#    z -0.156410 0.000000 3.725270 
# 
# 
# High freq. dielectric constant tensor:
#      x y z
#    x 1.708370 0.000000 -0.008500 
#    y 0.000000 1.726640 0.000000 
#    z -0.008500 0.000000 1.739470 
# 
# From -- ./inp_files/359834.got.cif
#   From: 2010.06.25/outbox.cif.g09.slc.cpg/sg12_180_cif.got.tgz:359834.got - 2010.06.28 00:19:55.
