data_PCOD8110404
_publ_section_title
;
Structure prediction by ZEFSAII (Michael W. Deem and Ramdas Pophale) SiO2 
 PCOD8110404
Probable space group: C 2/M
;
_chemical_formula_sum "Si O2"
_cell_formula_units_Z 48
_cell_length_a 15.120869
_cell_length_b 18.197159
_cell_length_c 9.125942
_cell_angle_alpha 90.000000
_cell_angle_beta 112.418957
_cell_angle_gamma 90.000000
_cell_volume 2321.278942
_symmetry_space_group_name_H-M "C 2/M"
_symmetry_group_IT_number 12
_symmetry_cell_setting 'monoclinic'
loop_
_space_group_symop_operation_xyz
x,y,z
-x,y,-z
-x,-y,-z
x,-y,z
1/2+x,1/2+y,z
1/2-x,1/2+y,-z
1/2-x,1/2-y,-z
1/2+x,1/2-y,z
loop_
_atom_site_type_symbol
_atom_site_label
_atom_site_fract_x
_atom_site_fract_y
_atom_site_fract_z
Si Si1 0.760422 0.583143 0.350493
Si Si2 0.757488 0.585257 0.005167
Si Si3 0.382891 0.316841 0.565222
Si Si4 0.567247 0.179916 0.909512
Si Si5 0.567599 0.840990 0.413264
Si Si6 0.401825 0.673382 0.244537
O O1 0.727591 0.500000 0.359197
O O2 0.763528 0.600893 0.181470
O O3 0.689405 0.638280 0.382567
O O4 0.865515 0.593919 0.486884
O O5 0.770321 0.500000 0.975387
O O6 0.843254 0.630576 0.981176
O O7 0.654844 0.611289 0.881148
O O8 0.374283 0.230939 0.605259
O O9 0.487432 0.349056 0.670268
O O10 0.355708 0.323181 0.377076
O O11 0.500207 0.130103 0.760345
O O12 0.608434 0.249858 0.848079
O O13 0.500000 0.206282 0.000000
O O14 0.500000 0.809850 0.500000
#
# Coordination Sequence:
#
# PCOD8110404 Si02
#       6
#     8   8   8   8   8   8
#     4  11  25  40  63  94 125 165 204 246 309 373
#     4  11  25  42  60  91 131 165 200 250 308 368
#     4  10  21  42  66  92 117 158 214 257 306 357
#     4  11  24  40  65  96 122 160 208 252 306 364
#     4  11  20  42  66  90 122 158 204 260 304 356
#     4  10  22  42  65  91 121 159 207 264 304 352
#
# _framework density 20.678256000000001
#
# number of rings (size 3 to 8) (size 9 to 14) (size 15 to 20)
#    0.000    1.333    5.000    1.000    7.000    2.667 
#    0.000    3.333    0.000    0.000    0.000    0.000 
#    0.000    0.000    0.000    0.000    0.000    0.000 
#
# Total GULP energy -297622.672055 kJ/mol
# GULP energy per Si atom -12400.944669 kJ/mol
# Density = 2.063119 g / cm^3
# Si number density = 20.678256 Si / 1000 Ang^3
#
#
#
# Elastic Constant Matrix: (Units=GPa)
#
#
# Indices 1 2 3 4 5 6 
#
# 1 76.9344 48.8114 23.0226 0.0000 -0.0950 0.0000
# 2 48.8114 94.6958 28.2056 0.0000 0.8290 0.0000
# 3 23.0226 28.2056 86.2672 0.0000 21.2444 0.0000
# 4 0.0000 0.0000 0.0000 27.8605 0.0000 3.4136
# 5 -0.0950 0.8290 21.2444 0.0000 30.4658 0.0000
# 6 0.0000 0.0000 0.0000 3.4136 0.0000 17.9556
#
#
#
# Elastic Compliance Matrix: (Units=1/GPa)
#
#
# Indices 1 2 3 4 5 6 
#
# 1 0.019790 -0.009398 -0.002761 0.000000 0.002243 0.000000
# 2 -0.009398 0.016369 -0.003292 0.000000 0.001821 0.000000
# 3 -0.002761 -0.003292 0.016160 0.000000 -0.011188 0.000000
# 4 0.000000 0.000000 0.000000 0.036749 0.000000 -0.006986
# 5 0.002243 0.001821 -0.011188 0.000000 0.040583 0.000000
# 6 0.000000 0.000000 0.000000 -0.006986 0.000000 0.057021
#
#
# Mechanical properties :
#
#
# Convention : Reuss Voigt Hill
#
# Bulk Modulus (GPa) = 46.69282 50.88627 48.78955
# Shear Modulus (GPa) = 22.25056 25.78023 24.01539
#
# Velocity S-wave (km/s) = 3.28386 3.53474 3.41161
# Velocity P-wave (km/s) = 6.08342 6.42816 6.25816
#
# Compressibility (1/GPa) = 0.02141657
#
# Stress axis : x y z
#
# Youngs Moduli (GPa) = 50.53153 61.09094 61.87985
#
# Poissons Ratio (x) = 0.57413 0.17085
# Poissons Ratio (y) = 0.47489 0.20373
# Poissons Ratio (z) = 0.13951 0.20113
#
# Static dielectric constant tensor:
#      x y z
#    x 3.666780 0.000000 0.115300 
#    y 0.000000 3.477320 0.000000 
#    z 0.115300 0.000000 3.979980 
# 
# 
# High freq. dielectric constant tensor:
#      x y z
#    x 1.809160 0.000000 0.007740 
#    y 0.000000 1.787880 0.000000 
#    z 0.007740 0.000000 1.822390 
# 
# From -- ./inp_files/63574.got.cif
#   From: 2010.06.25/outbox.cif.g09.slc.cpg/sg12_32_cif.got.tgz:63574.got - 2010.06.28 00:19:55.
