data_PCOD8110982
_publ_section_title
;
Structure prediction by ZEFSAII (Michael W. Deem and Ramdas Pophale) SiO2 
 PCOD8110982
Probable space group: C 2/M
;
_chemical_formula_sum "Si O2"
_cell_formula_units_Z 56
_cell_length_a 12.221128
_cell_length_b 17.968901
_cell_length_c 14.555948
_cell_angle_alpha 90.000000
_cell_angle_beta 60.627074
_cell_angle_gamma 90.000000
_cell_volume 2785.567109
_symmetry_space_group_name_H-M "C 2/M"
_symmetry_group_IT_number 12
_symmetry_cell_setting 'monoclinic'
loop_
_space_group_symop_operation_xyz
x,y,z
-x,y,-z
-x,-y,-z
x,-y,z
1/2+x,1/2+y,z
1/2-x,1/2+y,-z
1/2-x,1/2-y,-z
1/2+x,1/2-y,z
loop_
_atom_site_type_symbol
_atom_site_label
_atom_site_fract_x
_atom_site_fract_y
_atom_site_fract_z
Si Si1 0.353912 0.087327 0.061299
Si Si2 0.248550 0.086199 0.636472
Si Si3 0.751521 0.690464 0.260015
Si Si4 0.691142 0.328243 0.995080
Si Si5 0.716178 0.169521 0.553411
Si Si6 0.451642 0.200861 0.616229
Si Si7 0.093859 0.827923 0.833438
O O1 0.276743 0.129410 0.172506
O O2 0.285134 0.107811 0.994006
O O3 0.344654 0.000000 0.083515
O O4 0.500000 0.112983 0.000000
O O5 0.228553 0.107220 0.537735
O O6 0.365432 0.130973 0.627902
O O7 0.127090 0.108058 0.746456
O O8 0.276556 0.000000 0.634404
O O9 0.730086 0.652446 0.367952
O O10 0.624041 0.737685 0.292584
O O11 0.869853 0.746570 0.219855
O O12 0.553667 0.334615 0.094331
O O13 0.750000 0.250000 0.000000
O O14 0.676295 0.338316 0.892349
O O15 0.750000 0.250000 0.500000
O O16 0.565618 0.167084 0.626939
O O17 0.500000 0.236943 0.500000
#
# Coordination Sequence:
#
# PCOD8110982 Si02
#       7
#     8   8   8   8   8   8   8
#     4  11  26  44  61  89 129 165 203 253 311 372
#     4  10  22  39  58  89 128 160 198 249 309 366
#     4  11  21  37  62  90 121 157 204 247 300 364
#     4  11  22  40  66  92 121 156 209 261 311 367
#     4  11  20  36  59  89 123 159 201 248 299 354
#     4   9  19  35  58  88 117 155 200 254 297 347
#     4  10  22  38  64  98 117 157 208 263 308 365
#
# _framework density 20.103625999999998
#
# number of rings (size 3 to 8) (size 9 to 14) (size 15 to 20)
#    0.000    1.571    5.714    0.857    2.000    6.571 
#    0.000    2.857    0.000    0.429    0.000    0.000 
#    0.000    0.000    0.000    0.000    0.000    0.000 
#
# Total GULP energy -347115.189709 kJ/mol
# GULP energy per Si atom -12396.971061 kJ/mol
# Density = 2.005787 g / cm^3
# Si number density = 20.103626 Si / 1000 Ang^3
#
#
#
# Elastic Constant Matrix: (Units=GPa)
#
#
# Indices 1 2 3 4 5 6 
#
# 1 93.0657 27.8623 45.5633 0.0000 -0.9749 0.0000
# 2 27.8623 108.5920 51.2141 0.0000 -2.3398 0.0000
# 3 45.5633 51.2141 124.5576 0.0000 -0.2040 0.0000
# 4 0.0000 0.0000 0.0000 29.3881 0.0000 3.8894
# 5 -0.9749 -2.3398 -0.2040 0.0000 32.2323 0.0000
# 6 0.0000 0.0000 0.0000 3.8894 0.0000 19.4547
#
#
#
# Elastic Compliance Matrix: (Units=1/GPa)
#
#
# Indices 1 2 3 4 5 6 
#
# 1 0.013257 -0.001375 -0.004283 0.000000 0.000274 0.000000
# 2 -0.001375 0.011587 -0.004260 0.000000 0.000773 0.000000
# 3 -0.004283 -0.004260 0.011346 0.000000 -0.000367 0.000000
# 4 0.000000 0.000000 0.000000 0.034952 0.000000 -0.006988
# 5 0.000274 0.000773 -0.000367 0.000000 0.031087 0.000000
# 6 0.000000 0.000000 0.000000 -0.006988 0.000000 0.052798
#
#
# Mechanical properties :
#
#
# Convention : Reuss Voigt Hill
#
# Bulk Modulus (GPa) = 61.15103 63.94385 62.54744
# Shear Modulus (GPa) = 27.72904 29.65339 28.69121
#
# Velocity S-wave (km/s) = 3.71793 3.84477 3.78188
# Velocity P-wave (km/s) = 6.99390 7.18233 7.08874
#
# Compressibility (1/GPa) = 0.01635295
#
# Stress axis : x y z
#
# Youngs Moduli (GPa) = 75.43302 86.30053 88.13482
#
# Poissons Ratio (x) = 0.11870 0.37752
# Poissons Ratio (y) = 0.10375 0.37545
# Poissons Ratio (z) = 0.32311 0.36764
#
# Static dielectric constant tensor:
#      x y z
#    x 4.067990 0.000000 -0.072690 
#    y 0.000000 3.375250 0.000000 
#    z -0.072690 0.000000 4.127120 
# 
# 
# High freq. dielectric constant tensor:
#      x y z
#    x 1.785230 0.000000 -0.006000 
#    y 0.000000 1.752680 0.000000 
#    z -0.006000 0.000000 1.801990 
# 
# From -- ./inp_files/206579.got.cif
#   From: 2010.06.25/outbox.cif.g09.slc.cpg/sg12_104_cif.got.tgz:206579.got - 2010.06.28 00:19:55.
