data_PCOD8110636
_publ_section_title
;
Structure prediction by ZEFSAII (Michael W. Deem and Ramdas Pophale) SiO2 
 PCOD8110636
Probable space group: C 2/M
;
_chemical_formula_sum "Si O2"
_cell_formula_units_Z 56
_cell_length_a 17.159463
_cell_length_b 30.481339
_cell_length_c 5.182765
_cell_angle_alpha 90.000000
_cell_angle_beta 103.685375
_cell_angle_gamma 90.000000
_cell_volume 2633.849905
_symmetry_space_group_name_H-M "C 2/M"
_symmetry_group_IT_number 12
_symmetry_cell_setting 'monoclinic'
loop_
_space_group_symop_operation_xyz
x,y,z
-x,y,-z
-x,-y,-z
x,-y,z
1/2+x,1/2+y,z
1/2-x,1/2+y,-z
1/2-x,1/2-y,-z
1/2+x,1/2-y,z
loop_
_atom_site_type_symbol
_atom_site_label
_atom_site_fract_x
_atom_site_fract_y
_atom_site_fract_z
Si Si1 0.675478 0.112198 0.630233
Si Si2 0.821845 0.115530 0.442738
Si Si3 0.405002 0.146977 0.922242
Si Si4 0.904535 0.203130 0.412388
Si Si5 0.739804 0.548448 0.991917
Si Si6 0.917880 0.048582 0.809371
Si Si7 0.594862 0.754403 0.087589
O O1 0.765230 0.131588 0.636923
O O2 0.630359 0.136973 0.824220
O O3 0.693989 0.062031 0.739023
O O4 0.622704 0.114583 0.328817
O O5 0.860451 0.156902 0.330410
O O6 0.895414 0.084059 0.576893
O O7 0.759891 0.087088 0.220100
O O8 0.500000 0.143535 0.000000
O O9 0.374191 0.196272 0.838838
O O10 0.874106 0.224325 0.654755
O O11 0.000000 0.195963 0.500000
O O12 0.874964 0.234615 0.159252
O O13 0.762625 0.500000 0.900484
O O14 0.650448 0.546508 0.030452
O O15 0.928514 0.000000 0.692235
O O16 0.000000 0.064929 0.000000
O O17 0.500000 0.755252 0.000000
#
# Coordination Sequence:
#
# PCOD8110636 Si02
#       7
#     8   8   8   8   8   8   8
#     4  11  23  42  64 100 126 156 210 256 315 381
#     4  11  23  37  60  87 133 168 218 251 315 363
#     4  11  22  43  74  95 119 155 205 263 317 382
#     4  10  22  36  59  88 128 172 214 254 297 355
#     4  10  22  41  64  87 128 177 210 249 311 378
#     4   9  20  35  56  88 122 164 226 276 304 344
#     4   9  20  39  60  90 121 162 208 252 312 374
#
# _framework density 21.261651000000001
#
# number of rings (size 3 to 8) (size 9 to 14) (size 15 to 20)
#    0.000    1.857    1.429    1.714    6.000    3.429 
#    0.000    6.429    0.000    2.571    0.000    0.000 
#    0.000    0.000    0.000    0.000    0.000    0.000 
#
# Total GULP energy -346988.295674 kJ/mol
# GULP energy per Si atom -12392.439131 kJ/mol
# Density = 2.121326 g / cm^3
# Si number density = 21.261651 Si / 1000 Ang^3
#
#
#
# Elastic Constant Matrix: (Units=GPa)
#
#
# Indices 1 2 3 4 5 6 
#
# 1 69.4001 53.9045 40.3896 0.0000 2.4751 0.0000
# 2 53.9045 102.1089 51.9941 0.0000 6.2156 0.0000
# 3 40.3896 51.9941 130.9692 0.0000 -1.4748 0.0000
# 4 0.0000 0.0000 0.0000 35.4755 0.0000 0.2866
# 5 2.4751 6.2156 -1.4748 0.0000 31.8007 0.0000
# 6 0.0000 0.0000 0.0000 0.2866 0.0000 11.7851
#
#
#
# Elastic Compliance Matrix: (Units=1/GPa)
#
#
# Indices 1 2 3 4 5 6 
#
# 1 0.025420 -0.011832 -0.003140 0.000000 0.000189 0.000000
# 2 -0.011832 0.018006 -0.003530 0.000000 -0.002762 0.000000
# 3 -0.003140 -0.003530 0.010021 0.000000 0.001399 0.000000
# 4 0.000000 0.000000 0.000000 0.028194 0.000000 -0.000686
# 5 0.000189 -0.002762 0.001399 0.000000 0.032036 0.000000
# 6 0.000000 0.000000 0.000000 -0.000686 0.000000 0.084870
#
#
# Mechanical properties :
#
#
# Convention : Reuss Voigt Hill
#
# Bulk Modulus (GPa) = 60.82011 66.11715 63.46863
# Shear Modulus (GPa) = 20.74414 26.22492 23.48453
#
# Velocity S-wave (km/s) = 3.12694 3.51584 3.32708
# Velocity P-wave (km/s) = 6.45792 6.90260 6.68396
#
# Compressibility (1/GPa) = 0.01644193
#
# Stress axis : x y z
#
# Youngs Moduli (GPa) = 39.33885 55.53822 99.79096
#
# Poissons Ratio (x) = 0.65714 0.31333
# Poissons Ratio (y) = 0.46547 0.35229
# Poissons Ratio (z) = 0.12352 0.19607
#
# Static dielectric constant tensor:
#      x y z
#    x 3.754810 0.000000 -0.105830 
#    y 0.000000 4.019270 0.000000 
#    z -0.105830 0.000000 3.907210 
# 
# 
# High freq. dielectric constant tensor:
#      x y z
#    x 1.821370 0.000000 -0.008670 
#    y 0.000000 1.828410 0.000000 
#    z -0.008670 0.000000 1.835320 
# 
# From -- ./inp_files/17712.got.cif
#   From: 2010.06.25/outbox.cif.g09.slc.cpg/sg12_9_cif.got.tgz:17712.got - 2010.06.28 00:19:55.
