data_PCOD8110807
_publ_section_title
;
Structure prediction by ZEFSAII (Michael W. Deem and Ramdas Pophale) SiO2 
 PCOD8110807
Probable space group: C 2/M
;
_chemical_formula_sum "Si O2"
_cell_formula_units_Z 64
_cell_length_a 25.047378
_cell_length_b 22.297044
_cell_length_c 11.457747
_cell_angle_alpha 90.000000
_cell_angle_beta 32.305773
_cell_angle_gamma 90.000000
_cell_volume 3419.839497
_symmetry_space_group_name_H-M "C 2/M"
_symmetry_group_IT_number 12
_symmetry_cell_setting 'monoclinic'
loop_
_space_group_symop_operation_xyz
x,y,z
-x,y,-z
-x,-y,-z
x,-y,z
1/2+x,1/2+y,z
1/2-x,1/2+y,-z
1/2-x,1/2-y,-z
1/2+x,1/2-y,z
loop_
_atom_site_type_symbol
_atom_site_label
_atom_site_fract_x
_atom_site_fract_y
_atom_site_fract_z
Si Si1 0.634009 0.240797 0.206135
Si Si2 0.117131 0.843236 0.527405
Si Si3 0.278399 0.235952 0.316025
Si Si4 0.106833 0.128045 0.291778
Si Si5 0.710791 0.570223 0.887192
Si Si6 0.850571 0.325344 0.585774
Si Si7 0.470764 0.770231 0.827160
Si Si8 0.982797 0.929727 0.902074
O O1 0.584062 0.306150 0.281974
O O2 0.603786 0.203285 0.377858
O O3 0.599995 0.209082 0.149993
O O4 0.750000 0.250000 0.000000
O O5 0.219896 0.825897 0.400889
O O6 0.154951 0.859575 0.328187
O O7 0.032312 0.791755 0.696100
O O8 0.071809 0.903914 0.660886
O O9 0.250000 0.250000 0.500000
O O10 0.241763 0.286151 0.291511
O O11 0.398869 0.230811 0.074459
O O12 0.000000 0.094221 0.500000
O O13 0.177923 0.088644 0.078365
O O14 0.736319 0.500000 0.836452
O O15 0.811893 0.606825 0.671671
O O16 0.625450 0.587535 0.950716
O O17 0.943165 0.321959 0.322933
O O18 0.997277 0.000000 0.873801
O O19 0.000000 0.903547 0.000000
#
# Coordination Sequence:
#
# PCOD8110807 Si02
#       8
#     8   8   8   8   8   8   8   8
#     4  12  17  32  58  86 114 145 185 226 288 354
#     4  11  22  34  58  83 117 154 187 236 294 349
#     4  11  24  36  55  88 121 154 188 235 300 350
#     4  12  18  33  54  84 115 143 185 233 292 353
#     4  11  24  39  58  85 118 155 199 244 288 346
#     4  11  22  35  60  84 115 156 192 237 288 358
#     4  11  21  36  55  87 118 152 188 233 293 353
#     4  10  22  38  57  80 110 153 197 238 288 344
#
# _framework density 18.714327999999998
#
# number of rings (size 3 to 8) (size 9 to 14) (size 15 to 20)
#    0.000    0.875    7.500    1.125    3.500    2.250 
#    0.000    0.000    0.000    2.250    0.000    0.875 
#    0.000    0.000    0.000    0.000    0.000    0.000 
#
# Total GULP energy -396509.075654 kJ/mol
# GULP energy per Si atom -12390.908614 kJ/mol
# Density = 1.867173 g / cm^3
# Si number density = 18.714328 Si / 1000 Ang^3
#
#
#
# Elastic Constant Matrix: (Units=GPa)
#
#
# Indices 1 2 3 4 5 6 
#
# 1 63.7019 15.6242 33.2362 0.0000 14.5961 0.0000
# 2 15.6242 62.4907 35.6653 0.0000 1.0566 0.0000
# 3 33.2362 35.6653 145.4724 0.0000 -3.0019 0.0000
# 4 0.0000 0.0000 0.0000 16.3763 0.0000 -0.5258
# 5 14.5961 1.0566 -3.0019 0.0000 30.4323 0.0000
# 6 0.0000 0.0000 0.0000 -0.5258 0.0000 17.8763
#
#
#
# Elastic Compliance Matrix: (Units=1/GPa)
#
#
# Indices 1 2 3 4 5 6 
#
# 1 0.021003 -0.002574 -0.004382 0.000000 -0.010416 0.000000
# 2 -0.002574 0.018958 -0.004056 0.000000 0.000176 0.000000
# 3 -0.004382 -0.004056 0.008934 0.000000 0.003124 0.000000
# 4 0.000000 0.000000 0.000000 0.061122 0.000000 0.001798
# 5 -0.010416 0.000176 0.003124 0.000000 0.038158 0.000000
# 6 0.000000 0.000000 0.000000 0.001798 0.000000 0.055993
#
#
# Mechanical properties :
#
#
# Convention : Reuss Voigt Hill
#
# Bulk Modulus (GPa) = 37.21634 48.96851 43.09242
# Shear Modulus (GPa) = 21.26312 25.41292 23.33802
#
# Velocity S-wave (km/s) = 3.37441 3.68902 3.53521
# Velocity P-wave (km/s) = 5.92553 6.66095 6.30397
#
# Compressibility (1/GPa) = 0.02686992
#
# Stress axis : x y z
#
# Youngs Moduli (GPa) = 47.61304 52.74834 111.92781
#
# Poissons Ratio (x) = 0.13577 0.49051
# Poissons Ratio (y) = 0.12255 0.45400
# Poissons Ratio (z) = 0.20866 0.21396
#
# Static dielectric constant tensor:
#      x y z
#    x 3.637890 0.000000 0.092210 
#    y 0.000000 3.256740 0.000000 
#    z 0.092210 0.000000 3.588880 
# 
# 
# High freq. dielectric constant tensor:
#      x y z
#    x 1.729920 0.000000 0.004150 
#    y 0.000000 1.683900 0.000000 
#    z 0.004150 0.000000 1.731050 
# 
# From -- ./inp_files/184950.got.cif
#   From: 2010.06.25/outbox.cif.g09.slc.cpg/sg12_93_cif.got.tgz:184950.got - 2010.06.28 00:19:55.
