data_PCOD8110252
_publ_section_title
;
Structure prediction by ZEFSAII (Michael W. Deem and Ramdas Pophale) SiO2 
 PCOD8110252
Probable space group: C 2/M
;
_chemical_formula_sum "Si O2"
_cell_formula_units_Z 40
_cell_length_a 28.770352
_cell_length_b 7.616961
_cell_length_c 19.954930
_cell_angle_alpha 90.000000
_cell_angle_beta 153.948724
_cell_angle_gamma 90.000000
_cell_volume 1920.503291
_symmetry_space_group_name_H-M "C 2/M"
_symmetry_group_IT_number 12
_symmetry_cell_setting 'monoclinic'
loop_
_space_group_symop_operation_xyz
x,y,z
-x,y,-z
-x,-y,-z
x,-y,z
1/2+x,1/2+y,z
1/2-x,1/2+y,-z
1/2-x,1/2-y,-z
1/2+x,1/2-y,z
loop_
_atom_site_type_symbol
_atom_site_label
_atom_site_fract_x
_atom_site_fract_y
_atom_site_fract_z
Si Si1 0.574768 0.204879 0.454493
Si Si2 0.656972 0.204186 0.828230
Si Si3 0.608809 0.000000 0.044943
Si Si4 0.754469 0.702612 0.428827
Si Si5 0.727137 0.208504 0.771415
Si Si6 0.394475 0.000000 0.805210
O O1 0.456942 0.291380 0.299938
O O2 0.631708 0.246833 0.457571
O O3 0.644456 0.274471 0.607716
O O4 0.563193 0.000000 0.451814
O O5 0.682829 0.262504 0.786460
O O6 0.641087 0.000000 0.810715
O O7 0.750000 0.250000 0.000000
O O8 0.666007 0.178942 0.097260
O O9 0.576307 0.000000 0.079762
O O10 0.484473 0.000000 0.861719
O O11 0.725559 0.500000 0.379109
O O12 0.750000 0.750000 0.500000
O O13 0.669650 0.820655 0.282866
O O14 0.752551 0.000000 0.798762
#
# Coordination Sequence:
#
# PCOD8110252 Si02
#       6
#     8   8   4   8   8   4
#     4   9  19  39  65  87 117 165 207 253 302 365
#     4  10  22  40  60  90 128 158 199 254 317 374
#     4  11  24  40  66  89 128 162 207 267 304 373
#     4  11  22  40  65  92 125 164 210 257 310 373
#     4  10  21  41  66  90 120 164 213 254 307 370
#     4  11  24  42  59  96 127 160 209 263 314 359
#
# _framework density 20.827874000000001
#
# number of rings (size 3 to 8) (size 9 to 14) (size 15 to 20)
#    0.000    1.800    3.000    0.600    1.400    4.800 
#    3.600    5.000    0.000    0.000    0.000    0.000 
#    0.000    0.000    0.000    0.000    0.000    0.000 
#
# Total GULP energy -247774.730173 kJ/mol
# GULP energy per Si atom -12388.736509 kJ/mol
# Density = 2.078047 g / cm^3
# Si number density = 20.827874 Si / 1000 Ang^3
#
#
#
# Elastic Constant Matrix: (Units=GPa)
#
#
# Indices 1 2 3 4 5 6 
#
# 1 167.4567 49.6824 62.7281 0.0000 18.8195 0.0000
# 2 49.6824 81.6796 44.8015 0.0000 25.0437 0.0000
# 3 62.7281 44.8015 88.0314 0.0000 35.3599 0.0000
# 4 0.0000 0.0000 0.0000 23.5904 0.0000 -0.4544
# 5 18.8195 25.0437 35.3599 0.0000 47.2580 0.0000
# 6 0.0000 0.0000 0.0000 -0.4544 0.0000 27.8331
#
#
#
# Elastic Compliance Matrix: (Units=1/GPa)
#
#
# Indices 1 2 3 4 5 6 
#
# 1 0.008684 -0.002893 -0.005636 0.000000 0.002292 0.000000
# 2 -0.002893 0.018393 -0.005499 0.000000 -0.004480 0.000000
# 3 -0.005636 -0.005499 0.023021 0.000000 -0.012066 0.000000
# 4 0.000000 0.000000 0.000000 0.042403 0.000000 0.000692
# 5 0.002292 -0.004480 -0.012066 0.000000 0.031650 0.000000
# 6 0.000000 0.000000 0.000000 0.000692 0.000000 0.035940
#
#
# Mechanical properties :
#
#
# Convention : Reuss Voigt Hill
#
# Bulk Modulus (GPa) = 45.37141 72.39909 58.88525
# Shear Modulus (GPa) = 25.57608 31.73335 28.65472
#
# Velocity S-wave (km/s) = 3.50805 3.90757 3.71318
# Velocity P-wave (km/s) = 6.18383 7.42933 6.83501
#
# Compressibility (1/GPa) = 0.02204031
#
# Stress axis : x y z
#
# Youngs Moduli (GPa) = 115.15845 54.36865 43.43860
#
# Poissons Ratio (x) = 0.15731 0.24481
# Poissons Ratio (y) = 0.33321 0.23888
# Poissons Ratio (z) = 0.64901 0.29899
#
# Static dielectric constant tensor:
#      x y z
#    x 4.071450 0.000000 0.333350 
#    y 0.000000 3.509000 0.000000 
#    z 0.333350 0.000000 3.016180 
# 
# 
# High freq. dielectric constant tensor:
#      x y z
#    x 1.833830 0.000000 0.011810 
#    y 0.000000 1.808250 0.000000 
#    z 0.011810 0.000000 1.810360 
# 
# From -- ./inp_files/186206.got.cif
#   From: 2010.06.25/outbox.cif.g09.slc.cpg/sg12_94_cif.got.tgz:186206.got - 2010.06.28 00:19:55.
