data_PCOD8110325
_publ_section_title
;
Structure prediction by ZEFSAII (Michael W. Deem and Ramdas Pophale) SiO2 
 PCOD8110325
Probable space group: C 2/M
;
_chemical_formula_sum "Si O2"
_cell_formula_units_Z 32
_cell_length_a 19.298324
_cell_length_b 9.912664
_cell_length_c 12.564619
_cell_angle_alpha 90.000000
_cell_angle_beta 34.667365
_cell_angle_gamma 90.000000
_cell_volume 1367.185369
_symmetry_space_group_name_H-M "C 2/M"
_symmetry_group_IT_number 12
_symmetry_cell_setting 'monoclinic'
loop_
_space_group_symop_operation_xyz
x,y,z
-x,y,-z
-x,-y,-z
x,-y,z
1/2+x,1/2+y,z
1/2-x,1/2+y,-z
1/2-x,1/2-y,-z
1/2+x,1/2-y,z
loop_
_atom_site_type_symbol
_atom_site_label
_atom_site_fract_x
_atom_site_fract_y
_atom_site_fract_z
Si Si1 0.372948 0.259205 0.203393
Si Si2 0.709884 0.648651 0.908810
Si Si3 0.871627 0.854633 0.434710
Si Si4 0.565780 0.844104 0.240649
O O1 0.310335 0.350179 0.191713
O O2 0.274207 0.147620 0.362771
O O3 0.402578 0.348187 0.269828
O O4 0.500000 0.194971 0.000000
O O5 0.669606 0.500000 0.003140
O O6 0.853876 0.666875 0.753639
O O7 0.636296 0.770362 0.055333
O O8 0.938188 0.734960 0.416039
O O9 0.918064 0.000000 0.417085
O O10 0.540134 0.000000 0.242073
#
# Coordination Sequence:
#
# PCOD8110325 Si02
#       4
#     8   8   8   8
#     4  11  24  43  67  99 128 174 220 270 324 384
#     4  10  21  41  68  95 128 174 220 265 324 386
#     4  11  25  44  68  99 133 170 219 273 324 390
#     4  10  22  40  65  98 133 168 216 272 323 386
#
# _framework density 23.405750999999999
#
# number of rings (size 3 to 8) (size 9 to 14) (size 15 to 20)
#    0.000    1.500    2.500    1.500    0.000    9.500 
#    0.000    3.750    0.000    0.000    0.000    0.000 
#    0.000    0.000    0.000    0.000    0.000    0.000 
#
# Total GULP energy -198269.504343 kJ/mol
# GULP energy per Si atom -12391.844021 kJ/mol
# Density = 2.335248 g / cm^3
# Si number density = 23.405751 Si / 1000 Ang^3
#
#
#
# Elastic Constant Matrix: (Units=GPa)
#
#
# Indices 1 2 3 4 5 6 
#
# 1 127.8719 46.8097 35.0274 0.0000 -12.5275 0.0000
# 2 46.8097 179.4884 39.6248 0.0000 -19.0252 0.0000
# 3 35.0274 39.6248 133.8961 0.0000 -20.4671 0.0000
# 4 0.0000 0.0000 0.0000 10.8607 0.0000 -8.5546
# 5 -12.5275 -19.0252 -20.4671 0.0000 31.7439 0.0000
# 6 0.0000 0.0000 0.0000 -8.5546 0.0000 25.1208
#
#
#
# Elastic Compliance Matrix: (Units=1/GPa)
#
#
# Indices 1 2 3 4 5 6 
#
# 1 0.009082 -0.001862 -0.001606 0.000000 0.001433 0.000000
# 2 -0.001862 0.006559 -0.001071 0.000000 0.002506 0.000000
# 3 -0.001606 -0.001071 0.008886 0.000000 0.004454 0.000000
# 4 0.000000 0.000000 0.000000 0.125826 0.000000 0.042849
# 5 0.001433 0.002506 0.004454 0.000000 0.036441 0.000000
# 6 0.000000 0.000000 0.000000 0.042849 0.000000 0.054399
#
#
# Mechanical properties :
#
#
# Convention : Reuss Voigt Hill
#
# Bulk Modulus (GPa) = 64.72599 76.02002 70.37300
# Shear Modulus (GPa) = 19.57549 34.86470 27.22010
#
# Velocity S-wave (km/s) = 2.89512 3.86369 3.41393
# Velocity P-wave (km/s) = 6.23615 7.24250 6.75808
#
# Compressibility (1/GPa) = 0.01544975
#
# Stress axis : x y z
#
# Youngs Moduli (GPa) = 110.10457 152.46081 112.53279
#
# Poissons Ratio (x) = 0.28392 0.18071
# Poissons Ratio (y) = 0.20504 0.12051
# Poissons Ratio (z) = 0.17681 0.16327
#
# Static dielectric constant tensor:
#      x y z
#    x 4.480710 0.000000 -0.350520 
#    y 0.000000 3.948980 0.000000 
#    z -0.350520 0.000000 4.130610 
# 
# 
# High freq. dielectric constant tensor:
#      x y z
#    x 1.935690 0.000000 -0.021620 
#    y 0.000000 1.908800 0.000000 
#    z -0.021620 0.000000 1.918610 
# 
# From -- ./inp_files/238185.got.cif
#   From: 2010.06.25/outbox.cif.g09.slc.cpg/sg12_120_cif.got.tgz:238185.got - 2010.06.28 00:19:55.
