data_PCOD8110743
_publ_section_title
;
Structure prediction by ZEFSAII (Michael W. Deem and Ramdas Pophale) SiO2 
 PCOD8110743
Probable space group: C 2/M
;
_chemical_formula_sum "Si O2"
_cell_formula_units_Z 64
_cell_length_a 9.175040
_cell_length_b 21.312301
_cell_length_c 23.611843
_cell_angle_alpha 90.000000
_cell_angle_beta 135.105181
_cell_angle_gamma 90.000000
_cell_volume 3258.775728
_symmetry_space_group_name_H-M "C 2/M"
_symmetry_group_IT_number 12
_symmetry_cell_setting 'monoclinic'
loop_
_space_group_symop_operation_xyz
x,y,z
-x,y,-z
-x,-y,-z
x,-y,z
1/2+x,1/2+y,z
1/2-x,1/2+y,-z
1/2-x,1/2-y,-z
1/2+x,1/2-y,z
loop_
_atom_site_type_symbol
_atom_site_label
_atom_site_fract_x
_atom_site_fract_y
_atom_site_fract_z
Si Si1 0.871832 0.377187 0.732072
Si Si2 0.369618 0.814873 0.522260
Si Si3 0.365735 0.155230 0.296328
Si Si4 0.890123 0.692217 0.912335
Si Si5 0.613013 0.068731 0.148623
Si Si6 0.588618 0.426195 0.410611
Si Si7 0.403618 0.567334 0.712401
Si Si8 0.546351 0.249224 0.185109
O O1 0.979709 0.413257 0.814950
O O2 0.646456 0.402505 0.654360
O O3 0.881678 0.303769 0.750638
O O4 0.000465 0.386212 0.709960
O O5 0.500000 0.810171 0.500000
O O6 0.250000 0.750000 0.500000
O O7 0.513933 0.821143 0.616070
O O8 0.221714 0.876714 0.483958
O O9 0.170208 0.115911 0.262429
O O10 0.256142 0.211855 0.233703
O O11 0.928313 0.617666 0.913270
O O12 0.648849 0.710854 0.846314
O O13 0.007928 0.724060 0.892228
O O14 0.000000 0.713581 0.000000
O O15 0.853416 0.069190 0.227269
O O16 0.530688 0.000000 0.107416
O O17 0.601357 0.500000 0.434970
O O18 0.687559 0.420627 0.375306
O O19 0.327568 0.500000 0.713225
#
# Coordination Sequence:
#
# PCOD8110743 Si02
#       8
#     8   8   8   8   8   8   8   8
#     4  10  22  37  62  88 120 163 203 251 310 367
#     4  12  28  42  62  91 127 166 213 270 325 372
#     4  12  23  37  62  86 119 164 209 254 311 371
#     4  11  22  38  64  94 125 160 199 252 314 370
#     4   9  19  38  61  87 123 158 199 248 300 367
#     4  10  22  44  64  87 124 162 210 267 317 367
#     4   9  18  35  61  86 111 154 205 255 301 354
#     4  11  22  39  59  92 126 159 206 251 301 375
#
# _framework density 19.639277
#
# number of rings (size 3 to 8) (size 9 to 14) (size 15 to 20)
#    0.000    1.500    3.750    2.250    3.500    2.000 
#    0.000    0.625    0.000    0.000    0.000    0.875 
#    0.000    0.000    0.000    0.000    0.000    0.000 
#
# Total GULP energy -396481.995923 kJ/mol
# GULP energy per Si atom -12390.062373 kJ/mol
# Density = 1.959458 g / cm^3
# Si number density = 19.639277 Si / 1000 Ang^3
#
#
#
# Elastic Constant Matrix: (Units=GPa)
#
#
# Indices 1 2 3 4 5 6 
#
# 1 97.5979 36.9462 19.4664 0.0005 -10.1150 0.0000
# 2 36.9462 121.0722 29.2708 0.0005 -1.0059 0.0000
# 3 19.4664 29.2708 67.2804 0.0014 -8.0068 0.0002
# 4 0.0005 0.0005 0.0014 20.8964 0.0007 0.4547
# 5 -10.1150 -1.0059 -8.0068 0.0007 23.1710 0.0001
# 6 0.0000 0.0000 0.0002 0.4547 0.0001 16.1751
#
#
#
# Elastic Compliance Matrix: (Units=1/GPa)
#
#
# Indices 1 2 3 4 5 6 
#
# 1 0.012306 -0.003342 -0.001548 0.000000 0.004692 0.000000
# 2 -0.003342 0.010162 -0.003728 0.000000 -0.002306 0.000000
# 3 -0.001548 -0.003728 0.017555 -0.000001 0.005229 0.000000
# 4 0.000000 0.000000 -0.000001 0.047885 -0.000002 -0.001346
# 5 0.004692 -0.002306 0.005229 -0.000002 0.046912 0.000000
# 6 0.000000 0.000000 0.000000 -0.001346 0.000000 0.061861
#
#
# Mechanical properties :
#
#
# Convention : Reuss Voigt Hill
#
# Bulk Modulus (GPa) = 43.88652 50.81304 47.34978
# Shear Modulus (GPa) = 22.57189 25.39962 23.98575
#
# Velocity S-wave (km/s) = 3.39385 3.60016 3.49852
# Velocity P-wave (km/s) = 6.14430 6.57350 6.36252
#
# Compressibility (1/GPa) = 0.02278604
#
# Stress axis : x y z
#
# Youngs Moduli (GPa) = 81.25859 98.40936 56.96245
#
# Poissons Ratio (x) = 0.32890 0.08819
# Poissons Ratio (y) = 0.27158 0.21238
# Poissons Ratio (z) = 0.12581 0.36691
#
# Static dielectric constant tensor:
#      x y z
#    x 3.596020 0.000000 -0.141860 
#    y 0.000000 4.204290 0.000000 
#    z -0.141860 0.000000 3.308870 
# 
# 
# High freq. dielectric constant tensor:
#      x y z
#    x 1.763740 0.000000 -0.009790 
#    y 0.000000 1.777000 0.000000 
#    z -0.009790 0.000000 1.744050 
# 
# From -- ./inp_files/258092.got.cif
#   From: 2010.06.25/outbox.cif.g09.slc.cpg/sg12_130_cif.got.tgz:258092.got - 2010.06.28 00:19:55.
