data_PCOD8110540
_publ_section_title
;
Structure prediction by ZEFSAII (Michael W. Deem and Ramdas Pophale) SiO2 
 PCOD8110540
Probable space group: C 2/M
;
_chemical_formula_sum "Si O2"
_cell_formula_units_Z 56
_cell_length_a 17.774932
_cell_length_b 13.509334
_cell_length_c 31.881503
_cell_angle_alpha 90.000000
_cell_angle_beta 155.349386
_cell_angle_gamma 90.000000
_cell_volume 3193.037573
_symmetry_space_group_name_H-M "C 2/M"
_symmetry_group_IT_number 12
_symmetry_cell_setting 'monoclinic'
loop_
_space_group_symop_operation_xyz
x,y,z
-x,y,-z
-x,-y,-z
x,-y,z
1/2+x,1/2+y,z
1/2-x,1/2+y,-z
1/2-x,1/2-y,-z
1/2+x,1/2-y,z
loop_
_atom_site_type_symbol
_atom_site_label
_atom_site_fract_x
_atom_site_fract_y
_atom_site_fract_z
Si Si1 0.866508 0.884797 0.372895
Si Si2 0.577602 0.193327 0.165569
Si Si3 0.584814 0.389730 0.126735
Si Si4 0.854337 0.614444 0.890171
Si Si5 0.254888 0.116291 0.595673
Si Si6 0.819114 0.612185 0.101197
Si Si7 0.879987 0.296310 0.218836
O O1 0.763720 0.831541 0.283087
O O2 0.777986 0.857193 0.372367
O O3 0.077156 0.854312 0.479136
O O4 0.848168 0.000000 0.355386
O O5 0.583607 0.312163 0.164168
O O6 0.561074 0.140335 0.112042
O O7 0.399797 0.160696 0.100185
O O8 0.616515 0.500000 0.160990
O O9 0.736776 0.365076 0.169832
O O10 0.395395 0.383608 0.006903
O O11 0.796350 0.500000 0.862970
O O12 0.674930 0.680992 0.805565
O O13 0.000000 0.639957 0.000000
O O14 0.420206 0.182336 0.661460
O O15 0.298232 0.000000 0.612594
O O16 0.891295 0.500000 0.140979
O O17 0.893135 0.673659 0.177316
#
# Coordination Sequence:
#
# PCOD8110540 Si02
#       7
#     8   8   8   8   8   8   8
#     4   9  17  31  53  82 105 127 168 224 269 303
#     4  11  20  35  57  76 101 137 180 222 258 295
#     4  10  22  34  46  73 112 142 169 204 258 324
#     4  10  22  38  53  73 107 147 183 215 249 303
#     4   9  17  30  53  82 108 129 162 217 276 316
#     4  11  20  32  54  80 102 132 176 223 260 302
#     4  11  19  33  55  78 106 139 168 210 271 320
#
# _framework density 17.538160000000001
#
# number of rings (size 3 to 8) (size 9 to 14) (size 15 to 20)
#    0.000    1.857    1.429    6.000    0.000    1.143 
#    0.000    5.000    0.000    2.571    0.000    2.000 
#    0.000    0.000    0.000    0.000    0.000    0.000 
#
# Total GULP energy -347172.222305 kJ/mol
# GULP energy per Si atom -12399.007939 kJ/mol
# Density = 1.749824 g / cm^3
# Si number density = 17.538160 Si / 1000 Ang^3
#
#
#
# Elastic Constant Matrix: (Units=GPa)
#
#
# Indices 1 2 3 4 5 6 
#
# 1 75.3672 29.1389 25.0956 0.0004 12.0248 0.0001
# 2 29.1389 112.2759 34.7414 0.0006 12.0706 0.0001
# 3 25.0956 34.7414 89.3989 -0.0010 22.3216 0.0002
# 4 0.0004 0.0006 -0.0010 23.3040 0.0003 3.8874
# 5 12.0248 12.0706 22.3216 0.0003 32.9165 0.0002
# 6 0.0001 0.0001 0.0002 3.8874 0.0002 19.5351
#
#
#
# Elastic Compliance Matrix: (Units=1/GPa)
#
#
# Indices 1 2 3 4 5 6 
#
# 1 0.015732 -0.002987 -0.002521 0.000000 -0.002942 0.000000
# 2 -0.002987 0.010734 -0.003157 0.000000 -0.000704 0.000000
# 3 -0.002521 -0.003157 0.015170 0.000001 -0.008208 0.000000
# 4 0.000000 0.000000 0.000001 0.044384 -0.000001 -0.008832
# 5 -0.002942 -0.000704 -0.008208 -0.000001 0.037279 0.000000
# 6 0.000000 0.000000 0.000000 -0.008832 0.000000 0.052948
#
#
# Mechanical properties :
#
#
# Convention : Reuss Voigt Hill
#
# Bulk Modulus (GPa) = 41.14071 50.55488 45.84779
# Shear Modulus (GPa) = 24.79181 27.68885 26.24033
#
# Velocity S-wave (km/s) = 3.76386 3.97769 3.87225
# Velocity P-wave (km/s) = 6.51134 7.06996 6.79639
#
# Compressibility (1/GPa) = 0.02430682
#
# Stress axis : x y z
#
# Youngs Moduli (GPa) = 63.56504 93.15843 65.91964
#
# Poissons Ratio (x) = 0.27822 0.16618
# Poissons Ratio (y) = 0.18984 0.20813
# Poissons Ratio (z) = 0.16024 0.29413
#
# Static dielectric constant tensor:
#      x y z
#    x 3.175410 0.000000 0.116420 
#    y 0.000000 3.318010 0.000000 
#    z 0.116420 0.000000 3.397070 
# 
# 
# High freq. dielectric constant tensor:
#      x y z
#    x 1.670100 0.000000 0.009710 
#    y 0.000000 1.669410 0.000000 
#    z 0.009710 0.000000 1.677840 
# 
# From -- ./inp_files/361461.got.cif
#   From: 2010.06.25/outbox.cif.g09.slc.cpg/sg12_181_cif.got.tgz:361461.got - 2010.06.28 00:19:55.
