data_PCOD8110399
_publ_section_title
;
Structure prediction by ZEFSAII (Michael W. Deem and Ramdas Pophale) SiO2 
 PCOD8110399
Probable space group: C 2/M
;
_chemical_formula_sum "Si O2"
_cell_formula_units_Z 28
_cell_length_a 11.183667
_cell_length_b 16.595869
_cell_length_c 7.779907
_cell_angle_alpha 90.000000
_cell_angle_beta 113.903946
_cell_angle_gamma 90.000000
_cell_volume 1320.116390
_symmetry_space_group_name_H-M "C 2/M"
_symmetry_group_IT_number 12
_symmetry_cell_setting 'monoclinic'
loop_
_space_group_symop_operation_xyz
x,y,z
-x,y,-z
-x,-y,-z
x,-y,z
1/2+x,1/2+y,z
1/2-x,1/2+y,-z
1/2-x,1/2-y,-z
1/2+x,1/2-y,z
loop_
_atom_site_type_symbol
_atom_site_label
_atom_site_fract_x
_atom_site_fract_y
_atom_site_fract_z
Si Si1 0.037257 0.087724 0.821602
Si Si2 0.804991 0.406039 0.116761
Si Si3 0.000000 0.677557 0.000000
Si Si4 0.675442 0.295146 0.307638
O O1 0.945123 0.153987 0.676664
O O2 0.010845 0.000000 0.722460
O O3 0.191500 0.108860 0.906267
O O4 0.000000 0.086380 0.000000
O O5 0.811453 0.500000 0.172264
O O6 0.942658 0.378575 0.117302
O O7 0.776660 0.354847 0.271972
O O8 0.882505 0.732149 0.861793
O O9 0.750000 0.250000 0.500000
#
# Coordination Sequence:
#
# PCOD8110399 Si02
#       4
#     8   8   4   8
#     4   8  15  34  62  86 114 161 211 252 304 368
#     4  10  21  42  66  90 126 173 210 256 319 376
#     4  12  23  40  61  96 130 164 214 262 311 372
#     4  11  22  37  64  96 126 162 212 263 319 371
#
# _framework density 21.210249999999998
#
# number of rings (size 3 to 8) (size 9 to 14) (size 15 to 20)
#    0.000    2.000    4.286    3.857    0.000    1.143 
#    0.000    7.143    0.000    3.429    0.000    0.000 
#    0.000    0.000    0.000    0.000    0.000    0.000 
#
# Total GULP energy -173554.228432 kJ/mol
# GULP energy per Si atom -12396.730602 kJ/mol
# Density = 2.116197 g / cm^3
# Si number density = 21.210250 Si / 1000 Ang^3
#
#
#
# Elastic Constant Matrix: (Units=GPa)
#
#
# Indices 1 2 3 4 5 6 
#
# 1 96.1702 60.0350 11.9716 0.0000 -8.1072 0.0000
# 2 60.0350 158.1465 63.5736 0.0000 2.7436 0.0000
# 3 11.9716 63.5736 91.6361 0.0000 7.0724 0.0000
# 4 0.0000 0.0000 0.0000 34.0074 0.0000 12.1896
# 5 -8.1072 2.7436 7.0724 0.0000 15.0122 0.0000
# 6 0.0000 0.0000 0.0000 12.1896 0.0000 32.0703
#
#
#
# Elastic Compliance Matrix: (Units=1/GPa)
#
#
# Indices 1 2 3 4 5 6 
#
# 1 0.015004 -0.006647 0.002005 0.000000 0.008373 0.000000
# 2 -0.006647 0.011738 -0.007090 0.000000 -0.002395 0.000000
# 3 0.002005 -0.007090 0.015967 0.000000 -0.005143 0.000000
# 4 0.000000 0.000000 0.000000 0.034043 0.000000 -0.012940
# 5 0.008373 -0.002395 -0.005143 0.000000 0.073995 0.000000
# 6 0.000000 0.000000 0.000000 -0.012940 0.000000 0.036100
#
#
# Mechanical properties :
#
#
# Convention : Reuss Voigt Hill
#
# Bulk Modulus (GPa) = 51.96328 68.56814 60.26571
# Shear Modulus (GPa) = 23.07054 30.24282 26.65668
#
# Velocity S-wave (km/s) = 3.30162 3.78015 3.54896
# Velocity P-wave (km/s) = 6.25192 7.17292 6.72820
#
# Compressibility (1/GPa) = 0.01924436
#
# Stress axis : x y z
#
# Youngs Moduli (GPa) = 66.64917 85.19035 62.62985
#
# Poissons Ratio (x) = 0.56626 -0.12558
# Poissons Ratio (y) = 0.44302 0.44407
# Poissons Ratio (z) = -0.13364 0.60404
#
# Static dielectric constant tensor:
#      x y z
#    x 3.962560 0.000000 0.499130 
#    y 0.000000 4.225810 0.000000 
#    z 0.499130 0.000000 3.081220 
# 
# 
# High freq. dielectric constant tensor:
#      x y z
#    x 1.829130 0.000000 0.018940 
#    y 0.000000 1.854040 0.000000 
#    z 0.018940 0.000000 1.777560 
# 
# From -- ./inp_files/44767.got.cif
#   From: 2010.06.25/outbox.cif.g09.slc.cpg/sg12_23_cif.got.tgz:44767.got - 2010.06.28 00:19:55.
