data_PCOD8110819
_publ_section_title
;
Structure prediction by ZEFSAII (Michael W. Deem and Ramdas Pophale) SiO2 
 PCOD8110819
Probable space group: C 2/M
;
_chemical_formula_sum "Si O2"
_cell_formula_units_Z 64
_cell_length_a 23.396671
_cell_length_b 22.210436
_cell_length_c 11.613836
_cell_angle_alpha 90.000000
_cell_angle_beta 32.753596
_cell_angle_gamma 90.000000
_cell_volume 3265.171413
_symmetry_space_group_name_H-M "C 2/M"
_symmetry_group_IT_number 12
_symmetry_cell_setting 'monoclinic'
loop_
_space_group_symop_operation_xyz
x,y,z
-x,y,-z
-x,-y,-z
x,-y,z
1/2+x,1/2+y,z
1/2-x,1/2+y,-z
1/2-x,1/2-y,-z
1/2+x,1/2-y,z
loop_
_atom_site_type_symbol
_atom_site_label
_atom_site_fract_x
_atom_site_fract_y
_atom_site_fract_z
Si Si1 0.120271 0.735573 0.305757
Si Si2 0.392594 0.567487 0.623249
Si Si3 0.379981 0.816578 0.243964
Si Si4 0.351843 0.430035 0.062541
Si Si5 0.773299 0.567442 0.504753
Si Si6 0.176696 0.774370 0.466696
Si Si7 0.418156 0.399666 0.322498
Si Si8 0.207654 0.151492 0.048359
O O1 0.161866 0.758566 0.358523
O O2 0.140466 0.787227 0.176744
O O3 0.000000 0.718444 0.500000
O O4 0.174080 0.672377 0.179596
O O5 0.500000 0.591952 0.500000
O O6 0.368033 0.500000 0.706745
O O7 0.403942 0.568240 0.468495
O O8 0.297961 0.611473 0.825371
O O9 0.358553 0.886947 0.306870
O O10 0.299741 0.791604 0.282022
O O11 0.358613 0.782616 0.399189
O O12 0.500000 0.807966 0.000000
O O13 0.350826 0.500000 0.028090
O O14 0.257459 0.416002 0.311662
O O15 0.465052 0.412040 0.925108
O O16 0.339319 0.388860 0.972713
O O17 0.821013 0.500000 0.416812
O O18 0.663648 0.568939 0.622980
O O19 0.101174 0.828538 0.633579
#
# Coordination Sequence:
#
# PCOD8110819 Si02
#       8
#     8   8   8   8   8   8   8   8
#     4  11  23  40  58  86 121 160 202 248 299 360
#     4  11  20  34  56  86 121 154 194 243 301 363
#     4  10  23  41  63  88 117 162 201 250 306 355
#     4  11  21  36  59  87 120 157 197 244 304 362
#     4  10  22  38  57  86 120 155 203 251 294 355
#     4  10  22  40  60  88 125 152 202 249 301 367
#     4  11  20  34  58  88 120 154 193 244 311 360
#     4  11  22  35  58  85 113 155 199 241 296 353
#
# _framework density 19.600809000000002
#
# number of rings (size 3 to 8) (size 9 to 14) (size 15 to 20)
#    0.000    1.375    2.500    3.750    0.000    7.250 
#    0.000    0.000    0.000    1.500    0.000    0.000 
#    0.000    0.000    0.000    0.000    0.000    0.000 
#
# Total GULP energy -396809.087506 kJ/mol
# GULP energy per Si atom -12400.283985 kJ/mol
# Density = 1.955620 g / cm^3
# Si number density = 19.600809 Si / 1000 Ang^3
#
#
#
# Elastic Constant Matrix: (Units=GPa)
#
#
# Indices 1 2 3 4 5 6 
#
# 1 74.9335 28.5357 32.8268 0.0000 0.3062 0.0000
# 2 28.5357 104.5880 48.0110 0.0000 -8.2751 0.0000
# 3 32.8268 48.0110 106.6874 0.0000 -17.4405 0.0000
# 4 0.0000 0.0000 0.0000 31.3416 0.0000 4.4571
# 5 0.3062 -8.2751 -17.4405 0.0000 25.6892 0.0000
# 6 0.0000 0.0000 0.0000 4.4571 0.0000 24.1045
#
#
#
# Elastic Compliance Matrix: (Units=1/GPa)
#
#
# Indices 1 2 3 4 5 6 
#
# 1 0.016365 -0.002735 -0.004477 0.000000 -0.004116 0.000000
# 2 -0.002735 0.012509 -0.004638 0.000000 0.000913 0.000000
# 3 -0.004477 -0.004638 0.014176 0.000000 0.008183 0.000000
# 4 0.000000 0.000000 0.000000 0.032768 0.000000 -0.006059
# 5 -0.004116 0.000913 0.008183 0.000000 0.044826 0.000000
# 6 0.000000 0.000000 0.000000 -0.006059 0.000000 0.042606
#
#
# Mechanical properties :
#
#
# Convention : Reuss Voigt Hill
#
# Bulk Modulus (GPa) = 51.68489 56.10620 53.89555
# Shear Modulus (GPa) = 25.85296 28.01612 26.93454
#
# Velocity S-wave (km/s) = 3.63571 3.78476 3.71098
# Velocity P-wave (km/s) = 6.63706 6.91272 6.77629
#
# Compressibility (1/GPa) = 0.01934802
#
# Stress axis : x y z
#
# Youngs Moduli (GPa) = 61.10590 79.94162 70.54245
#
# Poissons Ratio (x) = 0.21867 0.31583
# Poissons Ratio (y) = 0.16715 0.32720
# Poissons Ratio (z) = 0.27359 0.37080
#
# Static dielectric constant tensor:
#      x y z
#    x 3.534220 0.000000 0.125850 
#    y 0.000000 3.719090 0.000000 
#    z 0.125850 0.000000 3.547970 
# 
# 
# High freq. dielectric constant tensor:
#      x y z
#    x 1.755400 0.000000 0.019580 
#    y 0.000000 1.777910 0.000000 
#    z 0.019580 0.000000 1.751690 
# 
# From -- ./inp_files/178411.got.cif
#   From: 2010.06.25/outbox.cif.g09.slc.cpg/sg12_90_cif.got.tgz:178411.got - 2010.06.28 00:19:55.
