data_PCOD8110091
_publ_section_title
;
Structure prediction by ZEFSAII (Michael W. Deem and Ramdas Pophale) SiO2 
 PCOD8110091
Probable space group: C 2/M
;
_chemical_formula_sum "Si O2"
_cell_formula_units_Z 56
_cell_length_a 12.026702
_cell_length_b 26.877420
_cell_length_c 9.308376
_cell_angle_alpha 90.000000
_cell_angle_beta 125.206434
_cell_angle_gamma 90.000000
_cell_volume 2458.514152
_symmetry_space_group_name_H-M "C 2/M"
_symmetry_group_IT_number 12
_symmetry_cell_setting 'monoclinic'
loop_
_space_group_symop_operation_xyz
x,y,z
-x,y,-z
-x,-y,-z
x,-y,z
1/2+x,1/2+y,z
1/2-x,1/2+y,-z
1/2-x,1/2-y,-z
1/2+x,1/2-y,z
loop_
_atom_site_type_symbol
_atom_site_label
_atom_site_fract_x
_atom_site_fract_y
_atom_site_fract_z
Si Si1 0.887201 0.871307 0.291057
Si Si2 0.985389 0.799230 0.825111
Si Si3 0.478552 0.809290 0.250421
Si Si4 0.694268 0.163051 0.637800
Si Si5 0.097963 0.399505 0.188305
Si Si6 0.493933 0.445046 0.155074
Si Si7 0.700134 0.055026 0.546432
O O1 0.735725 0.872241 0.239691
O O2 0.000000 0.874370 0.500000
O O3 0.908673 0.822106 0.210200
O O4 0.892506 0.917027 0.184350
O O5 0.004339 0.740465 0.828411
O O6 0.838792 0.822661 0.676968
O O7 0.000000 0.816081 0.000000
O O8 0.330681 0.815326 0.219824
O O9 0.591503 0.809119 0.457075
O O10 0.496751 0.855821 0.161033
O O11 0.662007 0.103025 0.615837
O O12 0.136560 0.438431 0.341056
O O13 0.000000 0.427612 0.000000
O O14 0.432871 0.500000 0.089084
O O15 0.637680 0.445589 0.342463
O O16 0.500000 0.419932 0.000000
O O17 0.651773 0.000000 0.569546
#
# Coordination Sequence:
#
# PCOD8110091 Si02
#       7
#     8   8   8   8   8   8   8
#     4  12  24  42  68 102 137 180 228 287 344 412
#     4  12  26  40  67 102 134 176 231 285 342 409
#     4  10  24  43  65  91 136 183 225 279 342 413
#     4  10  22  43  67  96 133 180 227 280 340 411
#     4  11  25  43  64  98 143 184 230 281 348 412
#     4  10  21  40  68 102 136 174 228 295 353 404
#     4  10  21  43  70 100 137 181 234 285 347 413
#
# _framework density 22.777985999999999
#
# number of rings (size 3 to 8) (size 9 to 14) (size 15 to 20)
#    0.000    1.286    2.857    2.143    6.000    1.714 
#    0.000    5.714    0.000    0.000    0.000    0.000 
#    0.000    0.000    0.000    0.000    0.000    0.000 
#
# Total GULP energy -346963.121664 kJ/mol
# GULP energy per Si atom -12391.540059 kJ/mol
# Density = 2.272614 g / cm^3
# Si number density = 22.777986 Si / 1000 Ang^3
#
#
#
# Elastic Constant Matrix: (Units=GPa)
#
#
# Indices 1 2 3 4 5 6 
#
# 1 69.5770 10.1251 7.6681 0.0000 -5.1478 0.0000
# 2 10.1251 113.3285 16.8096 0.0000 -11.8180 0.0000
# 3 7.6681 16.8096 95.5440 0.0000 -5.1381 0.0000
# 4 0.0000 0.0000 0.0000 6.6778 0.0000 28.2768
# 5 -5.1478 -11.8180 -5.1381 0.0000 33.4758 0.0000
# 6 0.0000 0.0000 0.0000 28.2768 0.0000 -57.1246
#
#
#
# Elastic Compliance Matrix: (Units=1/GPa)
#
#
# Indices 1 2 3 4 5 6 
#
# 1 0.014750 -0.000997 -0.000913 0.000000 0.001776 0.000000
# 2 -0.000997 0.009432 -0.001420 0.000000 0.002958 0.000000
# 3 -0.000913 -0.001420 0.010845 0.000000 0.001023 0.000000
# 4 0.000000 0.000000 0.000000 0.048368 0.000000 0.023942
# 5 0.001776 0.002958 0.001023 0.000000 0.031347 0.000000
# 6 0.000000 0.000000 0.000000 0.023942 0.000000 -0.005654
#
#
# Mechanical properties :
#
#
# Convention : Reuss Voigt Hill
#
# Bulk Modulus (GPa) = 35.25377 38.62833 36.94105
# Shear Modulus (GPa) = 39.93526 12.86227 26.39877
#
# Velocity S-wave (km/s) = 4.19171 2.37888 3.40804
# Velocity P-wave (km/s) = 6.24003 4.95387 5.63378
#
# Compressibility (1/GPa) = 0.02836576
#
# Stress axis : x y z
#
# Youngs Moduli (GPa) = 67.79803 106.02004 92.21237
#
# Poissons Ratio (x) = 0.10572 0.08417
# Poissons Ratio (y) = 0.06761 0.13097
# Poissons Ratio (z) = 0.06189 0.15058
#
# Static dielectric constant tensor:
#      x y z
#    x 4.243750 0.000000 -0.135300 
#    y 0.000000 4.114790 0.000000 
#    z -0.135300 0.000000 4.184800 
# 
# 
# High freq. dielectric constant tensor:
#      x y z
#    x 1.890960 0.000000 -0.002730 
#    y 0.000000 1.895150 0.000000 
#    z -0.002730 0.000000 1.906820 
# 
# From -- ./inp_files/54802.got.cif
#   From: 2010.06.25/outbox.cif.g09.slc.cpg/sg12_28_cif.got.tgz:54802.got - 2010.06.28 00:19:55.
