data_PCOD8110658
_publ_section_title
;
Structure prediction by ZEFSAII (Michael W. Deem and Ramdas Pophale) SiO2 
 PCOD8110658
Probable space group: C 2/M
;
_chemical_formula_sum "Si O2"
_cell_formula_units_Z 56
_cell_length_a 26.585100
_cell_length_b 9.224971
_cell_length_c 14.461266
_cell_angle_alpha 90.000000
_cell_angle_beta 57.337967
_cell_angle_gamma 90.000000
_cell_volume 2985.753343
_symmetry_space_group_name_H-M "C 2/M"
_symmetry_group_IT_number 12
_symmetry_cell_setting 'monoclinic'
loop_
_space_group_symop_operation_xyz
x,y,z
-x,y,-z
-x,-y,-z
x,-y,z
1/2+x,1/2+y,z
1/2-x,1/2+y,-z
1/2-x,1/2-y,-z
1/2+x,1/2-y,z
loop_
_atom_site_type_symbol
_atom_site_label
_atom_site_fract_x
_atom_site_fract_y
_atom_site_fract_z
Si Si1 0.755457 0.328696 0.591973
Si Si2 0.966695 0.164410 0.397308
Si Si3 0.130781 0.329844 0.401460
Si Si4 0.465356 0.669448 0.188997
Si Si5 0.643431 0.672375 0.819859
Si Si6 0.902526 0.827540 0.943322
Si Si7 0.892920 0.833188 0.749453
O O1 0.750281 0.500000 0.580522
O O2 0.750000 0.250000 0.500000
O O3 0.817533 0.285500 0.578265
O O4 0.703304 0.270604 0.711733
O O5 0.932308 0.272557 0.498747
O O6 0.946636 0.199115 0.312981
O O7 0.036944 0.187286 0.339415
O O8 0.949213 0.000000 0.441528
O O9 0.127398 0.500000 0.390992
O O10 0.144260 0.259938 0.287800
O O11 0.468382 0.500000 0.165326
O O12 0.414536 0.739592 0.174371
O O13 0.530887 0.736402 0.103327
O O14 0.641785 0.500000 0.815557
O O15 0.641202 0.721439 0.929990
O O16 0.877965 0.774052 0.867986
O O17 0.908804 0.000000 0.930096
O O18 0.873966 0.000000 0.757812
#
# Coordination Sequence:
#
# PCOD8110658 Si02
#       7
#     8   8   8   8   8   8   8
#     4  10  22  37  52  72  97 127 162 198 236 281
#     4   9  17  30  49  73  99 126 159 198 240 288
#     4  11  22  33  46  68  98 130 164 199 236 281
#     4   8  13  22  42  73 100 119 145 190 246 291
#     4   9  15  26  46  69  95 126 156 191 238 284
#     4   8  14  25  44  72  99 119 149 195 240 284
#     4   9  18  32  50  73  98 124 158 200 243 286
#
# _framework density 18.755737
#
# number of rings (size 3 to 8) (size 9 to 14) (size 15 to 20)
#    0.000    2.857    0.000    3.857    0.000    6.286 
#    0.000    0.714    0.000    0.857    0.000    0.000 
#    0.000   10.286    0.000    0.000    0.000    0.000 
#
# Total GULP energy -347058.081507 kJ/mol
# GULP energy per Si atom -12394.931482 kJ/mol
# Density = 1.871305 g / cm^3
# Si number density = 18.755737 Si / 1000 Ang^3
#
#
#
# Elastic Constant Matrix: (Units=GPa)
#
#
# Indices 1 2 3 4 5 6 
#
# 1 79.6198 36.6901 56.1797 0.0000 27.9872 0.0000
# 2 36.6901 40.2137 35.4817 0.0000 11.0285 0.0000
# 3 56.1797 35.4817 137.7743 0.0000 16.9967 0.0000
# 4 0.0000 0.0000 0.0000 15.4375 0.0000 4.5375
# 5 27.9872 11.0285 16.9967 0.0000 29.4316 0.0000
# 6 0.0000 0.0000 0.0000 4.5375 0.0000 20.0909
#
#
#
# Elastic Compliance Matrix: (Units=1/GPa)
#
#
# Indices 1 2 3 4 5 6 
#
# 1 0.032715 -0.018989 -0.005911 0.000000 -0.020581 0.000000
# 2 -0.018989 0.044969 -0.004293 0.000000 0.003685 0.000000
# 3 -0.005911 -0.004293 0.010640 0.000000 0.001085 0.000000
# 4 0.000000 0.000000 0.000000 0.069383 0.000000 -0.015670
# 5 -0.020581 0.003685 0.001085 0.000000 0.051540 0.000000
# 6 0.000000 0.000000 0.000000 -0.015670 0.000000 0.053313
#
#
# Mechanical properties :
#
#
# Convention : Reuss Voigt Hill
#
# Bulk Modulus (GPa) = 33.40087 57.14564 45.27326
# Shear Modulus (GPa) = 15.10911 21.60909 18.35910
#
# Velocity S-wave (km/s) = 2.84134 3.39799 3.13206
# Velocity P-wave (km/s) = 5.34895 6.77714 6.10495
#
# Compressibility (1/GPa) = 0.02993934
#
# Stress axis : x y z
#
# Youngs Moduli (GPa) = 30.56682 22.23740 93.98315
#
# Poissons Ratio (x) = 0.42227 0.55552
# Poissons Ratio (y) = 0.58044 0.40344
# Poissons Ratio (z) = 0.18068 0.09546
#
# Static dielectric constant tensor:
#      x y z
#    x 3.632550 0.000000 0.196310 
#    y 0.000000 2.906380 0.000000 
#    z 0.196310 0.000000 3.642310 
# 
# 
# High freq. dielectric constant tensor:
#      x y z
#    x 1.724440 0.000000 0.018910 
#    y 0.000000 1.668340 0.000000 
#    z 0.018910 0.000000 1.737170 
# 
# From -- ./inp_files/243691.got.cif
#   From: 2010.06.25/outbox.cif.g09.slc.cpg/sg12_122_cif.got.tgz:243691.got - 2010.06.28 00:19:55.
