data_PCOD8110259
_publ_section_title
;
Structure prediction by ZEFSAII (Michael W. Deem and Ramdas Pophale) SiO2 
 PCOD8110259
Probable space group: C 2/M
;
_chemical_formula_sum "Si O2"
_cell_formula_units_Z 60
_cell_length_a 19.063572
_cell_length_b 15.377721
_cell_length_c 24.336136
_cell_angle_alpha 90.000000
_cell_angle_beta 23.370798
_cell_angle_gamma 90.000000
_cell_volume 2830.012011
_symmetry_space_group_name_H-M "C 2/M"
_symmetry_group_IT_number 12
_symmetry_cell_setting 'monoclinic'
loop_
_space_group_symop_operation_xyz
x,y,z
-x,y,-z
-x,-y,-z
x,-y,z
1/2+x,1/2+y,z
1/2-x,1/2+y,-z
1/2-x,1/2-y,-z
1/2+x,1/2-y,z
loop_
_atom_site_type_symbol
_atom_site_label
_atom_site_fract_x
_atom_site_fract_y
_atom_site_fract_z
Si Si1 0.000000 0.833554 0.500000
Si Si2 0.842305 0.658634 0.938228
Si Si3 0.660113 0.745224 0.750682
Si Si4 0.519083 0.403142 0.777316
Si Si5 0.617517 0.900918 0.214601
Si Si6 0.931699 0.903358 0.662936
Si Si7 0.300713 0.745521 0.152487
Si Si8 0.233323 0.852198 0.516196
O O1 0.159130 0.773975 0.409845
O O2 0.080380 0.892823 0.394022
O O3 0.896861 0.622777 0.839224
O O4 0.019173 0.674458 0.847528
O O5 0.750000 0.750000 0.000000
O O6 0.696340 0.597735 0.072970
O O7 0.581275 0.658279 0.781714
O O8 0.719044 0.720578 0.769747
O O9 0.579121 0.500000 0.749238
O O10 0.611343 0.374476 0.655403
O O11 0.751348 0.835622 0.149072
O O12 0.426720 0.894092 0.380803
O O13 0.686808 0.000000 0.171114
O O14 0.818051 0.829879 0.776325
O O15 0.135963 0.892209 0.533345
O O16 0.863277 0.000000 0.727607
O O17 0.500000 0.773862 0.000000
O O18 0.250000 0.750000 0.500000
#
# Coordination Sequence:
#
# PCOD8110259 Si02
#       8
#     4   8   8   8   8   8   8   8
#     4  10  21  42  61  92 124 176 219 256 322 398
#     4  10  21  41  66  92 125 174 221 274 328 383
#     4  10  23  39  65  91 129 178 218 258 335 400
#     4  11  23  39  64  98 130 162 215 278 332 386
#     4  12  25  43  70 103 135 176 229 279 334 402
#     4  11  23  40  65  92 127 168 217 276 330 389
#     4  11  25  42  64  94 134 180 219 264 331 403
#     4  12  23  42  68  97 129 170 216 281 337 390
#
# _framework density 21.201322999999999
#
# number of rings (size 3 to 8) (size 9 to 14) (size 15 to 20)
#    0.000    1.067    1.333    6.600    3.733    1.067 
#    0.000    6.333    0.000    0.000    0.000    0.000 
#    0.000    0.000    0.000    0.000    0.000    0.000 
#
# Total GULP energy -371946.820731 kJ/mol
# GULP energy per Si atom -12398.227358 kJ/mol
# Density = 2.115307 g / cm^3
# Si number density = 21.201323 Si / 1000 Ang^3
#
#
#
# Elastic Constant Matrix: (Units=GPa)
#
#
# Indices 1 2 3 4 5 6 
#
# 1 71.3052 29.5987 17.4583 -0.0025 -1.1263 0.0015
# 2 29.5987 159.9532 31.3756 -0.0232 -5.6578 0.0040
# 3 17.4583 31.3756 121.2570 -0.0452 -5.6772 -0.0179
# 4 -0.0025 -0.0232 -0.0452 20.5679 0.0159 2.1263
# 5 -1.1263 -5.6578 -5.6772 0.0159 39.3398 0.0069
# 6 0.0015 0.0040 -0.0179 2.1263 0.0069 19.0879
#
#
#
# Elastic Compliance Matrix: (Units=1/GPa)
#
#
# Indices 1 2 3 4 5 6 
#
# 1 0.015469 -0.002560 -0.001572 -0.000004 -0.000152 -0.000002
# 2 -0.002560 0.007029 -0.001416 0.000004 0.000733 -0.000003
# 3 -0.001572 -0.001416 0.008888 0.000016 0.001034 0.000007
# 4 -0.000004 0.000004 0.000016 0.049186 -0.000016 -0.005479
# 5 -0.000152 0.000733 0.001034 -0.000016 0.025670 -0.000007
# 6 -0.000002 -0.000003 0.000007 -0.005479 -0.000007 0.053000
#
#
# Mechanical properties :
#
#
# Convention : Reuss Voigt Hill
#
# Bulk Modulus (GPa) = 49.28216 56.59786 52.94001
# Shear Modulus (GPa) = 28.23254 34.07130 31.15192
#
# Velocity S-wave (km/s) = 3.65312 4.01313 3.83735
# Velocity P-wave (km/s) = 6.41007 6.94457 6.68267
#
# Compressibility (1/GPa) = 0.02029132
#
# Stress axis : x y z
#
# Youngs Moduli (GPa) = 64.64470 142.26478 112.51013
#
# Poissons Ratio (x) = 0.36413 0.17687
# Poissons Ratio (y) = 0.16546 0.15931
# Poissons Ratio (z) = 0.10163 0.20144
#
# Static dielectric constant tensor:
#      x y z
#    x 3.883260 -0.000090 -0.065560 
#    y -0.000090 3.906020 -0.000140 
#    z -0.065560 -0.000140 4.457950 
# 
# 
# High freq. dielectric constant tensor:
#      x y z
#    x 1.826260 0.000000 -0.000440 
#    y 0.000000 1.827540 0.000010 
#    z -0.000440 0.000010 1.844050 
# 
# From -- ./inp_files/366541.got.cif
#   From: 2010.06.25/outbox.cif.g09.slc.cpg/sg12_184_cif.got.tgz:366541.got - 2010.06.28 00:19:55.
