data_PCOD8110501
_publ_section_title
;
Structure prediction by ZEFSAII (Michael W. Deem and Ramdas Pophale) SiO2 
 PCOD8110501
Probable space group: C 2/M
;
_chemical_formula_sum "Si O2"
_cell_formula_units_Z 48
_cell_length_a 16.819330
_cell_length_b 15.347863
_cell_length_c 16.828584
_cell_angle_alpha 90.000000
_cell_angle_beta 145.559986
_cell_angle_gamma 90.000000
_cell_volume 2456.800503
_symmetry_space_group_name_H-M "C 2/M"
_symmetry_group_IT_number 12
_symmetry_cell_setting 'monoclinic'
loop_
_space_group_symop_operation_xyz
x,y,z
-x,y,-z
-x,-y,-z
x,-y,z
1/2+x,1/2+y,z
1/2-x,1/2+y,-z
1/2-x,1/2-y,-z
1/2+x,1/2-y,z
loop_
_atom_site_type_symbol
_atom_site_label
_atom_site_fract_x
_atom_site_fract_y
_atom_site_fract_z
Si Si1 0.592284 0.676078 0.932616
Si Si2 0.658794 0.600087 0.656236
Si Si3 0.829499 0.803481 0.178607
Si Si4 0.431759 0.824811 0.606377
Si Si5 0.861678 0.000000 0.938307
Si Si6 0.045717 0.500000 0.628671
Si Si7 0.822371 0.730794 0.681776
O O1 0.612309 0.659013 0.855643
O O2 0.432614 0.706109 0.817689
O O3 0.684429 0.754267 0.043576
O O4 0.633886 0.585843 0.005516
O O5 0.500000 0.621648 0.500000
O O6 0.694795 0.500000 0.668080
O O7 0.686816 0.617814 0.772586
O O8 0.764833 0.659156 0.694037
O O9 0.940360 0.738220 0.309862
O O10 0.478824 0.920076 0.620567
O O11 0.297012 0.796147 0.445806
O O12 0.397675 0.821118 0.672104
O O13 0.715574 0.000000 0.769474
O O14 0.000000 0.000000 0.000000
O O15 0.000000 0.500000 0.500000
#
# Coordination Sequence:
#
# PCOD8110501 Si02
#       7
#     8   8   8   8   4   4   8
#     4  10  24  42  67  91 131 170 211 263 320 386
#     4  11  24  40  66  96 126 164 212 270 317 371
#     4  10  21  44  66  93 123 174 213 255 330 379
#     4  10  22  42  65  93 128 173 213 263 312 385
#     4  12  28  44  64 101 134 169 217 266 317 386
#     4  12  28  42  68  99 132 171 217 264 323 380
#     4  10  23  42  66  95 126 169 218 264 323 374
#
# _framework density 19.537606
#
# number of rings (size 3 to 8) (size 9 to 14) (size 15 to 20)
#    0.000    1.500    3.333    0.000    9.333    0.000 
#    0.000    1.667    0.000    0.000    0.000    0.000 
#    0.000    0.000    0.000    0.000    0.000    0.000 
#
# Total GULP energy -297643.560110 kJ/mol
# GULP energy per Si atom -12401.815005 kJ/mol
# Density = 1.949314 g / cm^3
# Si number density = 19.537606 Si / 1000 Ang^3
#
#
#
# Elastic Constant Matrix: (Units=GPa)
#
#
# Indices 1 2 3 4 5 6 
#
# 1 83.6625 43.6727 38.7917 -0.0008 0.2228 -0.0008
# 2 43.6727 95.5624 41.1498 -0.0010 -2.2438 -0.0009
# 3 38.7917 41.1498 133.9488 -0.0010 8.9303 -0.0010
# 4 -0.0008 -0.0010 -0.0010 35.4840 -0.0004 27.2463
# 5 0.2228 -2.2438 8.9303 -0.0004 30.5745 -0.0002
# 6 -0.0008 -0.0009 -0.0010 27.2463 -0.0002 104.8108
#
#
#
# Elastic Compliance Matrix: (Units=1/GPa)
#
#
# Indices 1 2 3 4 5 6 
#
# 1 0.016595 -0.006340 -0.002875 0.000000 0.000254 0.000000
# 2 -0.006340 0.014604 -0.002779 0.000000 0.001930 0.000000
# 3 -0.002875 -0.002779 0.009346 0.000000 -0.002913 0.000000
# 4 0.000000 0.000000 0.000000 0.035210 0.000000 -0.009153
# 5 0.000254 0.001930 -0.002913 0.000000 0.033698 0.000000
# 6 0.000000 0.000000 0.000000 -0.009153 0.000000 0.011920
#
#
# Mechanical properties :
#
#
# Convention : Reuss Voigt Hill
#
# Bulk Modulus (GPa) = 60.39891 62.26688 61.33290
# Shear Modulus (GPa) = 33.13914 46.81115 39.97515
#
# Velocity S-wave (km/s) = 4.12293 4.90016 4.52825
# Velocity P-wave (km/s) = 7.32434 7.99718 7.66814
#
# Compressibility (1/GPa) = 0.01655659
#
# Stress axis : x y z
#
# Youngs Moduli (GPa) = 60.26024 68.47585 106.99688
#
# Poissons Ratio (x) = 0.43413 0.30763
# Poissons Ratio (y) = 0.38204 0.29734
# Poissons Ratio (z) = 0.17325 0.19029
#
# Static dielectric constant tensor:
#      x y z
#    x 3.609120 0.000000 0.066660 
#    y 0.000000 3.182490 0.000000 
#    z 0.066660 0.000000 3.825060 
# 
# 
# High freq. dielectric constant tensor:
#      x y z
#    x 1.764390 0.000000 0.002600 
#    y 0.000000 1.758740 0.000000 
#    z 0.002600 0.000000 1.777740 
# 
# From -- ./inp_files/278275.got.cif
#   From: 2010.06.25/outbox.cif.g09.slc.cpg/sg12_140_cif.got.tgz:278275.got - 2010.06.28 00:19:55.
