data_PCOD8110753
_publ_section_title
;
Structure prediction by ZEFSAII (Michael W. Deem and Ramdas Pophale) SiO2 
 PCOD8110753
Probable space group: C 2/M
;
_chemical_formula_sum "Si O2"
_cell_formula_units_Z 40
_cell_length_a 21.708118
_cell_length_b 9.376724
_cell_length_c 25.714648
_cell_angle_alpha 90.000000
_cell_angle_beta 20.249940
_cell_angle_gamma 90.000000
_cell_volume 1811.655680
_symmetry_space_group_name_H-M "C 2/M"
_symmetry_group_IT_number 12
_symmetry_cell_setting 'monoclinic'
loop_
_space_group_symop_operation_xyz
x,y,z
-x,y,-z
-x,-y,-z
x,-y,z
1/2+x,1/2+y,z
1/2-x,1/2+y,-z
1/2-x,1/2-y,-z
1/2+x,1/2-y,z
loop_
_atom_site_type_symbol
_atom_site_label
_atom_site_fract_x
_atom_site_fract_y
_atom_site_fract_z
Si Si1 0.219414 0.329160 0.970090
Si Si2 0.311039 0.761320 0.537368
Si Si3 0.122188 0.838892 0.789683
Si Si4 0.525429 0.151513 0.693944
Si Si5 0.377711 0.654058 0.646615
O O1 0.214015 0.500000 0.980350
O O2 0.386835 0.282936 0.801697
O O3 0.250000 0.250000 0.000000
O O4 0.040196 0.270524 0.086566
O O5 0.240267 0.847057 0.643612
O O6 0.354271 0.858795 0.453252
O O7 0.153235 0.657066 0.643590
O O8 0.496355 0.683917 0.403969
O O9 0.234914 0.779429 0.749528
O O10 0.059730 0.000000 0.852027
O O11 0.422535 0.000000 0.780375
O O12 0.500000 0.640895 0.500000
O O13 0.282775 0.500000 0.730945
#
# Coordination Sequence:
#
# PCOD8110753 Si02
#       5
#     8   8   8   8   8
#     4  12  25  41  62  88 121 161 204 251 303 365
#     4  10  22  37  63  93 127 159 203 246 304 360
#     4  11  22  39  64  92 122 159 204 253 301 359
#     4  11  23  39  62  92 127 163 201 250 304 362
#     4   9  19  36  59  88 122 162 203 246 298 358
#
# _framework density 22.079249999999998
#
# number of rings (size 3 to 8) (size 9 to 14) (size 15 to 20)
#    0.000    1.400    2.000    3.600    0.000   10.000 
#    0.000    1.000    0.000    4.800    0.000    0.000 
#    0.000    0.000    0.000    0.000    0.000    0.000 
#
# Total GULP energy -247832.840737 kJ/mol
# GULP energy per Si atom -12391.642037 kJ/mol
# Density = 2.202900 g / cm^3
# Si number density = 22.079250 Si / 1000 Ang^3
#
#
#
# Elastic Constant Matrix: (Units=GPa)
#
#
# Indices 1 2 3 4 5 6 
#
# 1 85.7311 33.8078 32.4212 -0.0066 -29.0264 -0.0003
# 2 33.8078 199.9942 49.7581 0.0133 -23.5038 0.0037
# 3 32.4212 49.7581 94.0786 -0.0152 -22.3524 0.0023
# 4 -0.0066 0.0133 -0.0152 26.0348 -0.0042 -12.0659
# 5 -29.0264 -23.5038 -22.3524 -0.0042 36.6222 -0.0007
# 6 -0.0003 0.0037 0.0023 -12.0659 -0.0007 11.1358
#
#
#
# Elastic Compliance Matrix: (Units=1/GPa)
#
#
# Indices 1 2 3 4 5 6 
#
# 1 0.016782 -0.000863 -0.002688 0.000012 0.011106 0.000015
# 2 -0.000863 0.005950 -0.002462 -0.000010 0.001632 -0.000012
# 3 -0.002688 -0.002462 0.014008 0.000017 0.004839 0.000017
# 4 0.000012 -0.000010 0.000017 0.077154 0.000024 0.083599
# 5 0.011106 0.001632 0.004839 0.000024 0.040110 0.000027
# 6 0.000015 -0.000012 0.000017 0.083599 0.000027 0.180383
#
#
# Mechanical properties :
#
#
# Convention : Reuss Voigt Hill
#
# Bulk Modulus (GPa) = 40.46310 67.97536 54.21923
# Shear Modulus (GPa) = 14.09840 32.34633 23.22237
#
# Velocity S-wave (km/s) = 2.52967 3.83170 3.24662
# Velocity P-wave (km/s) = 5.18637 7.10139 6.21804
#
# Compressibility (1/GPa) = 0.02471387
#
# Stress axis : x y z
#
# Youngs Moduli (GPa) = 59.58925 168.05677 71.38971
#
# Poissons Ratio (x) = 0.14499 0.19190
# Poissons Ratio (y) = 0.05141 0.17576
# Poissons Ratio (z) = 0.16018 0.41375
#
# Static dielectric constant tensor:
#      x y z
#    x 4.156660 0.000010 -0.209080 
#    y 0.000010 3.968260 0.000070 
#    z -0.209080 0.000070 3.985300 
# 
# 
# High freq. dielectric constant tensor:
#      x y z
#    x 1.862410 0.000000 -0.015820 
#    y 0.000000 1.869140 0.000000 
#    z -0.015820 0.000000 1.853470 
# 
# From -- ./inp_files/381968.got.cif
#   From: 2010.06.25/outbox.cif.g09.slc.cpg/sg12_191_cif.got.tgz:381968.got - 2010.06.28 00:19:55.
