data_PCOD8110464
_publ_section_title
;
Structure prediction by ZEFSAII (Michael W. Deem and Ramdas Pophale) SiO2 
 PCOD8110464
Probable space group: C 2/M
;
_chemical_formula_sum "Si O2"
_cell_formula_units_Z 44
_cell_length_a 19.369875
_cell_length_b 12.671037
_cell_length_c 8.538951
_cell_angle_alpha 90.000000
_cell_angle_beta 73.189267
_cell_angle_gamma 90.000000
_cell_volume 2006.207419
_symmetry_space_group_name_H-M "C 2/M"
_symmetry_group_IT_number 12
_symmetry_cell_setting 'monoclinic'
loop_
_space_group_symop_operation_xyz
x,y,z
-x,y,-z
-x,-y,-z
x,-y,z
1/2+x,1/2+y,z
1/2-x,1/2+y,-z
1/2-x,1/2-y,-z
1/2+x,1/2-y,z
loop_
_atom_site_type_symbol
_atom_site_label
_atom_site_fract_x
_atom_site_fract_y
_atom_site_fract_z
Si Si1 0.626612 0.117274 0.116365
Si Si2 0.379646 0.312785 0.656410
Si Si3 0.500000 0.808813 0.000000
Si Si4 0.893669 0.000000 0.176056
Si Si5 0.783198 0.620351 0.235080
Si Si6 0.554624 0.500000 0.197689
Si Si7 0.886875 0.785101 0.301155
O O1 0.623601 0.200826 0.256289
O O2 0.553994 0.117545 0.060732
O O3 0.635213 0.000000 0.182916
O O4 0.693800 0.144991 0.959017
O O5 0.300911 0.361906 0.689716
O O6 0.430177 0.394745 0.713510
O O7 0.412629 0.292203 0.463452
O O8 0.543007 0.733632 0.852455
O O9 0.852133 0.895957 0.264959
O O10 0.972110 0.000000 0.203813
O O11 0.894153 0.000000 0.987944
O O12 0.802887 0.500000 0.264622
O O13 0.826919 0.694527 0.325560
#
# Coordination Sequence:
#
# PCOD8110464 Si02
#       7
#     8   8   4   4   8   4   8
#     4  10  22  39  64  93 125 167 209 260 318 381
#     4  12  23  40  64  97 128 161 218 270 315 369
#     4  10  21  43  62  86 130 171 213 250 320 392
#     4  11  23  41  61  95 128 170 215 248 331 378
#     4  10  22  44  65  88 129 172 213 252 324 386
#     4  11  23  41  67  90 130 171 209 268 309 385
#     4  11  24  41  65  93 127 171 209 264 317 383
#
# _framework density 21.931929
#
# number of rings (size 3 to 8) (size 9 to 14) (size 15 to 20)
#    0.000    1.273    0.909    6.273    0.000    5.091 
#    1.636    0.909    0.000    0.000    0.000    0.000 
#    0.000    0.000    0.000    0.000    0.000    0.000 
#
# Total GULP energy -272904.671722 kJ/mol
# GULP energy per Si atom -12404.757806 kJ/mol
# Density = 2.188201 g / cm^3
# Si number density = 21.931929 Si / 1000 Ang^3
#
#
#
# Elastic Constant Matrix: (Units=GPa)
#
#
# Indices 1 2 3 4 5 6 
#
# 1 62.9950 13.1984 18.4574 0.0000 -2.6468 0.0000
# 2 13.1984 154.6990 58.4435 0.0000 15.0850 0.0000
# 3 18.4574 58.4435 136.8586 0.0000 15.0077 0.0000
# 4 0.0000 0.0000 0.0000 22.2622 0.0000 8.0142
# 5 -2.6468 15.0850 15.0077 0.0000 28.7522 0.0000
# 6 0.0000 0.0000 0.0000 8.0142 0.0000 23.5556
#
#
#
# Elastic Compliance Matrix: (Units=1/GPa)
#
#
# Indices 1 2 3 4 5 6 
#
# 1 0.016853 -0.000904 -0.002237 0.000000 0.003193 0.000000
# 2 -0.000904 0.007925 -0.002967 0.000000 -0.002692 0.000000
# 3 -0.002237 -0.002967 0.009257 0.000000 -0.003481 0.000000
# 4 0.000000 0.000000 0.000000 0.051189 0.000000 -0.017416
# 5 0.003193 -0.002692 -0.003481 0.000000 0.038304 0.000000
# 6 0.000000 0.000000 0.000000 -0.017416 0.000000 0.048378
#
#
# Mechanical properties :
#
#
# Convention : Reuss Voigt Hill
#
# Bulk Modulus (GPa) = 45.83149 59.41680 52.62414
# Shear Modulus (GPa) = 26.12399 32.54421 29.33410
#
# Velocity S-wave (km/s) = 3.45503 3.85629 3.66116
# Velocity P-wave (km/s) = 6.07115 6.85407 6.47445
#
# Compressibility (1/GPa) = 0.02181906
#
# Stress axis : x y z
#
# Youngs Moduli (GPa) = 59.33547 126.18734 108.02326
#
# Poissons Ratio (x) = 0.11409 0.24165
# Poissons Ratio (y) = 0.05365 0.32050
# Poissons Ratio (z) = 0.13273 0.37439
#
# Static dielectric constant tensor:
#      x y z
#    x 3.814550 0.000000 -0.041240 
#    y 0.000000 4.157460 0.000000 
#    z -0.041240 0.000000 4.013340 
# 
# 
# High freq. dielectric constant tensor:
#      x y z
#    x 1.850030 0.000000 -0.002830 
#    y 0.000000 1.880990 0.000000 
#    z -0.002830 0.000000 1.860780 
# 
# From -- ./inp_files/84102.got.cif
#   From: 2010.06.25/outbox.cif.g09.slc.cpg/sg12_43_cif.got.tgz:84102.got - 2010.06.28 00:19:55.
