data_PCOD8110121
_publ_section_title
;
Structure prediction by ZEFSAII (Michael W. Deem and Ramdas Pophale) SiO2 
 PCOD8110121
Probable space group: C 2/M
;
_chemical_formula_sum "Si O2"
_cell_formula_units_Z 40
_cell_length_a 23.105453
_cell_length_b 13.252195
_cell_length_c 19.160995
_cell_angle_alpha 90.000000
_cell_angle_beta 17.843765
_cell_angle_gamma 90.000000
_cell_volume 1797.798464
_symmetry_space_group_name_H-M "C 2/M"
_symmetry_group_IT_number 12
_symmetry_cell_setting 'monoclinic'
loop_
_space_group_symop_operation_xyz
x,y,z
-x,y,-z
-x,-y,-z
x,-y,z
1/2+x,1/2+y,z
1/2-x,1/2+y,-z
1/2-x,1/2-y,-z
1/2+x,1/2-y,z
loop_
_atom_site_type_symbol
_atom_site_label
_atom_site_fract_x
_atom_site_fract_y
_atom_site_fract_z
Si Si1 0.039303 0.765888 0.376547
Si Si2 0.671108 0.885384 0.756303
Si Si3 0.536624 0.612120 0.878337
Si Si4 0.527040 0.113797 0.656705
Si Si5 0.943725 0.303374 0.899201
O O1 0.000000 0.730971 0.500000
O O2 0.859832 0.822311 0.550052
O O3 0.084828 0.666329 0.278554
O O4 0.224936 0.838138 0.161007
O O5 0.594332 0.874575 0.765753
O O6 0.719735 0.000000 0.718646
O O7 0.500000 0.843479 0.000000
O O8 0.450232 0.500000 0.965649
O O9 0.757752 0.609855 0.612311
O O10 0.448796 0.689036 0.923126
O O11 0.500000 0.647951 0.000000
O O12 0.498474 0.186756 0.755791
O O13 0.449367 0.000000 0.759226
#
# Coordination Sequence:
#
# PCOD8110121 Si02
#       5
#     8   8   8   8   8
#     4  12  25  43  71 100 133 181 230 276 335 406
#     4  11  24  43  69 100 136 178 223 276 336 400
#     4  10  21  40  70 101 133 179 228 272 330 401
#     4  11  25  44  67 100 139 179 225 282 341 402
#     4  12  23  44  69 100 139 177 220 282 342 399
#
# _framework density 22.249435999999999
#
# number of rings (size 3 to 8) (size 9 to 14) (size 15 to 20)
#    0.000    0.800    4.000    3.600    0.000    3.200 
#    0.000    0.000    0.000    0.000    0.000    0.000 
#    0.000    0.000    0.000    0.000    0.000    0.000 
#
# Total GULP energy -247956.680370 kJ/mol
# GULP energy per Si atom -12397.834019 kJ/mol
# Density = 2.219880 g / cm^3
# Si number density = 22.249436 Si / 1000 Ang^3
#
#
#
# Elastic Constant Matrix: (Units=GPa)
#
#
# Indices 1 2 3 4 5 6 
#
# 1 162.8606 55.8594 56.1677 -0.0048 18.0001 -0.0008
# 2 55.8594 132.5126 32.4547 -0.0091 4.6739 0.0015
# 3 56.1677 32.4547 94.0545 -0.0214 -1.9061 0.0111
# 4 -0.0048 -0.0091 -0.0214 18.9870 0.0141 14.0676
# 5 18.0001 4.6739 -1.9061 0.0141 50.1760 -0.0048
# 6 -0.0008 0.0015 0.0111 14.0676 -0.0048 18.9046
#
#
#
# Elastic Compliance Matrix: (Units=1/GPa)
#
#
# Indices 1 2 3 4 5 6 
#
# 1 0.008914 -0.002543 -0.004509 -0.000008 -0.003132 0.000008
# 2 -0.002543 0.009007 -0.001589 0.000004 0.000013 -0.000003
# 3 -0.004509 -0.001589 0.013920 0.000040 0.002294 -0.000037
# 4 -0.000008 0.000004 0.000040 0.117388 -0.000037 -0.087353
# 5 -0.003132 0.000013 0.002294 -0.000037 0.021139 0.000032
# 6 0.000008 -0.000003 -0.000037 -0.087353 0.000032 0.117900
#
#
# Mechanical properties :
#
#
# Convention : Reuss Voigt Hill
#
# Bulk Modulus (GPa) = 68.68929 75.37681 72.03305
# Shear Modulus (GPa) = 16.10807 33.94325 25.02566
#
# Velocity S-wave (km/s) = 2.69360 3.91010 3.35741
# Velocity P-wave (km/s) = 6.37286 7.37135 6.89022
#
# Compressibility (1/GPa) = 0.01455831
#
# Stress axis : x y z
#
# Youngs Moduli (GPa) = 112.18793 111.02387 71.83978
#
# Poissons Ratio (x) = 0.28229 0.32394
# Poissons Ratio (y) = 0.28525 0.11418
# Poissons Ratio (z) = 0.50587 0.17646
#
# Static dielectric constant tensor:
#      x y z
#    x 4.062310 -0.000050 -0.028400 
#    y -0.000050 4.291060 0.000090 
#    z -0.028400 0.000090 4.125350 
# 
# 
# High freq. dielectric constant tensor:
#      x y z
#    x 1.880890 0.000000 0.002990 
#    y 0.000000 1.872160 0.000000 
#    z 0.002990 0.000000 1.882000 
# 
# From -- ./inp_files/284429.got.cif
#   From: 2010.06.25/outbox.cif.g09.slc.cpg/sg12_143_cif.got.tgz:284429.got - 2010.06.28 00:19:55.
