data_PCOD8110959
_publ_section_title
;
Structure prediction by ZEFSAII (Michael W. Deem and Ramdas Pophale) SiO2 
 PCOD8110959
Probable space group: C 2/M
;
_chemical_formula_sum "Si O2"
_cell_formula_units_Z 40
_cell_length_a 16.129488
_cell_length_b 18.918589
_cell_length_c 11.519027
_cell_angle_alpha 90.000000
_cell_angle_beta 146.044878
_cell_angle_gamma 90.000000
_cell_volume 1963.279010
_symmetry_space_group_name_H-M "C 2/M"
_symmetry_group_IT_number 12
_symmetry_cell_setting 'monoclinic'
loop_
_space_group_symop_operation_xyz
x,y,z
-x,y,-z
-x,-y,-z
x,-y,z
1/2+x,1/2+y,z
1/2-x,1/2+y,-z
1/2-x,1/2-y,-z
1/2+x,1/2-y,z
loop_
_atom_site_type_symbol
_atom_site_label
_atom_site_fract_x
_atom_site_fract_y
_atom_site_fract_z
Si Si1 0.215926 0.811688 0.634699
Si Si2 0.287792 0.820306 0.975379
Si Si3 0.876386 0.920654 0.773135
Si Si4 0.114441 0.327123 0.401392
Si Si5 0.515413 0.420029 0.682535
O O1 0.296455 0.797238 0.850019
O O2 0.116213 0.747690 0.469847
O O3 0.337753 0.825660 0.677737
O O4 0.104503 0.877164 0.533748
O O5 0.173951 0.882802 0.869116
O O6 0.250000 0.750000 0.000000
O O7 0.444543 0.852081 0.201377
O O8 0.721186 0.878985 0.597938
O O9 0.946133 0.919351 0.728575
O O10 0.841810 0.000000 0.775729
O O11 0.000000 0.884896 0.000000
O O12 0.531857 0.500000 0.654454
#
# Coordination Sequence:
#
# PCOD8110959 Si02
#       5
#     8   8   8   8   8
#     4  10  22  40  59  85 119 163 205 244 299 362
#     4  12  24  37  57  93 126 154 197 257 307 357
#     4   9  20  40  64  89 120 163 207 246 299 367
#     4  10  22  38  63  87 117 159 205 253 295 358
#     4  10  22  41  62  88 122 164 204 245 308 367
#
# _framework density 20.374077
#
# number of rings (size 3 to 8) (size 9 to 14) (size 15 to 20)
#    0.000    1.800    2.000    1.200    2.800    2.400 
#    0.000    0.000    0.000    9.600    0.000    0.000 
#    0.000    0.000    0.000    0.000    0.000    0.000 
#
# Total GULP energy -247957.401283 kJ/mol
# GULP energy per Si atom -12397.870064 kJ/mol
# Density = 2.032771 g / cm^3
# Si number density = 20.374077 Si / 1000 Ang^3
#
#
#
# Elastic Constant Matrix: (Units=GPa)
#
#
# Indices 1 2 3 4 5 6 
#
# 1 36.1772 43.7740 50.6375 0.0000 15.6422 0.0000
# 2 43.7740 129.0182 61.9779 0.0000 16.4745 0.0000
# 3 50.6375 61.9779 165.5993 0.0000 20.8017 0.0000
# 4 0.0000 0.0000 0.0000 28.1587 0.0000 5.8745
# 5 15.6422 16.4745 20.8017 0.0000 35.6839 0.0000
# 6 0.0000 0.0000 0.0000 5.8745 0.0000 22.0874
#
#
#
# Elastic Compliance Matrix: (Units=1/GPa)
#
#
# Indices 1 2 3 4 5 6 
#
# 1 0.075476 -0.016317 -0.014850 0.000000 -0.016895 0.000000
# 2 -0.016317 0.013186 -0.000086 0.000000 0.001115 0.000000
# 3 -0.014850 -0.000086 0.010562 0.000000 0.000392 0.000000
# 4 0.000000 0.000000 0.000000 0.037599 0.000000 -0.010000
# 5 -0.016895 0.001115 0.000392 0.000000 0.034687 0.000000
# 6 0.000000 0.000000 0.000000 -0.010000 0.000000 0.047934
#
#
# Mechanical properties :
#
#
# Convention : Reuss Voigt Hill
#
# Bulk Modulus (GPa) = 27.23401 71.50818 49.37109
# Shear Modulus (GPa) = 16.99590 28.81301 22.90445
#
# Velocity S-wave (km/s) = 2.89137 3.76466 3.35654
# Velocity P-wave (km/s) = 4.95406 7.35328 6.26951
#
# Compressibility (1/GPa) = 0.03671880
#
# Stress axis : x y z
#
# Youngs Moduli (GPa) = 13.24932 75.84023 94.67540
#
# Poissons Ratio (x) = 1.23746 1.40594
# Poissons Ratio (y) = 0.21618 0.00810
# Poissons Ratio (z) = 0.19675 0.00649
#
# Static dielectric constant tensor:
#      x y z
#    x 3.637350 0.000000 -0.057940 
#    y 0.000000 3.947900 0.000000 
#    z -0.057940 0.000000 3.839970 
# 
# 
# High freq. dielectric constant tensor:
#      x y z
#    x 1.798750 0.000000 -0.005750 
#    y 0.000000 1.786380 0.000000 
#    z -0.005750 0.000000 1.807040 
# 
# From -- ./inp_files/60823.got.cif
#   From: 2010.06.25/outbox.cif.g09.slc.cpg/sg12_31_cif.got.tgz:60823.got - 2010.06.28 00:19:55.
