data_PCOD8110989
_publ_section_title
;
Structure prediction by ZEFSAII (Michael W. Deem and Ramdas Pophale) SiO2 
 PCOD8110989
Probable space group: C 2/M
;
_chemical_formula_sum "Si O2"
_cell_formula_units_Z 48
_cell_length_a 9.269436
_cell_length_b 18.294346
_cell_length_c 18.466345
_cell_angle_alpha 90.000000
_cell_angle_beta 133.030597
_cell_angle_gamma 90.000000
_cell_volume 2289.086594
_symmetry_space_group_name_H-M "C 2/M"
_symmetry_group_IT_number 12
_symmetry_cell_setting 'monoclinic'
loop_
_space_group_symop_operation_xyz
x,y,z
-x,y,-z
-x,-y,-z
x,-y,z
1/2+x,1/2+y,z
1/2-x,1/2+y,-z
1/2-x,1/2-y,-z
1/2+x,1/2-y,z
loop_
_atom_site_type_symbol
_atom_site_label
_atom_site_fract_x
_atom_site_fract_y
_atom_site_fract_z
Si Si1 0.354422 0.709771 0.720702
Si Si2 0.614320 0.853137 0.196420
Si Si3 0.140055 0.915340 0.846479
Si Si4 0.280282 0.416302 0.395682
Si Si5 0.078418 0.710971 0.398373
Si Si6 0.798989 0.083918 0.964898
O O1 0.387444 0.764878 0.799785
O O2 0.437858 0.629653 0.766762
O O3 0.465317 0.742123 0.688845
O O4 0.121049 0.705382 0.623290
O O5 0.686767 0.882027 0.143677
O O6 0.762629 0.885415 0.308137
O O7 0.390202 0.877581 0.134917
O O8 0.210604 0.906655 0.952439
O O9 0.100455 0.000000 0.812942
O O10 0.500000 0.405412 0.500000
O O11 0.213600 0.500000 0.374931
O O12 0.136757 0.371670 0.399041
O O13 0.250000 0.750000 0.500000
O O14 0.787549 0.000000 0.937438
O O15 0.000000 0.118148 0.000000
#
# Coordination Sequence:
#
# PCOD8110989 Si02
#       6
#     8   8   8   8   8   8
#     4  11  24  40  64  95 127 170 220 266 321 390
#     4  11  22  43  67  91 132 173 215 266 324 385
#     4  11  24  42  66  97 132 170 216 269 324 390
#     4  10  22  38  65  99 127 165 217 267 323 391
#     4  11  22  42  63  89 128 173 218 265 325 387
#     4  10  23  40  65  98 131 170 215 265 328 390
#
# _framework density 20.969061
#
# number of rings (size 3 to 8) (size 9 to 14) (size 15 to 20)
#    0.000    1.333    1.667    4.500    4.667    2.667 
#    0.000    0.000    0.000    2.000    0.000    0.000 
#    0.000    0.000    0.000    0.000    0.000    0.000 
#
# Total GULP energy -297658.653621 kJ/mol
# GULP energy per Si atom -12402.443901 kJ/mol
# Density = 2.092133 g / cm^3
# Si number density = 20.969061 Si / 1000 Ang^3
#
#
#
# Elastic Constant Matrix: (Units=GPa)
#
#
# Indices 1 2 3 4 5 6 
#
# 1 104.0645 29.6159 33.3001 -0.0001 12.2152 -0.0001
# 2 29.6159 122.3240 28.5842 0.0000 3.4333 0.0000
# 3 33.3001 28.5842 91.9217 0.0000 16.9837 -0.0001
# 4 -0.0001 0.0000 0.0000 26.2056 -0.0001 1.9996
# 5 12.2152 3.4333 16.9837 -0.0001 37.2769 -0.0001
# 6 -0.0001 0.0000 -0.0001 1.9996 -0.0001 27.6278
#
#
#
# Elastic Compliance Matrix: (Units=1/GPa)
#
#
# Indices 1 2 3 4 5 6 
#
# 1 0.011424 -0.001974 -0.003130 0.000000 -0.002136 0.000000
# 2 -0.001974 0.009165 -0.002291 0.000000 0.000847 0.000000
# 3 -0.003130 -0.002291 0.013645 0.000000 -0.004980 0.000000
# 4 0.000000 0.000000 0.000000 0.038372 0.000000 -0.002777
# 5 -0.002136 0.000847 -0.004980 0.000000 0.029717 0.000000
# 6 0.000000 0.000000 0.000000 -0.002777 0.000000 0.036396
#
#
# Mechanical properties :
#
#
# Convention : Reuss Voigt Hill
#
# Bulk Modulus (GPa) = 51.43280 55.70117 53.56699
# Shear Modulus (GPa) = 31.25193 33.34275 32.29734
#
# Velocity S-wave (km/s) = 3.86474 3.99192 3.92884
# Velocity P-wave (km/s) = 6.67054 6.91870 6.79575
#
# Compressibility (1/GPa) = 0.01944284
#
# Stress axis : x y z
#
# Youngs Moduli (GPa) = 87.53867 109.11507 73.28567
#
# Poissons Ratio (x) = 0.21544 0.22937
# Poissons Ratio (y) = 0.17284 0.16790
# Poissons Ratio (z) = 0.27398 0.24999
#
# Static dielectric constant tensor:
#      x y z
#    x 3.830570 0.000000 0.032930 
#    y 0.000000 3.935750 0.000000 
#    z 0.032930 0.000000 3.743260 
# 
# 
# High freq. dielectric constant tensor:
#      x y z
#    x 1.823670 0.000000 0.005590 
#    y 0.000000 1.823590 0.000000 
#    z 0.005590 0.000000 1.821830 
# 
# From -- ./inp_files/301829.got.cif
#   From: 2010.06.25/outbox.cif.g09.slc.cpg/sg12_151_cif.got.tgz:301829.got - 2010.06.28 00:19:55.
