data_PCOD8110042
_publ_section_title
;
Structure prediction by ZEFSAII (Michael W. Deem and Ramdas Pophale) SiO2 
 PCOD8110042
Probable space group: C 2/M
;
_chemical_formula_sum "Si O2"
_cell_formula_units_Z 64
_cell_length_a 24.855305
_cell_length_b 8.524017
_cell_length_c 14.408235
_cell_angle_alpha 90.000000
_cell_angle_beta 89.518191
_cell_angle_gamma 90.000000
_cell_volume 3052.522204
_symmetry_space_group_name_H-M "C 2/M"
_symmetry_group_IT_number 12
_symmetry_cell_setting 'monoclinic'
loop_
_space_group_symop_operation_xyz
x,y,z
-x,y,-z
-x,-y,-z
x,-y,z
1/2+x,1/2+y,z
1/2-x,1/2+y,-z
1/2-x,1/2-y,-z
1/2+x,1/2-y,z
loop_
_atom_site_type_symbol
_atom_site_label
_atom_site_fract_x
_atom_site_fract_y
_atom_site_fract_z
Si Si1 0.307682 0.683130 0.028412
Si Si2 0.056742 0.816593 0.685850
Si Si3 0.805079 0.181405 0.535151
Si Si4 0.337633 0.816375 0.223840
Si Si5 0.730780 0.176810 0.289130
Si Si6 0.554952 0.186639 0.291731
Si Si7 0.085536 0.316815 0.496956
Si Si8 0.644469 0.821632 0.144004
O O1 0.302103 0.500000 0.049259
O O2 0.332015 0.767966 0.117342
O O3 0.250000 0.750000 0.000000
O O4 0.351725 0.713104 0.946742
O O5 0.104264 0.726117 0.737167
O O6 0.051369 0.769130 0.577353
O O7 0.001243 0.766061 0.736114
O O8 0.066578 0.000000 0.696491
O O9 0.750000 0.250000 0.500000
O O10 0.805112 0.210970 0.645409
O O11 0.852262 0.277608 0.484504
O O12 0.812195 0.000000 0.511010
O O13 0.292570 0.728669 0.285248
O O14 0.327864 0.000000 0.233882
O O15 0.703870 0.185392 0.188708
O O16 0.727943 0.000000 0.329186
O O17 0.570848 0.246074 0.394698
O O18 0.599289 0.241547 0.215970
O O19 0.550050 0.000000 0.291884
O O20 0.074145 0.500000 0.506889
O O21 0.631046 0.000000 0.114943
#
# Coordination Sequence:
#
# PCOD8110042 Si02
#       8
#     8   8   8   8   8   8   8   8
#     4  12  24  40  65  98 133 167 207 257 315 380
#     4  12  26  43  63  93 129 167 212 267 320 374
#     4  12  24  37  55  84 125 167 211 258 314 377
#     4  12  25  43  66  93 126 169 214 262 318 379
#     4  11  21  38  62  90 126 164 203 254 314 376
#     4  10  22  43  68  93 125 169 215 261 311 371
#     4  11  22  41  65  91 124 167 217 264 313 373
#     4  10  21  40  66  95 127 163 206 256 311 371
#
# _framework density 20.966269
#
# number of rings (size 3 to 8) (size 9 to 14) (size 15 to 20)
#    0.000    0.750    2.500    6.375    0.000    3.500 
#    0.000    0.625    0.000    3.750    0.000    0.000 
#    0.000    0.000    0.000    0.000    0.000    0.000 
#
# Total GULP energy -396924.127046 kJ/mol
# GULP energy per Si atom -12403.878970 kJ/mol
# Density = 2.091855 g / cm^3
# Si number density = 20.966269 Si / 1000 Ang^3
#
#
#
# Elastic Constant Matrix: (Units=GPa)
#
#
# Indices 1 2 3 4 5 6 
#
# 1 111.1433 17.9034 19.1466 0.0000 -11.5997 0.0000
# 2 17.9034 70.1574 12.2942 0.0000 -1.8118 0.0000
# 3 19.1466 12.2942 75.0098 0.0000 -10.9757 0.0000
# 4 0.0000 0.0000 0.0000 34.3870 0.0000 -3.6084
# 5 -11.5997 -1.8118 -10.9757 0.0000 25.8075 0.0000
# 6 0.0000 0.0000 0.0000 -3.6084 0.0000 33.9744
#
#
#
# Elastic Compliance Matrix: (Units=1/GPa)
#
#
# Indices 1 2 3 4 5 6 
#
# 1 0.010014 -0.002169 -0.001668 0.000000 0.003639 0.000000
# 2 -0.002169 0.015145 -0.002043 0.000000 -0.000781 0.000000
# 3 -0.001668 -0.002043 0.014888 0.000000 0.005439 0.000000
# 4 0.000000 0.000000 0.000000 0.029409 0.000000 0.003123
# 5 0.003639 -0.000781 0.005439 0.000000 0.042642 0.000000
# 6 0.000000 0.000000 0.000000 0.003123 0.000000 0.029766
#
#
# Mechanical properties :
#
#
# Convention : Reuss Voigt Hill
#
# Bulk Modulus (GPa) = 35.35206 39.44433 37.39819
# Shear Modulus (GPa) = 30.66496 32.63154 31.64825
#
# Velocity S-wave (km/s) = 3.82853 3.94938 3.88942
# Velocity P-wave (km/s) = 6.03668 6.29690 6.16816
#
# Compressibility (1/GPa) = 0.02828690
#
# Stress axis : x y z
#
# Youngs Moduli (GPa) = 99.86030 66.02828 67.16828
#
# Poissons Ratio (x) = 0.14323 0.11204
# Poissons Ratio (y) = 0.21661 0.13721
# Poissons Ratio (z) = 0.16658 0.13488
#
# Static dielectric constant tensor:
#      x y z
#    x 3.805920 0.000000 -0.119730 
#    y 0.000000 3.848540 0.000000 
#    z -0.119730 0.000000 3.947400 
# 
# 
# High freq. dielectric constant tensor:
#      x y z
#    x 1.822810 0.000000 -0.008930 
#    y 0.000000 1.820760 0.000000 
#    z -0.008930 0.000000 1.820650 
# 
# From -- ./inp_files/238680.got.cif
#   From: 2010.06.25/outbox.cif.g09.slc.cpg/sg12_120_cif.got.tgz:238680.got - 2010.06.28 00:19:55.
