data_PCOD8110784
_publ_section_title
;
Structure prediction by ZEFSAII (Michael W. Deem and Ramdas Pophale) SiO2 
 PCOD8110784
Probable space group: C 2/M
;
_chemical_formula_sum "Si O2"
_cell_formula_units_Z 28
_cell_length_a 10.113991
_cell_length_b 10.147879
_cell_length_c 15.786588
_cell_angle_alpha 90.000000
_cell_angle_beta 86.669767
_cell_angle_gamma 90.000000
_cell_volume 1617.529114
_symmetry_space_group_name_H-M "C 2/M"
_symmetry_group_IT_number 12
_symmetry_cell_setting 'monoclinic'
loop_
_space_group_symop_operation_xyz
x,y,z
-x,y,-z
-x,-y,-z
x,-y,z
1/2+x,1/2+y,z
1/2-x,1/2+y,-z
1/2-x,1/2-y,-z
1/2+x,1/2-y,z
loop_
_atom_site_type_symbol
_atom_site_label
_atom_site_fract_x
_atom_site_fract_y
_atom_site_fract_z
Si Si1 0.364703 0.000000 0.308487
Si Si2 0.117716 0.761064 0.057828
Si Si3 0.360440 0.146448 0.470657
Si Si4 0.510103 0.000000 0.140024
Si Si5 0.785325 0.000000 0.847343
O O1 0.365649 0.869339 0.367915
O O2 0.233024 0.000000 0.254199
O O3 0.494720 0.000000 0.243068
O O4 0.132645 0.872244 0.128653
O O5 0.090407 0.626234 0.107411
O O6 0.250000 0.750000 0.000000
O O7 0.000000 0.802307 0.000000
O O8 0.500000 0.200566 0.500000
O O9 0.250000 0.250000 0.500000
O O10 0.331601 0.000000 0.511581
O O11 0.362213 0.000000 0.103566
#
# Coordination Sequence:
#
# PCOD8110784 Si02
#       5
#     4   8   8   4   4
#     4   8  19  41  56  83 125 149 183 243 288 348
#     4  12  21  38  62  83 114 156 198 241 286 345
#     4   9  19  37  62  89 115 153 190 229 287 348
#     4  10  22  40  56  83 122 152 181 247 301 317
#     4  10  22  38  55  86 115 149 192 240 292 324
#
# _framework density 17.310352999999999
#
# number of rings (size 3 to 8) (size 9 to 14) (size 15 to 20)
#    1.714    0.286    2.857    1.714    0.000    2.857 
#    0.000    0.000    3.143    0.000    0.000    0.000 
#    0.000    0.000    0.000    0.000    0.000    0.000 
#
# Total GULP energy -173483.622737 kJ/mol
# GULP energy per Si atom -12391.687338 kJ/mol
# Density = 1.727095 g / cm^3
# Si number density = 17.310353 Si / 1000 Ang^3
#
#
#
# Elastic Constant Matrix: (Units=GPa)
#
#
# Indices 1 2 3 4 5 6 
#
# 1 130.7696 68.9701 64.1102 0.0000 8.1114 0.0000
# 2 68.9701 133.7458 59.9080 0.0000 1.1428 0.0000
# 3 64.1102 59.9080 141.6302 0.0000 11.5519 0.0000
# 4 0.0000 0.0000 0.0000 25.0406 0.0000 -5.4622
# 5 8.1114 1.1428 11.5519 0.0000 33.8881 0.0000
# 6 0.0000 0.0000 0.0000 -5.4622 0.0000 36.6584
#
#
#
# Elastic Compliance Matrix: (Units=1/GPa)
#
#
# Indices 1 2 3 4 5 6 
#
# 1 0.011762 -0.004594 -0.003254 0.000000 -0.001551 0.000000
# 2 -0.004594 0.011056 -0.002732 0.000000 0.001658 0.000000
# 3 -0.003254 -0.002732 0.009893 0.000000 -0.002501 0.000000
# 4 0.000000 0.000000 0.000000 0.041277 0.000000 0.006150
# 5 -0.001551 0.001658 -0.002501 0.000000 0.030677 0.000000
# 6 0.000000 0.000000 0.000000 0.006150 0.000000 0.028195
#
#
# Mechanical properties :
#
#
# Convention : Reuss Voigt Hill
#
# Bulk Modulus (GPa) = 86.58308 88.01358 87.29833
# Shear Modulus (GPa) = 31.67147 33.32791 32.49969
#
# Velocity S-wave (km/s) = 4.28205 4.39260 4.33768
# Velocity P-wave (km/s) = 8.63566 8.75680 8.69644
#
# Compressibility (1/GPa) = 0.01154960
#
# Stress axis : x y z
#
# Youngs Moduli (GPa) = 85.02095 90.45122 101.07857
#
# Poissons Ratio (x) = 0.41557 0.32893
# Poissons Ratio (y) = 0.39062 0.27614
# Poissons Ratio (z) = 0.27667 0.24711
#
# Static dielectric constant tensor:
#      x y z
#    x 3.176740 0.000000 0.210400 
#    y 0.000000 3.143940 0.000000 
#    z 0.210400 0.000000 3.207500 
# 
# 
# High freq. dielectric constant tensor:
#      x y z
#    x 1.662400 0.000000 0.012190 
#    y 0.000000 1.664180 0.000000 
#    z 0.012190 0.000000 1.662200 
# 
# From -- ./inp_files/260616.got.cif
#   From: 2010.06.25/outbox.cif.g09.slc.cpg/sg12_131_cif.got.tgz:260616.got - 2010.06.28 00:19:55.
