data_PCOD8110594
_publ_section_title
;
Structure prediction by ZEFSAII (Michael W. Deem and Ramdas Pophale) SiO2 
 PCOD8110594
Probable space group: C 2/M
;
_chemical_formula_sum "Si O2"
_cell_formula_units_Z 56
_cell_length_a 11.736460
_cell_length_b 23.191625
_cell_length_c 11.109179
_cell_angle_alpha 90.000000
_cell_angle_beta 99.978995
_cell_angle_gamma 90.000000
_cell_volume 2978.034813
_symmetry_space_group_name_H-M "C 2/M"
_symmetry_group_IT_number 12
_symmetry_cell_setting 'monoclinic'
loop_
_space_group_symop_operation_xyz
x,y,z
-x,y,-z
-x,-y,-z
x,-y,z
1/2+x,1/2+y,z
1/2-x,1/2+y,-z
1/2-x,1/2-y,-z
1/2+x,1/2-y,z
loop_
_atom_site_type_symbol
_atom_site_label
_atom_site_fract_x
_atom_site_fract_y
_atom_site_fract_z
Si Si1 0.811022 0.566871 0.662151
Si Si2 0.723682 0.147154 0.930080
Si Si3 0.928825 0.565802 0.226978
Si Si4 0.318777 0.650073 0.203495
Si Si5 0.628876 0.137374 0.556276
Si Si6 0.551561 0.676477 0.131539
Si Si7 0.258796 0.229548 0.266437
O O1 0.784963 0.500000 0.627647
O O2 0.713388 0.591236 0.734187
O O3 0.808102 0.604914 0.541224
O O4 0.933630 0.573677 0.751133
O O5 0.629602 0.096704 0.898362
O O6 0.850187 0.130098 0.895145
O O7 0.681333 0.203599 0.845527
O O8 0.736439 0.160332 0.073044
O O9 0.892464 0.500000 0.214041
O O10 0.874220 0.591252 0.337763
O O11 0.453400 0.645431 0.192362
O O12 0.296274 0.704290 0.287776
O O13 0.500000 0.157904 0.500000
O O14 0.700598 0.193990 0.608444
O O15 0.618382 0.724379 0.225500
O O16 0.500000 0.705531 0.000000
#
# Coordination Sequence:
#
# PCOD8110594 Si02
#       7
#     8   8   8   8   8   8   8
#     4  10  22  36  53  82 112 146 186 234 287 321
#     4   8  18  34  52  82 111 145 182 220 272 337
#     4   9  17  34  59  81 106 143 190 235 274 329
#     4  11  20  35  55  81 115 148 179 230 283 327
#     4   9  18  36  59  83 109 141 186 234 276 331
#     4   8  18  34  53  78 116 148 181 215 269 337
#     4   9  19  34  57  83 106 143 188 225 268 336
#
# _framework density 18.804345999999999
#
# number of rings (size 3 to 8) (size 9 to 14) (size 15 to 20)
#    0.857    2.000    0.000    0.857    0.000    6.857 
#    0.000    2.857    0.000    3.429    0.000    0.000 
#    0.000    0.000    0.000    0.000    0.000    0.000 
#
# Total GULP energy -346939.939645 kJ/mol
# GULP energy per Si atom -12390.712130 kJ/mol
# Density = 1.876155 g / cm^3
# Si number density = 18.804346 Si / 1000 Ang^3
#
#
#
# Elastic Constant Matrix: (Units=GPa)
#
#
# Indices 1 2 3 4 5 6 
#
# 1 78.9405 37.9755 29.6446 0.0000 -2.7214 0.0000
# 2 37.9755 97.6091 39.3691 0.0000 4.1460 0.0000
# 3 29.6446 39.3691 65.5696 0.0000 5.1972 0.0000
# 4 0.0000 0.0000 0.0000 21.9547 0.0000 3.4057
# 5 -2.7214 4.1460 5.1972 0.0000 29.9993 0.0000
# 6 0.0000 0.0000 0.0000 3.4057 0.0000 23.4171
#
#
#
# Elastic Compliance Matrix: (Units=1/GPa)
#
#
# Indices 1 2 3 4 5 6 
#
# 1 0.016930 -0.004660 -0.005099 0.000000 0.003063 0.000000
# 2 -0.004660 0.014808 -0.006680 0.000000 -0.001312 0.000000
# 3 -0.005099 -0.006680 0.021830 0.000000 -0.003321 0.000000
# 4 0.000000 0.000000 0.000000 0.046600 0.000000 -0.006777
# 5 0.003063 -0.001312 -0.003321 0.000000 0.034369 0.000000
# 6 0.000000 0.000000 0.000000 -0.006777 0.000000 0.043690
#
#
# Mechanical properties :
#
#
# Convention : Reuss Voigt Hill
#
# Bulk Modulus (GPa) = 48.33272 50.67750 49.50511
# Shear Modulus (GPa) = 22.93560 24.08288 23.50924
#
# Velocity S-wave (km/s) = 3.49620 3.58258 3.53966
# Velocity P-wave (km/s) = 6.48511 6.64241 6.56423
#
# Compressibility (1/GPa) = 0.02068992
#
# Stress axis : x y z
#
# Youngs Moduli (GPa) = 59.06646 67.53056 45.80784
#
# Poissons Ratio (x) = 0.31471 0.23357
# Poissons Ratio (y) = 0.27527 0.30600
# Poissons Ratio (z) = 0.30117 0.45111
#
# Static dielectric constant tensor:
#      x y z
#    x 3.373590 0.000000 0.187110 
#    y 0.000000 3.194510 0.000000 
#    z 0.187110 0.000000 3.415090 
# 
# 
# High freq. dielectric constant tensor:
#      x y z
#    x 1.717250 0.000000 0.007750 
#    y 0.000000 1.702530 0.000000 
#    z 0.007750 0.000000 1.726660 
# 
# From -- ./inp_files/133304.got.cif
#   From: 2010.06.25/outbox.cif.g09.slc.cpg/sg12_67_cif.got.tgz:133304.got - 2010.06.28 00:19:55.
