data_PCOD8110294
_publ_section_title
;
Structure prediction by ZEFSAII (Michael W. Deem and Ramdas Pophale) SiO2 
 PCOD8110294
Probable space group: C 2/M
;
_chemical_formula_sum "Si O2"
_cell_formula_units_Z 56
_cell_length_a 11.859898
_cell_length_b 20.891784
_cell_length_c 12.282270
_cell_angle_alpha 90.000000
_cell_angle_beta 70.216374
_cell_angle_gamma 90.000000
_cell_volume 2863.613337
_symmetry_space_group_name_H-M "C 2/M"
_symmetry_group_IT_number 12
_symmetry_cell_setting 'monoclinic'
loop_
_space_group_symop_operation_xyz
x,y,z
-x,y,-z
-x,-y,-z
x,-y,z
1/2+x,1/2+y,z
1/2-x,1/2+y,-z
1/2-x,1/2-y,-z
1/2+x,1/2-y,z
loop_
_atom_site_type_symbol
_atom_site_label
_atom_site_fract_x
_atom_site_fract_y
_atom_site_fract_z
Si Si1 0.495221 0.295203 0.372773
Si Si2 0.911318 0.659147 0.364811
Si Si3 0.862929 0.427278 0.011655
Si Si4 0.879448 0.000000 0.415305
Si Si5 0.764105 0.129468 0.387956
Si Si6 0.862611 0.000000 0.668391
Si Si7 0.625357 0.924958 0.243951
Si Si8 0.731435 0.633949 0.240125
O O1 0.500000 0.311312 0.500000
O O2 0.499337 0.220029 0.346248
O O3 0.373883 0.321576 0.358362
O O4 0.607247 0.327738 0.275789
O O5 0.843084 0.654626 0.501537
O O6 0.819286 0.669741 0.295340
O O7 0.989724 0.595929 0.316954
O O8 0.818051 0.500000 0.051055
O O9 0.787355 0.373442 0.101289
O O10 0.846347 0.411687 0.890711
O O11 0.000000 0.420558 0.000000
O O12 0.801883 0.060763 0.414875
O O13 0.905103 0.000000 0.532581
O O14 0.008579 0.000000 0.309536
O O15 0.717349 0.119945 0.280365
O O16 0.783848 0.061739 0.715486
O O17 0.638464 0.000000 0.268731
#
# Coordination Sequence:
#
# PCOD8110294 Si02
#       8
#     8   8   8   4   8   4   8   8
#     4  12  25  44  64  93 129 179 213 251 311 386
#     4  12  26  39  66  93 131 169 211 260 316 382
#     4  10  21  41  67  94 127 165 211 263 319 381
#     4  11  20  34  59  98 132 164 196 268 323 376
#     4  12  23  40  62  95 136 164 208 257 323 385
#     4  11  20  36  61  99 128 155 214 262 317 374
#     4  11  25  41  63  96 130 165 206 267 326 370
#     4  12  23  40  69  95 123 166 218 266 309 377
#
# _framework density 19.555713000000001
#
# number of rings (size 3 to 8) (size 9 to 14) (size 15 to 20)
#    0.000    0.571    7.143    1.714    4.000    0.571 
#    0.000    1.429    3.143    2.571    0.000    0.000 
#    0.000    0.000    0.000    0.000    0.000    0.000 
#
# Total GULP energy -347211.532269 kJ/mol
# GULP energy per Si atom -12400.411867 kJ/mol
# Density = 1.951120 g / cm^3
# Si number density = 19.555713 Si / 1000 Ang^3
#
#
#
# Elastic Constant Matrix: (Units=GPa)
#
#
# Indices 1 2 3 4 5 6 
#
# 1 92.4657 29.3757 57.0657 0.0000 5.1086 0.0000
# 2 29.3757 81.8624 39.6334 0.0000 0.1257 0.0000
# 3 57.0657 39.6334 128.0622 0.0000 7.6071 0.0000
# 4 0.0000 0.0000 0.0000 9.4651 0.0000 -2.7422
# 5 5.1086 0.1257 7.6071 0.0000 28.9294 0.0000
# 6 0.0000 0.0000 0.0000 -2.7422 0.0000 41.2185
#
#
#
# Elastic Compliance Matrix: (Units=1/GPa)
#
#
# Indices 1 2 3 4 5 6 
#
# 1 0.015406 -0.002630 -0.005984 0.000000 -0.001136 0.000000
# 2 -0.002630 0.014853 -0.003504 0.000000 0.001321 0.000000
# 3 -0.005984 -0.003504 0.011678 0.000000 -0.001999 0.000000
# 4 0.000000 0.000000 0.000000 0.107727 0.000000 0.007167
# 5 -0.001136 0.001321 -0.001999 0.000000 0.035287 0.000000
# 6 0.000000 0.000000 0.000000 0.007167 0.000000 0.024738
#
#
# Mechanical properties :
#
#
# Convention : Reuss Voigt Hill
#
# Bulk Modulus (GPa) = 56.48552 61.61555 59.05054
# Shear Modulus (GPa) = 20.84855 27.67696 24.26275
#
# Velocity S-wave (km/s) = 3.26868 3.76611 3.52618
# Velocity P-wave (km/s) = 6.57212 7.10546 6.84399
#
# Compressibility (1/GPa) = 0.01770365
#
# Stress axis : x y z
#
# Youngs Moduli (GPa) = 64.91046 67.32435 85.62968
#
# Poissons Ratio (x) = 0.17703 0.51239
# Poissons Ratio (y) = 0.17068 0.30002
# Poissons Ratio (z) = 0.38841 0.23588
#
# Static dielectric constant tensor:
#      x y z
#    x 3.751910 0.000000 0.067700 
#    y 0.000000 3.600580 0.000000 
#    z 0.067700 0.000000 3.554740 
# 
# 
# High freq. dielectric constant tensor:
#      x y z
#    x 1.773960 0.000000 -0.000140 
#    y 0.000000 1.762410 0.000000 
#    z -0.000140 0.000000 1.743640 
# 
# From -- ./inp_files/133902.got.cif
#   From: 2010.06.25/outbox.cif.g09.slc.cpg/sg12_67_cif.got.tgz:133902.got - 2010.06.28 00:19:55.
