data_PCOD8110931
_publ_section_title
;
Structure prediction by ZEFSAII (Michael W. Deem and Ramdas Pophale) SiO2 
 PCOD8110931
Probable space group: C 2/M
;
_chemical_formula_sum "Si O2"
_cell_formula_units_Z 56
_cell_length_a 20.873236
_cell_length_b 14.232357
_cell_length_c 15.304636
_cell_angle_alpha 90.000000
_cell_angle_beta 142.583513
_cell_angle_gamma 90.000000
_cell_volume 2762.552461
_symmetry_space_group_name_H-M "C 2/M"
_symmetry_group_IT_number 12
_symmetry_cell_setting 'monoclinic'
loop_
_space_group_symop_operation_xyz
x,y,z
-x,y,-z
-x,-y,-z
x,-y,z
1/2+x,1/2+y,z
1/2-x,1/2+y,-z
1/2-x,1/2-y,-z
1/2+x,1/2-y,z
loop_
_atom_site_type_symbol
_atom_site_label
_atom_site_fract_x
_atom_site_fract_y
_atom_site_fract_z
Si Si1 0.132927 0.394849 0.529189
Si Si2 0.550053 0.608914 0.963947
Si Si3 0.380135 0.890370 0.845586
Si Si4 0.780288 0.354102 0.558981
Si Si5 0.461935 0.253165 0.366070
Si Si6 0.256665 0.727390 0.798437
Si Si7 0.451259 0.397418 0.676854
O O1 0.127536 0.500000 0.563467
O O2 0.168734 0.405475 0.468224
O O3 0.216614 0.329958 0.670496
O O4 0.017610 0.347536 0.410813
O O5 0.580143 0.500000 0.006056
O O6 0.468323 0.627893 0.797224
O O7 0.500000 0.646680 0.000000
O O8 0.654822 0.667165 0.056834
O O9 0.365115 0.861795 0.728251
O O10 0.300314 0.829177 0.817794
O O11 0.354937 0.000000 0.834690
O O12 0.500000 0.866132 0.000000
O O13 0.750000 0.250000 0.500000
O O14 0.673184 0.403071 0.475547
O O15 0.500000 0.296361 0.500000
O O16 0.336427 0.240023 0.231980
O O17 0.490935 0.322456 0.320042
O O18 0.499846 0.500000 0.708803
#
# Coordination Sequence:
#
# PCOD8110931 Si02
#       7
#     8   8   8   8   8   8   8
#     4  11  22  37  61  92 123 160 208 262 317 375
#     4  10  22  38  61  94 125 156 202 260 321 374
#     4  11  25  42  62  93 127 163 208 261 320 380
#     4  12  21  39  65  90 120 157 205 259 316 373
#     4  10  23  39  57  88 119 163 212 254 309 372
#     4  11  22  38  62  85 123 169 206 250 309 375
#     4  11  23  40  63  91 122 157 206 263 312 370
#
# _framework density 20.271108000000002
#
# number of rings (size 3 to 8) (size 9 to 14) (size 15 to 20)
#    0.000    1.143    2.857    3.857    2.000    5.714 
#    0.000    0.000    0.000    1.714    0.000    0.000 
#    0.000    0.000    0.000    0.000    0.000    0.000 
#
# Total GULP energy -347281.408890 kJ/mol
# GULP energy per Si atom -12402.907460 kJ/mol
# Density = 2.022497 g / cm^3
# Si number density = 20.271108 Si / 1000 Ang^3
#
#
#
# Elastic Constant Matrix: (Units=GPa)
#
#
# Indices 1 2 3 4 5 6 
#
# 1 116.1205 48.9263 46.6283 0.0000 9.4656 0.0000
# 2 48.9263 139.2389 46.5194 0.0000 6.6656 0.0000
# 3 46.6283 46.5194 121.1248 0.0000 6.4197 0.0000
# 4 0.0000 0.0000 0.0000 27.4478 0.0000 -12.4919
# 5 9.4656 6.6656 6.4197 0.0000 36.0415 0.0000
# 6 0.0000 0.0000 0.0000 -12.4919 0.0000 -54.3993
#
#
#
# Elastic Compliance Matrix: (Units=1/GPa)
#
#
# Indices 1 2 3 4 5 6 
#
# 1 0.011204 -0.002799 -0.003139 0.000000 -0.001866 0.000000
# 2 -0.002799 0.008972 -0.002342 0.000000 -0.000507 0.000000
# 3 -0.003139 -0.002342 0.010395 0.000000 -0.000594 0.000000
# 4 0.000000 0.000000 0.000000 0.032985 0.000000 -0.007575
# 5 -0.001866 -0.000507 -0.000594 0.000000 0.028435 0.000000
# 6 0.000000 0.000000 0.000000 -0.007575 0.000000 -0.016643
#
#
# Mechanical properties :
#
#
# Convention : Reuss Voigt Hill
#
# Bulk Modulus (GPa) = 71.36774 73.40356 72.38565
# Shear Modulus (GPa) = 51.77188 17.44536 34.60862
#
# Velocity S-wave (km/s) = 5.05917 2.93679 4.13642
# Velocity P-wave (km/s) = 8.33126 6.91297 7.65503
#
# Compressibility (1/GPa) = 0.01401193
#
# Stress axis : x y z
#
# Youngs Moduli (GPa) = 89.25752 111.45956 96.19839
#
# Poissons Ratio (x) = 0.31193 0.30199
# Poissons Ratio (y) = 0.24980 0.22525
# Poissons Ratio (z) = 0.28020 0.26098
#
# Static dielectric constant tensor:
#      x y z
#    x 3.642590 0.000000 0.072960 
#    y 0.000000 3.718450 0.000000 
#    z 0.072960 0.000000 3.765220 
# 
# 
# High freq. dielectric constant tensor:
#      x y z
#    x 1.781580 0.000000 0.004020 
#    y 0.000000 1.804970 0.000000 
#    z 0.004020 0.000000 1.790200 
# 
# From -- ./inp_files/233738.got.cif
#   From: 2010.06.25/outbox.cif.g09.slc.cpg/sg12_117_cif.got.tgz:233738.got - 2010.06.28 00:19:55.
