data_PCOD8110843
_publ_section_title
;
Structure prediction by ZEFSAII (Michael W. Deem and Ramdas Pophale) SiO2 
 PCOD8110843
Probable space group: C 2/M
;
_chemical_formula_sum "Si O2"
_cell_formula_units_Z 36
_cell_length_a 9.114106
_cell_length_b 11.316750
_cell_length_c 16.075473
_cell_angle_alpha 90.000000
_cell_angle_beta 100.355128
_cell_angle_gamma 90.000000
_cell_volume 1631.051851
_symmetry_space_group_name_H-M "C 2/M"
_symmetry_group_IT_number 12
_symmetry_cell_setting 'monoclinic'
loop_
_space_group_symop_operation_xyz
x,y,z
-x,y,-z
-x,-y,-z
x,-y,z
1/2+x,1/2+y,z
1/2-x,1/2+y,-z
1/2-x,1/2-y,-z
1/2+x,1/2-y,z
loop_
_atom_site_type_symbol
_atom_site_label
_atom_site_fract_x
_atom_site_fract_y
_atom_site_fract_z
Si Si1 0.173632 0.364030 0.035526
Si Si2 0.994119 0.733480 0.320479
Si Si3 0.233578 0.366976 0.234024
Si Si4 0.000000 0.820752 0.500000
Si Si5 0.082046 0.500000 0.634904
Si Si6 0.741843 0.000000 0.480089
O O1 0.228339 0.500000 0.015698
O O2 0.202268 0.343879 0.135059
O O3 0.250000 0.250000 0.000000
O O4 0.000000 0.355241 0.000000
O O5 0.906582 0.843973 0.272825
O O6 0.032307 0.741922 0.422480
O O7 0.894395 0.614009 0.304023
O O8 0.142111 0.723569 0.281298
O O9 0.193086 0.500000 0.255258
O O10 0.847325 0.890347 0.467347
O O11 0.203636 0.500000 0.574008
O O12 0.908216 0.500000 0.587966
#
# Coordination Sequence:
#
# PCOD8110843 Si02
#       6
#     8   8   8   4   4   4
#     4  10  22  44  74 104 136 175 216 269 339 412
#     4  12  24  42  64  94 132 176 225 273 327 378
#     4  11  25  45  67  98 136 170 214 274 329 390
#     4  11  24  37  62  90 124 179 225 274 320 384
#     4  11  22  38  60  86 120 169 217 277 327 380
#     4  10  22  38  58  86 120 159 232 283 324 372
#
# _framework density 22.071648
#
# number of rings (size 3 to 8) (size 9 to 14) (size 15 to 20)
#    0.000    1.111    1.111    5.333    3.111    3.111 
#    4.000    0.000    0.000    0.000    0.000    0.000 
#    0.000    0.000    0.000    0.000    0.000    0.000 
#
# Total GULP energy -223080.007065 kJ/mol
# GULP energy per Si atom -12393.333726 kJ/mol
# Density = 2.202141 g / cm^3
# Si number density = 22.071648 Si / 1000 Ang^3
#
#
#
# Elastic Constant Matrix: (Units=GPa)
#
#
# Indices 1 2 3 4 5 6 
#
# 1 111.6713 52.9993 32.6932 0.0000 -7.3144 0.0000
# 2 52.9993 127.4466 55.5295 0.0000 -17.7441 0.0000
# 3 32.6932 55.5295 110.6847 0.0000 0.5105 0.0000
# 4 0.0000 0.0000 0.0000 36.8062 0.0000 -6.6535
# 5 -7.3144 -17.7441 0.5105 0.0000 27.5407 0.0000
# 6 0.0000 0.0000 0.0000 -6.6535 0.0000 36.9463
#
#
#
# Elastic Compliance Matrix: (Units=1/GPa)
#
#
# Indices 1 2 3 4 5 6 
#
# 1 0.011295 -0.004079 -0.001291 0.000000 0.000395 0.000000
# 2 -0.004079 0.012860 -0.005280 0.000000 0.007300 0.000000
# 3 -0.001291 -0.005280 0.012084 0.000000 -0.003969 0.000000
# 4 0.000000 0.000000 0.000000 0.028084 0.000000 0.005057
# 5 0.000395 0.007300 -0.003969 0.000000 0.041192 0.000000
# 6 0.000000 0.000000 0.000000 0.005057 0.000000 0.027977
#
#
# Mechanical properties :
#
#
# Convention : Reuss Voigt Hill
#
# Bulk Modulus (GPa) = 66.95251 70.24962 68.60106
# Shear Modulus (GPa) = 31.29466 34.16403 32.72935
#
# Velocity S-wave (km/s) = 3.76954 3.93857 3.85498
# Velocity P-wave (km/s) = 7.02467 7.25122 7.13884
#
# Compressibility (1/GPa) = 0.01493596
#
# Stress axis : x y z
#
# Youngs Moduli (GPa) = 88.53579 77.76126 82.75683
#
# Poissons Ratio (x) = 0.31721 0.10688
# Poissons Ratio (y) = 0.36116 0.43699
# Poissons Ratio (z) = 0.11434 0.41061
#
# Static dielectric constant tensor:
#      x y z
#    x 3.871990 0.000000 -0.105800 
#    y 0.000000 4.596470 0.000000 
#    z -0.105800 0.000000 3.853170 
# 
# 
# High freq. dielectric constant tensor:
#      x y z
#    x 1.866630 0.000000 -0.003380 
#    y 0.000000 1.888810 0.000000 
#    z -0.003380 0.000000 1.858270 
# 
# From -- ./inp_files/254817.got.cif
#   From: 2010.06.25/outbox.cif.g09.slc.cpg/sg12_128_cif.got.tgz:254817.got - 2010.06.28 00:19:55.
