data_PCOD8110079
_publ_section_title
;
Structure prediction by ZEFSAII (Michael W. Deem and Ramdas Pophale) SiO2 
 PCOD8110079
Probable space group: C 2/M
;
_chemical_formula_sum "Si O2"
_cell_formula_units_Z 40
_cell_length_a 20.047597
_cell_length_b 8.028951
_cell_length_c 11.269024
_cell_angle_alpha 90.000000
_cell_angle_beta 97.305420
_cell_angle_gamma 90.000000
_cell_volume 1799.151051
_symmetry_space_group_name_H-M "C 2/M"
_symmetry_group_IT_number 12
_symmetry_cell_setting 'monoclinic'
loop_
_space_group_symop_operation_xyz
x,y,z
-x,y,-z
-x,-y,-z
x,-y,z
1/2+x,1/2+y,z
1/2-x,1/2+y,-z
1/2-x,1/2-y,-z
1/2+x,1/2-y,z
loop_
_atom_site_type_symbol
_atom_site_label
_atom_site_fract_x
_atom_site_fract_y
_atom_site_fract_z
Si Si1 0.457025 0.500000 0.366292
Si Si2 0.357564 0.812759 0.076167
Si Si3 0.806280 0.689830 0.602115
Si Si4 0.220011 0.186979 0.152364
Si Si5 0.045365 0.000000 0.893463
Si Si6 0.078097 0.679635 0.547338
O O1 0.500000 0.500000 0.500000
O O2 0.493837 0.500000 0.244851
O O3 0.410645 0.332686 0.358733
O O4 0.322824 0.811039 0.938687
O O5 0.388193 0.000000 0.100264
O O6 0.299752 0.775280 0.160660
O O7 0.413441 0.671009 0.096254
O O8 0.792600 0.500000 0.634141
O O9 0.750000 0.750000 0.500000
O O10 0.803248 0.800511 0.717956
O O11 0.880065 0.714129 0.562454
O O12 0.205216 0.000000 0.103970
O O13 0.000000 0.000000 0.000000
O O14 0.100996 0.500000 0.607968
O O15 0.000000 0.669440 0.500000
#
# Coordination Sequence:
#
# PCOD8110079 Si02
#       6
#     4   8   8   8   4   8
#     4  10  24  44  70  96 132 184 226 277 347 403
#     4  10  23  43  68  97 131 180 227 281 349 409
#     4  11  24  36  59  97 134 173 226 284 344 408
#     4  10  21  40  67  96 133 176 226 287 347 414
#     4  12  28  46  70 104 140 180 235 291 339 422
#     4   9  21  42  63  90 128 177 223 268 333 408
#
# _framework density 22.232709
#
# number of rings (size 3 to 8) (size 9 to 14) (size 15 to 20)
#    0.000    1.800    1.000    1.200    8.400    4.400 
#    0.000    2.000    0.000    0.000    0.000    0.000 
#    0.000    0.000    0.000    0.000    0.000    0.000 
#
# Total GULP energy -247812.526378 kJ/mol
# GULP energy per Si atom -12390.626319 kJ/mol
# Density = 2.218211 g / cm^3
# Si number density = 22.232709 Si / 1000 Ang^3
#
#
#
# Elastic Constant Matrix: (Units=GPa)
#
#
# Indices 1 2 3 4 5 6 
#
# 1 106.3303 40.8435 51.0240 0.0000 -22.7663 0.0000
# 2 40.8435 160.9186 46.1479 0.0000 -17.8962 0.0000
# 3 51.0240 46.1479 143.9360 0.0000 -30.9105 0.0000
# 4 0.0000 0.0000 0.0000 22.7933 0.0000 -10.6750
# 5 -22.7663 -17.8962 -30.9105 0.0000 33.0636 0.0000
# 6 0.0000 0.0000 0.0000 -10.6750 0.0000 23.3629
#
#
#
# Elastic Compliance Matrix: (Units=1/GPa)
#
#
# Indices 1 2 3 4 5 6 
#
# 1 0.012512 -0.001821 -0.002769 0.000000 0.005041 0.000000
# 2 -0.001821 0.007224 -0.001376 0.000000 0.001369 0.000000
# 3 -0.002769 -0.001376 0.009761 0.000000 0.006473 0.000000
# 4 0.000000 0.000000 0.000000 0.055817 0.000000 0.025504
# 5 0.005041 0.001369 0.006473 0.000000 0.040509 0.000000
# 6 0.000000 0.000000 0.000000 0.025504 0.000000 0.054456
#
#
# Mechanical properties :
#
#
# Convention : Reuss Voigt Hill
#
# Bulk Modulus (GPa) = 56.93664 76.35730 66.64697
# Shear Modulus (GPa) = 25.24413 34.05526 29.64970
#
# Velocity S-wave (km/s) = 3.37330 3.91802 3.65582
# Velocity P-wave (km/s) = 6.39040 7.40858 6.91824
#
# Compressibility (1/GPa) = 0.01756338
#
# Stress axis : x y z
#
# Youngs Moduli (GPa) = 79.92152 138.43662 102.45301
#
# Poissons Ratio (x) = 0.25210 0.28370
# Poissons Ratio (y) = 0.14554 0.14101
# Poissons Ratio (z) = 0.22131 0.19054
#
# Static dielectric constant tensor:
#      x y z
#    x 3.833490 0.000000 -0.382660 
#    y 0.000000 5.368490 0.000000 
#    z -0.382660 0.000000 4.118890 
# 
# 
# High freq. dielectric constant tensor:
#      x y z
#    x 1.848300 0.000000 -0.014120 
#    y 0.000000 1.906380 0.000000 
#    z -0.014120 0.000000 1.871420 
# 
# From -- ./inp_files/151914.got.cif
#   From: 2010.06.25/outbox.cif.g09.slc.cpg/sg12_76_cif.got.tgz:151914.got - 2010.06.28 00:19:55.
