data_PCOD8110049
_publ_section_title
;
Structure prediction by ZEFSAII (Michael W. Deem and Ramdas Pophale) SiO2 
 PCOD8110049
Probable space group: C 2/M
;
_chemical_formula_sum "Si O2"
_cell_formula_units_Z 56
_cell_length_a 14.344872
_cell_length_b 31.212499
_cell_length_c 11.653483
_cell_angle_alpha 90.000000
_cell_angle_beta 30.299826
_cell_angle_gamma 90.000000
_cell_volume 2632.471381
_symmetry_space_group_name_H-M "C 2/M"
_symmetry_group_IT_number 12
_symmetry_cell_setting 'monoclinic'
loop_
_space_group_symop_operation_xyz
x,y,z
-x,y,-z
-x,-y,-z
x,-y,z
1/2+x,1/2+y,z
1/2-x,1/2+y,-z
1/2-x,1/2-y,-z
1/2+x,1/2-y,z
loop_
_atom_site_type_symbol
_atom_site_label
_atom_site_fract_x
_atom_site_fract_y
_atom_site_fract_z
Si Si1 0.547331 0.911296 0.575856
Si Si2 0.012382 0.684590 0.328789
Si Si3 0.335057 0.816537 0.088737
Si Si4 0.777674 0.774617 0.220630
Si Si5 0.717853 0.906548 0.780676
Si Si6 0.737354 0.452504 0.043761
Si Si7 0.330607 0.548627 0.434778
O O1 0.500000 0.929169 0.500000
O O2 0.578409 0.860757 0.542368
O O3 0.727733 0.935816 0.429623
O O4 0.377805 0.918883 0.841641
O O5 0.193498 0.693215 0.214735
O O6 0.841210 0.717453 0.536155
O O7 0.078079 0.686547 0.129368
O O8 0.224744 0.773059 0.232926
O O9 0.216807 0.859707 0.240029
O O10 0.500000 0.819082 0.000000
O O11 0.000000 0.781461 0.000000
O O12 0.794523 0.941323 0.788861
O O13 0.798465 0.917561 0.571030
O O14 0.500000 0.909539 0.000000
O O15 0.823011 0.500000 0.944662
O O16 0.546880 0.450478 0.176304
O O17 0.268637 0.500000 0.533573
#
# Coordination Sequence:
#
# PCOD8110049 Si02
#       7
#     8   8   8   8   8   8   8
#     4  12  24  44  68  91 130 180 222 272 325 383
#     4  11  22  46  64  94 135 169 219 274 320 387
#     4  10  21  40  66  97 132 168 221 265 324 392
#     4  10  23  41  68  96 126 175 215 269 329 380
#     4  11  20  40  69  98 132 174 210 266 329 401
#     4  11  24  42  66  99 131 168 217 267 330 398
#     4  11  25  43  66 100 134 167 215 275 335 393
#
# _framework density 21.272787000000001
#
# number of rings (size 3 to 8) (size 9 to 14) (size 15 to 20)
#    0.000    1.143    4.286    2.571    0.000    6.857 
#    5.143    1.429    0.000    0.000    0.000    0.000 
#    0.000    0.000    0.000    0.000    0.000    0.000 
#
# Total GULP energy -347086.713225 kJ/mol
# GULP energy per Si atom -12395.954044 kJ/mol
# Density = 2.122437 g / cm^3
# Si number density = 21.272787 Si / 1000 Ang^3
#
#
#
# Elastic Constant Matrix: (Units=GPa)
#
#
# Indices 1 2 3 4 5 6 
#
# 1 121.0815 40.3660 38.1594 0.0004 2.6767 -0.0002
# 2 40.3660 123.9106 38.9716 0.0002 2.4755 -0.0001
# 3 38.1594 38.9716 44.4931 0.0006 -9.6027 -0.0003
# 4 0.0004 0.0002 0.0006 -15.6235 -0.0004 21.2594
# 5 2.6767 2.4755 -9.6027 -0.0004 44.3725 0.0002
# 6 -0.0002 -0.0001 -0.0003 21.2594 0.0002 25.3194
#
#
#
# Elastic Compliance Matrix: (Units=1/GPa)
#
#
# Indices 1 2 3 4 5 6 
#
# 1 0.011717 -0.000557 -0.010183 0.000000 -0.002880 0.000000
# 2 -0.000557 0.011524 -0.010226 0.000000 -0.002822 0.000000
# 3 -0.010183 -0.010226 0.042402 0.000001 0.010361 0.000000
# 4 0.000000 0.000000 0.000001 -0.029874 0.000000 0.025084
# 5 -0.002880 -0.002822 0.010361 0.000000 0.025110 0.000000
# 6 0.000000 0.000000 0.000000 0.025084 0.000000 0.018434
#
#
# Mechanical properties :
#
#
# Convention : Reuss Voigt Hill
#
# Bulk Modulus (GPa) = 42.17247 58.27545 50.22396
# Shear Modulus (GPa) = 38.71507 22.27954 30.49731
#
# Velocity S-wave (km/s) = 4.27070 3.23975 3.79044
# Velocity P-wave (km/s) = 6.64726 6.43805 6.54349
#
# Compressibility (1/GPa) = 0.02371215
#
# Stress axis : x y z
#
# Youngs Moduli (GPa) = 85.34258 86.77362 23.58394
#
# Poissons Ratio (x) = 0.04832 0.24016
# Poissons Ratio (y) = 0.04753 0.24116
# Poissons Ratio (z) = 0.86906 0.88731
#
# Static dielectric constant tensor:
#      x y z
#    x 3.943200 0.000000 -0.051020 
#    y 0.000000 5.144290 0.000000 
#    z -0.051020 0.000000 3.626270 
# 
# 
# High freq. dielectric constant tensor:
#      x y z
#    x 1.839280 0.000000 -0.000740 
#    y 0.000000 1.848250 0.000000 
#    z -0.000740 0.000000 1.819590 
# 
# From -- ./inp_files/150414.got.cif
#   From: 2010.06.25/outbox.cif.g09.slc.cpg/sg12_76_cif.got.tgz:150414.got - 2010.06.28 00:19:55.
