data_PCOD8110425
_publ_section_title
;
Structure prediction by ZEFSAII (Michael W. Deem and Ramdas Pophale) SiO2 
 PCOD8110425
Probable space group: C 2/M
;
_chemical_formula_sum "Si O2"
_cell_formula_units_Z 40
_cell_length_a 10.206925
_cell_length_b 18.507061
_cell_length_c 14.990601
_cell_angle_alpha 90.000000
_cell_angle_beta 41.388249
_cell_angle_gamma 90.000000
_cell_volume 1872.219170
_symmetry_space_group_name_H-M "C 2/M"
_symmetry_group_IT_number 12
_symmetry_cell_setting 'monoclinic'
loop_
_space_group_symop_operation_xyz
x,y,z
-x,y,-z
-x,-y,-z
x,-y,z
1/2+x,1/2+y,z
1/2-x,1/2+y,-z
1/2-x,1/2-y,-z
1/2+x,1/2-y,z
loop_
_atom_site_type_symbol
_atom_site_label
_atom_site_fract_x
_atom_site_fract_y
_atom_site_fract_z
Si Si1 0.846933 0.417085 0.504804
Si Si2 0.107383 0.581438 0.719252
Si Si3 0.327080 0.719170 0.654795
Si Si4 0.993101 0.818597 0.261208
Si Si5 0.172667 0.582541 0.981035
O O1 0.794864 0.500000 0.551101
O O2 0.945232 0.406113 0.357592
O O3 0.646066 0.372261 0.612011
O O4 0.000000 0.387195 0.500000
O O5 0.187896 0.500000 0.694265
O O6 0.280218 0.634689 0.663201
O O7 0.907120 0.593648 0.877904
O O8 0.500000 0.745115 0.500000
O O9 0.129719 0.766042 0.740402
O O10 0.394774 0.730136 0.722336
O O11 0.143091 0.864097 0.124056
O O12 0.241740 0.500000 0.929666
O O13 0.000000 0.603492 0.000000
#
# Coordination Sequence:
#
# PCOD8110425 Si02
#       5
#     8   8   8   8   8
#     4  10  22  41  68  98 129 168 219 273 327 388
#     4  10  22  41  67  96 128 164 215 273 325 380
#     4  12  25  41  65  98 133 174 219 272 325 386
#     4  12  25  41  66  95 135 176 219 264 328 388
#     4  10  21  42  68  97 130 165 218 277 325 383
#
# _framework density 21.365020000000001
#
# number of rings (size 3 to 8) (size 9 to 14) (size 15 to 20)
#    0.000    1.200    4.000    1.800    2.800    2.000 
#    0.000    1.000    0.000    4.800    0.000    0.000 
#    0.000    0.000    0.000    0.000    0.000    0.000 
#
# Total GULP energy -248106.158104 kJ/mol
# GULP energy per Si atom -12405.307905 kJ/mol
# Density = 2.131639 g / cm^3
# Si number density = 21.365020 Si / 1000 Ang^3
#
#
#
# Elastic Constant Matrix: (Units=GPa)
#
#
# Indices 1 2 3 4 5 6 
#
# 1 136.9787 55.6066 54.7104 0.0001 -0.0422 0.0003
# 2 55.6066 101.1761 48.9570 0.0002 -16.1430 0.0002
# 3 54.7104 48.9570 129.4216 -0.0003 1.3913 -0.0029
# 4 0.0001 0.0002 -0.0003 22.7785 0.0003 -11.3371
# 5 -0.0422 -16.1430 1.3913 0.0003 29.5436 0.0005
# 6 0.0003 0.0002 -0.0029 -11.3371 0.0005 27.7363
#
#
#
# Elastic Compliance Matrix: (Units=1/GPa)
#
#
# Indices 1 2 3 4 5 6 
#
# 1 0.010253 -0.004837 -0.002477 0.000000 -0.002512 0.000000
# 2 -0.004837 0.015934 -0.004078 -0.000001 0.008892 -0.000001
# 3 -0.002477 -0.004078 0.010346 0.000001 -0.002719 0.000002
# 4 0.000000 -0.000001 0.000001 0.055113 -0.000001 0.022527
# 5 -0.002512 0.008892 -0.002719 -0.000001 0.038831 -0.000002
# 6 0.000000 -0.000001 0.000002 0.022527 -0.000002 0.045262
#
#
# Mechanical properties :
#
#
# Convention : Reuss Voigt Hill
#
# Bulk Modulus (GPa) = 72.74075 76.23606 74.48840
# Shear Modulus (GPa) = 24.61756 29.89851 27.25804
#
# Velocity S-wave (km/s) = 3.39814 3.74493 3.57574
# Velocity P-wave (km/s) = 7.03684 7.37967 7.21029
#
# Compressibility (1/GPa) = 0.01374745
#
# Stress axis : x y z
#
# Youngs Moduli (GPa) = 97.53574 62.75770 96.65570
#
# Poissons Ratio (x) = 0.30355 0.23946
# Poissons Ratio (y) = 0.47176 0.39421
# Poissons Ratio (z) = 0.24164 0.25596
#
# Static dielectric constant tensor:
#      x y z
#    x 3.706290 0.000000 0.121730 
#    y 0.000000 3.973190 0.000000 
#    z 0.121730 0.000000 3.846540 
# 
# 
# High freq. dielectric constant tensor:
#      x y z
#    x 1.826240 0.000000 0.009450 
#    y 0.000000 1.852160 0.000000 
#    z 0.009450 0.000000 1.833250 
# 
# From -- ./inp_files/205913.got.cif
#   From: 2010.06.25/outbox.cif.g09.slc.cpg/sg12_103_cif.got.tgz:205913.got - 2010.06.28 00:19:55.
