data_PCOD8110965
_publ_section_title
;
Structure prediction by ZEFSAII (Michael W. Deem and Ramdas Pophale) SiO2 
 PCOD8110965
Probable space group: C 2/M
;
_chemical_formula_sum "Si O2"
_cell_formula_units_Z 44
_cell_length_a 18.094182
_cell_length_b 22.206925
_cell_length_c 6.767460
_cell_angle_alpha 90.000000
_cell_angle_beta 51.597412
_cell_angle_gamma 90.000000
_cell_volume 2131.001473
_symmetry_space_group_name_H-M "C 2/M"
_symmetry_group_IT_number 12
_symmetry_cell_setting 'monoclinic'
loop_
_space_group_symop_operation_xyz
x,y,z
-x,y,-z
-x,-y,-z
x,-y,z
1/2+x,1/2+y,z
1/2-x,1/2+y,-z
1/2-x,1/2-y,-z
1/2+x,1/2-y,z
loop_
_atom_site_type_symbol
_atom_site_label
_atom_site_fract_x
_atom_site_fract_y
_atom_site_fract_z
Si Si1 0.847840 0.798536 0.413244
Si Si2 0.000000 0.878937 0.000000
Si Si3 0.313842 0.173043 0.586368
Si Si4 0.732083 0.133775 0.924662
Si Si5 0.388603 0.069981 0.192213
Si Si6 0.084734 0.930541 0.227601
O O1 0.793440 0.809066 0.296170
O O2 0.877763 0.728956 0.401100
O O3 0.775594 0.817530 0.704926
O O4 0.941837 0.837868 0.249785
O O5 0.933436 0.920373 0.975527
O O6 0.346270 0.109748 0.439645
O O7 0.322299 0.168061 0.808820
O O8 0.658164 0.090340 0.936591
O O9 0.815122 0.095841 0.883180
O O10 0.363947 0.000000 0.273403
O O11 0.500000 0.080081 0.000000
O O12 0.000000 0.902429 0.500000
O O13 0.091711 0.000000 0.263672
#
# Coordination Sequence:
#
# PCOD8110965 Si02
#       6
#     8   4   8   8   8   8
#     4  10  22  38  63  93 129 159 206 252 302 370
#     4  12  21  40  60  92 127 164 200 248 304 362
#     4  10  22  41  64  91 123 165 202 257 314 369
#     4  11  21  42  63  93 123 163 208 251 317 368
#     4  10  24  44  64  90 122 157 212 270 315 368
#     4  11  23  38  59  91 129 167 205 243 294 370
#
# _framework density 20.647569000000001
#
# number of rings (size 3 to 8) (size 9 to 14) (size 15 to 20)
#    0.000    1.455    3.636    1.364    1.273    2.182 
#    0.000    3.636    0.000    0.000    0.000    0.000 
#    0.000    0.000    0.000    0.000    0.000    0.000 
#
# Total GULP energy -272799.034434 kJ/mol
# GULP energy per Si atom -12399.956111 kJ/mol
# Density = 2.060057 g / cm^3
# Si number density = 20.647569 Si / 1000 Ang^3
#
#
#
# Elastic Constant Matrix: (Units=GPa)
#
#
# Indices 1 2 3 4 5 6 
#
# 1 105.1741 19.7446 18.0654 0.0000 12.3591 0.0000
# 2 19.7446 96.7257 22.9982 0.0000 4.2807 0.0000
# 3 18.0654 22.9982 78.6218 0.0000 15.1695 0.0000
# 4 0.0000 0.0000 0.0000 27.5954 0.0000 0.8340
# 5 12.3591 4.2807 15.1695 0.0000 32.0593 0.0000
# 6 0.0000 0.0000 0.0000 0.8340 0.0000 21.4018
#
#
#
# Elastic Compliance Matrix: (Units=1/GPa)
#
#
# Indices 1 2 3 4 5 6 
#
# 1 0.010419 -0.001680 -0.001289 0.000000 -0.003182 0.000000
# 2 -0.001680 0.011382 -0.003054 0.000000 0.000573 0.000000
# 3 -0.001289 -0.003054 0.015114 0.000000 -0.006247 0.000000
# 4 0.000000 0.000000 0.000000 0.036281 0.000000 -0.001414
# 5 -0.003182 0.000573 -0.006247 0.000000 0.035298 0.000000
# 6 0.000000 0.000000 0.000000 -0.001414 0.000000 0.046780
#
#
# Mechanical properties :
#
#
# Convention : Reuss Voigt Hill
#
# Bulk Modulus (GPa) = 40.20869 44.68198 42.44534
# Shear Modulus (GPa) = 28.47244 30.85886 29.66565
#
# Velocity S-wave (km/s) = 3.71748 3.87014 3.79458
# Velocity P-wave (km/s) = 6.15973 6.45429 6.30873
#
# Compressibility (1/GPa) = 0.02487024
#
# Stress axis : x y z
#
# Youngs Moduli (GPa) = 95.98158 87.85673 66.16443
#
# Poissons Ratio (x) = 0.14756 0.08526
# Poissons Ratio (y) = 0.16120 0.20207
# Poissons Ratio (z) = 0.12369 0.26832
#
# Static dielectric constant tensor:
#      x y z
#    x 3.755640 0.000000 0.153340 
#    y 0.000000 3.768560 0.000000 
#    z 0.153340 0.000000 3.766030 
# 
# 
# High freq. dielectric constant tensor:
#      x y z
#    x 1.805590 0.000000 0.011410 
#    y 0.000000 1.815200 0.000000 
#    z 0.011410 0.000000 1.800030 
# 
# From -- ./inp_files/16816.got.cif
#   From: 2010.06.25/outbox.cif.g09.slc.cpg/sg12_9_cif.got.tgz:16816.got - 2010.06.28 00:19:55.
