data_PCOD8110219
_publ_section_title
;
Structure prediction by ZEFSAII (Michael W. Deem and Ramdas Pophale) SiO2 
 PCOD8110219
Probable space group: C 2/M
;
_chemical_formula_sum "Si O2"
_cell_formula_units_Z 56
_cell_length_a 29.913825
_cell_length_b 18.382873
_cell_length_c 9.124890
_cell_angle_alpha 90.000000
_cell_angle_beta 145.682798
_cell_angle_gamma 90.000000
_cell_volume 2828.902964
_symmetry_space_group_name_H-M "C 2/M"
_symmetry_group_IT_number 12
_symmetry_cell_setting 'monoclinic'
loop_
_space_group_symop_operation_xyz
x,y,z
-x,y,-z
-x,-y,-z
x,-y,z
1/2+x,1/2+y,z
1/2-x,1/2+y,-z
1/2-x,1/2-y,-z
1/2+x,1/2-y,z
loop_
_atom_site_type_symbol
_atom_site_label
_atom_site_fract_x
_atom_site_fract_y
_atom_site_fract_z
Si Si1 0.440738 0.580336 0.971465
Si Si2 0.871983 0.583631 0.814909
Si Si3 0.718330 0.331733 0.897545
Si Si4 0.341718 0.084602 0.405491
Si Si5 0.965042 0.815215 0.565056
Si Si6 0.722356 0.415769 0.612045
Si Si7 0.015150 0.650250 0.369908
O O1 0.429219 0.500000 0.012955
O O2 0.357815 0.610059 0.684310
O O3 0.500000 0.572454 0.000000
O O4 0.475554 0.636944 0.179464
O O5 0.899629 0.500000 0.891869
O O6 0.864794 0.612624 0.629593
O O7 0.789871 0.594820 0.675132
O O8 0.937190 0.631278 0.070306
O O9 0.625002 0.342575 0.670713
O O10 0.740986 0.363954 0.800037
O O11 0.750000 0.250000 0.000000
O O12 0.760713 0.377353 0.138728
O O13 0.411551 0.100351 0.479390
O O14 0.323789 0.000000 0.361493
O O15 0.964367 0.732509 0.617299
O O16 0.000000 0.820754 0.500000
O O17 0.716305 0.500000 0.648235
O O18 0.000000 0.637695 0.500000
#
# Coordination Sequence:
#
# PCOD8110219 Si02
#       7
#     8   8   8   8   8   8   8
#     4  10  21  41  65  89 119 161 212 261 308 363
#     4  10  23  41  65  97 128 160 207 261 316 378
#     4  12  24  42  63  91 128 168 210 258 309 374
#     4  11  24  42  66  95 128 165 208 262 315 372
#     4  11  26  42  61  92 131 167 210 257 313 373
#     4  10  22  42  67  94 124 162 211 263 315 376
#     4  11  23  42  65  92 130 169 208 254 314 381
#
# _framework density 19.795660000000002
#
# number of rings (size 3 to 8) (size 9 to 14) (size 15 to 20)
#    0.000    1.286    2.857    2.143    4.000    6.571 
#    0.000    1.429    0.000    0.000    0.000    0.000 
#    0.000    0.000    0.000    0.000    0.000    0.000 
#
# Total GULP energy -347304.120405 kJ/mol
# GULP energy per Si atom -12403.718586 kJ/mol
# Density = 1.975060 g / cm^3
# Si number density = 19.795660 Si / 1000 Ang^3
#
#
#
# Elastic Constant Matrix: (Units=GPa)
#
#
# Indices 1 2 3 4 5 6 
#
# 1 86.1942 39.2408 44.3848 0.0000 -1.6976 0.0000
# 2 39.2408 83.3188 60.6003 0.0000 -18.7293 0.0000
# 3 44.3848 60.6003 157.4885 0.0000 -9.4975 0.0000
# 4 0.0000 0.0000 0.0000 7.4459 0.0000 37.4270
# 5 -1.6976 -18.7293 -9.4975 0.0000 32.1975 0.0000
# 6 0.0000 0.0000 0.0000 37.4270 0.0000 -13.7526
#
#
#
# Elastic Compliance Matrix: (Units=1/GPa)
#
#
# Indices 1 2 3 4 5 6 
#
# 1 0.015635 -0.006699 -0.002050 0.000000 -0.003677 0.000000
# 2 -0.006699 0.021804 -0.005863 0.000000 0.010601 0.000000
# 3 -0.002050 -0.005863 0.009134 0.000000 -0.000824 0.000000
# 4 0.000000 0.000000 0.000000 0.009149 0.000000 0.024899
# 5 -0.003677 0.010601 -0.000824 0.000000 0.036788 0.000000
# 6 0.000000 0.000000 0.000000 0.024899 0.000000 -0.004953
#
#
# Mechanical properties :
#
#
# Convention : Reuss Voigt Hill
#
# Bulk Modulus (GPa) = 57.64135 68.38369 63.01252
# Shear Modulus (GPa) = 40.79512 17.36321 29.07916
#
# Velocity S-wave (km/s) = 4.54454 2.96484 3.83687
# Velocity P-wave (km/s) = 7.53117 6.80736 7.17839
#
# Compressibility (1/GPa) = 0.01734866
#
# Stress axis : x y z
#
# Youngs Moduli (GPa) = 63.95966 45.86246 109.48299
#
# Poissons Ratio (x) = 0.30722 0.22449
# Poissons Ratio (y) = 0.42845 0.64189
# Poissons Ratio (z) = 0.13115 0.26889
#
# Static dielectric constant tensor:
#      x y z
#    x 3.700920 0.000000 0.034860 
#    y 0.000000 4.140330 0.000000 
#    z 0.034860 0.000000 3.743230 
# 
# 
# High freq. dielectric constant tensor:
#      x y z
#    x 1.777210 0.000000 0.004930 
#    y 0.000000 1.773860 0.000000 
#    z 0.004930 0.000000 1.790230 
# 
# From -- ./inp_files/75958.got.cif
#   From: 2010.06.25/outbox.cif.g09.slc.cpg/sg12_38_cif.got.tgz:75958.got - 2010.06.28 00:19:55.
