data_PCOD8110126
_publ_section_title
;
Structure prediction by ZEFSAII (Michael W. Deem and Ramdas Pophale) SiO2 
 PCOD8110126
Probable space group: C 2/M
;
_chemical_formula_sum "Si O2"
_cell_formula_units_Z 36
_cell_length_a 12.467111
_cell_length_b 26.645445
_cell_length_c 8.020492
_cell_angle_alpha 90.000000
_cell_angle_beta 141.037897
_cell_angle_gamma 90.000000
_cell_volume 1675.354237
_symmetry_space_group_name_H-M "C 2/M"
_symmetry_group_IT_number 12
_symmetry_cell_setting 'monoclinic'
loop_
_space_group_symop_operation_xyz
x,y,z
-x,y,-z
-x,-y,-z
x,-y,z
1/2+x,1/2+y,z
1/2-x,1/2+y,-z
1/2-x,1/2-y,-z
1/2+x,1/2-y,z
loop_
_atom_site_type_symbol
_atom_site_label
_atom_site_fract_x
_atom_site_fract_y
_atom_site_fract_z
Si Si1 0.500000 0.090921 0.500000
Si Si2 0.955185 0.148782 0.756253
Si Si3 0.633809 0.445529 0.010669
Si Si4 0.933974 0.351455 0.742336
Si Si5 0.549731 0.246853 0.740758
O O1 0.671318 0.057838 0.688938
O O2 0.467355 0.123473 0.293560
O O3 0.760731 0.132080 0.509597
O O4 0.975534 0.197604 0.668443
O O5 0.000000 0.163392 0.000000
O O6 0.076702 0.103263 0.832945
O O7 0.614097 0.500000 0.895772
O O8 0.500000 0.443066 0.000000
O O9 0.966355 0.291381 0.773019
O O10 0.000000 0.371856 0.000000
O O11 0.500000 0.225873 0.500000
O O12 0.750000 0.250000 0.000000
#
# Coordination Sequence:
#
# PCOD8110126 Si02
#       5
#     4   8   8   8   8
#     4  12  21  44  70 102 136 176 231 268 342 404
#     4  11  21  41  61  92 134 172 222 280 327 395
#     4  10  21  40  71 100 130 178 228 279 340 398
#     4  12  24  41  65  99 139 180 221 275 334 402
#     4  12  23  38  61  94 132 179 225 267 331 405
#
# _framework density 21.487992999999999
#
# number of rings (size 3 to 8) (size 9 to 14) (size 15 to 20)
#    0.000    0.667    5.556    5.667    0.000    0.000 
#    0.000    0.000    0.000   10.667    0.000    0.000 
#    0.000    0.000    0.000    0.000    0.000    0.000 
#
# Total GULP energy -223123.831850 kJ/mol
# GULP energy per Si atom -12395.768436 kJ/mol
# Density = 2.143909 g / cm^3
# Si number density = 21.487993 Si / 1000 Ang^3
#
#
#
# Elastic Constant Matrix: (Units=GPa)
#
#
# Indices 1 2 3 4 5 6 
#
# 1 81.8766 27.3057 53.5729 0.0000 3.9813 0.0000
# 2 27.3057 116.5216 9.2466 0.0000 8.4254 0.0000
# 3 53.5729 9.2466 143.6613 0.0000 12.9489 0.0000
# 4 0.0000 0.0000 0.0000 33.7902 0.0000 18.9714
# 5 3.9813 8.4254 12.9489 0.0000 55.3571 0.0000
# 6 0.0000 0.0000 0.0000 18.9714 0.0000 54.8895
#
#
#
# Elastic Compliance Matrix: (Units=1/GPa)
#
#
# Indices 1 2 3 4 5 6 
#
# 1 0.017581 -0.003670 -0.006391 0.000000 0.000789 0.000000
# 2 -0.003670 0.009472 0.000884 0.000000 -0.001384 0.000000
# 3 -0.006391 0.000884 0.009457 0.000000 -0.001887 0.000000
# 4 0.000000 0.000000 0.000000 0.036720 0.000000 -0.012691
# 5 0.000789 -0.001384 -0.001887 0.000000 0.018660 0.000000
# 6 0.000000 0.000000 0.000000 -0.012691 0.000000 0.022605
#
#
# Mechanical properties :
#
#
# Convention : Reuss Voigt Hill
#
# Bulk Modulus (GPa) = 55.07871 58.03444 56.55657
# Shear Modulus (GPa) = 35.99687 45.60299 40.79993
#
# Velocity S-wave (km/s) = 4.09737 4.61179 4.36217
# Velocity P-wave (km/s) = 6.93344 7.44477 7.19365
#
# Compressibility (1/GPa) = 0.01815584
#
# Stress axis : x y z
#
# Youngs Moduli (GPa) = 56.88063 105.57371 105.73847
#
# Poissons Ratio (x) = 0.38743 0.67577
# Poissons Ratio (y) = 0.20874 -0.09343
# Poissons Ratio (z) = 0.36352 -0.09329
#
# Static dielectric constant tensor:
#      x y z
#    x -5.769410 0.000000 5.554170 
#    y 0.000000 4.419850 0.000000 
#    z 5.554170 0.000000 0.896090 
# 
# 
# High freq. dielectric constant tensor:
#      x y z
#    x 1.830000 0.000000 0.028280 
#    y 0.000000 1.845550 0.000000 
#    z 0.028280 0.000000 1.840990 
# 
# From -- ./inp_files/67479.got.cif
#   From: 2010.06.25/outbox.cif.g09.slc.cpg/sg12_34_cif.got.tgz:67479.got - 2010.06.28 00:19:55.
