data_PCOD8110625
_publ_section_title
;
Structure prediction by ZEFSAII (Michael W. Deem and Ramdas Pophale) SiO2 
 PCOD8110625
Probable space group: C 2/M
;
_chemical_formula_sum "Si O2"
_cell_formula_units_Z 56
_cell_length_a 31.007043
_cell_length_b 19.061276
_cell_length_c 8.654176
_cell_angle_alpha 90.000000
_cell_angle_beta 146.890546
_cell_angle_gamma 90.000000
_cell_volume 2793.969669
_symmetry_space_group_name_H-M "C 2/M"
_symmetry_group_IT_number 12
_symmetry_cell_setting 'monoclinic'
loop_
_space_group_symop_operation_xyz
x,y,z
-x,y,-z
-x,-y,-z
x,-y,z
1/2+x,1/2+y,z
1/2-x,1/2+y,-z
1/2-x,1/2-y,-z
1/2+x,1/2-y,z
loop_
_atom_site_type_symbol
_atom_site_label
_atom_site_fract_x
_atom_site_fract_y
_atom_site_fract_z
Si Si1 0.822882 0.310775 0.093618
Si Si2 0.346864 0.919463 0.909003
Si Si3 0.025457 0.225281 0.398580
Si Si4 0.802692 0.078584 0.739195
Si Si5 0.015737 0.076005 0.727848
Si Si6 0.726314 0.185310 0.725404
Si Si7 0.065281 0.334637 0.072396
O O1 0.890435 0.260893 0.366092
O O2 0.779243 0.340604 0.113815
O O3 0.858473 0.373243 0.097823
O O4 0.763116 0.262868 0.816135
O O5 0.257488 0.906967 0.582440
O O6 0.411658 0.897620 0.974818
O O7 0.362788 0.000000 0.000372
O O8 0.000000 0.224904 0.500000
O O9 0.030219 0.144841 0.347361
O O10 0.962693 0.267720 0.108659
O O11 0.785949 0.130633 0.828661
O O12 0.788631 0.000000 0.759624
O O13 0.892367 0.088919 0.955175
O O14 0.000000 0.070248 0.500000
O O15 0.989412 0.000000 0.722379
O O16 0.641996 0.189394 0.393351
O O17 0.000000 0.361188 0.000000
#
# Coordination Sequence:
#
# PCOD8110625 Si02
#       7
#     8   8   8   8   8   8   8
#     4  11  22  38  56  87 118 147 202 236 283 346
#     4  10  23  40  60  84 116 154 195 242 296 346
#     4  11  20  35  59  87 118 146 191 244 280 341
#     4   9  19  36  57  86 115 147 192 234 284 351
#     4   9  18  32  56  88 118 147 184 230 288 344
#     4  10  22  36  58  84 115 156 188 239 286 339
#     4  11  22  38  60  85 116 150 197 242 294 340
#
# _framework density 20.043168000000001
#
# number of rings (size 3 to 8) (size 9 to 14) (size 15 to 20)
#    0.000    1.857    2.857    1.714    2.000    2.000 
#    0.000    1.429    0.000    1.286    0.000    0.000 
#    0.000    0.000    0.000    0.000    0.000    0.000 
#
# Total GULP energy -347101.392420 kJ/mol
# GULP energy per Si atom -12396.478301 kJ/mol
# Density = 1.999755 g / cm^3
# Si number density = 20.043168 Si / 1000 Ang^3
#
#
#
# Elastic Constant Matrix: (Units=GPa)
#
#
# Indices 1 2 3 4 5 6 
#
# 1 66.3753 56.5413 7.8062 0.0000 -8.2976 0.0000
# 2 56.5413 155.4508 45.0765 0.0000 -4.7721 0.0000
# 3 7.8062 45.0765 73.2874 0.0000 0.6265 0.0000
# 4 0.0000 0.0000 0.0000 36.0505 0.0000 -0.1298
# 5 -8.2976 -4.7721 0.6265 0.0000 17.4294 0.0000
# 6 0.0000 0.0000 0.0000 -0.1298 0.0000 17.5671
#
#
#
# Elastic Compliance Matrix: (Units=1/GPa)
#
#
# Indices 1 2 3 4 5 6 
#
# 1 0.023642 -0.009229 0.003085 0.000000 0.008618 0.000000
# 2 -0.009229 0.011527 -0.006098 0.000000 -0.001019 0.000000
# 3 0.003085 -0.006098 0.017074 0.000000 -0.000815 0.000000
# 4 0.000000 0.000000 0.000000 0.027740 0.000000 0.000205
# 5 0.008618 -0.001019 -0.000815 0.000000 0.061227 0.000000
# 6 0.000000 0.000000 0.000000 0.000205 0.000000 0.056926
#
#
# Mechanical properties :
#
#
# Convention : Reuss Voigt Hill
#
# Bulk Modulus (GPa) = 36.02580 57.10684 46.56632
# Shear Modulus (GPa) = 21.56347 26.58868 24.07607
#
# Velocity S-wave (km/s) = 3.28358 3.64616 3.46961
# Velocity P-wave (km/s) = 5.69113 6.80292 6.27171
#
# Compressibility (1/GPa) = 0.02775788
#
# Stress axis : x y z
#
# Youngs Moduli (GPa) = 42.29730 86.75476 58.56875
#
# Poissons Ratio (x) = 0.80067 -0.18066
# Poissons Ratio (y) = 0.39037 0.35715
# Poissons Ratio (z) = -0.13047 0.52903
#
# Static dielectric constant tensor:
#      x y z
#    x 3.426330 0.000000 0.055670 
#    y 0.000000 3.913610 0.000000 
#    z 0.055670 0.000000 3.770800 
# 
# 
# High freq. dielectric constant tensor:
#      x y z
#    x 1.753190 0.000000 0.001740 
#    y 0.000000 1.786240 0.000000 
#    z 0.001740 0.000000 1.795090 
# 
# From -- ./inp_files/87812.got.cif
#   From: 2010.06.25/outbox.cif.g09.slc.cpg/sg12_44_cif.got.tgz:87812.got - 2010.06.28 00:19:55.
