data_PCOD8110528
_publ_section_title
;
Structure prediction by ZEFSAII (Michael W. Deem and Ramdas Pophale) SiO2 
 PCOD8110528
Probable space group: C 2/M
;
_chemical_formula_sum "Si O2"
_cell_formula_units_Z 56
_cell_length_a 13.972127
_cell_length_b 22.877099
_cell_length_c 9.143034
_cell_angle_alpha 90.000000
_cell_angle_beta 109.941842
_cell_angle_gamma 90.000000
_cell_volume 2747.260380
_symmetry_space_group_name_H-M "C 2/M"
_symmetry_group_IT_number 12
_symmetry_cell_setting 'monoclinic'
loop_
_space_group_symop_operation_xyz
x,y,z
-x,y,-z
-x,-y,-z
x,-y,z
1/2+x,1/2+y,z
1/2-x,1/2+y,-z
1/2-x,1/2-y,-z
1/2+x,1/2-y,z
loop_
_atom_site_type_symbol
_atom_site_label
_atom_site_fract_x
_atom_site_fract_y
_atom_site_fract_z
Si Si1 0.706795 0.434065 0.925107
Si Si2 0.029605 0.128978 0.685352
Si Si3 0.752191 0.203059 0.681155
Si Si4 0.374743 0.193970 0.639923
Si Si5 0.417058 0.242363 0.207998
Si Si6 0.100143 0.114497 0.129462
Si Si7 0.114443 0.350400 0.046656
O O1 0.736265 0.500000 0.897907
O O2 0.632765 0.408127 0.760274
O O3 0.810691 0.396347 0.992752
O O4 0.646602 0.436211 0.049934
O O5 0.043839 0.191221 0.775806
O O6 0.000000 0.135270 0.500000
O O7 0.935280 0.097037 0.723366
O O8 0.681375 0.166023 0.530100
O O9 0.834452 0.239459 0.632519
O O10 0.680118 0.244772 0.738318
O O11 0.809622 0.161191 0.822217
O O12 0.496144 0.199216 0.680866
O O13 0.344050 0.158262 0.767844
O O14 0.387548 0.213390 0.035443
O O15 0.000000 0.140935 0.000000
O O16 0.000000 0.376278 0.000000
#
# Coordination Sequence:
#
# PCOD8110528 Si02
#       7
#     8   8   8   8   8   8   8
#     4  11  25  45  64  84 115 167 219 258 303 354
#     4  11  24  39  64  96 130 158 196 253 310 369
#     4  11  20  34  55  84 127 168 186 239 299 370
#     4  10  22  32  55  90 127 157 198 234 306 374
#     4  11  21  36  59  92 130 163 189 236 308 384
#     4  10  23  39  60  86 119 160 205 248 300 362
#     4  10  23  38  61  93 122 158 202 254 301 368
#
# _framework density 20.383942999999999
#
# number of rings (size 3 to 8) (size 9 to 14) (size 15 to 20)
#    0.000    1.429    2.857    2.143    8.000    4.286 
#    0.000    0.000    0.000    0.000    0.000    2.000 
#    0.000    0.000    0.000    0.000    0.000    0.000 
#
# Total GULP energy -346928.538561 kJ/mol
# GULP energy per Si atom -12390.304949 kJ/mol
# Density = 2.033755 g / cm^3
# Si number density = 20.383943 Si / 1000 Ang^3
#
#
#
# Elastic Constant Matrix: (Units=GPa)
#
#
# Indices 1 2 3 4 5 6 
#
# 1 101.5717 24.5412 31.2102 0.0000 -0.0747 0.0000
# 2 24.5412 81.9406 33.5672 0.0000 6.3403 0.0000
# 3 31.2102 33.5672 79.6986 0.0000 -1.1723 0.0000
# 4 0.0000 0.0000 0.0000 11.4479 0.0000 1.8715
# 5 -0.0747 6.3403 -1.1723 0.0000 28.7937 0.0000
# 6 0.0000 0.0000 0.0000 1.8715 0.0000 17.7585
#
#
#
# Elastic Compliance Matrix: (Units=1/GPa)
#
#
# Indices 1 2 3 4 5 6 
#
# 1 0.011440 -0.001954 -0.003652 0.000000 0.000311 0.000000
# 2 -0.001954 0.015444 -0.005793 0.000000 -0.003642 0.000000
# 3 -0.003652 -0.005793 0.016446 0.000000 0.001936 0.000000
# 4 0.000000 0.000000 0.000000 0.088883 0.000000 -0.009367
# 5 0.000311 -0.003642 0.001936 0.000000 0.035611 0.000000
# 6 0.000000 0.000000 0.000000 -0.009367 0.000000 0.057298
#
#
# Mechanical properties :
#
#
# Convention : Reuss Voigt Hill
#
# Bulk Modulus (GPa) = 48.70685 49.09423 48.90054
# Shear Modulus (GPa) = 19.62590 23.19284 21.40937
#
# Velocity S-wave (km/s) = 3.10629 3.37679 3.24436
# Velocity P-wave (km/s) = 6.06729 6.27221 6.17060
#
# Compressibility (1/GPa) = 0.02053099
#
# Stress axis : x y z
#
# Youngs Moduli (GPa) = 87.41345 64.74940 60.80557
#
# Poissons Ratio (x) = 0.12653 0.22208
# Poissons Ratio (y) = 0.17082 0.35225
# Poissons Ratio (z) = 0.31926 0.37509
#
# Static dielectric constant tensor:
#      x y z
#    x 3.927380 0.000000 0.106540 
#    y 0.000000 3.052170 0.000000 
#    z 0.106540 0.000000 3.936480 
# 
# 
# High freq. dielectric constant tensor:
#      x y z
#    x 1.819470 0.000000 0.003210 
#    y 0.000000 1.725180 0.000000 
#    z 0.003210 0.000000 1.806030 
# 
# From -- ./inp_files/65992.got.cif
#   From: 2010.06.25/outbox.cif.g09.slc.cpg/sg12_33_cif.got.tgz:65992.got - 2010.06.28 00:19:55.
