data_PCOD8110318
_publ_section_title
;
Structure prediction by ZEFSAII (Michael W. Deem and Ramdas Pophale) SiO2 
 PCOD8110318
Probable space group: C 2/M
;
_chemical_formula_sum "Si O2"
_cell_formula_units_Z 48
_cell_length_a 9.892984
_cell_length_b 14.756291
_cell_length_c 17.117622
_cell_angle_alpha 90.000000
_cell_angle_beta 91.700852
_cell_angle_gamma 90.000000
_cell_volume 2497.793698
_symmetry_space_group_name_H-M "C 2/M"
_symmetry_group_IT_number 12
_symmetry_cell_setting 'monoclinic'
loop_
_space_group_symop_operation_xyz
x,y,z
-x,y,-z
-x,-y,-z
x,-y,z
1/2+x,1/2+y,z
1/2-x,1/2+y,-z
1/2-x,1/2-y,-z
1/2+x,1/2-y,z
loop_
_atom_site_type_symbol
_atom_site_label
_atom_site_fract_x
_atom_site_fract_y
_atom_site_fract_z
Si Si1 0.207030 0.600938 0.828041
Si Si2 0.395338 0.500000 0.429027
Si Si3 0.651094 0.000000 0.533766
Si Si4 0.972305 0.172891 0.332506
Si Si5 0.477982 0.604292 0.162481
Si Si6 0.712994 0.159152 0.653203
Si Si7 0.380864 0.754120 0.054167
O O1 0.157430 0.500000 0.849003
O O2 0.363660 0.612042 0.851371
O O3 0.182058 0.614454 0.735946
O O4 0.122976 0.672597 0.876590
O O5 0.500000 0.500000 0.500000
O O6 0.243444 0.500000 0.458350
O O7 0.420690 0.586882 0.377615
O O8 0.500000 0.000000 0.500000
O O9 0.682700 0.911659 0.584857
O O10 0.940240 0.155290 0.241453
O O11 0.886958 0.257295 0.362124
O O12 0.131221 0.191041 0.349368
O O13 0.430297 0.500000 0.164824
O O14 0.401794 0.654363 0.090796
O O15 0.500000 0.784821 0.000000
O O16 0.250000 0.750000 0.000000
#
# Coordination Sequence:
#
# PCOD8110318 Si02
#       7
#     8   4   4   8   8   8   8
#     4  10  21  41  69  92 127 173 218 262 318 390
#     4  12  24  46  66  98 136 165 212 279 329 373
#     4  12  28  46  66 100 138 168 214 273 330 383
#     4  11  23  41  71  97 128 173 220 266 320 392
#     4  10  21  41  68  94 124 176 223 253 316 398
#     4  11  23  43  69  97 128 174 221 261 325 391
#     4  12  24  40  63  99 134 162 211 277 327 369
#
# _framework density 19.21696
#
# number of rings (size 3 to 8) (size 9 to 14) (size 15 to 20)
#    0.000    1.000    6.667    0.000    2.333    2.667 
#    0.000    0.000    0.000    0.000    0.000    0.000 
#    0.000    0.000    0.000    0.000    0.000    0.000 
#
# Total GULP energy -297695.268387 kJ/mol
# GULP energy per Si atom -12403.969516 kJ/mol
# Density = 1.917322 g / cm^3
# Si number density = 19.216960 Si / 1000 Ang^3
#
#
#
# Elastic Constant Matrix: (Units=GPa)
#
#
# Indices 1 2 3 4 5 6 
#
# 1 116.6970 48.8159 51.8279 0.0000 -5.1352 0.0000
# 2 48.8159 136.2066 36.6765 0.0000 -6.5761 0.0000
# 3 51.8279 36.6765 89.1886 0.0000 -4.2511 0.0000
# 4 0.0000 0.0000 0.0000 48.7932 0.0000 -2.6774
# 5 -5.1352 -6.5761 -4.2511 0.0000 38.9247 0.0000
# 6 0.0000 0.0000 0.0000 -2.6774 0.0000 28.1835
#
#
#
# Elastic Compliance Matrix: (Units=1/GPa)
#
#
# Indices 1 2 3 4 5 6 
#
# 1 0.012458 -0.002809 -0.006060 0.000000 0.000507 0.000000
# 2 -0.002809 0.008930 -0.001996 0.000000 0.000920 0.000000
# 3 -0.006060 -0.001996 0.015582 0.000000 0.000565 0.000000
# 4 0.000000 0.000000 0.000000 0.020602 0.000000 0.001957
# 5 0.000507 0.000920 0.000565 0.000000 0.025975 0.000000
# 6 0.000000 0.000000 0.000000 0.001957 0.000000 0.035668
#
#
# Mechanical properties :
#
#
# Convention : Reuss Voigt Hill
#
# Bulk Modulus (GPa) = 65.61879 68.52589 67.07234
# Shear Modulus (GPa) = 34.24080 36.83174 35.53627
#
# Velocity S-wave (km/s) = 4.22572 4.38268 4.30491
# Velocity P-wave (km/s) = 7.61770 7.83243 7.72581
#
# Compressibility (1/GPa) = 0.01523954
#
# Stress axis : x y z
#
# Youngs Moduli (GPa) = 80.27072 111.97745 64.17765
#
# Poissons Ratio (x) = 0.31449 0.38893
# Poissons Ratio (y) = 0.22544 0.12813
# Poissons Ratio (z) = 0.48646 0.22356
#
# Static dielectric constant tensor:
#      x y z
#    x 3.487210 0.000000 -0.095140 
#    y 0.000000 3.778720 0.000000 
#    z -0.095140 0.000000 3.264820 
# 
# 
# High freq. dielectric constant tensor:
#      x y z
#    x 1.741820 0.000000 -0.003880 
#    y 0.000000 1.757950 0.000000 
#    z -0.003880 0.000000 1.761540 
# 
# From -- ./inp_files/255820.got.cif
#   From: 2010.06.25/outbox.cif.g09.slc.cpg/sg12_128_cif.got.tgz:255820.got - 2010.06.28 00:19:55.
