data_PCOD8110937
_publ_section_title
;
Structure prediction by ZEFSAII (Michael W. Deem and Ramdas Pophale) SiO2 
 PCOD8110937
Probable space group: C 2/M
;
_chemical_formula_sum "Si O2"
_cell_formula_units_Z 64
_cell_length_a 14.129667
_cell_length_b 18.502688
_cell_length_c 23.394646
_cell_angle_alpha 90.000000
_cell_angle_beta 150.113830
_cell_angle_gamma 90.000000
_cell_volume 3047.581696
_symmetry_space_group_name_H-M "C 2/M"
_symmetry_group_IT_number 12
_symmetry_cell_setting 'monoclinic'
loop_
_space_group_symop_operation_xyz
x,y,z
-x,y,-z
-x,-y,-z
x,-y,z
1/2+x,1/2+y,z
1/2-x,1/2+y,-z
1/2-x,1/2-y,-z
1/2+x,1/2-y,z
loop_
_atom_site_type_symbol
_atom_site_label
_atom_site_fract_x
_atom_site_fract_y
_atom_site_fract_z
Si Si1 0.988582 0.294655 0.426505
Si Si2 0.031373 0.414016 0.176829
Si Si3 0.122265 0.418048 0.784207
Si Si4 0.359972 0.325330 0.831192
Si Si5 0.308671 0.919100 0.527732
Si Si6 0.807201 0.681381 0.876426
Si Si7 0.773276 0.825246 0.041281
Si Si8 0.420101 0.360895 0.344955
O O1 0.788338 0.323971 0.298882
O O2 0.014089 0.216568 0.409812
O O3 0.000000 0.283865 0.500000
O O4 0.149861 0.354236 0.495283
O O5 0.034637 0.500000 0.170193
O O6 0.247718 0.384502 0.296234
O O7 0.923361 0.387873 0.177073
O O8 0.913530 0.376466 0.063641
O O9 0.182377 0.500000 0.820070
O O10 0.302205 0.379251 0.851177
O O11 0.934970 0.404942 0.649214
O O12 0.376467 0.249146 0.873318
O O13 0.545762 0.357978 0.897632
O O14 0.090893 0.917779 0.434612
O O15 0.349495 0.000000 0.523782
O O16 0.684627 0.693354 0.870081
O O17 0.671229 0.633505 0.766142
O O18 0.000000 0.643072 0.000000
O O19 0.750000 0.750000 0.000000
#
# Coordination Sequence:
#
# PCOD8110937 Si02
#       8
#     8   8   8   8   8   8   8   8
#     4  10  23  40  62  97 125 159 214 269 314 368
#     4  11  24  40  62  96 129 161 207 262 315 377
#     4   9  21  40  61  88 123 159 201 256 313 372
#     4  10  22  38  62  89 120 165 203 257 315 370
#     4  10  22  42  64  89 126 169 207 258 324 382
#     4  11  21  39  58  88 121 159 206 254 306 360
#     4  12  22  38  63  90 120 162 213 254 307 375
#     4  11  23  41  63  93 125 165 211 255 316 380
#
# _framework density 21.000257000000001
#
# number of rings (size 3 to 8) (size 9 to 14) (size 15 to 20)
#    0.000    1.500    2.500    2.250    3.500    0.750 
#    0.000    5.000    0.000    0.000    0.000    0.000 
#    0.000    0.000    0.000    0.000    0.000    0.000 
#
# Total GULP energy -396507.517444 kJ/mol
# GULP energy per Si atom -12390.859920 kJ/mol
# Density = 2.095246 g / cm^3
# Si number density = 21.000257 Si / 1000 Ang^3
#
#
#
# Elastic Constant Matrix: (Units=GPa)
#
#
# Indices 1 2 3 4 5 6 
#
# 1 106.0623 24.1226 28.6240 0.0015 -2.3289 0.0005
# 2 24.1226 82.9628 24.1393 -0.0021 2.0099 -0.0002
# 3 28.6240 24.1393 63.7773 0.0012 5.9515 0.0013
# 4 0.0015 -0.0021 0.0012 22.3523 0.0013 2.3682
# 5 -2.3289 2.0099 5.9515 0.0013 44.7194 0.0003
# 6 0.0005 -0.0002 0.0013 2.3682 0.0003 30.0494
#
#
#
# Elastic Compliance Matrix: (Units=1/GPa)
#
#
# Indices 1 2 3 4 5 6 
#
# 1 0.011078 -0.001990 -0.004335 -0.000001 0.001243 0.000000
# 2 -0.001990 0.013903 -0.004355 0.000002 -0.000149 0.000000
# 3 -0.004335 -0.004355 0.019519 -0.000001 -0.002628 -0.000001
# 4 -0.000001 0.000002 -0.000001 0.045115 -0.000001 -0.003555
# 5 0.001243 -0.000149 -0.002628 -0.000001 0.022783 0.000000
# 6 0.000000 0.000000 -0.000001 -0.003555 0.000000 0.033559
#
#
# Mechanical properties :
#
#
# Convention : Reuss Voigt Hill
#
# Bulk Modulus (GPa) = 43.21540 45.17492 44.19516
# Shear Modulus (GPa) = 28.56658 31.15198 29.85928
#
# Velocity S-wave (km/s) = 3.69222 3.85568 3.77484
# Velocity P-wave (km/s) = 6.22895 6.43273 6.33166
#
# Compressibility (1/GPa) = 0.02313990
#
# Stress axis : x y z
#
# Youngs Moduli (GPa) = 90.26731 71.92679 51.23280
#
# Poissons Ratio (x) = 0.14313 0.22209
# Poissons Ratio (y) = 0.17963 0.22313
# Poissons Ratio (z) = 0.39130 0.31326
#
# Static dielectric constant tensor:
#      x y z
#    x 3.016270 -0.000010 -0.684320 
#    y -0.000010 3.662400 -0.000010 
#    z -0.684320 -0.000010 3.495890 
# 
# 
# High freq. dielectric constant tensor:
#      x y z
#    x 1.830910 0.000000 0.001480 
#    y 0.000000 1.804770 0.000000 
#    z 0.001480 0.000000 1.826600 
# 
# From -- ./inp_files/340847.got.cif
#   From: 2010.06.25/outbox.cif.g09.slc.cpg/sg12_171_cif.got.tgz:340847.got - 2010.06.28 00:19:55.
