data_PCOD8110657
_publ_section_title
;
Structure prediction by ZEFSAII (Michael W. Deem and Ramdas Pophale) SiO2 
 PCOD8110657
Probable space group: C 2/M
;
_chemical_formula_sum "Si O2"
_cell_formula_units_Z 64
_cell_length_a 24.043115
_cell_length_b 8.982421
_cell_length_c 25.421659
_cell_angle_alpha 90.000000
_cell_angle_beta 44.082339
_cell_angle_gamma 90.000000
_cell_volume 3819.483759
_symmetry_space_group_name_H-M "C 2/M"
_symmetry_group_IT_number 12
_symmetry_cell_setting 'monoclinic'
loop_
_space_group_symop_operation_xyz
x,y,z
-x,y,-z
-x,-y,-z
x,-y,z
1/2+x,1/2+y,z
1/2-x,1/2+y,-z
1/2-x,1/2-y,-z
1/2+x,1/2-y,z
loop_
_atom_site_type_symbol
_atom_site_label
_atom_site_fract_x
_atom_site_fract_y
_atom_site_fract_z
Si Si1 0.060281 0.176510 0.125841
Si Si2 0.588082 0.668237 0.917478
Si Si3 0.657997 0.826919 0.966749
Si Si4 0.590676 0.826865 0.805976
Si Si5 0.660155 0.167620 0.265473
Si Si6 0.267542 0.672066 0.694427
Si Si7 0.918125 0.668399 0.577500
Si Si8 0.841032 0.829382 0.840600
O O1 0.102946 0.227475 0.150361
O O2 0.968556 0.232076 0.190819
O O3 0.063977 0.000000 0.114897
O O4 0.102543 0.254915 0.048342
O O5 0.616756 0.500000 0.884386
O O6 0.647975 0.741259 0.918753
O O7 0.584230 0.772624 0.869745
O O8 0.500000 0.662781 0.000000
O O9 0.750011 0.805783 0.920776
O O10 0.635191 0.000000 0.975722
O O11 0.682162 0.801033 0.724505
O O12 0.567297 0.000000 0.819125
O O13 0.732671 0.252688 0.246733
O O14 0.583299 0.172699 0.357400
O O15 0.635941 0.239998 0.227119
O O16 0.688506 0.000000 0.235596
O O17 0.285280 0.500000 0.690935
O O18 0.339423 0.742268 0.610279
O O19 0.911419 0.500000 0.560729
O O20 0.000000 0.741669 0.500000
O O21 0.858658 0.000000 0.815762
#
# Coordination Sequence:
#
# PCOD8110657 Si02
#       8
#     8   8   8   8   8   8   8   8
#     4  11  23  37  51  68  93 128 171 214 255 295
#     4  11  22  34  50  71  95 124 162 207 253 302
#     4  11  22  36  53  71  93 125 165 211 262 303
#     4  11  22  35  50  70  97 128 164 207 249 294
#     4   9  18  31  51  77 102 132 163 193 239 291
#     4   9  18  31  49  75 104 130 159 194 238 288
#     4   8  16  31  50  78 111 135 159 191 232 287
#     4  10  22  37  51  70  97 128 165 212 254 293
#
# _framework density 16.75619
#
# number of rings (size 3 to 8) (size 9 to 14) (size 15 to 20)
#    0.750    1.250    1.250    3.000    0.000    7.750 
#    0.000    0.000    0.000    0.000    0.000    0.875 
#    0.000    0.000    0.000    0.000    0.000    0.000 
#
# Total GULP energy -396650.726790 kJ/mol
# GULP energy per Si atom -12395.335212 kJ/mol
# Density = 1.671805 g / cm^3
# Si number density = 16.756190 Si / 1000 Ang^3
#
#
#
# Elastic Constant Matrix: (Units=GPa)
#
#
# Indices 1 2 3 4 5 6 
#
# 1 109.7440 38.4028 24.8535 -0.0004 -13.4022 -0.0001
# 2 38.4028 80.2367 23.2867 -0.0011 -9.0392 0.0021
# 3 24.8535 23.2867 54.5476 -0.0008 -18.0063 0.0005
# 4 -0.0004 -0.0011 -0.0008 24.0547 0.0001 1.2647
# 5 -13.4022 -9.0392 -18.0063 0.0001 18.9501 0.0004
# 6 -0.0001 0.0021 0.0005 1.2647 0.0004 16.5769
#
#
#
# Elastic Compliance Matrix: (Units=1/GPa)
#
#
# Indices 1 2 3 4 5 6 
#
# 1 0.011661 -0.004530 -0.001996 0.000000 0.004189 0.000001
# 2 -0.004530 0.016014 -0.004821 0.000001 -0.000145 -0.000002
# 3 -0.001996 -0.004821 0.029249 0.000001 0.024082 -0.000001
# 4 0.000000 0.000001 0.000001 0.041739 0.000001 -0.003184
# 5 0.004189 -0.000145 0.024082 0.000001 0.078546 -0.000003
# 6 0.000001 -0.000002 -0.000001 -0.003184 -0.000003 0.060568
#
#
# Mechanical properties :
#
#
# Convention : Reuss Voigt Hill
#
# Bulk Modulus (GPa) = 29.21329 46.40158 37.80744
# Shear Modulus (GPa) = 18.39041 22.44870 20.41956
#
# Velocity S-wave (km/s) = 3.31649 3.66420 3.49467
# Velocity P-wave (km/s) = 5.66901 6.75678 6.23666
#
# Compressibility (1/GPa) = 0.03423099
#
# Stress axis : x y z
#
# Youngs Moduli (GPa) = 85.75617 62.44605 34.18863
#
# Poissons Ratio (x) = 0.28287 0.06825
# Poissons Ratio (y) = 0.38846 0.16481
# Poissons Ratio (z) = 0.17120 0.30102
#
# Static dielectric constant tensor:
#      x y z
#    x 3.230560 0.000000 -0.192940 
#    y 0.000000 3.305580 0.000000 
#    z -0.192940 0.000000 2.988530 
# 
# 
# High freq. dielectric constant tensor:
#      x y z
#    x 1.631050 0.000000 -0.018530 
#    y 0.000000 1.661830 0.000000 
#    z -0.018530 0.000000 1.618500 
# 
# From -- ./inp_files/367042.got.cif
#   From: 2010.06.25/outbox.cif.g09.slc.cpg/sg12_184_cif.got.tgz:367042.got - 2010.06.28 00:19:55.
