data_PCOD8110521
_publ_section_title
;
Structure prediction by ZEFSAII (Michael W. Deem and Ramdas Pophale) SiO2 
 PCOD8110521
Probable space group: C 2/M
;
_chemical_formula_sum "Si O2"
_cell_formula_units_Z 52
_cell_length_a 12.415243
_cell_length_b 26.386924
_cell_length_c 18.893996
_cell_angle_alpha 90.000000
_cell_angle_beta 150.548711
_cell_angle_gamma 90.000000
_cell_volume 3043.360404
_symmetry_space_group_name_H-M "C 2/M"
_symmetry_group_IT_number 12
_symmetry_cell_setting 'monoclinic'
loop_
_space_group_symop_operation_xyz
x,y,z
-x,y,-z
-x,-y,-z
x,-y,z
1/2+x,1/2+y,z
1/2-x,1/2+y,-z
1/2-x,1/2-y,-z
1/2+x,1/2-y,z
loop_
_atom_site_type_symbol
_atom_site_label
_atom_site_fract_x
_atom_site_fract_y
_atom_site_fract_z
Si Si1 0.345215 0.810726 0.692787
Si Si2 0.214545 0.943335 0.766773
Si Si3 0.779154 0.556575 0.965901
Si Si4 0.500000 0.711317 0.000000
Si Si5 0.604611 0.281930 0.801704
Si Si6 0.006160 0.156860 0.610724
Si Si7 0.296469 0.344680 0.005624
O O1 0.400170 0.751887 0.710039
O O2 0.182556 0.812247 0.665968
O O3 0.234036 0.835255 0.559527
O O4 0.564112 0.842121 0.833360
O O5 0.180506 0.939331 0.831228
O O6 0.058089 0.903120 0.638607
O O7 0.152613 0.000000 0.705557
O O8 0.463880 0.930530 0.889558
O O9 0.739622 0.500000 0.973488
O O10 0.657443 0.597012 0.946734
O O11 0.286668 0.746300 0.869864
O O12 0.515393 0.675449 0.939441
O O13 0.514781 0.323115 0.695531
O O14 0.714744 0.309846 0.931129
#
# Coordination Sequence:
#
# PCOD8110521 Si02
#       7
#     8   8   8   4   8   8   8
#     4  10  22  31  45  74 107 131 158 202 246 298
#     4   9  17  30  51  78 100 127 166 205 246 300
#     4   9  17  30  52  78  98 124 169 213 244 289
#     4  10  22  30  49  76  97 124 170 216 240 296
#     4  11  20  34  52  70  96 138 174 199 238 294
#     4  11  19  33  50  72 104 134 159 199 248 298
#     4  11  19  35  52  72  99 132 167 208 254 284
#
# _framework density 17.086375
#
# number of rings (size 3 to 8) (size 9 to 14) (size 15 to 20)
#    0.000    1.846    3.077    5.077    0.000    0.000 
#    0.000    2.692    0.000    0.000    0.000    0.000 
#    0.000    9.846    0.000    0.000    0.000    0.000 
#
# Total GULP energy -322399.854841 kJ/mol
# GULP energy per Si atom -12399.994417 kJ/mol
# Density = 1.704749 g / cm^3
# Si number density = 17.086375 Si / 1000 Ang^3
#
#
#
# Elastic Constant Matrix: (Units=GPa)
#
#
# Indices 1 2 3 4 5 6 
#
# 1 78.3557 45.0542 27.9671 0.0063 -8.6931 -0.0017
# 2 45.0542 130.6179 43.8548 0.0013 -4.2445 -0.0016
# 3 27.9671 43.8548 90.1712 -0.0216 -7.3522 0.0055
# 4 0.0063 0.0013 -0.0216 14.6947 -0.0030 4.7675
# 5 -8.6931 -4.2445 -7.3522 -0.0030 17.5163 0.0028
# 6 -0.0017 -0.0016 0.0055 4.7675 0.0028 23.6360
#
#
#
# Elastic Compliance Matrix: (Units=1/GPa)
#
#
# Indices 1 2 3 4 5 6 
#
# 1 0.017140 -0.004894 -0.002422 -0.000010 0.006304 0.000003
# 2 -0.004894 0.010550 -0.003730 -0.000005 -0.001438 0.000003
# 3 -0.002422 -0.003730 0.013961 0.000026 0.003754 -0.000009
# 4 -0.000010 -0.000005 0.000026 0.072817 0.000019 -0.014687
# 5 0.006304 -0.001438 0.003754 0.000019 0.061446 -0.000012
# 6 0.000003 0.000003 -0.000009 -0.014687 -0.000012 0.045271
#
#
# Mechanical properties :
#
#
# Convention : Reuss Voigt Hill
#
# Bulk Modulus (GPa) = 51.12734 59.21076 55.16905
# Shear Modulus (GPa) = 20.01625 23.32065 21.66845
#
# Velocity S-wave (km/s) = 3.42639 3.69842 3.56500
# Velocity P-wave (km/s) = 6.75584 7.27783 7.02169
#
# Compressibility (1/GPa) = 0.01955901
#
# Stress axis : x y z
#
# Youngs Moduli (GPa) = 58.34201 94.78888 71.62578
#
# Poissons Ratio (x) = 0.46392 0.17347
# Poissons Ratio (y) = 0.28554 0.26718
# Poissons Ratio (z) = 0.14129 0.35358
#
# Static dielectric constant tensor:
#      x y z
#    x 3.113210 0.000000 -0.116270 
#    y 0.000000 3.306260 -0.000010 
#    z -0.116270 -0.000010 3.057750 
# 
# 
# High freq. dielectric constant tensor:
#      x y z
#    x 1.639510 0.000000 -0.018180 
#    y 0.000000 1.664370 0.000000 
#    z -0.018180 0.000000 1.642780 
# 
# From -- ./inp_files/135845.got.cif
#   From: 2010.06.25/outbox.cif.g09.slc.cpg/sg12_68_cif.got.tgz:135845.got - 2010.06.28 00:19:55.
