data_PCOD8110115
_publ_section_title
;
Structure prediction by ZEFSAII (Michael W. Deem and Ramdas Pophale) SiO2 
 PCOD8110115
Probable space group: C 2/M
;
_chemical_formula_sum "Si O2"
_cell_formula_units_Z 56
_cell_length_a 18.622597
_cell_length_b 10.794096
_cell_length_c 15.976093
_cell_angle_alpha 90.000000
_cell_angle_beta 123.828032
_cell_angle_gamma 90.000000
_cell_volume 2667.765740
_symmetry_space_group_name_H-M "C 2/M"
_symmetry_group_IT_number 12
_symmetry_cell_setting 'monoclinic'
loop_
_space_group_symop_operation_xyz
x,y,z
-x,y,-z
-x,-y,-z
x,-y,z
1/2+x,1/2+y,z
1/2-x,1/2+y,-z
1/2-x,1/2-y,-z
1/2+x,1/2-y,z
loop_
_atom_site_type_symbol
_atom_site_label
_atom_site_fract_x
_atom_site_fract_y
_atom_site_fract_z
Si Si1 0.437091 0.500000 0.597574
Si Si2 0.609302 0.278126 0.308761
Si Si3 0.789817 0.640854 0.369313
Si Si4 0.492118 0.358778 0.088426
Si Si5 0.949852 0.640474 0.586950
Si Si6 0.869070 0.234833 0.284548
Si Si7 0.318346 0.645433 0.070697
Si Si8 0.619638 0.500000 0.619498
O O1 0.421972 0.382761 0.646635
O O2 0.530975 0.500000 0.616336
O O3 0.374902 0.500000 0.477148
O O4 0.709844 0.280875 0.351927
O O5 0.553298 0.279209 0.188025
O O6 0.590567 0.150326 0.345846
O O7 0.766492 0.500000 0.374152
O O8 0.878109 0.682674 0.473010
O O9 0.805940 0.656575 0.279066
O O10 0.525929 0.500000 0.113644
O O11 0.392526 0.351230 0.049778
O O12 0.500000 0.304726 0.000000
O O13 0.979799 0.500000 0.590229
O O14 0.032077 0.729880 0.631534
O O15 0.858306 0.196825 0.182161
O O16 0.833550 0.123804 0.320006
O O17 0.284769 0.500000 0.057041
O O18 0.250000 0.750000 0.000000
#
# Coordination Sequence:
#
# PCOD8110115 Si02
#       8
#     4   8   8   8   8   8   8   4
#     4  11  20  34  67  98 123 165 217 273 317 391
#     4  12  21  43  66  91 134 171 223 276 329 395
#     4  11  25  40  63  97 135 178 225 274 323 408
#     4  10  21  40  69  97 123 164 218 279 333 392
#     4  11  24  41  62  94 137 179 222 270 336 400
#     4  12  23  43  65  94 133 175 219 273 332 395
#     4  11  25  46  72 102 135 169 223 289 345 404
#     4  11  22  36  66  96 122 166 223 260 327 391
#
# _framework density 20.991349
#
# number of rings (size 3 to 8) (size 9 to 14) (size 15 to 20)
#    0.000    0.857    5.000    2.143    4.000    2.286 
#    1.286    0.000    0.000    0.857    0.000    0.000 
#    0.000    0.000    0.000    0.000    0.000    0.000 
#
# Total GULP energy -346995.940391 kJ/mol
# GULP energy per Si atom -12392.712157 kJ/mol
# Density = 2.094357 g / cm^3
# Si number density = 20.991349 Si / 1000 Ang^3
#
#
#
# Elastic Constant Matrix: (Units=GPa)
#
#
# Indices 1 2 3 4 5 6 
#
# 1 105.6666 28.0736 41.0165 0.0000 -13.4950 0.0000
# 2 28.0736 71.5225 39.5769 0.0000 8.0627 0.0000
# 3 41.0165 39.5769 115.1995 0.0000 -16.9429 0.0000
# 4 0.0000 0.0000 0.0000 25.2189 0.0000 -0.1657
# 5 -13.4950 8.0627 -16.9429 0.0000 39.7714 0.0000
# 6 0.0000 0.0000 0.0000 -0.1657 0.0000 16.0785
#
#
#
# Elastic Compliance Matrix: (Units=1/GPa)
#
#
# Indices 1 2 3 4 5 6 
#
# 1 0.011870 -0.003771 -0.002375 0.000000 0.003781 0.000000
# 2 -0.003771 0.020154 -0.006796 0.000000 -0.008260 0.000000
# 3 -0.002375 -0.006796 0.012743 0.000000 0.006001 0.000000
# 4 0.000000 0.000000 0.000000 0.039655 0.000000 0.000409
# 5 0.003781 -0.008260 0.006001 0.000000 0.030658 0.000000
# 6 0.000000 0.000000 0.000000 0.000409 0.000000 0.062199
#
#
# Mechanical properties :
#
#
# Convention : Reuss Voigt Hill
#
# Bulk Modulus (GPa) = 52.95674 56.63585 54.79629
# Shear Modulus (GPa) = 23.87113 28.46186 26.16649
#
# Velocity S-wave (km/s) = 3.37588 3.68623 3.53446
# Velocity P-wave (km/s) = 6.36224 6.71988 6.54351
#
# Compressibility (1/GPa) = 0.01888334
#
# Stress axis : x y z
#
# Youngs Moduli (GPa) = 84.24348 49.61877 78.47206
#
# Poissons Ratio (x) = 0.18713 0.18635
# Poissons Ratio (y) = 0.31772 0.53329
# Poissons Ratio (z) = 0.20005 0.33720
#
# Static dielectric constant tensor:
#      x y z
#    x 3.816620 0.000000 -0.246920 
#    y 0.000000 4.050300 0.000000 
#    z -0.246920 0.000000 3.852940 
# 
# 
# High freq. dielectric constant tensor:
#      x y z
#    x 1.828840 0.000000 -0.019020 
#    y 0.000000 1.817090 0.000000 
#    z -0.019020 0.000000 1.812590 
# 
# From -- ./inp_files/223943.got.cif
#   From: 2010.06.25/outbox.cif.g09.slc.cpg/sg12_112_cif.got.tgz:223943.got - 2010.06.28 00:19:55.
