data_PCOD8110315
_publ_section_title
;
Structure prediction by ZEFSAII (Michael W. Deem and Ramdas Pophale) SiO2 
 PCOD8110315
Probable space group: C 2/M
;
_chemical_formula_sum "Si O2"
_cell_formula_units_Z 48
_cell_length_a 9.745142
_cell_length_b 21.757180
_cell_length_c 12.565834
_cell_angle_alpha 90.000000
_cell_angle_beta 118.599194
_cell_angle_gamma 90.000000
_cell_volume 2339.222434
_symmetry_space_group_name_H-M "C 2/M"
_symmetry_group_IT_number 12
_symmetry_cell_setting 'monoclinic'
loop_
_space_group_symop_operation_xyz
x,y,z
-x,y,-z
-x,-y,-z
x,-y,z
1/2+x,1/2+y,z
1/2-x,1/2+y,-z
1/2-x,1/2-y,-z
1/2+x,1/2-y,z
loop_
_atom_site_type_symbol
_atom_site_label
_atom_site_fract_x
_atom_site_fract_y
_atom_site_fract_z
Si Si1 0.838520 0.569887 0.197076
Si Si2 0.283546 0.571230 0.627735
Si Si3 0.181974 0.572015 0.044950
Si Si4 0.068139 0.746088 0.410690
Si Si5 0.645200 0.122228 0.369460
Si Si6 0.902533 0.130102 0.294231
O O1 0.787624 0.500000 0.179407
O O2 0.755206 0.600338 0.269659
O O3 0.027845 0.573378 0.273511
O O4 0.781198 0.595385 0.061785
O O5 0.237431 0.500000 0.605572
O O6 0.176798 0.606803 0.503933
O O7 0.465570 0.578197 0.667148
O O8 0.227770 0.500000 0.079537
O O9 0.279161 0.618732 0.154421
O O10 0.000000 0.581191 0.000000
O O11 0.250000 0.750000 0.500000
O O12 0.050107 0.686749 0.327716
O O13 0.000000 0.734755 0.500000
O O14 0.988255 0.803633 0.320651
O O15 0.812335 0.123574 0.372597
#
# Coordination Sequence:
#
# PCOD8110315 Si02
#       6
#     8   8   8   8   8   8
#     4  10  22  40  64  93 128 171 209 251 319 387
#     4  11  23  37  60  98 133 160 204 268 325 382
#     4  10  21  41  68  93 126 173 215 258 314 379
#     4  12  23  42  63  91 128 170 211 261 324 386
#     4  12  23  39  65  91 127 166 213 262 319 387
#     4  12  24  40  63  95 125 165 221 263 316 381
#
# _framework density 20.519639000000002
#
# number of rings (size 3 to 8) (size 9 to 14) (size 15 to 20)
#    0.000    0.833    5.000    3.000    0.000    4.667 
#    0.000    3.333    0.000    0.000    0.000    0.000 
#    0.000    0.000    0.000    0.000    0.000    0.000 
#
# Total GULP energy -297488.557309 kJ/mol
# GULP energy per Si atom -12395.356555 kJ/mol
# Density = 2.047294 g / cm^3
# Si number density = 20.519639 Si / 1000 Ang^3
#
#
#
# Elastic Constant Matrix: (Units=GPa)
#
#
# Indices 1 2 3 4 5 6 
#
# 1 113.7940 41.1389 40.2133 0.0000 -10.5891 0.0000
# 2 41.1389 69.6505 51.4646 0.0000 -6.7165 0.0000
# 3 40.2133 51.4646 133.4097 0.0000 -11.3942 0.0000
# 4 0.0000 0.0000 0.0000 31.1547 0.0000 8.7278
# 5 -10.5891 -6.7165 -11.3942 0.0000 37.6668 0.0000
# 6 0.0000 0.0000 0.0000 8.7278 0.0000 35.2411
#
#
#
# Elastic Compliance Matrix: (Units=1/GPa)
#
#
# Indices 1 2 3 4 5 6 
#
# 1 0.011427 -0.005794 -0.001050 0.000000 0.001862 0.000000
# 2 -0.005794 0.023078 -0.007128 0.000000 0.000330 0.000000
# 3 -0.001050 -0.007128 0.010705 0.000000 0.001672 0.000000
# 4 0.000000 0.000000 0.000000 0.034491 0.000000 -0.008542
# 5 0.001862 0.000330 0.001672 0.000000 0.027637 0.000000
# 6 0.000000 0.000000 0.000000 -0.008542 0.000000 0.030491
#
#
# Mechanical properties :
#
#
# Convention : Reuss Voigt Hill
#
# Bulk Modulus (GPa) = 57.91874 64.72087 61.31981
# Shear Modulus (GPa) = 29.14975 33.08167 31.11571
#
# Velocity S-wave (km/s) = 3.77314 4.01957 3.89831
# Velocity P-wave (km/s) = 6.87528 7.29054 7.08595
#
# Compressibility (1/GPa) = 0.01726557
#
# Stress axis : x y z
#
# Youngs Moduli (GPa) = 87.51426 43.33102 93.41503
#
# Poissons Ratio (x) = 0.25104 0.09812
# Poissons Ratio (y) = 0.50701 0.66588
# Poissons Ratio (z) = 0.09193 0.30887
#
# Static dielectric constant tensor:
#      x y z
#    x 3.933000 0.000000 -0.253800 
#    y 0.000000 0.103580 0.000000 
#    z -0.253800 0.000000 3.837050 
# 
# 
# High freq. dielectric constant tensor:
#      x y z
#    x 1.818450 0.000000 -0.010270 
#    y 0.000000 1.784750 0.000000 
#    z -0.010270 0.000000 1.796600 
# 
# From -- ./inp_files/122455.got.cif
#   From: 2010.06.25/outbox.cif.g09.slc.cpg/sg12_62_cif.got.tgz:122455.got - 2010.06.28 00:19:55.
