data_PCOD8110826
_publ_section_title
;
Structure prediction by ZEFSAII (Michael W. Deem and Ramdas Pophale) SiO2 
 PCOD8110826
Probable space group: C 2/M
;
_chemical_formula_sum "Si O2"
_cell_formula_units_Z 64
_cell_length_a 15.377214
_cell_length_b 23.691903
_cell_length_c 18.608495
_cell_angle_alpha 90.000000
_cell_angle_beta 152.412026
_cell_angle_gamma 90.000000
_cell_volume 3139.590663
_symmetry_space_group_name_H-M "C 2/M"
_symmetry_group_IT_number 12
_symmetry_cell_setting 'monoclinic'
loop_
_space_group_symop_operation_xyz
x,y,z
-x,y,-z
-x,-y,-z
x,-y,z
1/2+x,1/2+y,z
1/2-x,1/2+y,-z
1/2-x,1/2-y,-z
1/2+x,1/2-y,z
loop_
_atom_site_type_symbol
_atom_site_label
_atom_site_fract_x
_atom_site_fract_y
_atom_site_fract_z
Si Si1 0.206780 0.266715 0.680124
Si Si2 0.052403 0.181287 0.742465
Si Si3 0.007025 0.849704 0.152104
Si Si4 0.175458 0.307750 0.813606
Si Si5 0.811179 0.376446 0.554077
Si Si6 0.189622 0.433642 0.599179
Si Si7 0.711178 0.434947 0.628600
Si Si8 0.679334 0.150772 0.180030
O O1 0.334253 0.301303 0.718049
O O2 0.199763 0.305071 0.746203
O O3 0.307156 0.207046 0.762805
O O4 0.000000 0.255718 0.500000
O O5 0.107240 0.149043 0.856508
O O6 0.125895 0.245041 0.804287
O O7 0.144035 0.147281 0.743803
O O8 0.829777 0.175940 0.563780
O O9 0.123943 0.907526 0.225708
O O10 0.869467 0.832857 0.986846
O O11 0.014549 0.350907 0.719194
O O12 0.818560 0.417026 0.490346
O O13 0.744274 0.413119 0.572619
O O14 0.209560 0.500000 0.621854
O O15 0.000000 0.411907 0.500000
O O16 0.500000 0.424734 0.500000
O O17 0.769591 0.500000 0.674625
O O18 0.839041 0.401944 0.779905
O O19 0.500000 0.154866 0.000000
#
# Coordination Sequence:
#
# PCOD8110826 Si02
#       8
#     8   8   8   8   8   8   8   8
#     4  11  22  38  63  93 128 168 202 250 314 396
#     4  10  22  38  57  92 124 170 204 250 313 385
#     4  11  22  38  61  92 130 164 201 259 320 380
#     4  11  23  36  60  95 132 159 202 253 324 383
#     4  11  22  39  65  93 126 165 216 264 308 383
#     4  10  22  43  68  92 124 169 219 265 315 379
#     4  11  24  43  65  89 122 170 221 267 309 365
#     4  11  24  40  62  90 127 163 212 264 324 370
#
# _framework density 20.384823000000001
#
# number of rings (size 3 to 8) (size 9 to 14) (size 15 to 20)
#    0.000    1.250    1.250    6.000    5.250    0.250 
#    0.000    1.250    0.000    3.000    0.000    0.000 
#    0.000    0.000    0.000    0.000    0.000    0.000 
#
# Total GULP energy -396775.974375 kJ/mol
# GULP energy per Si atom -12399.249199 kJ/mol
# Density = 2.033843 g / cm^3
# Si number density = 20.384823 Si / 1000 Ang^3
#
#
#
# Elastic Constant Matrix: (Units=GPa)
#
#
# Indices 1 2 3 4 5 6 
#
# 1 101.0057 53.7593 23.7446 -0.0020 -8.4486 -0.0130
# 2 53.7593 113.0194 57.9102 -0.0140 -1.6613 0.0062
# 3 23.7446 57.9102 126.8040 -0.0063 -6.1264 -0.0450
# 4 -0.0020 -0.0140 -0.0063 49.2716 0.0007 -23.2362
# 5 -8.4486 -1.6613 -6.1264 0.0007 29.3684 -0.0190
# 6 -0.0130 0.0062 -0.0450 -23.2362 -0.0190 43.7365
#
#
#
# Elastic Compliance Matrix: (Units=1/GPa)
#
#
# Indices 1 2 3 4 5 6 
#
# 1 0.013669 -0.006825 0.000736 0.000003 0.003700 0.000009
# 2 -0.006825 0.014964 -0.005667 -0.000003 -0.002299 -0.000012
# 3 0.000736 -0.005667 0.010436 0.000008 0.002068 0.000017
# 4 0.000003 -0.000003 0.000008 0.027081 0.000011 0.014387
# 5 0.003700 -0.002299 0.002068 0.000011 0.035416 0.000025
# 6 0.000009 -0.000012 0.000017 0.014387 0.000025 0.030508
#
#
# Mechanical properties :
#
#
# Convention : Reuss Voigt Hill
#
# Bulk Modulus (GPa) = 64.27516 67.96194 66.11855
# Shear Modulus (GPa) = 31.09984 38.16964 34.63474
#
# Velocity S-wave (km/s) = 3.91018 4.33188 4.12642
# Velocity P-wave (km/s) = 7.21009 7.64409 7.43026
#
# Compressibility (1/GPa) = 0.01555811
#
# Stress axis : x y z
#
# Youngs Moduli (GPa) = 73.15682 66.82563 95.81784
#
# Poissons Ratio (x) = 0.45606 -0.07051
# Poissons Ratio (y) = 0.49927 0.54302
# Poissons Ratio (z) = -0.05383 0.37871
#
# Static dielectric constant tensor:
#      x y z
#    x 6.731850 -0.000040 1.584180 
#    y -0.000040 3.539840 -0.000030 
#    z 1.584180 -0.000030 4.460200 
# 
# 
# High freq. dielectric constant tensor:
#      x y z
#    x 1.818480 0.000000 0.000300 
#    y 0.000000 1.782430 0.000000 
#    z 0.000300 0.000000 1.793470 
# 
# From -- ./inp_files/272874.got.cif
#   From: 2010.06.25/outbox.cif.g09.slc.cpg/sg12_137_cif.got.tgz:272874.got - 2010.06.28 00:19:55.
