data_PCOD8110987
_publ_section_title
;
Structure prediction by ZEFSAII (Michael W. Deem and Ramdas Pophale) SiO2 
 PCOD8110987
Probable space group: C 2/M
;
_chemical_formula_sum "Si O2"
_cell_formula_units_Z 56
_cell_length_a 15.294794
_cell_length_b 18.794330
_cell_length_c 16.241383
_cell_angle_alpha 90.000000
_cell_angle_beta 143.596324
_cell_angle_gamma 90.000000
_cell_volume 2770.720023
_symmetry_space_group_name_H-M "C 2/M"
_symmetry_group_IT_number 12
_symmetry_cell_setting 'monoclinic'
loop_
_space_group_symop_operation_xyz
x,y,z
-x,y,-z
-x,-y,-z
x,-y,z
1/2+x,1/2+y,z
1/2-x,1/2+y,-z
1/2-x,1/2-y,-z
1/2+x,1/2-y,z
loop_
_atom_site_type_symbol
_atom_site_label
_atom_site_fract_x
_atom_site_fract_y
_atom_site_fract_z
Si Si1 0.162090 0.294452 0.038792
Si Si2 0.202357 0.417661 0.395004
Si Si3 0.350603 0.352011 0.040708
Si Si4 0.666634 0.812692 0.227478
Si Si5 0.651309 0.417650 0.327810
Si Si6 0.160579 0.329925 0.640485
Si Si7 0.109839 0.580922 0.762428
O O1 0.149154 0.208412 0.030467
O O2 0.006612 0.321514 0.885681
O O3 0.296600 0.317887 0.084730
O O4 0.196636 0.328135 0.154139
O O5 0.201744 0.500000 0.366833
O O6 0.243390 0.369575 0.346640
O O7 0.328702 0.403307 0.559405
O O8 0.044503 0.396309 0.313663
O O9 0.512525 0.380030 0.181260
O O10 0.240048 0.414576 0.929168
O O11 0.723321 0.733178 0.286265
O O12 0.634364 0.500000 0.297156
O O13 0.798831 0.391160 0.394053
O O14 0.157142 0.364387 0.727740
O O15 0.000000 0.298563 0.500000
O O16 0.100273 0.500000 0.722236
#
# Coordination Sequence:
#
# PCOD8110987 Si02
#       7
#     8   8   8   8   8   8   8
#     4  10  22  38  65  90 130 164 212 277 321 371
#     4  10  23  44  66  91 129 173 213 263 324 384
#     4  11  21  41  63  94 128 170 214 266 324 381
#     4  11  22  42  63  95 126 165 220 268 316 388
#     4  11  24  41  64  96 133 171 214 267 324 387
#     4  12  24  39  62  96 131 168 219 266 323 386
#     4  11  22  39  64  92 128 171 214 260 323 390
#
# _framework density 20.211352000000002
#
# number of rings (size 3 to 8) (size 9 to 14) (size 15 to 20)
#    0.000    1.143    5.714    0.857    0.000    2.857 
#    0.000    4.286    0.000    2.143    0.000    0.000 
#    0.000    0.000    0.000    0.000    0.000    0.000 
#
# Total GULP energy -347121.010974 kJ/mol
# GULP energy per Si atom -12397.178963 kJ/mol
# Density = 2.016535 g / cm^3
# Si number density = 20.211352 Si / 1000 Ang^3
#
#
#
# Elastic Constant Matrix: (Units=GPa)
#
#
# Indices 1 2 3 4 5 6 
#
# 1 73.7590 45.9781 31.1444 -0.0010 -12.0624 -0.0013
# 2 45.9781 99.5168 39.4522 -0.0013 -21.9600 -0.0010
# 3 31.1444 39.4522 94.4759 0.0008 -10.7299 -0.0001
# 4 -0.0010 -0.0013 0.0008 31.7703 0.0006 -6.3883
# 5 -12.0624 -21.9600 -10.7299 0.0006 27.4067 -0.0008
# 6 -0.0013 -0.0010 -0.0001 -6.3883 -0.0008 27.0552
#
#
#
# Elastic Compliance Matrix: (Units=1/GPa)
#
#
# Indices 1 2 3 4 5 6 
#
# 1 0.019885 -0.007601 -0.003222 0.000001 0.001400 0.000001
# 2 -0.007601 0.016916 -0.003557 0.000001 0.008816 0.000001
# 3 -0.003222 -0.003557 0.013236 -0.000001 0.000914 0.000000
# 4 0.000001 0.000001 -0.000001 0.033045 0.000000 0.007803
# 5 0.001400 0.008816 0.000914 0.000000 0.044526 0.000002
# 6 0.000001 0.000001 0.000000 0.007803 0.000002 0.038804
#
#
# Mechanical properties :
#
#
# Convention : Reuss Voigt Hill
#
# Bulk Modulus (GPa) = 46.99896 55.65569 51.32732
# Shear Modulus (GPa) = 24.72021 27.32489 26.02255
#
# Velocity S-wave (km/s) = 3.50106 3.68089 3.59210
# Velocity P-wave (km/s) = 6.29662 6.75736 6.53105
#
# Compressibility (1/GPa) = 0.02127707
#
# Stress axis : x y z
#
# Youngs Moduli (GPa) = 50.28845 59.11632 75.55132
#
# Poissons Ratio (x) = 0.44934 0.24344
# Poissons Ratio (y) = 0.38224 0.26873
# Poissons Ratio (z) = 0.16204 0.21027
#
# Static dielectric constant tensor:
#      x y z
#    x 3.503010 0.000000 -0.011160 
#    y 0.000000 3.523110 0.000000 
#    z -0.011160 0.000000 3.697750 
# 
# 
# High freq. dielectric constant tensor:
#      x y z
#    x 1.781070 0.000000 -0.001180 
#    y 0.000000 1.779080 0.000000 
#    z -0.001180 0.000000 1.800290 
# 
# From -- ./inp_files/217740.got.cif
#   From: 2010.06.25/outbox.cif.g09.slc.cpg/sg12_109_cif.got.tgz:217740.got - 2010.06.28 00:19:55.
