data_PCOD8110984
_publ_section_title
;
Structure prediction by ZEFSAII (Michael W. Deem and Ramdas Pophale) SiO2 
 PCOD8110984
Probable space group: C 2/M
;
_chemical_formula_sum "Si O2"
_cell_formula_units_Z 36
_cell_length_a 14.755572
_cell_length_b 22.239682
_cell_length_c 5.451783
_cell_angle_alpha 90.000000
_cell_angle_beta 67.340169
_cell_angle_gamma 90.000000
_cell_volume 1650.953075
_symmetry_space_group_name_H-M "C 2/M"
_symmetry_group_IT_number 12
_symmetry_cell_setting 'monoclinic'
loop_
_space_group_symop_operation_xyz
x,y,z
-x,y,-z
-x,-y,-z
x,-y,z
1/2+x,1/2+y,z
1/2-x,1/2+y,-z
1/2-x,1/2-y,-z
1/2+x,1/2-y,z
loop_
_atom_site_type_symbol
_atom_site_label
_atom_site_fract_x
_atom_site_fract_y
_atom_site_fract_z
Si Si1 0.299442 0.930798 0.711175
Si Si2 0.396264 0.625754 0.988362
Si Si3 0.111775 0.377744 0.883673
Si Si4 0.000000 0.811852 0.500000
Si Si5 0.856702 0.754513 0.278487
O O1 0.181444 0.926060 0.868350
O O2 0.334863 0.899304 0.422776
O O3 0.329519 0.000000 0.661433
O O4 0.343230 0.902928 0.912796
O O5 0.349644 0.689233 0.109723
O O6 0.500000 0.608584 0.000000
O O7 0.417832 0.640635 0.682259
O O8 0.118138 0.305895 0.894572
O O9 0.000000 0.400095 0.000000
O O10 0.947578 0.767196 0.365873
O O11 0.750000 0.750000 0.500000
#
# Coordination Sequence:
#
# PCOD8110984 Si02
#       5
#     8   8   8   4   8
#     4  12  28  48  70  98 136 186 237 281 332 397
#     4  10  23  42  68 102 140 175 223 282 345 410
#     4  12  27  45  73 102 136 181 227 284 344 404
#     4  10  22  38  65 102 137 172 220 272 352 420
#     4  11  22  39  68 103 136 174 216 278 349 413
#
# _framework density 21.805586999999999
#
# number of rings (size 3 to 8) (size 9 to 14) (size 15 to 20)
#    0.000    0.889    2.222    4.667    9.333    4.889 
#    0.000    0.556    0.000    0.000    0.000    0.000 
#    0.000    0.000    0.000    0.000    0.000    0.000 
#
# Total GULP energy -223028.426607 kJ/mol
# GULP energy per Si atom -12390.468145 kJ/mol
# Density = 2.175596 g / cm^3
# Si number density = 21.805587 Si / 1000 Ang^3
#
#
#
# Elastic Constant Matrix: (Units=GPa)
#
#
# Indices 1 2 3 4 5 6 
#
# 1 86.2584 9.2597 34.5167 0.0000 -14.9236 0.0000
# 2 9.2597 63.7117 6.3011 0.0000 9.5512 0.0000
# 3 34.5167 6.3011 114.8044 0.0000 -2.8382 0.0000
# 4 0.0000 0.0000 0.0000 18.2514 0.0000 3.8355
# 5 -14.9236 9.5512 -2.8382 0.0000 47.0920 0.0000
# 6 0.0000 0.0000 0.0000 3.8355 0.0000 19.1426
#
#
#
# Elastic Compliance Matrix: (Units=1/GPa)
#
#
# Indices 1 2 3 4 5 6 
#
# 1 0.014296 -0.002393 -0.004049 0.000000 0.004772 0.000000
# 2 -0.002393 0.016697 -0.000300 0.000000 -0.004163 0.000000
# 3 -0.004049 -0.000300 0.009929 0.000000 -0.000624 0.000000
# 4 0.000000 0.000000 0.000000 0.057199 0.000000 -0.011461
# 5 0.004772 -0.004163 -0.000624 0.000000 0.023554 0.000000
# 6 0.000000 0.000000 0.000000 -0.011461 0.000000 0.054536
#
#
# Mechanical properties :
#
#
# Convention : Reuss Voigt Hill
#
# Bulk Modulus (GPa) = 36.44469 40.54771 38.49620
# Shear Modulus (GPa) = 25.14598 31.21032 28.17815
#
# Velocity S-wave (km/s) = 3.39955 3.78736 3.59868
# Velocity P-wave (km/s) = 5.67089 6.14499 5.91269
#
# Compressibility (1/GPa) = 0.02743884
#
# Stress axis : x y z
#
# Youngs Moduli (GPa) = 69.95174 59.89042 100.71709
#
# Poissons Ratio (x) = 0.14329 0.40778
# Poissons Ratio (y) = 0.16736 0.03022
# Poissons Ratio (z) = 0.28322 0.01797
#
# Static dielectric constant tensor:
#      x y z
#    x 3.994640 0.000000 -0.158140 
#    y 0.000000 3.863660 0.000000 
#    z -0.158140 0.000000 4.339790 
# 
# 
# High freq. dielectric constant tensor:
#      x y z
#    x 1.866480 0.000000 -0.014550 
#    y 0.000000 1.841770 0.000000 
#    z -0.014550 0.000000 1.881370 
# 
# From -- ./inp_files/11238.got.cif
#   From: 2010.06.25/outbox.cif.g09.slc.cpg/sg12_6_cif.got.tgz:11238.got - 2010.06.28 00:19:55.
