data_PCOD8110047
_publ_section_title
;
Structure prediction by ZEFSAII (Michael W. Deem and Ramdas Pophale) SiO2 
 PCOD8110047
Probable space group: C 2/M
;
_chemical_formula_sum "Si O2"
_cell_formula_units_Z 40
_cell_length_a 13.639664
_cell_length_b 18.805296
_cell_length_c 12.678821
_cell_angle_alpha 90.000000
_cell_angle_beta 34.276100
_cell_angle_gamma 90.000000
_cell_volume 1831.517296
_symmetry_space_group_name_H-M "C 2/M"
_symmetry_group_IT_number 12
_symmetry_cell_setting 'monoclinic'
loop_
_space_group_symop_operation_xyz
x,y,z
-x,y,-z
-x,-y,-z
x,-y,z
1/2+x,1/2+y,z
1/2-x,1/2+y,-z
1/2-x,1/2-y,-z
1/2+x,1/2-y,z
loop_
_atom_site_type_symbol
_atom_site_label
_atom_site_fract_x
_atom_site_fract_y
_atom_site_fract_z
Si Si1 0.972548 0.081712 0.401408
Si Si2 0.134524 0.329212 0.678654
Si Si3 0.696181 0.082833 0.023130
Si Si4 0.795950 0.919383 0.173988
Si Si5 0.657745 0.790533 0.426036
O O1 0.803834 0.122387 0.511346
O O2 0.000000 0.092975 0.500000
O O3 0.140635 0.110859 0.189516
O O4 0.943269 0.000000 0.397432
O O5 0.179239 0.264405 0.719228
O O6 0.085423 0.298134 0.608480
O O7 0.972535 0.374002 0.867251
O O8 0.661267 0.000000 0.031708
O O9 0.730780 0.097755 0.114838
O O10 0.704431 0.867214 0.337393
O O11 0.746561 0.000000 0.250108
O O12 0.000000 0.907616 0.000000
O O13 0.500000 0.755786 0.500000
#
# Coordination Sequence:
#
# PCOD8110047 Si02
#       5
#     8   8   8   8   8
#     4  10  22  42  67  96 132 172 219 275 329 387
#     4  11  23  41  64  93 136 174 220 268 315 400
#     4  10  21  40  69 100 127 169 223 271 330 388
#     4  10  21  40  66  97 130 164 213 273 331 392
#     4  11  23  42  61  94 134 175 216 262 331 392
#
# _framework density 21.839815999999999
#
# number of rings (size 3 to 8) (size 9 to 14) (size 15 to 20)
#    0.000    1.600    2.000    2.400    0.000    4.400 
#    7.200    6.000    0.000    0.000    0.000    0.000 
#    0.000    0.000    0.000    0.000    0.000    0.000 
#
# Total GULP energy -248064.936803 kJ/mol
# GULP energy per Si atom -12403.246840 kJ/mol
# Density = 2.179011 g / cm^3
# Si number density = 21.839816 Si / 1000 Ang^3
#
#
#
# Elastic Constant Matrix: (Units=GPa)
#
#
# Indices 1 2 3 4 5 6 
#
# 1 116.1223 49.3280 43.3777 -0.0013 -15.0914 -0.0852
# 2 49.3280 106.3954 55.5764 -0.3287 -11.2778 0.5583
# 3 43.3777 55.5764 105.6765 -0.0465 -19.3456 0.1133
# 4 -0.0013 -0.3287 -0.0465 39.8194 0.0804 -56.3412
# 5 -15.0914 -11.2778 -19.3456 0.0804 35.7161 -0.1414
# 6 -0.0852 0.5583 0.1133 -56.3412 -0.1414 117.5604
#
#
#
# Elastic Compliance Matrix: (Units=1/GPa)
#
#
# Indices 1 2 3 4 5 6 
#
# 1 0.011392 -0.003880 -0.002196 0.000018 0.002399 0.000040
# 2 -0.003880 0.014287 -0.005989 0.000059 -0.000373 -0.000037
# 3 -0.002196 -0.005989 0.014429 -0.000050 0.004996 -0.000005
# 4 0.000018 0.000059 -0.000050 0.078017 -0.000028 0.037390
# 5 0.002399 -0.000373 0.004996 -0.000028 0.031601 0.000023
# 6 0.000040 -0.000037 -0.000005 0.037390 0.000023 0.026426
#
#
# Mechanical properties :
#
#
# Convention : Reuss Voigt Hill
#
# Bulk Modulus (GPa) = 62.59219 69.41761 66.00490
# Shear Modulus (GPa) = 24.31792 50.61334 37.46563
#
# Velocity S-wave (km/s) = 3.34049 4.81924 4.14632
# Velocity P-wave (km/s) = 6.60306 7.92595 7.29455
#
# Compressibility (1/GPa) = 0.01597644
#
# Stress axis : x y z
#
# Youngs Moduli (GPa) = 87.77932 69.99216 69.30578
#
# Poissons Ratio (x) = 0.27159 0.15223
# Poissons Ratio (y) = 0.34061 0.41509
# Poissons Ratio (z) = 0.19280 0.41920
#
# Static dielectric constant tensor:
#      x y z
#    x 4.088290 -0.000030 -0.144320 
#    y -0.000030 4.095610 0.000020 
#    z -0.144320 0.000020 3.767180 
# 
# 
# High freq. dielectric constant tensor:
#      x y z
#    x 1.871110 -0.000010 -0.008140 
#    y -0.000010 1.865900 0.000010 
#    z -0.008140 0.000010 1.845330 
# 
# From -- ./inp_files/74952.got.cif
#   From: 2010.06.25/outbox.cif.g09.slc.cpg/sg12_38_cif.got.tgz:74952.got - 2010.06.28 00:19:55.
