data_PCOD8110564
_publ_section_title
;
Structure prediction by ZEFSAII (Michael W. Deem and Ramdas Pophale) SiO2 
 PCOD8110564
Probable space group: C 2/M
;
_chemical_formula_sum "Si O2"
_cell_formula_units_Z 40
_cell_length_a 23.036705
_cell_length_b 17.006218
_cell_length_c 14.816505
_cell_angle_alpha 90.000000
_cell_angle_beta 158.357123
_cell_angle_gamma 90.000000
_cell_volume 2140.861757
_symmetry_space_group_name_H-M "C 2/M"
_symmetry_group_IT_number 12
_symmetry_cell_setting 'monoclinic'
loop_
_space_group_symop_operation_xyz
x,y,z
-x,y,-z
-x,-y,-z
x,-y,z
1/2+x,1/2+y,z
1/2-x,1/2+y,-z
1/2-x,1/2-y,-z
1/2+x,1/2-y,z
loop_
_atom_site_type_symbol
_atom_site_label
_atom_site_fract_x
_atom_site_fract_y
_atom_site_fract_z
Si Si1 0.685753 0.631765 0.867369
Si Si2 0.562629 0.500000 0.470760
Si Si3 0.150057 0.500000 0.984897
Si Si4 0.819776 0.293957 0.237052
Si Si5 0.537309 0.500000 0.227196
Si Si6 0.864499 0.131476 0.875074
Si Si7 0.300304 0.000000 0.471069
O O1 0.529358 0.578605 0.632665
O O2 0.672515 0.702878 0.778051
O O3 0.831334 0.577450 0.049422
O O4 0.716874 0.659655 0.014384
O O5 0.583212 0.500000 0.395679
O O6 0.733423 0.500000 0.761870
O O7 0.972863 0.500000 0.761383
O O8 0.732083 0.301766 0.208514
O O9 0.000000 0.326476 0.500000
O O10 0.702664 0.500000 0.419471
O O11 0.443314 0.577792 0.064904
O O12 0.736944 0.078721 0.638926
O O13 0.000000 0.163572 0.000000
#
# Coordination Sequence:
#
# PCOD8110564 Si02
#       7
#     8   4   4   8   4   8   4
#     4  10  22  35  53  81 111 145 181 222 269 331
#     4  11  19  36  56  76 111 151 182 213 267 334
#     4  11  21  35  53  77 112 145 189 219 265 315
#     4  11  20  34  58  84 111 137 182 232 276 312
#     4   9  17  34  56  82 108 143 180 216 280 326
#     4   9  18  35  59  83 112 140 174 227 283 328
#     4   9  19  33  57  85 107 137 183 232 265 318
#
# _framework density 18.684065
#
# number of rings (size 3 to 8) (size 9 to 14) (size 15 to 20)
#    0.000    2.000    2.000    4.800    0.000    0.400 
#    0.000    3.000    8.800    4.800    0.000    0.000 
#    0.000    0.000    0.000    0.000    0.000    0.000 
#
# Total GULP energy -247840.837343 kJ/mol
# GULP energy per Si atom -12392.041867 kJ/mol
# Density = 1.864154 g / cm^3
# Si number density = 18.684065 Si / 1000 Ang^3
#
#
#
# Elastic Constant Matrix: (Units=GPa)
#
#
# Indices 1 2 3 4 5 6 
#
# 1 145.8117 57.0230 54.3242 0.0000 3.0477 0.0000
# 2 57.0230 94.3423 44.3136 0.0000 0.2715 0.0000
# 3 54.3242 44.3136 128.0064 0.0000 14.8527 0.0000
# 4 0.0000 0.0000 0.0000 477.3122 0.0000 39.3698
# 5 3.0477 0.2715 14.8527 0.0000 26.8019 0.0000
# 6 0.0000 0.0000 0.0000 39.3698 0.0000 23.6376
#
#
#
# Elastic Compliance Matrix: (Units=1/GPa)
#
#
# Indices 1 2 3 4 5 6 
#
# 1 0.009594 -0.004619 -0.002513 0.000000 0.000348 0.000000
# 2 -0.004619 0.015036 -0.003514 0.000000 0.002320 0.000000
# 3 -0.002513 -0.003514 0.010749 0.000000 -0.005635 0.000000
# 4 0.000000 0.000000 0.000000 0.002429 0.000000 -0.004045
# 5 0.000348 0.002320 -0.005635 0.000000 0.040371 0.000000
# 6 0.000000 0.000000 0.000000 -0.004045 0.000000 0.049043
#
#
# Mechanical properties :
#
#
# Convention : Reuss Voigt Hill
#
# Bulk Modulus (GPa) = 70.99200 75.49801 73.24500
# Shear Modulus (GPa) = 32.63554 119.71699 76.17626
#
# Velocity S-wave (km/s) = 4.18389 8.01333 6.39212
# Velocity P-wave (km/s) = 7.83699 11.23002 9.68328
#
# Compressibility (1/GPa) = 0.01408609
#
# Stress axis : x y z
#
# Youngs Moduli (GPa) = 104.23723 66.50875 93.03400
#
# Poissons Ratio (x) = 0.30723 0.23376
# Poissons Ratio (y) = 0.48151 0.32691
# Poissons Ratio (z) = 0.26191 0.23371
#
# Static dielectric constant tensor:
#      x y z
#    x 3.482580 0.000000 -0.005830 
#    y 0.000000 3.432420 0.000000 
#    z -0.005830 0.000000 3.316320 
# 
# 
# High freq. dielectric constant tensor:
#      x y z
#    x 1.729070 0.000000 -0.005060 
#    y 0.000000 1.711490 0.000000 
#    z -0.005060 0.000000 1.727160 
# 
# From -- ./inp_files/88280.got.cif
#   From: 2010.06.25/outbox.cif.g09.slc.cpg/sg12_45_cif.got.tgz:88280.got - 2010.06.28 00:19:55.
