data_PCOD8110324
_publ_section_title
;
Structure prediction by ZEFSAII (Michael W. Deem and Ramdas Pophale) SiO2 
 PCOD8110324
Probable space group: C 2/M
;
_chemical_formula_sum "Si O2"
_cell_formula_units_Z 56
_cell_length_a 11.060378
_cell_length_b 15.086047
_cell_length_c 27.597429
_cell_angle_alpha 90.000000
_cell_angle_beta 32.967282
_cell_angle_gamma 90.000000
_cell_volume 2505.767043
_symmetry_space_group_name_H-M "C 2/M"
_symmetry_group_IT_number 12
_symmetry_cell_setting 'monoclinic'
loop_
_space_group_symop_operation_xyz
x,y,z
-x,y,-z
-x,-y,-z
x,-y,z
1/2+x,1/2+y,z
1/2-x,1/2+y,-z
1/2-x,1/2-y,-z
1/2+x,1/2-y,z
loop_
_atom_site_type_symbol
_atom_site_label
_atom_site_fract_x
_atom_site_fract_y
_atom_site_fract_z
Si Si1 0.155395 0.903694 0.638969
Si Si2 0.665028 0.137936 0.813379
Si Si3 0.393497 0.098922 0.658352
Si Si4 0.126347 0.839483 0.834636
Si Si5 0.857984 0.400954 0.003226
Si Si6 0.465825 0.101222 0.251809
Si Si7 0.256663 0.208795 0.409502
O O1 0.320840 0.894197 0.627974
O O2 0.199412 0.813738 0.594388
O O3 0.899747 0.910439 0.740748
O O4 0.208920 0.000000 0.595005
O O5 0.701477 0.238946 0.815327
O O6 0.494517 0.093863 0.907760
O O7 0.574009 0.129384 0.789694
O O8 0.184569 0.127720 0.761271
O O9 0.607983 0.160613 0.593488
O O10 0.464412 0.000000 0.649270
O O11 0.269790 0.894222 0.825947
O O12 0.863969 0.845063 0.931715
O O13 0.786064 0.500000 0.042535
O O14 0.000000 0.358656 0.000000
O O15 0.340874 0.170782 0.329380
O O16 0.382571 0.000000 0.288058
O O17 0.000000 0.185597 0.500000
#
# Coordination Sequence:
#
# PCOD8110324 Si02
#       7
#     8   8   8   8   8   8   8
#     4  11  23  42  66  93 130 174 216 265 326 392
#     4  12  24  42  65  96 132 174 216 266 327 383
#     4  10  21  41  68  95 128 174 218 262 326 394
#     4  11  22  39  65  92 132 171 218 265 322 382
#     4  11  24  40  63  96 130 171 222 270 316 377
#     4  11  24  43  68  96 130 173 216 267 333 390
#     4  11  24  42  70  96 130 167 220 273 326 390
#
# _framework density 22.348445999999999
#
# number of rings (size 3 to 8) (size 9 to 14) (size 15 to 20)
#    0.000    1.000    2.857    6.000    2.000    4.857 
#    0.000    1.429    0.000    0.000    0.000    0.000 
#    0.000    0.000    0.000    0.000    0.000    0.000 
#
# Total GULP energy -347135.084656 kJ/mol
# GULP energy per Si atom -12397.681595 kJ/mol
# Density = 2.229758 g / cm^3
# Si number density = 22.348446 Si / 1000 Ang^3
#
#
#
# Elastic Constant Matrix: (Units=GPa)
#
#
# Indices 1 2 3 4 5 6 
#
# 1 87.7193 20.2454 43.2907 0.0273 -24.4557 0.0075
# 2 20.2454 138.4849 18.9197 -0.0047 -5.1150 0.0017
# 3 43.2907 18.9197 96.3669 -0.0872 -32.2844 -0.0208
# 4 0.0273 -0.0047 -0.0872 1.7406 0.0218 -6.8256
# 5 -24.4557 -5.1150 -32.2844 0.0218 29.6089 0.0088
# 6 0.0075 0.0017 -0.0208 -6.8256 0.0088 23.5276
#
#
#
# Elastic Compliance Matrix: (Units=1/GPa)
#
#
# Indices 1 2 3 4 5 6 
#
# 1 0.016161 -0.001488 -0.004063 0.004471 0.008657 0.001285
# 2 -0.001488 0.007561 -0.001245 0.000040 -0.001280 0.000011
# 3 -0.004063 -0.001245 0.017719 -0.005774 0.015754 -0.001664
# 4 0.004471 0.000040 -0.005774 -4.170845 0.000829 -1.210014
# 5 0.008657 -0.001280 0.015754 0.000829 0.057879 0.000230
# 6 0.001285 0.000011 -0.001664 -1.210014 0.000230 -0.308537
#
#
# Mechanical properties :
#
#
# Convention : Reuss Voigt Hill
#
# Bulk Modulus (GPa) = 35.90774 54.16476 45.03625
# Shear Modulus (GPa) = -1.14753 26.98312 12.91779
#
# Velocity S-wave (km/s) = -0.71735 3.47851 2.40681
# Velocity P-wave (km/s) = 3.92632 6.35787 5.28387
#
# Compressibility (1/GPa) = 0.02784915
#
# Stress axis : x y z
#
# Youngs Moduli (GPa) = 61.87896 132.25255 56.43706
#
# Poissons Ratio (x) = 0.19673 0.22932
# Poissons Ratio (y) = 0.09205 0.07027
# Poissons Ratio (z) = 0.25143 0.16466
#
# Static dielectric constant tensor:
#      x y z
#    x 3.989910 0.000010 -0.180290 
#    y 0.000010 4.481720 0.000060 
#    z -0.180290 0.000060 3.844850 
# 
# 
# High freq. dielectric constant tensor:
#      x y z
#    x 1.882550 0.000000 -0.018450 
#    y 0.000000 1.902630 0.000000 
#    z -0.018450 0.000000 1.862610 
# 
# From -- ./inp_files/374190.got.cif
#   From: 2010.06.25/outbox.cif.g09.slc.cpg/sg12_188_cif.got.tgz:374190.got - 2010.06.28 00:19:55.
