data_PCOD8110660
_publ_section_title
;
Structure prediction by ZEFSAII (Michael W. Deem and Ramdas Pophale) SiO2 
 PCOD8110660
Probable space group: C 2/M
;
_chemical_formula_sum "Si O2"
_cell_formula_units_Z 56
_cell_length_a 19.006248
_cell_length_b 8.719938
_cell_length_c 20.831005
_cell_angle_alpha 90.000000
_cell_angle_beta 58.564475
_cell_angle_gamma 90.000000
_cell_volume 2945.675507
_symmetry_space_group_name_H-M "C 2/M"
_symmetry_group_IT_number 12
_symmetry_cell_setting 'monoclinic'
loop_
_space_group_symop_operation_xyz
x,y,z
-x,y,-z
-x,-y,-z
x,-y,z
1/2+x,1/2+y,z
1/2-x,1/2+y,-z
1/2-x,1/2-y,-z
1/2+x,1/2-y,z
loop_
_atom_site_type_symbol
_atom_site_label
_atom_site_fract_x
_atom_site_fract_y
_atom_site_fract_z
Si Si1 0.032678 0.822073 0.203931
Si Si2 0.586082 0.823271 0.439201
Si Si3 0.223993 0.333057 0.818099
Si Si4 0.249425 0.683340 0.428837
Si Si5 0.091308 0.164764 0.310698
Si Si6 0.784998 0.816595 0.918458
Si Si7 0.637906 0.181696 0.733633
O O1 0.029390 0.796719 0.282344
O O2 0.119665 0.762579 0.133759
O O3 0.958180 0.720601 0.212011
O O4 0.018451 0.000000 0.193189
O O5 0.500000 0.742849 0.500000
O O6 0.664701 0.751870 0.437886
O O7 0.592942 0.802501 0.359972
O O8 0.583328 0.000000 0.458725
O O9 0.180634 0.500000 0.843493
O O10 0.319852 0.355802 0.761234
O O11 0.225246 0.253131 0.888379
O O12 0.181452 0.247646 0.777656
O O13 0.253396 0.500000 0.429440
O O14 0.250000 0.750000 0.500000
O O15 0.324481 0.741941 0.348588
O O16 0.066441 0.000000 0.354378
O O17 0.781386 0.000000 0.919611
O O18 0.750000 0.750000 0.000000
O O19 0.652519 0.000000 0.721566
#
# Coordination Sequence:
#
# PCOD8110660 Si02
#       7
#     8   8   8   8   8   8   8
#     4   9  20  36  55  82 114 146 180 224 277 328
#     4  10  22  37  52  75 107 137 174 229 282 319
#     4   8  16  33  56  79 105 140 180 220 266 323
#     4  11  24  40  56  78 112 150 186 231 284 333
#     4   9  17  34  56  75  98 137 183 222 265 324
#     4   9  18  36  60  84 114 146 182 226 270 326
#     4  11  21  36  59  82 109 146 189 233 275 330
#
# _framework density 19.010919000000001
#
# number of rings (size 3 to 8) (size 9 to 14) (size 15 to 20)
#    0.000    2.429    1.429    2.571    2.000    2.000 
#    0.000    4.286    0.000    4.286    0.000    0.000 
#    0.000    0.000    0.000    0.000    0.000    0.000 
#
# Total GULP energy -346869.735231 kJ/mol
# GULP energy per Si atom -12388.204830 kJ/mol
# Density = 1.896765 g / cm^3
# Si number density = 19.010919 Si / 1000 Ang^3
#
#
#
# Elastic Constant Matrix: (Units=GPa)
#
#
# Indices 1 2 3 4 5 6 
#
# 1 117.7207 28.1394 57.7546 -0.0001 8.5098 -0.0002
# 2 28.1394 40.8913 28.9550 -0.0002 2.7690 -0.0009
# 3 57.7546 28.9550 122.9103 0.0000 18.2705 0.0000
# 4 -0.0001 -0.0002 0.0000 30.4580 0.0000 -0.7177
# 5 8.5098 2.7690 18.2705 0.0000 31.4134 0.0000
# 6 -0.0002 -0.0009 0.0000 -0.7177 0.0000 11.6113
#
#
#
# Elastic Compliance Matrix: (Units=1/GPa)
#
#
# Indices 1 2 3 4 5 6 
#
# 1 0.011852 -0.005067 -0.004340 0.000000 -0.000240 0.000000
# 2 -0.005067 0.031588 -0.005310 0.000000 0.001676 0.000002
# 3 -0.004340 -0.005310 0.012240 0.000000 -0.005475 0.000000
# 4 0.000000 0.000000 0.000000 0.032880 0.000000 0.002032
# 5 -0.000240 0.001676 -0.005475 0.000000 0.034935 0.000000
# 6 0.000000 0.000002 0.000000 0.002032 0.000000 0.086249
#
#
# Mechanical properties :
#
#
# Convention : Reuss Voigt Hill
#
# Bulk Modulus (GPa) = 38.09918 56.80226 47.45072
# Shear Modulus (GPa) = 20.16719 25.80809 22.98764
#
# Velocity S-wave (km/s) = 3.26056 3.68848 3.48110
# Velocity P-wave (km/s) = 5.85313 6.93422 6.41649
#
# Compressibility (1/GPa) = 0.02624728
#
# Stress axis : x y z
#
# Youngs Moduli (GPa) = 84.37072 31.65745 81.69830
#
# Poissons Ratio (x) = 0.16040 0.35458
# Poissons Ratio (y) = 0.42749 0.43380
# Poissons Ratio (z) = 0.36618 0.16810
#
# Static dielectric constant tensor:
#      x y z
#    x 3.747700 0.000000 0.185950 
#    y 0.000000 3.218400 0.000000 
#    z 0.185950 0.000000 3.621950 
# 
# 
# High freq. dielectric constant tensor:
#      x y z
#    x 1.749420 0.000000 0.010280 
#    y 0.000000 1.713600 0.000000 
#    z 0.010280 0.000000 1.726970 
# 
# From -- ./inp_files/313747.got.cif
#   From: 2010.06.25/outbox.cif.g09.slc.cpg/sg12_157_cif.got.tgz:313747.got - 2010.06.28 00:19:55.
