data_PCOD8110751
_publ_section_title
;
Structure prediction by ZEFSAII (Michael W. Deem and Ramdas Pophale) SiO2 
 PCOD8110751
Probable space group: C 2/M
;
_chemical_formula_sum "Si O2"
_cell_formula_units_Z 56
_cell_length_a 8.881384
_cell_length_b 17.845258
_cell_length_c 19.016528
_cell_angle_alpha 90.000000
_cell_angle_beta 65.350501
_cell_angle_gamma 90.000000
_cell_volume 2739.298798
_symmetry_space_group_name_H-M "C 2/M"
_symmetry_group_IT_number 12
_symmetry_cell_setting 'monoclinic'
loop_
_space_group_symop_operation_xyz
x,y,z
-x,y,-z
-x,-y,-z
x,-y,z
1/2+x,1/2+y,z
1/2-x,1/2+y,-z
1/2-x,1/2-y,-z
1/2+x,1/2-y,z
loop_
_atom_site_type_symbol
_atom_site_label
_atom_site_fract_x
_atom_site_fract_y
_atom_site_fract_z
Si Si1 0.387810 0.331563 0.809849
Si Si2 0.765531 0.586061 0.290125
Si Si3 0.530556 0.674741 0.412197
Si Si4 0.792201 0.198844 0.339182
Si Si5 0.103840 0.583852 0.288929
Si Si6 0.169344 0.230239 0.944549
Si Si7 0.602605 0.415008 0.877116
O O1 0.279151 0.376936 0.775412
O O2 0.549971 0.293813 0.743139
O O3 0.266820 0.265970 0.860077
O O4 0.445905 0.385184 0.862202
O O5 0.797126 0.500000 0.267820
O O6 0.609179 0.594860 0.374472
O O7 0.932782 0.619882 0.292874
O O8 0.500000 0.682411 0.500000
O O9 0.675809 0.729249 0.355773
O O10 0.356743 0.688613 0.406578
O O11 0.674878 0.129379 0.341407
O O12 0.070744 0.500000 0.323486
O O13 0.234255 0.583493 0.201270
O O14 0.139166 0.141552 0.934613
O O15 0.250000 0.250000 0.000000
O O16 0.000000 0.270160 0.000000
O O17 0.564563 0.500000 0.911371
#
# Coordination Sequence:
#
# PCOD8110751 Si02
#       7
#     8   8   8   8   8   8   8
#     4  10  23  40  67  90 122 162 211 267 304 376
#     4  10  22  39  63  91 121 160 207 258 309 367
#     4  11  23  37  59  91 126 162 200 253 311 369
#     4  10  22  37  63  87 119 163 205 255 299 370
#     4   9  20  38  62  91 117 152 205 258 304 358
#     4  12  26  42  61  95 127 165 204 259 321 379
#     4  10  22  41  65  90 123 164 208 260 317 375
#
# _framework density 20.443190000000001
#
# number of rings (size 3 to 8) (size 9 to 14) (size 15 to 20)
#    0.000    1.714    1.429    1.714   12.000    4.000 
#    0.000    0.000    0.000    4.286    0.000    0.000 
#    0.000    0.000    0.000    0.000    0.000    0.000 
#
# Total GULP energy -346958.918386 kJ/mol
# GULP energy per Si atom -12391.389942 kJ/mol
# Density = 2.039666 g / cm^3
# Si number density = 20.443190 Si / 1000 Ang^3
#
#
#
# Elastic Constant Matrix: (Units=GPa)
#
#
# Indices 1 2 3 4 5 6 
#
# 1 157.3226 58.2892 44.8004 0.0000 28.0669 0.0000
# 2 58.2892 100.9123 53.3215 0.0000 11.6990 0.0000
# 3 44.8004 53.3215 90.5463 0.0000 18.3878 0.0000
# 4 0.0000 0.0000 0.0000 16.6288 0.0000 3.2223
# 5 28.0669 11.6990 18.3878 0.0000 36.6906 0.0000
# 6 0.0000 0.0000 0.0000 3.2223 0.0000 31.4206
#
#
#
# Elastic Compliance Matrix: (Units=1/GPa)
#
#
# Indices 1 2 3 4 5 6 
#
# 1 0.009087 -0.004107 -0.001037 0.000000 -0.005122 0.000000
# 2 -0.004107 0.016247 -0.007928 0.000000 0.001935 0.000000
# 3 -0.001037 -0.007928 0.017314 0.000000 -0.005355 0.000000
# 4 0.000000 0.000000 0.000000 0.061356 0.000000 -0.006292
# 5 -0.005122 0.001935 -0.005355 0.000000 0.033240 0.000000
# 6 0.000000 0.000000 0.000000 -0.006292 0.000000 0.032472
#
#
# Mechanical properties :
#
#
# Convention : Reuss Voigt Hill
#
# Bulk Modulus (GPa) = 60.59781 73.51148 67.05464
# Shear Modulus (GPa) = 24.83088 29.77268 27.30178
#
# Velocity S-wave (km/s) = 3.48893 3.82037 3.65841
# Velocity P-wave (km/s) = 6.77765 7.44965 7.12158
#
# Compressibility (1/GPa) = 0.01650225
#
# Stress axis : x y z
#
# Youngs Moduli (GPa) = 110.04433 61.55010 57.75708
#
# Poissons Ratio (x) = 0.25279 0.05992
# Poissons Ratio (y) = 0.45195 0.45792
# Poissons Ratio (z) = 0.11417 0.48800
#
# Static dielectric constant tensor:
#      x y z
#    x 4.051190 0.000000 0.047560 
#    y 0.000000 3.931000 0.000000 
#    z 0.047560 0.000000 3.170560 
# 
# 
# High freq. dielectric constant tensor:
#      x y z
#    x 1.822970 0.000000 0.004880 
#    y 0.000000 1.794810 0.000000 
#    z 0.004880 0.000000 1.783250 
# 
# From -- ./inp_files/256988.got.cif
#   From: 2010.06.25/outbox.cif.g09.slc.cpg/sg12_129_cif.got.tgz:256988.got - 2010.06.28 00:19:55.
