data_PCOD8110101
_publ_section_title
;
Structure prediction by ZEFSAII (Michael W. Deem and Ramdas Pophale) SiO2 
 PCOD8110101
Probable space group: C 2/M
;
_chemical_formula_sum "Si O2"
_cell_formula_units_Z 32
_cell_length_a 17.252572
_cell_length_b 15.787846
_cell_length_c 5.076427
_cell_angle_alpha 90.000000
_cell_angle_beta 87.998132
_cell_angle_gamma 90.000000
_cell_volume 1381.878117
_symmetry_space_group_name_H-M "C 2/M"
_symmetry_group_IT_number 12
_symmetry_cell_setting 'monoclinic'
loop_
_space_group_symop_operation_xyz
x,y,z
-x,y,-z
-x,-y,-z
x,-y,z
1/2+x,1/2+y,z
1/2-x,1/2+y,-z
1/2-x,1/2-y,-z
1/2+x,1/2-y,z
loop_
_atom_site_type_symbol
_atom_site_label
_atom_site_fract_x
_atom_site_fract_y
_atom_site_fract_z
Si Si1 0.551996 0.403028 0.249234
Si Si2 0.715533 0.335584 0.126240
Si Si3 0.287132 0.904571 0.638897
Si Si4 0.954803 0.600870 0.757112
O O1 0.500000 0.372444 0.500000
O O2 0.581491 0.500000 0.292062
O O3 0.624762 0.339174 0.212100
O O4 0.500000 0.396861 0.000000
O O5 0.762801 0.351244 0.388178
O O6 0.750000 0.250000 0.000000
O O7 0.726925 0.403960 0.889850
O O8 0.366941 0.865638 0.746522
O O9 0.298643 0.000000 0.536571
O O10 0.954418 0.500000 0.778468
O O11 0.000000 0.634056 0.500000
O O12 0.000000 0.640692 0.000000
#
# Coordination Sequence:
#
# PCOD8110101 Si02
#       4
#     8   8   8   8
#     4  10  21  40  68  97 126 168 225 283 332 393
#     4  12  25  42  63  97 138 172 213 281 361 421
#     4  11  22  39  65  92 124 175 229 273 327 408
#     4   9  17  31  53  84 119 154 202 258 300 352
#
# _framework density 23.156893
#
# number of rings (size 3 to 8) (size 9 to 14) (size 15 to 20)
#    0.000    1.500    0.000    6.000    0.000    6.000 
#    0.000    5.000    0.000    0.000    0.000    0.000 
#    0.000    0.000    0.000    0.000    0.000    0.000 
#
# Total GULP energy -198365.801045 kJ/mol
# GULP energy per Si atom -12397.862565 kJ/mol
# Density = 2.310419 g / cm^3
# Si number density = 23.156893 Si / 1000 Ang^3
#
#
#
# Elastic Constant Matrix: (Units=GPa)
#
#
# Indices 1 2 3 4 5 6 
#
# 1 180.7038 55.0845 93.6130 0.0000 -6.3758 0.0000
# 2 55.0845 64.4339 25.4619 0.0000 -2.2789 0.0000
# 3 93.6130 25.4619 215.8266 0.0000 3.8608 0.0000
# 4 0.0000 0.0000 0.0000 21.0182 0.0000 -3.6187
# 5 -6.3758 -2.2789 3.8608 0.0000 53.1502 0.0000
# 6 0.0000 0.0000 0.0000 -3.6187 0.0000 28.6436
#
#
#
# Elastic Compliance Matrix: (Units=1/GPa)
#
#
# Indices 1 2 3 4 5 6 
#
# 1 0.009274 -0.006601 -0.003263 0.000000 0.001066 0.000000
# 2 -0.006601 0.021015 0.000383 0.000000 0.000081 0.000000
# 3 -0.003263 0.000383 0.006018 0.000000 -0.000812 0.000000
# 4 0.000000 0.000000 0.000000 0.048636 0.000000 0.006144
# 5 0.001066 0.000081 -0.000812 0.000000 0.019005 0.000000
# 6 0.000000 0.000000 0.000000 0.006144 0.000000 0.035688
#
#
# Mechanical properties :
#
#
# Convention : Reuss Voigt Hill
#
# Bulk Modulus (GPa) = 57.65737 89.92033 73.78885
# Shear Modulus (GPa) = 30.41725 39.68274 35.05000
#
# Velocity S-wave (km/s) = 3.62820 4.14411 3.89471
# Velocity P-wave (km/s) = 6.51954 7.86215 7.22211
#
# Compressibility (1/GPa) = 0.01734384
#
# Stress axis : x y z
#
# Youngs Moduli (GPa) = 107.82594 47.58510 166.16842
#
# Poissons Ratio (x) = 0.31413 0.54219
# Poissons Ratio (y) = 0.71180 -0.06358
# Poissons Ratio (z) = 0.35182 -0.01821
#
# Static dielectric constant tensor:
#      x y z
#    x 4.291750 0.000000 -0.061280 
#    y 0.000000 3.818270 0.000000 
#    z -0.061280 0.000000 4.401520 
# 
# 
# High freq. dielectric constant tensor:
#      x y z
#    x 1.923440 0.000000 -0.000690 
#    y 0.000000 1.884210 0.000000 
#    z -0.000690 0.000000 1.938540 
# 
# From -- ./inp_files/10225.got.cif
#   From: 2010.06.25/outbox.cif.g09.slc.cpg/sg12_6_cif.got.tgz:10225.got - 2010.06.28 00:19:55.
