data_PCOD8110495
_publ_section_title
;
Structure prediction by ZEFSAII (Michael W. Deem and Ramdas Pophale) SiO2 
 PCOD8110495
Probable space group: C 2/M
;
_chemical_formula_sum "Si O2"
_cell_formula_units_Z 36
_cell_length_a 8.974043
_cell_length_b 22.936973
_cell_length_c 9.668273
_cell_angle_alpha 90.000000
_cell_angle_beta 67.742501
_cell_angle_gamma 90.000000
_cell_volume 1841.812114
_symmetry_space_group_name_H-M "C 2/M"
_symmetry_group_IT_number 12
_symmetry_cell_setting 'monoclinic'
loop_
_space_group_symop_operation_xyz
x,y,z
-x,y,-z
-x,-y,-z
x,-y,z
1/2+x,1/2+y,z
1/2-x,1/2+y,-z
1/2-x,1/2-y,-z
1/2+x,1/2-y,z
loop_
_atom_site_type_symbol
_atom_site_label
_atom_site_fract_x
_atom_site_fract_y
_atom_site_fract_z
Si Si1 0.470504 0.217645 0.298061
Si Si2 0.746899 0.320021 0.605249
Si Si3 0.636609 0.435019 0.760416
Si Si4 0.000000 0.654043 0.000000
Si Si5 0.724339 0.434527 0.044507
O O1 0.423462 0.286369 0.316514
O O2 0.634314 0.208021 0.323410
O O3 0.321032 0.185306 0.425861
O O4 0.496373 0.195472 0.134058
O O5 0.722727 0.388797 0.631732
O O6 0.681930 0.500000 0.693160
O O7 0.445641 0.426168 0.820417
O O8 0.703227 0.424609 0.889673
O O9 0.155505 0.613132 0.937935
O O10 0.789499 0.500000 0.049884
#
# Coordination Sequence:
#
# PCOD8110495 Si02
#       5
#     8   8   8   4   8
#     4  10  24  37  61  82 119 153 185 233 298 323
#     4  10  21  44  56  85 116 154 189 235 281 349
#     4   9  18  37  62  82 111 157 195 230 278 343
#     4  12  21  36  56  94 111 148 192 240 280 344
#     4   9  19  34  56  85 120 153 184 237 290 330
#
# _framework density 19.545967999999998
#
# number of rings (size 3 to 8) (size 9 to 14) (size 15 to 20)
#    0.000    2.222    2.222    1.667    3.111    2.667 
#    0.000    4.444    0.000    2.667    0.000    0.000 
#    0.000    0.000    0.000    0.000    0.000    0.000 
#
# Total GULP energy -223170.180057 kJ/mol
# GULP energy per Si atom -12398.343337 kJ/mol
# Density = 1.950148 g / cm^3
# Si number density = 19.545968 Si / 1000 Ang^3
#
#
#
# Elastic Constant Matrix: (Units=GPa)
#
#
# Indices 1 2 3 4 5 6 
#
# 1 64.4656 30.6670 12.0372 0.0000 0.4706 0.0000
# 2 30.6670 116.7443 33.2159 0.0000 -5.6999 0.0000
# 3 12.0372 33.2159 86.6879 0.0000 8.1449 0.0000
# 4 0.0000 0.0000 0.0000 27.3950 0.0000 -3.3300
# 5 0.4706 -5.6999 8.1449 0.0000 15.9500 0.0000
# 6 0.0000 0.0000 0.0000 -3.3300 0.0000 33.9494
#
#
#
# Elastic Compliance Matrix: (Units=1/GPa)
#
#
# Indices 1 2 3 4 5 6 
#
# 1 0.017825 -0.004627 -0.000522 0.000000 -0.001913 0.000000
# 2 -0.004627 0.011313 -0.004291 0.000000 0.006370 0.000000
# 3 -0.000522 -0.004291 0.014070 0.000000 -0.008703 0.000000
# 4 0.000000 0.000000 0.000000 0.036943 0.000000 0.003624
# 5 -0.001913 0.006370 -0.008703 0.000000 0.069473 0.000000
# 6 0.000000 0.000000 0.000000 0.003624 0.000000 0.029811
#
#
# Mechanical properties :
#
#
# Convention : Reuss Voigt Hill
#
# Bulk Modulus (GPa) = 41.10637 46.63757 43.87197
# Shear Modulus (GPa) = 24.22190 28.25740 26.23965
#
# Velocity S-wave (km/s) = 3.52409 3.80635 3.66793
# Velocity P-wave (km/s) = 6.13475 6.57495 6.35866
#
# Compressibility (1/GPa) = 0.02432713
#
# Stress axis : x y z
#
# Youngs Moduli (GPa) = 56.10166 88.39369 71.07339
#
# Poissons Ratio (x) = 0.40900 0.03713
# Poissons Ratio (y) = 0.25958 0.30496
# Poissons Ratio (z) = 0.02931 0.37928
#
# Static dielectric constant tensor:
#      x y z
#    x 3.571140 0.000000 -0.034730 
#    y 0.000000 3.654660 0.000000 
#    z -0.034730 0.000000 3.347640 
# 
# 
# High freq. dielectric constant tensor:
#      x y z
#    x 1.762030 0.000000 -0.002660 
#    y 0.000000 1.766940 0.000000 
#    z -0.002660 0.000000 1.742860 
# 
# From -- ./inp_files/38801.got.cif
#   From: 2010.06.25/outbox.cif.g09.slc.cpg/sg12_20_cif.got.tgz:38801.got - 2010.06.28 00:19:55.
