data_PCOD8110039
_publ_section_title
;
Structure prediction by ZEFSAII (Michael W. Deem and Ramdas Pophale) SiO2 
 PCOD8110039
Probable space group: C 2/M
;
_chemical_formula_sum "Si O2"
_cell_formula_units_Z 64
_cell_length_a 18.540776
_cell_length_b 8.668691
_cell_length_c 31.765324
_cell_angle_alpha 90.000000
_cell_angle_beta 140.049270
_cell_angle_gamma 90.000000
_cell_volume 3278.360847
_symmetry_space_group_name_H-M "C 2/M"
_symmetry_group_IT_number 12
_symmetry_cell_setting 'monoclinic'
loop_
_space_group_symop_operation_xyz
x,y,z
-x,y,-z
-x,-y,-z
x,-y,z
1/2+x,1/2+y,z
1/2-x,1/2+y,-z
1/2-x,1/2-y,-z
1/2+x,1/2-y,z
loop_
_atom_site_type_symbol
_atom_site_label
_atom_site_fract_x
_atom_site_fract_y
_atom_site_fract_z
Si Si1 0.157070 0.817542 0.428081
Si Si2 0.008188 0.181941 0.133281
Si Si3 0.551094 0.182993 0.978807
Si Si4 0.415084 0.180114 0.320718
Si Si5 0.803404 0.183299 0.097251
Si Si6 0.602245 0.673961 0.773921
Si Si7 0.711453 0.822030 0.274710
Si Si8 0.340915 0.671711 0.665788
O O1 0.250000 0.750000 0.500000
O O2 0.193416 0.777351 0.396639
O O3 0.040062 0.736788 0.386481
O O4 0.142529 0.000000 0.427338
O O5 0.117471 0.222521 0.209043
O O6 0.020568 0.253350 0.092302
O O7 0.895884 0.249172 0.105915
O O8 0.000530 0.000000 0.125544
O O9 0.545339 0.000000 0.975838
O O10 0.500000 0.245424 0.000000
O O11 0.679183 0.242138 0.029958
O O12 0.377890 0.213308 0.256231
O O13 0.334362 0.273790 0.315160
O O14 0.405260 0.000000 0.325541
O O15 0.827746 0.241079 0.155557
O O16 0.811399 0.000000 0.100883
O O17 0.640481 0.500000 0.778577
O O18 0.474016 0.671437 0.730549
O O19 0.709889 0.792049 0.324022
O O20 0.688661 0.000000 0.255105
O O21 0.294504 0.500000 0.654637
#
# Coordination Sequence:
#
# PCOD8110039 Si02
#       8
#     8   8   8   8   8   8   8   8
#     4  10  21  40  66  94 126 164 201 239 285 341
#     4  11  22  39  59  80 111 153 197 245 301 358
#     4  10  22  38  56  82 113 150 196 245 299 361
#     4  11  23  38  58  88 124 158 196 243 293 347
#     4   9  18  35  58  80 111 152 191 236 295 355
#     4   9  17  34  58  83 114 154 195 237 293 353
#     4  12  24  38  59  87 119 154 197 250 303 355
#     4   9  18  36  60  87 120 155 192 238 291 344
#
# _framework density 19.521951000000001
#
# number of rings (size 3 to 8) (size 9 to 14) (size 15 to 20)
#    0.000    1.875    1.250    4.125    1.750    2.750 
#    0.000    1.875    0.000    3.750    0.000    0.000 
#    0.000    0.000    0.000    0.000    0.000    0.000 
#
# Total GULP energy -396858.842528 kJ/mol
# GULP energy per Si atom -12401.838829 kJ/mol
# Density = 1.947752 g / cm^3
# Si number density = 19.521951 Si / 1000 Ang^3
#
#
#
# Elastic Constant Matrix: (Units=GPa)
#
#
# Indices 1 2 3 4 5 6 
#
# 1 109.5596 27.8809 41.2877 0.0000 -5.4996 0.0001
# 2 27.8809 48.4299 16.0505 -0.0002 -1.4123 0.0005
# 3 41.2877 16.0505 105.6785 0.0000 -15.4183 0.0000
# 4 0.0000 -0.0002 0.0000 29.8428 0.0000 -3.0537
# 5 -5.4996 -1.4123 -15.4183 0.0000 20.2782 -0.0001
# 6 0.0001 0.0005 0.0000 -3.0537 -0.0001 28.8042
#
#
#
# Elastic Compliance Matrix: (Units=1/GPa)
#
#
# Indices 1 2 3 4 5 6 
#
# 1 0.012008 -0.005641 -0.003843 0.000000 -0.000058 0.000000
# 2 -0.005641 0.024416 -0.001664 0.000000 -0.001095 0.000000
# 3 -0.003843 -0.001664 0.012426 0.000000 0.008290 0.000000
# 4 0.000000 0.000000 0.000000 0.033876 0.000000 0.003591
# 5 -0.000058 -0.001095 0.008290 0.000000 0.055525 0.000000
# 6 0.000000 0.000000 0.000000 0.003591 0.000000 0.035098
#
#
# Mechanical properties :
#
#
# Convention : Reuss Voigt Hill
#
# Bulk Modulus (GPa) = 37.65986 48.23402 42.94694
# Shear Modulus (GPa) = 24.45009 27.68164 26.06586
#
# Velocity S-wave (km/s) = 3.54282 3.76969 3.65801
# Velocity P-wave (km/s) = 6.00570 6.61125 6.31573
#
# Compressibility (1/GPa) = 0.02655347
#
# Stress axis : x y z
#
# Youngs Moduli (GPa) = 83.27450 40.95749 80.47338
#
# Poissons Ratio (x) = 0.23105 0.30929
# Poissons Ratio (y) = 0.46977 0.13391
# Poissons Ratio (z) = 0.32005 0.06815
#
# Static dielectric constant tensor:
#      x y z
#    x 3.703080 0.000000 -0.059490 
#    y 0.000000 3.373870 0.000000 
#    z -0.059490 0.000000 3.477830 
# 
# 
# High freq. dielectric constant tensor:
#      x y z
#    x 1.764170 0.000000 -0.008060 
#    y 0.000000 1.746580 0.000000 
#    z -0.008060 0.000000 1.755910 
# 
# From -- ./inp_files/378388.got.cif
#   From: 2010.06.25/outbox.cif.g09.slc.cpg/sg12_190_cif.got.tgz:378388.got - 2010.06.28 00:19:55.
