data_PCOD8110352
_publ_section_title
;
Structure prediction by ZEFSAII (Michael W. Deem and Ramdas Pophale) SiO2 
 PCOD8110352
Probable space group: C 2/M
;
_chemical_formula_sum "Si O2"
_cell_formula_units_Z 48
_cell_length_a 11.428394
_cell_length_b 19.798937
_cell_length_c 23.580068
_cell_angle_alpha 90.000000
_cell_angle_beta 156.771924
_cell_angle_gamma 90.000000
_cell_volume 2104.265379
_symmetry_space_group_name_H-M "C 2/M"
_symmetry_group_IT_number 12
_symmetry_cell_setting 'monoclinic'
loop_
_space_group_symop_operation_xyz
x,y,z
-x,y,-z
-x,-y,-z
x,-y,z
1/2+x,1/2+y,z
1/2-x,1/2+y,-z
1/2-x,1/2-y,-z
1/2+x,1/2-y,z
loop_
_atom_site_type_symbol
_atom_site_label
_atom_site_fract_x
_atom_site_fract_y
_atom_site_fract_z
Si Si1 0.655939 0.621108 0.228371
Si Si2 0.247625 0.190679 0.158204
Si Si3 0.614132 0.076654 0.262982
Si Si4 0.708477 0.423754 0.470880
Si Si5 0.040630 0.426259 0.933338
Si Si6 0.523883 0.663632 0.733823
O O1 0.594203 0.673246 0.149738
O O2 0.664002 0.657683 0.292448
O O3 0.966680 0.583067 0.357551
O O4 0.378337 0.570551 0.105014
O O5 0.469363 0.129767 0.241202
O O6 0.437551 0.256777 0.256832
O O7 0.000000 0.203969 0.000000
O O8 0.463233 0.089713 0.135049
O O9 0.969084 0.088541 0.414541
O O10 0.549294 0.000000 0.255471
O O11 0.667833 0.500000 0.428695
O O12 0.660933 0.369901 0.399563
O O13 0.899402 0.500000 0.881646
O O14 0.847122 0.371776 0.881665
#
# Coordination Sequence:
#
# PCOD8110352 Si02
#       6
#     8   8   8   8   8   8
#     4  12  25  41  68 105 132 180 231 276 346 403
#     4  12  26  44  70 100 144 179 227 288 330 409
#     4   9  21  44  69  96 136 181 222 277 341 395
#     4  10  24  48  72 100 139 178 226 286 338 402
#     4  10  21  41  70 101 134 175 227 280 334 400
#     4  11  26  43  67 100 138 187 222 276 346 402
#
# _framework density 22.810811000000001
#
# number of rings (size 3 to 8) (size 9 to 14) (size 15 to 20)
#    0.000    1.333    1.667    4.000    4.667    8.333 
#    3.000    1.667    0.000    0.000    0.000    0.000 
#    0.000    0.000    0.000    0.000    0.000    0.000 
#
# Total GULP energy -297566.657197 kJ/mol
# GULP energy per Si atom -12398.610717 kJ/mol
# Density = 2.275889 g / cm^3
# Si number density = 22.810811 Si / 1000 Ang^3
#
#
#
# Elastic Constant Matrix: (Units=GPa)
#
#
# Indices 1 2 3 4 5 6 
#
# 1 89.7656 48.2318 0.4194 0.0713 7.8143 -0.0136
# 2 48.2318 149.3188 24.3460 0.0128 5.5851 -0.0260
# 3 0.4194 24.3460 135.4873 0.1485 8.9071 -0.0665
# 4 0.0713 0.0128 0.1485 20.8770 -0.0990 5.5051
# 5 7.8143 5.5851 8.9071 -0.0990 21.2237 0.0031
# 6 -0.0136 -0.0260 -0.0665 5.5051 0.0031 24.9422
#
#
#
# Elastic Compliance Matrix: (Units=1/GPa)
#
#
# Indices 1 2 3 4 5 6 
#
# 1 0.013941 -0.004511 0.001056 -0.000079 -0.004389 0.000024
# 2 -0.004511 0.008396 -0.001500 0.000022 0.000081 -0.000003
# 3 0.001056 -0.001500 0.007864 -0.000085 -0.003295 0.000039
# 4 -0.000079 0.000022 -0.000085 0.050862 0.000298 -0.011226
# 5 -0.004389 0.000081 -0.003295 0.000298 0.050096 -0.000083
# 6 0.000024 -0.000003 0.000039 -0.011226 -0.000083 0.042571
#
#
# Mechanical properties :
#
#
# Convention : Reuss Voigt Hill
#
# Bulk Modulus (GPa) = 49.28396 57.84067 53.56232
# Shear Modulus (GPa) = 26.26002 33.51353 29.88677
#
# Velocity S-wave (km/s) = 3.39663 3.83717 3.62360
# Velocity P-wave (km/s) = 6.08566 6.71145 6.40620
#
# Compressibility (1/GPa) = 0.02029058
#
# Stress axis : x y z
#
# Youngs Moduli (GPa) = 71.72941 119.10720 127.16565
#
# Poissons Ratio (x) = 0.53732 -0.13430
# Poissons Ratio (y) = 0.32359 0.19076
# Poissons Ratio (z) = -0.07576 0.17867
#
# Static dielectric constant tensor:
#      x y z
#    x 4.038540 0.000000 0.059410 
#    y 0.000000 3.942800 -0.000100 
#    z 0.059410 -0.000100 4.103960 
# 
# 
# High freq. dielectric constant tensor:
#      x y z
#    x 1.903040 0.000000 0.001170 
#    y 0.000000 1.891910 -0.000020 
#    z 0.001170 -0.000020 1.905040 
# 
# From -- ./inp_files/359068.got.cif
#   From: 2010.06.25/outbox.cif.g09.slc.cpg/sg12_180_cif.got.tgz:359068.got - 2010.06.28 00:19:55.
