data_PCOD8110828
_publ_section_title
;
Structure prediction by ZEFSAII (Michael W. Deem and Ramdas Pophale) SiO2 
 PCOD8110828
Probable space group: C 2/M
;
_chemical_formula_sum "Si O2"
_cell_formula_units_Z 52
_cell_length_a 11.561011
_cell_length_b 27.368607
_cell_length_c 8.641497
_cell_angle_alpha 90.000000
_cell_angle_beta 67.287505
_cell_angle_gamma 90.000000
_cell_volume 2522.215366
_symmetry_space_group_name_H-M "C 2/M"
_symmetry_group_IT_number 12
_symmetry_cell_setting 'monoclinic'
loop_
_space_group_symop_operation_xyz
x,y,z
-x,y,-z
-x,-y,-z
x,-y,z
1/2+x,1/2+y,z
1/2-x,1/2+y,-z
1/2-x,1/2-y,-z
1/2+x,1/2-y,z
loop_
_atom_site_type_symbol
_atom_site_label
_atom_site_fract_x
_atom_site_fract_y
_atom_site_fract_z
Si Si1 0.686652 0.556049 0.326466
Si Si2 0.564397 0.556043 0.716079
Si Si3 0.817829 0.724450 0.250391
Si Si4 0.697649 0.370304 0.864928
Si Si5 0.647817 0.126560 0.924617
Si Si6 0.500000 0.707558 0.000000
Si Si7 0.146940 0.305274 0.426940
O O1 0.724495 0.500000 0.278804
O O2 0.651236 0.564212 0.522411
O O3 0.575606 0.570860 0.264575
O O4 0.803647 0.591087 0.235051
O O5 0.569458 0.500000 0.767522
O O6 0.607450 0.588156 0.840177
O O7 0.813528 0.683082 0.121509
O O8 0.944142 0.757830 0.165552
O O9 0.814250 0.697964 0.415819
O O10 0.692528 0.757684 0.305782
O O11 0.783428 0.351766 0.679772
O O12 0.792572 0.391226 0.944260
O O13 0.614553 0.327814 0.990693
O O14 0.500000 0.121376 0.000000
O O15 0.000000 0.311895 0.500000
#
# Coordination Sequence:
#
# PCOD8110828 Si02
#       7
#     8   8   8   8   8   4   8
#     4   9  20  40  67  92 119 154 194 248 303 363
#     4   9  19  41  67  92 118 149 198 252 305 353
#     4  10  22  39  56  82 114 159 202 245 300 348
#     4  11  23  37  61  91 120 158 201 254 297 359
#     4  12  24  38  58  85 126 164 198 243 302 362
#     4  10  22  38  61  84 119 148 210 250 304 346
#     4  10  22  38  58  80 115 156 203 247 289 356
#
# _framework density 20.616796999999998
#
# number of rings (size 3 to 8) (size 9 to 14) (size 15 to 20)
#    0.000    1.846    0.769    3.692    2.154    2.154 
#    5.538    1.923    0.000    2.308    0.000    0.000 
#    0.000    0.000    0.000    0.000    0.000    0.000 
#
# Total GULP energy -322305.007284 kJ/mol
# GULP energy per Si atom -12396.346434 kJ/mol
# Density = 2.056987 g / cm^3
# Si number density = 20.616797 Si / 1000 Ang^3
#
#
#
# Elastic Constant Matrix: (Units=GPa)
#
#
# Indices 1 2 3 4 5 6 
#
# 1 75.2712 35.2916 31.9246 0.0000 -7.7394 0.0000
# 2 35.2916 95.5469 37.5405 0.0000 -8.5115 0.0000
# 3 31.9246 37.5405 73.8548 0.0000 -12.6220 0.0000
# 4 0.0000 0.0000 0.0000 33.0067 0.0000 -2.7577
# 5 -7.7394 -8.5115 -12.6220 0.0000 38.7962 0.0000
# 6 0.0000 0.0000 0.0000 -2.7577 0.0000 23.1971
#
#
#
# Elastic Compliance Matrix: (Units=1/GPa)
#
#
# Indices 1 2 3 4 5 6 
#
# 1 0.017657 -0.004379 -0.005261 0.000000 0.000850 0.000000
# 2 -0.004379 0.014184 -0.005225 0.000000 0.000538 0.000000
# 3 -0.005261 -0.005225 0.019160 0.000000 0.004038 0.000000
# 4 0.000000 0.000000 0.000000 0.030601 0.000000 0.003638
# 5 0.000850 0.000538 0.004038 0.000000 0.027377 0.000000
# 6 0.000000 0.000000 0.000000 0.003638 0.000000 0.043541
#
#
# Mechanical properties :
#
#
# Convention : Reuss Voigt Hill
#
# Bulk Modulus (GPa) = 47.01228 50.46513 48.73871
# Shear Modulus (GPa) = 26.40713 28.32774 27.36744
#
# Velocity S-wave (km/s) = 3.58279 3.71079 3.64735
# Velocity P-wave (km/s) = 6.32199 6.54910 6.43655
#
# Compressibility (1/GPa) = 0.02127104
#
# Stress axis : x y z
#
# Youngs Moduli (GPa) = 56.63357 70.49987 52.19109
#
# Poissons Ratio (x) = 0.30872 0.27460
# Poissons Ratio (y) = 0.24800 0.27270
# Poissons Ratio (z) = 0.29798 0.36836
#
# Static dielectric constant tensor:
#      x y z
#    x 3.539470 0.000000 -0.164040 
#    y 0.000000 3.722660 0.000000 
#    z -0.164040 0.000000 3.835350 
# 
# 
# High freq. dielectric constant tensor:
#      x y z
#    x 1.789340 0.000000 -0.014500 
#    y 0.000000 1.802090 0.000000 
#    z -0.014500 0.000000 1.817000 
# 
# From -- ./inp_files/52524.got.cif
#   From: 2010.06.25/outbox.cif.g09.slc.cpg/sg12_27_cif.got.tgz:52524.got - 2010.06.28 00:19:55.
