data_PCOD8110156
_publ_section_title
;
Structure prediction by ZEFSAII (Michael W. Deem and Ramdas Pophale) SiO2 
 PCOD8110156
Probable space group: C 2/M
;
_chemical_formula_sum "Si O2"
_cell_formula_units_Z 48
_cell_length_a 20.011795
_cell_length_b 15.184487
_cell_length_c 11.495050
_cell_angle_alpha 90.000000
_cell_angle_beta 42.199451
_cell_angle_gamma 90.000000
_cell_volume 2346.286842
_symmetry_space_group_name_H-M "C 2/M"
_symmetry_group_IT_number 12
_symmetry_cell_setting 'monoclinic'
loop_
_space_group_symop_operation_xyz
x,y,z
-x,y,-z
-x,-y,-z
x,-y,z
1/2+x,1/2+y,z
1/2-x,1/2+y,-z
1/2-x,1/2-y,-z
1/2+x,1/2-y,z
loop_
_atom_site_type_symbol
_atom_site_label
_atom_site_fract_x
_atom_site_fract_y
_atom_site_fract_z
Si Si1 0.211847 0.663430 0.989447
Si Si2 0.108722 0.600217 0.346709
Si Si3 0.787243 0.100837 0.272210
Si Si4 0.243119 0.100456 0.416723
Si Si5 0.889203 0.724084 0.107367
Si Si6 0.106233 0.898789 0.391118
O O1 0.133780 0.682773 0.988314
O O2 0.310636 0.616026 0.814836
O O3 0.250000 0.750000 0.000000
O O4 0.153051 0.605940 0.159894
O O5 0.093588 0.500000 0.401558
O O6 0.186567 0.638340 0.341115
O O7 0.000000 0.647377 0.500000
O O8 0.781060 0.103407 0.417676
O O9 0.871611 0.170328 0.126569
O O10 0.812115 0.000000 0.198499
O O11 0.327474 0.172225 0.284783
O O12 0.147432 0.131340 0.464119
O O13 0.274869 0.000000 0.339877
O O14 0.000000 0.704639 0.000000
O O15 0.000000 0.850308 0.500000
O O16 0.081717 0.000000 0.429398
#
# Coordination Sequence:
#
# PCOD8110156 Si02
#       6
#     8   8   8   8   8   8
#     4  11  22  39  57  87 124 154 197 250 296 358
#     4  10  22  40  64  89 117 159 205 252 308 361
#     4  10  21  41  62  86 121 158 202 251 299 360
#     4   9  20  39  60  87 121 155 200 250 298 360
#     4  11  24  39  59  90 123 159 201 246 304 361
#     4   9  19  37  61  86 114 155 199 243 297 353
#
# _framework density 20.457858000000002
#
# number of rings (size 3 to 8) (size 9 to 14) (size 15 to 20)
#    0.000    2.000    1.667    1.000    2.333    3.333 
#    0.000    0.000    0.000    0.000    0.000    0.000 
#    0.000    0.000    0.000    0.000    0.000    0.000 
#
# Total GULP energy -297436.899817 kJ/mol
# GULP energy per Si atom -12393.204159 kJ/mol
# Density = 2.041130 g / cm^3
# Si number density = 20.457858 Si / 1000 Ang^3
#
#
#
# Elastic Constant Matrix: (Units=GPa)
#
#
# Indices 1 2 3 4 5 6 
#
# 1 137.4707 10.3190 68.7096 0.0000 -21.2936 0.0000
# 2 10.3190 47.0076 1.8067 0.0000 -13.7389 0.0000
# 3 68.7096 1.8067 102.7457 0.0000 -9.8484 0.0000
# 4 0.0000 0.0000 0.0000 20.4933 0.0000 -3.6514
# 5 -21.2936 -13.7389 -9.8484 0.0000 39.3416 0.0000
# 6 0.0000 0.0000 0.0000 -3.6514 0.0000 21.1401
#
#
#
# Elastic Compliance Matrix: (Units=1/GPa)
#
#
# Indices 1 2 3 4 5 6 
#
# 1 0.011692 -0.001085 -0.007408 0.000000 0.004095 0.000000
# 2 -0.001085 0.023807 0.001073 0.000000 0.007995 0.000000
# 3 -0.007408 0.001073 0.014671 0.000000 0.000038 0.000000
# 4 0.000000 0.000000 0.000000 0.050346 0.000000 0.008696
# 5 0.004095 0.007995 0.000038 0.000000 0.030437 0.000000
# 6 0.000000 0.000000 0.000000 0.008696 0.000000 0.048805
#
#
# Mechanical properties :
#
#
# Convention : Reuss Voigt Hill
#
# Bulk Modulus (GPa) = 28.30288 49.87718 39.09003
# Shear Modulus (GPa) = 24.22782 29.95423 27.09103
#
# Velocity S-wave (km/s) = 3.44507 3.83063 3.64295
# Velocity P-wave (km/s) = 5.44880 6.63312 6.06992
#
# Compressibility (1/GPa) = 0.03533209
#
# Stress axis : x y z
#
# Youngs Moduli (GPa) = 85.52536 42.00463 68.16073
#
# Poissons Ratio (x) = 0.04558 0.50490
# Poissons Ratio (y) = 0.09280 -0.07316
# Poissons Ratio (z) = 0.63353 -0.04509
#
# Static dielectric constant tensor:
#      x y z
#    x 4.304180 0.000000 0.158990 
#    y 0.000000 3.874840 0.000000 
#    z 0.158990 0.000000 4.554610 
# 
# 
# High freq. dielectric constant tensor:
#      x y z
#    x 1.820410 0.000000 0.004150 
#    y 0.000000 1.802090 0.000000 
#    z 0.004150 0.000000 1.777890 
# 
# From -- ./inp_files/143508.got.cif
#   From: 2010.06.25/outbox.cif.g09.slc.cpg/sg12_72_cif.got.tgz:143508.got - 2010.06.28 00:19:55.
