data_PCOD8110283
_publ_section_title
;
Structure prediction by ZEFSAII (Michael W. Deem and Ramdas Pophale) SiO2 
 PCOD8110283
Probable space group: C 2/M
;
_chemical_formula_sum "Si O2"
_cell_formula_units_Z 56
_cell_length_a 21.310246
_cell_length_b 8.885903
_cell_length_c 18.155429
_cell_angle_alpha 90.000000
_cell_angle_beta 123.550779
_cell_angle_gamma 90.000000
_cell_volume 2865.155074
_symmetry_space_group_name_H-M "C 2/M"
_symmetry_group_IT_number 12
_symmetry_cell_setting 'monoclinic'
loop_
_space_group_symop_operation_xyz
x,y,z
-x,y,-z
-x,-y,-z
x,-y,z
1/2+x,1/2+y,z
1/2-x,1/2+y,-z
1/2-x,1/2-y,-z
1/2+x,1/2-y,z
loop_
_atom_site_type_symbol
_atom_site_label
_atom_site_fract_x
_atom_site_fract_y
_atom_site_fract_z
Si Si1 0.606411 0.173554 0.734557
Si Si2 0.265926 0.322030 0.088822
Si Si3 0.467628 0.328891 0.706278
Si Si4 0.979677 0.678379 0.868580
Si Si5 0.413767 0.824933 0.444513
Si Si6 0.886975 0.676973 0.944569
Si Si7 0.175521 0.828154 0.482171
O O1 0.658174 0.267373 0.823633
O O2 0.520828 0.223856 0.691670
O O3 0.624249 0.201275 0.660234
O O4 0.615329 0.000000 0.761750
O O5 0.268928 0.500000 0.080599
O O6 0.198072 0.269542 0.098083
O O7 0.250000 0.250000 0.000000
O O8 0.497052 0.500000 0.721696
O O9 0.465320 0.273155 0.787463
O O10 0.383855 0.314777 0.621781
O O11 0.975874 0.500000 0.849612
O O12 0.916126 0.735006 0.884849
O O13 0.060499 0.729206 0.953542
O O14 0.500000 0.761318 0.500000
O O15 0.359224 0.743375 0.466539
O O16 0.416562 0.000000 0.467332
O O17 0.894638 0.500000 0.947180
O O18 0.250000 0.750000 0.500000
O O19 0.195057 0.000000 0.513757
#
# Coordination Sequence:
#
# PCOD8110283 Si02
#       7
#     8   8   8   8   8   8   8
#     4  11  23  39  62  89 117 158 205 251 306 368
#     4  11  22  37  57  86 124 160 201 249 300 356
#     4  11  23  38  57  87 119 149 192 247 301 362
#     4   9  17  34  60  83 108 149 196 238 287 354
#     4  10  21  41  67  92 121 160 208 259 312 374
#     4   8  17  34  55  80 111 150 194 238 286 345
#     4  11  25  42  63  90 125 162 201 254 316 376
#
# _framework density 19.545190000000002
#
# number of rings (size 3 to 8) (size 9 to 14) (size 15 to 20)
#    0.000    1.857    1.429    3.429    0.000    5.429 
#    0.000    6.429    0.000    0.000    0.000    0.000 
#    0.000    0.000    0.000    0.000    0.000    0.000 
#
# Total GULP energy -347180.987499 kJ/mol
# GULP energy per Si atom -12399.320982 kJ/mol
# Density = 1.950070 g / cm^3
# Si number density = 19.545190 Si / 1000 Ang^3
#
#
#
# Elastic Constant Matrix: (Units=GPa)
#
#
# Indices 1 2 3 4 5 6 
#
# 1 133.2725 56.7412 46.0610 0.0000 -3.7725 0.0000
# 2 56.7412 84.0306 49.2472 0.0000 -5.1808 0.0000
# 3 46.0610 49.2472 97.4682 0.0000 -13.4467 0.0000
# 4 0.0000 0.0000 0.0000 31.5772 0.0000 -3.0121
# 5 -3.7725 -5.1808 -13.4467 0.0000 32.0592 0.0000
# 6 0.0000 0.0000 0.0000 -3.0121 0.0000 31.7488
#
#
#
# Elastic Compliance Matrix: (Units=1/GPa)
#
#
# Indices 1 2 3 4 5 6 
#
# 1 0.010814 -0.006103 -0.002109 0.000000 -0.000598 0.000000
# 2 -0.006103 0.020375 -0.007489 0.000000 -0.000567 0.000000
# 3 -0.002109 -0.007489 0.015751 0.000000 0.005148 0.000000
# 4 0.000000 0.000000 0.000000 0.031958 0.000000 0.003032
# 5 -0.000598 -0.000567 0.005148 0.000000 0.033190 0.000000
# 6 0.000000 0.000000 0.000000 0.003032 0.000000 0.031785
#
#
# Mechanical properties :
#
#
# Convention : Reuss Voigt Hill
#
# Bulk Modulus (GPa) = 64.36029 68.76337 66.56183
# Shear Modulus (GPa) = 27.70795 29.92515 28.81655
#
# Velocity S-wave (km/s) = 3.76923 3.91714 3.84390
# Velocity P-wave (km/s) = 7.20717 7.46437 7.33689
#
# Compressibility (1/GPa) = 0.01553753
#
# Stress axis : x y z
#
# Youngs Moduli (GPa) = 92.47515 49.07896 63.48849
#
# Poissons Ratio (x) = 0.29951 0.13393
# Poissons Ratio (y) = 0.56433 0.47548
# Poissons Ratio (z) = 0.19507 0.36756
#
# Static dielectric constant tensor:
#      x y z
#    x 9.938300 0.000000 0.253180 
#    y 0.000000 3.484310 0.000000 
#    z 0.253180 0.000000 3.569580 
# 
# 
# High freq. dielectric constant tensor:
#      x y z
#    x 1.769310 0.000000 -0.006360 
#    y 0.000000 1.752170 0.000000 
#    z -0.006360 0.000000 1.768430 
# 
# From -- ./inp_files/281732.got.cif
#   From: 2010.06.25/outbox.cif.g09.slc.cpg/sg12_141_cif.got.tgz:281732.got - 2010.06.28 00:19:55.
