data_PCOD8110938
_publ_section_title
;
Structure prediction by ZEFSAII (Michael W. Deem and Ramdas Pophale) SiO2 
 PCOD8110938
Probable space group: C 2/M
;
_chemical_formula_sum "Si O2"
_cell_formula_units_Z 48
_cell_length_a 25.468225
_cell_length_b 14.544626
_cell_length_c 22.432862
_cell_angle_alpha 90.000000
_cell_angle_beta 163.309656
_cell_angle_gamma 90.000000
_cell_volume 2386.541484
_symmetry_space_group_name_H-M "C 2/M"
_symmetry_group_IT_number 12
_symmetry_cell_setting 'monoclinic'
loop_
_space_group_symop_operation_xyz
x,y,z
-x,y,-z
-x,-y,-z
x,-y,z
1/2+x,1/2+y,z
1/2-x,1/2+y,-z
1/2-x,1/2-y,-z
1/2+x,1/2-y,z
loop_
_atom_site_type_symbol
_atom_site_label
_atom_site_fract_x
_atom_site_fract_y
_atom_site_fract_z
Si Si1 0.580997 0.788015 0.647657
Si Si2 0.274753 0.319130 0.081987
Si Si3 0.222281 0.295542 0.597290
Si Si4 0.432414 0.393595 0.992815
Si Si5 0.652402 0.601491 0.485072
Si Si6 0.907200 0.397408 0.653816
O O1 0.500000 0.736895 0.500000
O O2 0.678837 0.724487 0.802892
O O3 0.401020 0.834909 0.482280
O O4 0.726273 0.863623 0.783022
O O5 0.435316 0.389778 0.240603
O O6 0.250000 0.250000 0.000000
O O7 0.089887 0.376436 0.889978
O O8 0.231236 0.183920 0.612339
O O9 0.110937 0.321094 0.416913
O O10 0.423561 0.337796 0.810191
O O11 0.450427 0.500000 0.027937
O O12 0.500000 0.371115 0.000000
O O13 0.698342 0.500000 0.562233
O O14 0.735154 0.610585 0.509611
O O15 0.918124 0.500000 0.637904
#
# Coordination Sequence:
#
# PCOD8110938 Si02
#       6
#     8   8   8   8   8   8
#     4  11  23  41  62  88 121 171 209 250 309 366
#     4  11  22  40  62  90 124 163 208 257 312 362
#     4  11  22  40  62  89 130 160 209 254 313 364
#     4  11  24  39  60  92 127 166 207 249 302 376
#     4  10  22  38  62  89 123 161 203 260 313 365
#     4  11  22  37  62  94 127 164 203 255 314 373
#
# _framework density 20.112786
#
# number of rings (size 3 to 8) (size 9 to 14) (size 15 to 20)
#    0.000    1.167    5.000    2.500    2.333    1.667 
#    0.000    0.000    0.000   13.000    0.000    0.000 
#    0.000    0.000    0.000    0.000    0.000    0.000 
#
# Total GULP energy -297418.011557 kJ/mol
# GULP energy per Si atom -12392.417148 kJ/mol
# Density = 2.006701 g / cm^3
# Si number density = 20.112786 Si / 1000 Ang^3
#
#
#
# Elastic Constant Matrix: (Units=GPa)
#
#
# Indices 1 2 3 4 5 6 
#
# 1 103.0722 47.5452 49.3788 0.0658 4.0517 0.0121
# 2 47.5452 120.1378 46.8012 0.0393 4.8816 0.0170
# 3 49.3788 46.8012 96.6734 0.0651 -2.9353 0.0283
# 4 0.0658 0.0393 0.0651 29.6536 0.0424 3.3290
# 5 4.0517 4.8816 -2.9353 0.0424 39.5275 0.0139
# 6 0.0121 0.0170 0.0283 3.3290 0.0139 20.1417
#
#
#
# Elastic Compliance Matrix: (Units=1/GPa)
#
#
# Indices 1 2 3 4 5 6 
#
# 1 0.013946 -0.003289 -0.005575 -0.000013 -0.001437 0.000005
# 2 -0.003289 0.011141 -0.003754 0.000003 -0.001318 -0.000002
# 3 -0.005575 -0.003754 0.015074 -0.000017 0.002154 -0.000013
# 4 -0.000013 0.000003 -0.000017 0.034360 -0.000035 -0.005679
# 5 -0.001437 -0.001318 0.002154 -0.000035 0.025769 -0.000013
# 6 0.000005 -0.000002 -0.000013 -0.005679 -0.000013 0.050587
#
#
# Mechanical properties :
#
#
# Convention : Reuss Voigt Hill
#
# Bulk Modulus (GPa) = 66.99437 67.48153 67.23795
# Shear Modulus (GPa) = 27.61071 29.60843 28.60957
#
# Velocity S-wave (km/s) = 3.70914 3.84098 3.77564
# Velocity P-wave (km/s) = 7.19203 7.30036 7.24640
#
# Compressibility (1/GPa) = 0.01492663
#
# Stress axis : x y z
#
# Youngs Moduli (GPa) = 71.70285 89.75602 66.33834
#
# Poissons Ratio (x) = 0.29523 0.36982
# Poissons Ratio (y) = 0.23585 0.24901
# Poissons Ratio (z) = 0.39973 0.33691
#
# Static dielectric constant tensor:
#      x y z
#    x 3.702300 -0.000080 0.247650 
#    y -0.000080 3.603050 -0.000110 
#    z 0.247650 -0.000110 3.896490 
# 
# 
# High freq. dielectric constant tensor:
#      x y z
#    x 1.783970 0.000000 0.021600 
#    y 0.000000 1.769120 -0.000010 
#    z 0.021600 -0.000010 1.797860 
# 
# From -- ./inp_files/325695.got.cif
#   From: 2010.06.25/outbox.cif.g09.slc.cpg/sg12_163_cif.got.tgz:325695.got - 2010.06.28 00:19:55.
