data_PCOD8110669
_publ_section_title
;
Structure prediction by ZEFSAII (Michael W. Deem and Ramdas Pophale) SiO2 
 PCOD8110669
Probable space group: C 2/M
;
_chemical_formula_sum "Si O2"
_cell_formula_units_Z 56
_cell_length_a 20.342239
_cell_length_b 20.751142
_cell_length_c 16.396949
_cell_angle_alpha 90.000000
_cell_angle_beta 156.235989
_cell_angle_gamma 90.000000
_cell_volume 2789.183335
_symmetry_space_group_name_H-M "C 2/M"
_symmetry_group_IT_number 12
_symmetry_cell_setting 'monoclinic'
loop_
_space_group_symop_operation_xyz
x,y,z
-x,y,-z
-x,-y,-z
x,-y,z
1/2+x,1/2+y,z
1/2-x,1/2+y,-z
1/2-x,1/2-y,-z
1/2+x,1/2-y,z
loop_
_atom_site_type_symbol
_atom_site_label
_atom_site_fract_x
_atom_site_fract_y
_atom_site_fract_z
Si Si1 0.975747 0.364458 0.562657
Si Si2 0.144978 0.728470 0.004175
Si Si3 0.088493 0.928594 0.338011
Si Si4 0.868211 0.225499 0.405226
Si Si5 0.860288 0.928469 0.786029
Si Si6 0.213733 0.691191 0.397246
Si Si7 0.713394 0.349782 0.979662
O O1 0.970456 0.287622 0.550640
O O2 0.805726 0.387981 0.406937
O O3 0.000000 0.395434 0.500000
O O4 0.125958 0.379880 0.794113
O O5 0.218919 0.742926 0.176838
O O6 0.123381 0.796632 0.934075
O O7 0.249407 0.680612 0.066072
O O8 0.977506 0.692723 0.834085
O O9 0.054874 0.933697 0.204441
O O10 0.238926 0.879083 0.516426
O O11 0.133433 0.000000 0.424046
O O12 0.919872 0.905108 0.187823
O O13 0.809151 0.192262 0.419968
O O14 0.000000 0.184465 0.500000
O O15 0.818569 0.000000 0.772555
O O16 0.000000 0.894707 0.000000
O O17 0.250000 0.750000 0.500000
#
# Coordination Sequence:
#
# PCOD8110669 Si02
#       7
#     8   8   8   8   8   8   8
#     4  11  21  34  55  87 121 160 199 255 309 369
#     4  11  22  37  61  92 123 156 204 266 311 373
#     4  11  24  41  61  88 125 168 211 256 314 381
#     4  11  22  37  59  93 127 156 199 264 320 369
#     4  10  22  37  53  78 117 165 212 251 295 367
#     4  12  23  39  65  93 123 167 211 260 319 370
#     4  11  21  38  59  90 125 160 204 253 317 368
#
# _framework density 20.077562
#
# number of rings (size 3 to 8) (size 9 to 14) (size 15 to 20)
#    0.000    1.000    4.286    4.714    0.000    0.857 
#    0.000    0.714    0.000    5.571    0.000    0.000 
#    0.000    0.000    0.000    0.000    0.000    0.000 
#
# Total GULP energy -347066.046691 kJ/mol
# GULP energy per Si atom -12395.215953 kJ/mol
# Density = 2.003186 g / cm^3
# Si number density = 20.077562 Si / 1000 Ang^3
#
#
#
# Elastic Constant Matrix: (Units=GPa)
#
#
# Indices 1 2 3 4 5 6 
#
# 1 99.3975 23.7611 10.3867 0.0000 9.0644 0.0000
# 2 23.7611 91.9971 31.8653 0.0000 8.1003 0.0000
# 3 10.3867 31.8653 98.1178 0.0000 15.4710 0.0000
# 4 0.0000 0.0000 0.0000 26.8403 0.0000 3.9939
# 5 9.0644 8.1003 15.4710 0.0000 34.6803 0.0000
# 6 0.0000 0.0000 0.0000 3.9939 0.0000 19.4883
#
#
#
# Elastic Compliance Matrix: (Units=1/GPa)
#
#
# Indices 1 2 3 4 5 6 
#
# 1 0.010890 -0.002634 0.000059 0.000000 -0.002257 0.000000
# 2 -0.002634 0.012929 -0.003821 0.000000 -0.000627 0.000000
# 3 0.000059 -0.003821 0.012142 0.000000 -0.004540 0.000000
# 4 0.000000 0.000000 0.000000 0.038429 0.000000 -0.007876
# 5 -0.002257 -0.000627 -0.004540 0.000000 0.031596 0.000000
# 6 0.000000 0.000000 0.000000 -0.007876 0.000000 0.052927
#
#
# Mechanical properties :
#
#
# Convention : Reuss Voigt Hill
#
# Bulk Modulus (GPa) = 43.16343 46.83762 45.00053
# Shear Modulus (GPa) = 27.86599 31.10174 29.48387
#
# Velocity S-wave (km/s) = 3.72952 3.94010 3.83626
# Velocity P-wave (km/s) = 6.33173 6.63914 6.48726
#
# Compressibility (1/GPa) = 0.02316776
#
# Stress axis : x y z
#
# Youngs Moduli (GPa) = 91.82690 77.34528 82.35596
#
# Poissons Ratio (x) = 0.20375 -0.00483
# Poissons Ratio (y) = 0.24189 0.31470
# Poissons Ratio (z) = -0.00538 0.29555
#
# Static dielectric constant tensor:
#      x y z
#    x 3.872820 0.000000 0.108640 
#    y 0.000000 3.517720 0.000000 
#    z 0.108640 0.000000 3.736130 
# 
# 
# High freq. dielectric constant tensor:
#      x y z
#    x 1.789350 0.000000 0.009250 
#    y 0.000000 1.742490 0.000000 
#    z 0.009250 0.000000 1.794170 
# 
# From -- ./inp_files/286073.got.cif
#   From: 2010.06.25/outbox.cif.g09.slc.cpg/sg12_144_cif.got.tgz:286073.got - 2010.06.28 00:19:55.
