data_PCOD8110513
_publ_section_title
;
Structure prediction by ZEFSAII (Michael W. Deem and Ramdas Pophale) SiO2 
 PCOD8110513
Probable space group: C 2/M
;
_chemical_formula_sum "Si O2"
_cell_formula_units_Z 48
_cell_length_a 9.531361
_cell_length_b 17.243826
_cell_length_c 12.459403
_cell_angle_alpha 90.000000
_cell_angle_beta 87.742062
_cell_angle_gamma 90.000000
_cell_volume 2046.201795
_symmetry_space_group_name_H-M "C 2/M"
_symmetry_group_IT_number 12
_symmetry_cell_setting 'monoclinic'
loop_
_space_group_symop_operation_xyz
x,y,z
-x,y,-z
-x,-y,-z
x,-y,z
1/2+x,1/2+y,z
1/2-x,1/2+y,-z
1/2-x,1/2-y,-z
1/2+x,1/2-y,z
loop_
_atom_site_type_symbol
_atom_site_label
_atom_site_fract_x
_atom_site_fract_y
_atom_site_fract_z
Si Si1 0.055264 0.913672 0.880127
Si Si2 0.333483 0.328203 0.517608
Si Si3 0.392898 0.909340 0.590813
Si Si4 0.209317 0.294446 0.109236
Si Si5 0.999525 0.590451 0.818946
Si Si6 0.303100 0.643195 0.762592
O O1 0.167138 0.848160 0.848385
O O2 0.930086 0.909595 0.799097
O O3 0.122374 0.000000 0.871248
O O4 0.000000 0.895950 0.000000
O O5 0.500000 0.318145 0.500000
O O6 0.250000 0.250000 0.500000
O O7 0.268546 0.387642 0.432265
O O8 0.297458 0.361651 0.635216
O O9 0.500000 0.871795 0.500000
O O10 0.435380 0.880830 0.707427
O O11 0.410336 0.000000 0.587641
O O12 0.076929 0.352446 0.093069
O O13 0.174174 0.231589 0.201110
O O14 0.250000 0.250000 0.000000
O O15 0.969736 0.500000 0.845837
O O16 0.164379 0.606013 0.818072
#
# Coordination Sequence:
#
# PCOD8110513 Si02
#       6
#     8   8   8   8   8   8
#     4  11  25  48  71 101 142 186 235 301 367 426
#     4  12  28  44  70 108 148 189 242 300 362 441
#     4  10  21  44  71 100 144 190 234 292 362 434
#     4  12  26  47  71 102 139 188 241 302 364 434
#     4  11  25  46  74 107 144 192 244 299 363 439
#     4  12  26  44  77 105 142 189 246 298 364 436
#
# _framework density 23.458098
#
# number of rings (size 3 to 8) (size 9 to 14) (size 15 to 20)
#    0.000    0.667    3.333    3.500    7.000    1.000 
#    0.000    0.833    0.000    0.000    0.000    0.000 
#    0.000    0.000    0.000    0.000    0.000    0.000 
#
# Total GULP energy -297660.479087 kJ/mol
# GULP energy per Si atom -12402.519962 kJ/mol
# Density = 2.340471 g / cm^3
# Si number density = 23.458098 Si / 1000 Ang^3
#
#
#
# Elastic Constant Matrix: (Units=GPa)
#
#
# Indices 1 2 3 4 5 6 
#
# 1 143.7398 23.3704 12.7966 0.0000 -0.4909 0.0000
# 2 23.3704 93.6147 17.4109 0.0000 -11.2317 0.0000
# 3 12.7966 17.4109 50.7852 0.0000 2.6510 0.0000
# 4 0.0000 0.0000 0.0000 17.7238 0.0000 1.3952
# 5 -0.4909 -11.2317 2.6510 0.0000 36.7002 0.0000
# 6 0.0000 0.0000 0.0000 1.3952 0.0000 43.4751
#
#
#
# Elastic Compliance Matrix: (Units=1/GPa)
#
#
# Indices 1 2 3 4 5 6 
#
# 1 0.007335 -0.001631 -0.001273 0.000000 -0.000309 0.000000
# 2 -0.001631 0.012323 -0.004024 0.000000 0.004040 0.000000
# 3 -0.001273 -0.004024 0.021538 0.000000 -0.002804 0.000000
# 4 0.000000 0.000000 0.000000 0.056564 0.000000 -0.001815
# 5 -0.000309 0.004040 -0.002804 0.000000 0.028683 0.000000
# 6 0.000000 0.000000 0.000000 -0.001815 0.000000 0.023060
#
#
# Mechanical properties :
#
#
# Convention : Reuss Voigt Hill
#
# Bulk Modulus (GPa) = 36.57960 43.92171 40.25065
# Shear Modulus (GPa) = 28.99042 35.21728 32.10385
#
# Velocity S-wave (km/s) = 3.51926 3.87884 3.70342
# Velocity P-wave (km/s) = 5.66931 6.23095 5.95675
#
# Compressibility (1/GPa) = 0.02733764
#
# Stress axis : x y z
#
# Youngs Moduli (GPa) = 136.34179 81.15199 46.43057
#
# Poissons Ratio (x) = 0.13239 0.05909
# Poissons Ratio (y) = 0.22243 0.18685
# Poissons Ratio (z) = 0.17352 0.32659
#
# Static dielectric constant tensor:
#      x y z
#    x 4.428420 0.000000 0.082260 
#    y 0.000000 4.366230 0.000000 
#    z 0.082260 0.000000 4.487610 
# 
# 
# High freq. dielectric constant tensor:
#      x y z
#    x 1.936450 0.000000 0.006350 
#    y 0.000000 1.938000 0.000000 
#    z 0.006350 0.000000 1.926630 
# 
# From -- ./inp_files/195923.got.cif
#   From: 2010.06.25/outbox.cif.g09.slc.cpg/sg12_98_cif.got.tgz:195923.got - 2010.06.28 00:19:55.
