data_PCOD8110238
_publ_section_title
;
Structure prediction by ZEFSAII (Michael W. Deem and Ramdas Pophale) SiO2 
 PCOD8110238
Probable space group: C 2/M
;
_chemical_formula_sum "Si O2"
_cell_formula_units_Z 48
_cell_length_a 27.055249
_cell_length_b 18.541350
_cell_length_c 9.503859
_cell_angle_alpha 90.000000
_cell_angle_beta 30.573351
_cell_angle_gamma 90.000000
_cell_volume 2424.958173
_symmetry_space_group_name_H-M "C 2/M"
_symmetry_group_IT_number 12
_symmetry_cell_setting 'monoclinic'
loop_
_space_group_symop_operation_xyz
x,y,z
-x,y,-z
-x,-y,-z
x,-y,z
1/2+x,1/2+y,z
1/2-x,1/2+y,-z
1/2-x,1/2-y,-z
1/2+x,1/2-y,z
loop_
_atom_site_type_symbol
_atom_site_label
_atom_site_fract_x
_atom_site_fract_y
_atom_site_fract_z
Si Si1 0.198021 0.159332 0.762495
Si Si2 0.496172 0.187991 0.842610
Si Si3 0.510043 0.330239 0.637502
Si Si4 0.281789 0.820059 0.266194
Si Si5 0.834618 0.417356 0.620936
Si Si6 0.796274 0.084654 0.791220
O O1 0.202937 0.167760 0.582370
O O2 0.222630 0.236888 0.774809
O O3 0.275702 0.101097 0.623821
O O4 0.090360 0.132850 0.066589
O O5 0.531312 0.260863 0.681024
O O6 0.565532 0.125461 0.617297
O O7 0.500000 0.199588 0.000000
O O8 0.388869 0.163909 0.061997
O O9 0.500000 0.306461 0.500000
O O10 0.594548 0.388298 0.451859
O O11 0.256804 0.874247 0.203920
O O12 0.864545 0.500000 0.545566
O O13 0.766154 0.397505 0.918715
O O14 0.799356 0.000000 0.749541
#
# Coordination Sequence:
#
# PCOD8110238 Si02
#       6
#     8   8   8   8   8   8
#     4  10  21  41  65  94 121 166 210 265 308 372
#     4  11  24  42  67  97 126 162 212 266 313 370
#     4  11  24  40  69  96 124 165 214 261 314 368
#     4  10  23  41  66  93 127 161 210 265 317 363
#     4  11  24  41  63  91 128 172 209 253 312 378
#     4  11  26  43  62  92 133 170 207 257 312 377
#
# _framework density 19.794155
#
# number of rings (size 3 to 8) (size 9 to 14) (size 15 to 20)
#    0.000    1.333    3.333    1.000    9.333    4.000 
#    0.000    2.500    0.000    0.000    0.000    0.000 
#    0.000    0.000    0.000    0.000    0.000    0.000 
#
# Total GULP energy -297699.324711 kJ/mol
# GULP energy per Si atom -12404.138530 kJ/mol
# Density = 1.974910 g / cm^3
# Si number density = 19.794155 Si / 1000 Ang^3
#
#
#
# Elastic Constant Matrix: (Units=GPa)
#
#
# Indices 1 2 3 4 5 6 
#
# 1 89.9227 37.0233 15.0002 0.0000 -1.0758 0.0000
# 2 37.0233 81.0317 30.6716 0.0000 2.0540 0.0000
# 3 15.0002 30.6716 86.9458 0.0000 -9.4517 0.0000
# 4 0.0000 0.0000 0.0000 22.0257 0.0000 1.3576
# 5 -1.0758 2.0540 -9.4517 0.0000 26.0712 0.0000
# 6 0.0000 0.0000 0.0000 1.3576 0.0000 22.3795
#
#
#
# Elastic Compliance Matrix: (Units=1/GPa)
#
#
# Indices 1 2 3 4 5 6 
#
# 1 0.013727 -0.006284 -0.000037 0.000000 0.001048 0.000000
# 2 -0.006284 0.017359 -0.005430 0.000000 -0.003596 0.000000
# 3 -0.000037 -0.005430 0.014022 0.000000 0.005510 0.000000
# 4 0.000000 0.000000 0.000000 0.045572 0.000000 -0.002765
# 5 0.001048 -0.003596 0.005510 0.000000 0.040681 0.000000
# 6 0.000000 0.000000 0.000000 -0.002765 0.000000 0.044851
#
#
# Mechanical properties :
#
#
# Convention : Reuss Voigt Hill
#
# Bulk Modulus (GPa) = 46.28729 47.03228 46.65978
# Shear Modulus (GPa) = 24.16428 25.77561 24.96995
#
# Velocity S-wave (km/s) = 3.49775 3.61249 3.55559
# Velocity P-wave (km/s) = 6.30456 6.41969 6.36238
#
# Compressibility (1/GPa) = 0.02160420
#
# Stress axis : x y z
#
# Youngs Moduli (GPa) = 72.85031 57.60817 71.31409
#
# Poissons Ratio (x) = 0.36202 0.00267
# Poissons Ratio (y) = 0.45780 0.38725
# Poissons Ratio (z) = 0.00273 0.31283
#
# Static dielectric constant tensor:
#      x y z
#    x 3.612500 0.000000 0.000820 
#    y 0.000000 3.497110 0.000000 
#    z 0.000820 0.000000 3.887460 
# 
# 
# High freq. dielectric constant tensor:
#      x y z
#    x 1.774660 0.000000 -0.001380 
#    y 0.000000 1.760400 0.000000 
#    z -0.001380 0.000000 1.794490 
# 
# From -- ./inp_files/106515.got.cif
#   From: 2010.06.25/outbox.cif.g09.slc.cpg/sg12_54_cif.got.tgz:106515.got - 2010.06.28 00:19:55.
