data_PCOD8110087
_publ_section_title
;
Structure prediction by ZEFSAII (Michael W. Deem and Ramdas Pophale) SiO2 
 PCOD8110087
Probable space group: C 2/M
;
_chemical_formula_sum "Si O2"
_cell_formula_units_Z 48
_cell_length_a 27.596146
_cell_length_b 13.173664
_cell_length_c 12.330545
_cell_angle_alpha 90.000000
_cell_angle_beta 151.205821
_cell_angle_gamma 90.000000
_cell_volume 2159.146230
_symmetry_space_group_name_H-M "C 2/M"
_symmetry_group_IT_number 12
_symmetry_cell_setting 'monoclinic'
loop_
_space_group_symop_operation_xyz
x,y,z
-x,y,-z
-x,-y,-z
x,-y,z
1/2+x,1/2+y,z
1/2-x,1/2+y,-z
1/2-x,1/2-y,-z
1/2+x,1/2-y,z
loop_
_atom_site_type_symbol
_atom_site_label
_atom_site_fract_x
_atom_site_fract_y
_atom_site_fract_z
Si Si1 0.039032 0.113351 0.697997
Si Si2 0.402211 0.224420 0.747626
Si Si3 0.737480 0.119013 0.363943
Si Si4 0.839383 0.618249 0.016845
Si Si5 0.736712 0.121466 0.904744
Si Si6 0.054215 0.694963 0.403269
O O1 0.000000 0.114065 0.500000
O O2 0.968191 0.184316 0.631864
O O3 0.032648 0.000000 0.734263
O O4 0.153771 0.155270 0.924815
O O5 0.349319 0.141047 0.719340
O O6 0.336744 0.323448 0.595998
O O7 0.430093 0.166635 0.691183
O O8 0.500000 0.265946 0.000000
O O9 0.759582 0.000000 0.404075
O O10 0.704111 0.163648 0.180831
O O11 0.818672 0.500000 0.973411
O O12 0.780668 0.664210 0.006520
O O13 0.958565 0.635937 0.264062
O O14 0.652776 0.165713 0.661858
O O15 0.729857 0.000000 0.892721
#
# Coordination Sequence:
#
# PCOD8110087 Si02
#       6
#     8   8   8   8   8   8
#     4  10  24  42  61  93 135 176 214 253 310 384
#     4  11  25  45  65  95 128 165 219 273 316 379
#     4  10  24  45  69  93 124 171 215 263 325 382
#     4  10  21  40  67  98 130 167 214 263 320 386
#     4  10  23  42  64  96 135 170 210 261 318 384
#     4  12  24  38  68  97 130 169 215 266 322 376
#
# _framework density 22.231010999999999
#
# number of rings (size 3 to 8) (size 9 to 14) (size 15 to 20)
#    0.000    1.500    1.667    2.000    4.667    5.333 
#    0.000    1.667    0.000    0.000    0.000    0.000 
#    0.000    0.000    0.000    0.000    0.000    0.000 
#
# Total GULP energy -297713.747884 kJ/mol
# GULP energy per Si atom -12404.739495 kJ/mol
# Density = 2.218041 g / cm^3
# Si number density = 22.231011 Si / 1000 Ang^3
#
#
#
# Elastic Constant Matrix: (Units=GPa)
#
#
# Indices 1 2 3 4 5 6 
#
# 1 115.1182 6.0558 33.8121 0.0000 -14.3573 0.0000
# 2 6.0558 34.8779 16.4360 0.0000 -2.7370 0.0000
# 3 33.8121 16.4360 156.9970 0.0000 -2.3559 0.0000
# 4 0.0000 0.0000 0.0000 32.7308 0.0000 2.7525
# 5 -14.3573 -2.7370 -2.3559 0.0000 37.4322 0.0000
# 6 0.0000 0.0000 0.0000 2.7525 0.0000 17.1238
#
#
#
# Elastic Compliance Matrix: (Units=1/GPa)
#
#
# Indices 1 2 3 4 5 6 
#
# 1 0.009744 -0.000471 -0.001996 0.000000 0.003577 0.000000
# 2 -0.000471 0.030334 -0.003047 0.000000 0.001846 0.000000
# 3 -0.001996 -0.003047 0.007110 0.000000 -0.000541 0.000000
# 4 0.000000 0.000000 0.000000 0.030971 0.000000 -0.004978
# 5 0.003577 0.001846 -0.000541 0.000000 0.028188 0.000000
# 6 0.000000 0.000000 0.000000 -0.004978 0.000000 0.059198
#
#
# Mechanical properties :
#
#
# Convention : Reuss Voigt Hill
#
# Bulk Modulus (GPa) = 27.65331 46.62232 37.13782
# Shear Modulus (GPa) = 26.50770 34.16999 30.33884
#
# Velocity S-wave (km/s) = 3.45682 3.92477 3.69820
# Velocity P-wave (km/s) = 5.32906 6.44637 5.91416
#
# Compressibility (1/GPa) = 0.03616203
#
# Stress axis : x y z
#
# Youngs Moduli (GPa) = 102.62987 32.96662 140.64392
#
# Poissons Ratio (x) = 0.01552 0.28066
# Poissons Ratio (y) = 0.04831 0.42848
# Poissons Ratio (z) = 0.20480 0.10043
#
# Static dielectric constant tensor:
#      x y z
#    x 4.291150 0.000000 0.003730 
#    y 0.000000 4.000230 0.000000 
#    z 0.003730 0.000000 4.087530 
# 
# 
# High freq. dielectric constant tensor:
#      x y z
#    x 1.879170 0.000000 0.006120 
#    y 0.000000 1.879340 0.000000 
#    z 0.006120 0.000000 1.886510 
# 
# From -- ./inp_files/183693.got.cif
#   From: 2010.06.25/outbox.cif.g09.slc.cpg/sg12_92_cif.got.tgz:183693.got - 2010.06.28 00:19:55.
