data_PCOD8110988
_publ_section_title
;
Structure prediction by ZEFSAII (Michael W. Deem and Ramdas Pophale) SiO2 
 PCOD8110988
Probable space group: C 2/M
;
_chemical_formula_sum "Si O2"
_cell_formula_units_Z 44
_cell_length_a 27.807383
_cell_length_b 17.656462
_cell_length_c 5.319085
_cell_angle_alpha 90.000000
_cell_angle_beta 129.765492
_cell_angle_gamma 90.000000
_cell_volume 2007.428326
_symmetry_space_group_name_H-M "C 2/M"
_symmetry_group_IT_number 12
_symmetry_cell_setting 'monoclinic'
loop_
_space_group_symop_operation_xyz
x,y,z
-x,y,-z
-x,-y,-z
x,-y,z
1/2+x,1/2+y,z
1/2-x,1/2+y,-z
1/2-x,1/2-y,-z
1/2+x,1/2-y,z
loop_
_atom_site_type_symbol
_atom_site_label
_atom_site_fract_x
_atom_site_fract_y
_atom_site_fract_z
Si Si1 0.539948 0.000000 0.889186
Si Si2 0.931759 0.346636 0.158707
Si Si3 0.180070 0.910799 0.467410
Si Si4 0.569893 0.695399 0.168201
Si Si5 0.762897 0.156976 0.830641
Si Si6 0.656605 0.787416 0.768282
O O1 0.500000 0.000000 0.500000
O O2 0.580855 0.077346 0.045760
O O3 0.500000 0.000000 0.000000
O O4 0.876805 0.351151 0.180095
O O5 0.000000 0.354324 0.500000
O O6 0.930520 0.267837 0.010949
O O7 0.111681 0.872633 0.192783
O O8 0.225681 0.889545 0.386462
O O9 0.169594 0.000000 0.435513
O O10 0.209944 0.885176 0.831036
O O11 0.603827 0.724588 0.531656
O O12 0.500000 0.666187 0.000000
O O13 0.688582 0.171615 0.632219
O O14 0.791430 0.241651 0.897502
#
# Coordination Sequence:
#
# PCOD8110988 Si02
#       6
#     4   8   8   8   8   8
#     4  10  24  40  58  84 128 170 200 254 321 369
#     4  11  21  39  63  91 131 169 213 263 319 394
#     4  11  24  44  66  94 135 174 216 274 321 377
#     4  11  22  38  67  98 131 169 219 263 326 392
#     4  10  23  42  65  92 126 168 220 265 325 373
#     4  10  22  38  65  94 123 168 216 271 314 383
#
# _framework density 21.918592
#
# number of rings (size 3 to 8) (size 9 to 14) (size 15 to 20)
#    0.000    1.455    3.636    1.091    5.091    2.545 
#    3.273    0.000    0.000    3.818    0.000    0.000 
#    0.000    0.000    0.000    0.000    0.000    0.000 
#
# Total GULP energy -272619.764770 kJ/mol
# GULP energy per Si atom -12391.807490 kJ/mol
# Density = 2.186870 g / cm^3
# Si number density = 21.918592 Si / 1000 Ang^3
#
#
#
# Elastic Constant Matrix: (Units=GPa)
#
#
# Indices 1 2 3 4 5 6 
#
# 1 175.4569 63.2956 24.0604 0.0000 3.9379 0.0000
# 2 63.2956 150.8532 8.0663 0.0000 0.0869 0.0000
# 3 24.0604 8.0663 36.3456 0.0000 -4.0210 0.0000
# 4 0.0000 0.0000 0.0000 -575.1416 0.0000 91.3527
# 5 3.9379 0.0869 -4.0210 0.0000 38.6487 0.0000
# 6 0.0000 0.0000 0.0000 91.3527 0.0000 20.3652
#
#
#
# Elastic Compliance Matrix: (Units=1/GPa)
#
#
# Indices 1 2 3 4 5 6 
#
# 1 0.007354 -0.002851 -0.004368 0.000000 -0.001197 0.000000
# 2 -0.002851 0.007815 0.000185 0.000000 0.000292 0.000000
# 3 -0.004368 0.000185 0.030767 0.000000 0.003646 0.000000
# 4 0.000000 0.000000 0.000000 -0.001015 0.000000 0.004554
# 5 -0.001197 0.000292 0.003646 0.000000 0.026375 0.000000
# 6 0.000000 0.000000 0.000000 0.004554 0.000000 0.028674
#
#
# Mechanical properties :
#
#
# Convention : Reuss Voigt Hill
#
# Bulk Modulus (GPa) = 31.37856 61.50002 46.43929
# Shear Modulus (GPa) = 40.10917 -85.40997 -22.65040
#
# Velocity S-wave (km/s) = 4.28239 -6.24912 -3.21812
# Velocity P-wave (km/s) = 6.22887 4.89381 2.72484
#
# Compressibility (1/GPa) = 0.03186889
#
# Stress axis : x y z
#
# Youngs Moduli (GPa) = 135.98344 127.95507 32.50210
#
# Poissons Ratio (x) = 0.36484 0.14196
# Poissons Ratio (y) = 0.38773 -0.00603
# Poissons Ratio (z) = 0.59395 -0.02372
#
# Static dielectric constant tensor:
#      x y z
#    x 3.669120 0.000000 -0.242070 
#    y 0.000000 4.455600 0.000000 
#    z -0.242070 0.000000 3.625200 
# 
# 
# High freq. dielectric constant tensor:
#      x y z
#    x 1.877040 0.000000 0.001650 
#    y 0.000000 1.854270 0.000000 
#    z 0.001650 0.000000 1.848470 
# 
# From -- ./inp_files/20393.got.cif
#   From: 2010.06.25/outbox.cif.g09.slc.cpg/sg12_11_cif.got.tgz:20393.got - 2010.06.28 00:19:55.
