data_PCOD8110226
_publ_section_title
;
Structure prediction by ZEFSAII (Michael W. Deem and Ramdas Pophale) SiO2 
 PCOD8110226
Probable space group: C 2/M
;
_chemical_formula_sum "Si O2"
_cell_formula_units_Z 64
_cell_length_a 23.572919
_cell_length_b 8.816717
_cell_length_c 28.089259
_cell_angle_alpha 90.000000
_cell_angle_beta 32.935067
_cell_angle_gamma 90.000000
_cell_volume 3174.025960
_symmetry_space_group_name_H-M "C 2/M"
_symmetry_group_IT_number 12
_symmetry_cell_setting 'monoclinic'
loop_
_space_group_symop_operation_xyz
x,y,z
-x,y,-z
-x,-y,-z
x,-y,z
1/2+x,1/2+y,z
1/2-x,1/2+y,-z
1/2-x,1/2-y,-z
1/2+x,1/2-y,z
loop_
_atom_site_type_symbol
_atom_site_label
_atom_site_fract_x
_atom_site_fract_y
_atom_site_fract_z
Si Si1 0.784656 0.822462 0.591968
Si Si2 0.429688 0.677177 0.744890
Si Si3 0.508705 0.173531 0.106291
Si Si4 0.025228 0.678671 0.584513
Si Si5 0.956230 0.324142 0.249357
Si Si6 0.308946 0.825884 0.090171
Si Si7 0.835603 0.823055 0.166376
Si Si8 0.351122 0.321064 0.649707
O O1 0.855199 0.733592 0.504116
O O2 0.665332 0.781462 0.666176
O O3 0.813425 0.766142 0.624673
O O4 0.805909 0.000000 0.571575
O O5 0.441511 0.500000 0.725750
O O6 0.478981 0.769037 0.667013
O O7 0.489308 0.717549 0.750953
O O8 0.309335 0.724745 0.836506
O O9 0.508688 0.214145 0.161829
O O10 0.430142 0.282654 0.134234
O O11 0.470302 0.000000 0.126107
O O12 0.625328 0.198691 0.004450
O O13 0.019660 0.500000 0.585745
O O14 0.962435 0.748739 0.584124
O O15 0.972053 0.500000 0.251733
O O16 0.362116 0.723795 0.093641
O O17 0.314706 0.000000 0.102800
O O18 0.731527 0.732076 0.252914
O O19 0.812407 0.000000 0.186221
O O20 0.363021 0.500000 0.643951
#
# Coordination Sequence:
#
# PCOD8110226 Si02
#       8
#     8   8   8   8   8   8   8   8
#     4  10  22  41  65  91 121 162 203 243 302 369
#     4  11  24  42  63  88 120 163 209 253 303 360
#     4  10  21  41  65  90 121 164 206 246 303 369
#     4  12  25  40  62  94 126 159 199 252 307 357
#     4  10  22  42  65  89 119 158 207 258 304 354
#     4  10  22  40  64  89 121 165 208 246 299 370
#     4  12  23  35  59  94 129 161 198 251 307 357
#     4  11  21  39  65  91 123 164 202 242 299 369
#
# _framework density 20.163665999999999
#
# number of rings (size 3 to 8) (size 9 to 14) (size 15 to 20)
#    0.000    1.250    2.500    3.750    0.000    7.000 
#    0.000    0.000    0.000    0.000    0.000    0.000 
#    0.000    0.000    0.000    0.000    0.000    0.000 
#
# Total GULP energy -397005.921950 kJ/mol
# GULP energy per Si atom -12406.435061 kJ/mol
# Density = 2.011777 g / cm^3
# Si number density = 20.163666 Si / 1000 Ang^3
#
#
#
# Elastic Constant Matrix: (Units=GPa)
#
#
# Indices 1 2 3 4 5 6 
#
# 1 95.2942 34.8517 27.4143 -0.0504 -1.7534 0.0551
# 2 34.8517 82.9461 40.7903 -0.0582 1.0597 0.0730
# 3 27.4143 40.7903 114.5404 -0.0218 3.8267 0.0266
# 4 -0.0504 -0.0582 -0.0218 15.4066 0.0051 1.0357
# 5 -1.7534 1.0597 3.8267 0.0051 13.8080 -0.0063
# 6 0.0551 0.0730 0.0266 1.0357 -0.0063 34.7134
#
#
#
# Elastic Compliance Matrix: (Units=1/GPa)
#
#
# Indices 1 2 3 4 5 6 
#
# 1 0.012649 -0.004628 -0.001458 0.000022 0.002366 -0.000009
# 2 -0.004628 0.016310 -0.004683 0.000042 -0.000542 -0.000025
# 3 -0.001458 -0.004683 0.010842 -0.000006 -0.002831 0.000004
# 4 0.000022 0.000042 -0.000006 0.065038 -0.000023 -0.001941
# 5 0.002366 -0.000542 -0.002831 -0.000023 0.073548 0.000014
# 6 -0.000009 -0.000025 0.000004 -0.001941 0.000014 0.028865
#
#
# Mechanical properties :
#
#
# Convention : Reuss Voigt Hill
#
# Bulk Modulus (GPa) = 54.75429 55.43259 55.09344
# Shear Modulus (GPa) = 21.28755 25.43390 23.36072
#
# Velocity S-wave (km/s) = 3.25274 3.55543 3.40745
# Velocity P-wave (km/s) = 6.42814 6.66377 6.54701
#
# Compressibility (1/GPa) = 0.01826341
#
# Stress axis : x y z
#
# Youngs Moduli (GPa) = 79.05457 61.31093 92.23577
#
# Poissons Ratio (x) = 0.28374 0.13452
# Poissons Ratio (y) = 0.36586 0.43191
# Poissons Ratio (z) = 0.11530 0.28710
#
# Static dielectric constant tensor:
#      x y z
#    x 3.575360 -0.000030 0.008050 
#    y -0.000030 3.540940 0.000020 
#    z 0.008050 0.000020 3.878220 
# 
# 
# High freq. dielectric constant tensor:
#      x y z
#    x 1.781330 0.000000 0.002220 
#    y 0.000000 1.781740 0.000000 
#    z 0.002220 0.000000 1.802930 
# 
# From -- ./inp_files/382378.got.cif
#   From: 2010.06.25/outbox.cif.g09.slc.cpg/sg12_192_cif.got.tgz:382378.got - 2010.06.28 00:19:55.
