data_PCOD8110533
_publ_section_title
;
Structure prediction by ZEFSAII (Michael W. Deem and Ramdas Pophale) SiO2 
 PCOD8110533
Probable space group: C 2/M
;
_chemical_formula_sum "Si O2"
_cell_formula_units_Z 48
_cell_length_a 8.806851
_cell_length_b 17.600664
_cell_length_c 25.372804
_cell_angle_alpha 90.000000
_cell_angle_beta 140.114024
_cell_angle_gamma 90.000000
_cell_volume 2522.049235
_symmetry_space_group_name_H-M "C 2/M"
_symmetry_group_IT_number 12
_symmetry_cell_setting 'monoclinic'
loop_
_space_group_symop_operation_xyz
x,y,z
-x,y,-z
-x,-y,-z
x,-y,z
1/2+x,1/2+y,z
1/2-x,1/2+y,-z
1/2-x,1/2-y,-z
1/2+x,1/2-y,z
loop_
_atom_site_type_symbol
_atom_site_label
_atom_site_fract_x
_atom_site_fract_y
_atom_site_fract_z
Si Si1 0.410498 0.086791 0.237314
Si Si2 0.006010 0.199394 0.113562
Si Si3 0.000000 0.191627 0.500000
Si Si4 0.577494 0.087512 0.399951
Si Si5 0.222588 0.802057 0.350386
Si Si6 0.793714 0.695963 0.749790
Si Si7 0.500000 0.763719 0.000000
O O1 0.157824 0.127945 0.173041
O O2 0.537973 0.097291 0.327169
O O3 0.578522 0.120052 0.236411
O O4 0.362004 0.000000 0.210655
O O5 0.095185 0.277112 0.165296
O O6 0.039133 0.208974 0.060149
O O7 0.730712 0.183421 0.053464
O O8 0.806084 0.137381 0.475999
O O9 0.889204 0.244097 0.425778
O O10 0.356552 0.118863 0.374836
O O11 0.617989 0.000000 0.426416
O O12 0.153093 0.763510 0.276891
O O13 0.985847 0.820360 0.319885
#
# Coordination Sequence:
#
# PCOD8110533 Si02
#       7
#     8   8   4   8   8   8   4
#     4  11  23  40  62  89 122 159 196 245 301 350
#     4  11  19  38  61  92 116 154 194 246 281 359
#     4  12  21  38  63  84 120 158 204 250 297 350
#     4  11  24  40  59  87 121 159 197 248 306 350
#     4  12  22  36  63  90 111 158 206 251 287 348
#     4  12  20  39  64  86 117 155 206 243 282 356
#     4  10  22  32  66  94 116 148 202 236 300 340
#
# _framework density 19.032142
#
# number of rings (size 3 to 8) (size 9 to 14) (size 15 to 20)
#    0.000    0.667    8.333    0.750    0.000    0.667 
#    0.000    1.250    0.000    0.000    0.000    0.000 
#    0.000    0.000    0.000    0.000    0.000    0.000 
#
# Total GULP energy -297693.841186 kJ/mol
# GULP energy per Si atom -12403.910049 kJ/mol
# Density = 1.898882 g / cm^3
# Si number density = 19.032142 Si / 1000 Ang^3
#
#
#
# Elastic Constant Matrix: (Units=GPa)
#
#
# Indices 1 2 3 4 5 6 
#
# 1 109.1103 50.0041 32.4507 -0.0001 19.3857 0.0000
# 2 50.0041 121.6007 39.5679 0.0000 8.7667 0.0000
# 3 32.4507 39.5679 81.8271 -0.0001 8.9865 0.0000
# 4 -0.0001 0.0000 -0.0001 16.0283 -0.0001 1.3553
# 5 19.3857 8.7667 8.9865 -0.0001 32.2356 0.0000
# 6 0.0000 0.0000 0.0000 1.3553 0.0000 32.3602
#
#
#
# Elastic Compliance Matrix: (Units=1/GPa)
#
#
# Indices 1 2 3 4 5 6 
#
# 1 0.012799 -0.004031 -0.002478 0.000000 -0.005910 0.000000
# 2 -0.004031 0.011089 -0.003815 0.000000 0.000472 0.000000
# 3 -0.002478 -0.003815 0.015237 0.000000 -0.001720 0.000000
# 4 0.000000 0.000000 0.000000 0.062611 0.000000 -0.002622
# 5 -0.005910 0.000472 -0.001720 0.000000 0.034927 0.000000
# 6 0.000000 0.000000 0.000000 -0.002622 0.000000 0.031012
#
#
# Mechanical properties :
#
#
# Convention : Reuss Voigt Hill
#
# Bulk Modulus (GPa) = 54.11973 61.84261 57.98117
# Shear Modulus (GPa) = 25.70924 28.82585 27.26755
#
# Velocity S-wave (km/s) = 3.67936 3.89599 3.78922
# Velocity P-wave (km/s) = 6.82260 7.26654 7.04807
#
# Compressibility (1/GPa) = 0.01847755
#
# Stress axis : x y z
#
# Youngs Moduli (GPa) = 78.12886 90.18233 65.62870
#
# Poissons Ratio (x) = 0.36352 0.16260
# Poissons Ratio (y) = 0.31494 0.25039
# Poissons Ratio (z) = 0.19358 0.34406
#
# Static dielectric constant tensor:
#      x y z
#    x 3.737310 0.000000 0.069870 
#    y 0.000000 3.317370 0.000000 
#    z 0.069870 0.000000 3.664550 
# 
# 
# High freq. dielectric constant tensor:
#      x y z
#    x 1.751840 0.000000 0.007560 
#    y 0.000000 1.711490 0.000000 
#    z 0.007560 0.000000 1.749950 
# 
# From -- ./inp_files/356592.got.cif
#   From: 2010.06.25/outbox.cif.g09.slc.cpg/sg12_179_cif.got.tgz:356592.got - 2010.06.28 00:19:55.
