data_PCOD8110326
_publ_section_title
;
Structure prediction by ZEFSAII (Michael W. Deem and Ramdas Pophale) SiO2 
 PCOD8110326
Probable space group: C 2/M
;
_chemical_formula_sum "Si O2"
_cell_formula_units_Z 36
_cell_length_a 5.201134
_cell_length_b 27.393391
_cell_length_c 11.675970
_cell_angle_alpha 90.000000
_cell_angle_beta 112.044263
_cell_angle_gamma 90.000000
_cell_volume 1541.938192
_symmetry_space_group_name_H-M "C 2/M"
_symmetry_group_IT_number 12
_symmetry_cell_setting 'monoclinic'
loop_
_space_group_symop_operation_xyz
x,y,z
-x,y,-z
-x,-y,-z
x,-y,z
1/2+x,1/2+y,z
1/2-x,1/2+y,-z
1/2-x,1/2-y,-z
1/2+x,1/2-y,z
loop_
_atom_site_type_symbol
_atom_site_label
_atom_site_fract_x
_atom_site_fract_y
_atom_site_fract_z
Si Si1 0.768180 0.279603 0.129229
Si Si2 0.646103 0.604939 0.638990
Si Si3 0.780009 0.054699 0.120154
Si Si4 0.500000 0.369106 0.000000
Si Si5 0.361715 0.167636 0.363909
O O1 0.456513 0.257371 0.088244
O O2 0.862222 0.287293 0.275474
O O3 0.760888 0.333205 0.068029
O O4 0.500000 0.582546 0.500000
O O5 0.731114 0.563222 0.745125
O O6 0.446250 0.646329 0.661709
O O7 0.942106 0.625346 0.651392
O O8 0.984573 0.096276 0.107883
O O9 0.894730 0.000000 0.118380
O O10 0.500000 0.061687 0.000000
O O11 0.500000 0.190241 0.500000
#
# Coordination Sequence:
#
# PCOD8110326 Si02
#       5
#     8   8   8   4   8
#     4  12  26  41  65  99 130 176 230 272 333 399
#     4  10  21  42  70  99 135 182 222 271 340 401
#     4  11  25  43  71 103 133 178 228 278 343 407
#     4  12  25  44  68  88 140 178 215 286 336 402
#     4  10  21  41  68  95 133 180 222 273 337 396
#
# _framework density 23.347241
#
# number of rings (size 3 to 8) (size 9 to 14) (size 15 to 20)
#    0.000    1.111    2.222    3.667    3.111    1.333 
#    0.000    0.000    0.000    4.000    0.000    0.000 
#    0.000    0.000    0.000    0.000    0.000    0.000 
#
# Total GULP energy -223087.751415 kJ/mol
# GULP energy per Si atom -12393.763968 kJ/mol
# Density = 2.329410 g / cm^3
# Si number density = 23.347241 Si / 1000 Ang^3
#
#
#
# Elastic Constant Matrix: (Units=GPa)
#
#
# Indices 1 2 3 4 5 6 
#
# 1 82.6002 30.1781 32.3989 0.0000 -5.2028 0.0000
# 2 30.1781 132.0036 62.1989 0.0000 -11.5927 0.0000
# 3 32.3989 62.1989 183.5394 0.0000 -4.4284 0.0000
# 4 0.0000 0.0000 0.0000 12.6050 0.0000 5.4040
# 5 -5.2028 -11.5927 -4.4284 0.0000 35.6782 0.0000
# 6 0.0000 0.0000 0.0000 5.4040 0.0000 11.8828
#
#
#
# Elastic Compliance Matrix: (Units=1/GPa)
#
#
# Indices 1 2 3 4 5 6 
#
# 1 0.013633 -0.002264 -0.001614 0.000000 0.001052 0.000000
# 2 -0.002264 0.009630 -0.002805 0.000000 0.002451 0.000000
# 3 -0.001614 -0.002805 0.006676 0.000000 -0.000318 0.000000
# 4 0.000000 0.000000 0.000000 0.098547 0.000000 -0.044817
# 5 0.001052 0.002451 -0.000318 0.000000 0.028939 0.000000
# 6 0.000000 0.000000 0.000000 -0.044817 0.000000 0.104537
#
#
# Mechanical properties :
#
#
# Convention : Reuss Voigt Hill
#
# Bulk Modulus (GPa) = 60.33548 71.96609 66.15079
# Shear Modulus (GPa) = 17.80304 30.25768 24.03036
#
# Velocity S-wave (km/s) = 2.76440 3.60388 3.21169
# Velocity P-wave (km/s) = 6.00732 6.94323 6.49216
#
# Compressibility (1/GPa) = 0.01657399
#
# Stress axis : x y z
#
# Youngs Moduli (GPa) = 73.35180 103.84365 149.78770
#
# Poissons Ratio (x) = 0.23508 0.24175
# Poissons Ratio (y) = 0.16606 0.42011
# Poissons Ratio (z) = 0.11839 0.29125
#
# Static dielectric constant tensor:
#      x y z
#    x 4.067110 0.000000 0.007160 
#    y 0.000000 3.875220 0.000000 
#    z 0.007160 0.000000 4.946560 
# 
# 
# High freq. dielectric constant tensor:
#      x y z
#    x 1.913690 0.000000 0.001580 
#    y 0.000000 1.896210 0.000000 
#    z 0.001580 0.000000 1.969010 
# 
# From -- ./inp_files/115047.got.cif
#   From: 2010.06.25/outbox.cif.g09.slc.cpg/sg12_58_cif.got.tgz:115047.got - 2010.06.28 00:19:55.
