data_PCOD8110631
_publ_section_title
;
Structure prediction by ZEFSAII (Michael W. Deem and Ramdas Pophale) SiO2 
 PCOD8110631
Probable space group: C 2/M
;
_chemical_formula_sum "Si O2"
_cell_formula_units_Z 48
_cell_length_a 23.352148
_cell_length_b 12.881700
_cell_length_c 7.619179
_cell_angle_alpha 90.000000
_cell_angle_beta 69.824194
_cell_angle_gamma 90.000000
_cell_volume 2151.328197
_symmetry_space_group_name_H-M "C 2/M"
_symmetry_group_IT_number 12
_symmetry_cell_setting 'monoclinic'
loop_
_space_group_symop_operation_xyz
x,y,z
-x,y,-z
-x,-y,-z
x,-y,z
1/2+x,1/2+y,z
1/2-x,1/2+y,-z
1/2-x,1/2-y,-z
1/2+x,1/2-y,z
loop_
_atom_site_type_symbol
_atom_site_label
_atom_site_fract_x
_atom_site_fract_y
_atom_site_fract_z
Si Si1 0.233299 0.616939 0.012037
Si Si2 0.570182 0.000000 0.469016
Si Si3 0.431049 0.381873 0.612394
Si Si4 0.852006 0.307851 0.610846
Si Si5 0.863998 0.886152 0.022079
Si Si6 0.843230 0.319686 0.219703
Si Si7 0.570169 0.000000 0.876828
O O1 0.210207 0.500000 0.066938
O O2 0.203563 0.691808 0.191663
O O3 0.305668 0.624857 0.955844
O O4 0.216434 0.655595 0.833795
O O5 0.500000 0.000000 0.500000
O O6 0.601447 0.895263 0.363727
O O7 0.578761 0.000000 0.664021
O O8 0.500000 0.348522 0.500000
O O9 0.417937 0.500000 0.561318
O O10 0.385718 0.302593 0.562786
O O11 0.421902 0.373810 0.832349
O O12 0.827060 0.335489 0.441978
O O13 0.865757 0.798476 0.168687
O O14 0.864464 0.000000 0.113203
O O15 0.896523 0.395789 0.090420
O O16 0.500000 0.000000 0.000000
#
# Coordination Sequence:
#
# PCOD8110631 Si02
#       7
#     8   4   8   8   8   8   4
#     4  11  22  41  67  92 133 171 207 267 323 382
#     4  10  22  36  58  92 128 162 210 258 306 387
#     4  10  22  42  65  89 124 167 215 265 317 382
#     4  11  23  38  64  97 124 166 215 253 330 381
#     4  10  23  42  66  95 124 173 222 257 326 384
#     4  11  23  40  62  95 134 163 211 270 311 384
#     4  10  24  38  60  98 126 168 212 252 327 378
#
# _framework density 22.311799000000001
#
# number of rings (size 3 to 8) (size 9 to 14) (size 15 to 20)
#    0.000    1.500    3.333    1.000    2.333    4.000 
#    0.000    0.000    0.000    3.500    0.000    0.000 
#    0.000    0.000    0.000    0.000    0.000    0.000 
#
# Total GULP energy -297549.732916 kJ/mol
# GULP energy per Si atom -12397.905538 kJ/mol
# Density = 2.226102 g / cm^3
# Si number density = 22.311799 Si / 1000 Ang^3
#
#
#
# Elastic Constant Matrix: (Units=GPa)
#
#
# Indices 1 2 3 4 5 6 
#
# 1 49.8853 17.6927 16.5178 0.0000 0.9908 0.0000
# 2 17.6927 142.7935 -2.3474 0.0000 10.8117 0.0000
# 3 16.5178 -2.3474 61.1192 0.0000 13.3728 0.0000
# 4 0.0000 0.0000 0.0000 29.0817 0.0000 1.9442
# 5 0.9908 10.8117 13.3728 0.0000 29.7147 0.0000
# 6 0.0000 0.0000 0.0000 1.9442 0.0000 34.4208
#
#
#
# Elastic Compliance Matrix: (Units=1/GPa)
#
#
# Indices 1 2 3 4 5 6 
#
# 1 0.023571 -0.003322 -0.007310 0.000000 0.003712 0.000000
# 2 -0.003322 0.007719 0.001979 0.000000 -0.003589 0.000000
# 3 -0.007310 0.001979 0.020540 0.000000 -0.009720 0.000000
# 4 0.000000 0.000000 0.000000 0.034516 0.000000 -0.001950
# 5 0.003712 -0.003589 -0.009720 0.000000 0.039210 0.000000
# 6 0.000000 0.000000 0.000000 -0.001950 0.000000 0.029162
#
#
# Mechanical properties :
#
#
# Convention : Reuss Voigt Hill
#
# Bulk Modulus (GPa) = 28.96475 35.28050 32.12263
# Shear Modulus (GPa) = 27.24334 33.43909 30.34122
#
# Velocity S-wave (km/s) = 3.49811 3.87553 3.69165
# Velocity P-wave (km/s) = 5.41532 5.98942 5.70959
#
# Compressibility (1/GPa) = 0.03452473
#
# Stress axis : x y z
#
# Youngs Moduli (GPa) = 42.42531 129.55132 48.68591
#
# Poissons Ratio (x) = 0.43034 0.35589
# Poissons Ratio (y) = 0.14093 -0.09637
# Poissons Ratio (z) = 0.31013 -0.25643
#
# Static dielectric constant tensor:
#      x y z
#    x 3.652750 0.000000 -0.091660 
#    y 0.000000 4.710680 0.000000 
#    z -0.091660 0.000000 3.853310 
# 
# 
# High freq. dielectric constant tensor:
#      x y z
#    x 1.857120 0.000000 -0.011230 
#    y 0.000000 1.909050 0.000000 
#    z -0.011230 0.000000 1.867150 
# 
# From -- ./inp_files/85723.got.cif
#   From: 2010.06.25/outbox.cif.g09.slc.cpg/sg12_43_cif.got.tgz:85723.got - 2010.06.28 00:19:55.
