data_PCOD8110114
_publ_section_title
;
Structure prediction by ZEFSAII (Michael W. Deem and Ramdas Pophale) SiO2 
 PCOD8110114
Probable space group: C 2/M
;
_chemical_formula_sum "Si O2"
_cell_formula_units_Z 40
_cell_length_a 16.011436
_cell_length_b 11.773834
_cell_length_c 28.137559
_cell_angle_alpha 90.000000
_cell_angle_beta 160.855779
_cell_angle_gamma 90.000000
_cell_volume 1739.556045
_symmetry_space_group_name_H-M "C 2/M"
_symmetry_group_IT_number 12
_symmetry_cell_setting 'monoclinic'
loop_
_space_group_symop_operation_xyz
x,y,z
-x,y,-z
-x,-y,-z
x,-y,z
1/2+x,1/2+y,z
1/2-x,1/2+y,-z
1/2-x,1/2-y,-z
1/2+x,1/2-y,z
loop_
_atom_site_type_symbol
_atom_site_label
_atom_site_fract_x
_atom_site_fract_y
_atom_site_fract_z
Si Si1 0.074937 0.225232 0.949713
Si Si2 0.771524 0.257434 0.567454
Si Si3 0.709445 0.500000 0.072032
Si Si4 0.124935 0.131039 0.824289
Si Si5 0.284981 0.869054 0.312827
Si Si6 0.768469 0.000000 0.412052
O O1 0.792095 0.205011 0.776048
O O2 0.250000 0.250000 0.000000
O O3 0.107759 0.320936 0.009105
O O4 0.178948 0.108045 0.023858
O O5 0.750000 0.250000 0.500000
O O6 0.039026 0.209256 0.733133
O O7 0.555728 0.178186 0.475574
O O8 0.716270 0.388239 0.548012
O O9 0.998022 0.500000 0.242525
O O10 0.500000 0.500000 0.000000
O O11 0.912853 0.144762 0.750858
O O12 0.164107 0.000000 0.830072
O O13 0.311402 0.000000 0.311822
O O14 0.000000 0.000000 0.500000
#
# Coordination Sequence:
#
# PCOD8110114 Si02
#       6
#     8   8   4   8   8   4
#     4  10  22  40  70 102 135 177 241 288 353 419
#     4  12  27  41  67  97 143 182 238 291 361 417
#     4  12  26  46  78 105 142 188 247 304 352 429
#     4  10  21  42  67  97 132 178 230 287 352 430
#     4  10  21  40  69  96 128 181 236 288 340 431
#     4  12  28  50  72 105 148 196 237 298 370 429
#
# _framework density 22.994373
#
# number of rings (size 3 to 8) (size 9 to 14) (size 15 to 20)
#    0.000    1.200    3.000    2.400    9.800    1.600 
#    1.800    0.000    0.000    1.800    0.000    0.000 
#    0.000    0.000    0.000    0.000    0.000    0.000 
#
# Total GULP energy -247895.159522 kJ/mol
# GULP energy per Si atom -12394.757976 kJ/mol
# Density = 2.294204 g / cm^3
# Si number density = 22.994373 Si / 1000 Ang^3
#
#
#
# Elastic Constant Matrix: (Units=GPa)
#
#
# Indices 1 2 3 4 5 6 
#
# 1 60.6516 45.2036 15.1247 -0.0112 -29.2340 0.0000
# 2 45.2036 166.7232 26.9774 -0.0001 -25.0094 0.0007
# 3 15.1247 26.9774 106.3574 0.0476 -19.9456 -0.0207
# 4 -0.0112 -0.0001 0.0476 44.5347 -0.0174 -17.4602
# 5 -29.2340 -25.0094 -19.9456 -0.0174 37.1338 -0.0034
# 6 0.0000 0.0007 -0.0207 -17.4602 -0.0034 37.1629
#
#
#
# Elastic Compliance Matrix: (Units=1/GPa)
#
#
# Indices 1 2 3 4 5 6 
#
# 1 0.030116 -0.005210 0.000920 0.000019 0.020694 0.000012
# 2 -0.005210 0.007660 -0.001116 0.000000 0.000458 -0.000001
# 3 0.000920 -0.001116 0.010619 -0.000008 0.005676 0.000003
# 4 0.000019 0.000000 -0.000008 0.027524 0.000025 0.012932
# 5 0.020694 0.000458 0.005676 0.000025 0.046578 0.000019
# 6 0.000012 -0.000001 0.000003 0.012932 0.000019 0.032984
#
#
# Mechanical properties :
#
#
# Convention : Reuss Voigt Hill
#
# Bulk Modulus (GPa) = 26.60861 56.48263 41.54562
# Shear Modulus (GPa) = 27.96081 40.19471 34.07776
#
# Velocity S-wave (km/s) = 3.49088 4.18547 3.85386
# Velocity P-wave (km/s) = 5.27686 6.92637 6.15710
#
# Compressibility (1/GPa) = 0.03758182
#
# Stress axis : x y z
#
# Youngs Moduli (GPa) = 33.20529 130.55194 94.17031
#
# Poissons Ratio (x) = 0.68016 -0.08660
# Poissons Ratio (y) = 0.17299 0.10511
# Poissons Ratio (z) = -0.03054 0.14572
#
# Static dielectric constant tensor:
#      x y z
#    x 3.942670 0.000020 -0.274470 
#    y 0.000020 4.299630 -0.000190 
#    z -0.274470 -0.000190 4.757990 
# 
# 
# High freq. dielectric constant tensor:
#      x y z
#    x 1.903370 0.000000 -0.015440 
#    y 0.000000 1.919960 -0.000010 
#    z -0.015440 -0.000010 1.922440 
# 
# From -- ./inp_files/378966.got.cif
#   From: 2010.06.25/outbox.cif.g09.slc.cpg/sg12_190_cif.got.tgz:378966.got - 2010.06.28 00:19:55.
