data_PCOD8110763
_publ_section_title
;
Structure prediction by ZEFSAII (Michael W. Deem and Ramdas Pophale) SiO2 
 PCOD8110763
Probable space group: C 2/M
;
_chemical_formula_sum "Si O2"
_cell_formula_units_Z 56
_cell_length_a 27.017256
_cell_length_b 14.018904
_cell_length_c 14.521773
_cell_angle_alpha 90.000000
_cell_angle_beta 149.755423
_cell_angle_gamma 90.000000
_cell_volume 2770.385341
_symmetry_space_group_name_H-M "C 2/M"
_symmetry_group_IT_number 12
_symmetry_cell_setting 'monoclinic'
loop_
_space_group_symop_operation_xyz
x,y,z
-x,y,-z
-x,-y,-z
x,-y,z
1/2+x,1/2+y,z
1/2-x,1/2+y,-z
1/2-x,1/2-y,-z
1/2+x,1/2-y,z
loop_
_atom_site_type_symbol
_atom_site_label
_atom_site_fract_x
_atom_site_fract_y
_atom_site_fract_z
Si Si1 0.688100 0.794480 0.182638
Si Si2 0.504703 0.886406 0.790249
Si Si3 0.893939 0.394603 0.784259
Si Si4 0.909593 0.887425 0.242653
Si Si5 0.057428 0.610078 0.506933
Si Si6 0.214252 0.890415 0.131457
Si Si7 0.370767 0.387385 0.382690
O O1 0.673279 0.821040 0.266318
O O2 0.683481 0.679244 0.165798
O O3 0.793681 0.830899 0.320212
O O4 0.606285 0.841424 0.986362
O O5 0.412782 0.858927 0.709842
O O6 0.477785 0.845014 0.646530
O O7 0.518127 0.000000 0.813509
O O8 0.844377 0.500000 0.706290
O O9 0.000000 0.401673 0.000000
O O10 0.859254 0.854870 0.257526
O O11 0.021664 0.851526 0.411657
O O12 0.915741 0.000000 0.257069
O O13 0.844097 0.854115 0.051939
O O14 0.027656 0.500000 0.454846
O O15 0.172013 0.623156 0.708629
O O16 0.000000 0.659495 0.500000
O O17 0.189823 0.000000 0.119393
O O18 0.354809 0.500000 0.370426
#
# Coordination Sequence:
#
# PCOD8110763 Si02
#       7
#     8   8   8   8   8   8   8
#     4  11  20  30  54  84 107 140 180 225 276 326
#     4   9  18  34  58  87 115 138 169 223 284 327
#     4   8  15  31  54  83 114 136 164 223 288 329
#     4   8  17  34  51  69 107 151 176 218 272 319
#     4   9  19  36  56  78 109 150 185 215 258 324
#     4  10  22  38  51  69 107 152 189 221 264 317
#     4   9  17  31  52  79 106 136 180 224 274 327
#
# _framework density 20.213795000000001
#
# number of rings (size 3 to 8) (size 9 to 14) (size 15 to 20)
#    0.000    2.857    0.000    3.000    2.000    1.714 
#    2.571    0.714    0.000    5.571    0.000    8.000 
#    0.000    0.000    0.000    0.000    0.000    0.000 
#
# Total GULP energy -347039.764596 kJ/mol
# GULP energy per Si atom -12394.277307 kJ/mol
# Density = 2.016779 g / cm^3
# Si number density = 20.213795 Si / 1000 Ang^3
#
#
#
# Elastic Constant Matrix: (Units=GPa)
#
#
# Indices 1 2 3 4 5 6 
#
# 1 161.5940 48.8023 49.2412 0.0000 -2.8740 0.0000
# 2 48.8023 72.8394 15.2285 0.0000 2.7039 0.0000
# 3 49.2412 15.2285 82.8251 0.0000 -2.3237 0.0000
# 4 0.0000 0.0000 0.0000 -1.6993 0.0000 -5.4267
# 5 -2.8740 2.7039 -2.3237 0.0000 27.1048 0.0000
# 6 0.0000 0.0000 0.0000 -5.4267 0.0000 8.2057
#
#
#
# Elastic Compliance Matrix: (Units=1/GPa)
#
#
# Indices 1 2 3 4 5 6 
#
# 1 0.009144 -0.005239 -0.004442 0.000000 0.001111 0.000000
# 2 -0.005239 0.017354 -0.000141 0.000000 -0.002299 0.000000
# 3 -0.004442 -0.000141 0.014763 0.000000 0.000809 0.000000
# 4 0.000000 0.000000 0.000000 -0.189099 0.000000 -0.125058
# 5 0.001111 -0.002299 0.000809 0.000000 0.037310 0.000000
# 6 0.000000 0.000000 0.000000 -0.125058 0.000000 0.039161
#
#
# Mechanical properties :
#
#
# Convention : Reuss Voigt Hill
#
# Bulk Modulus (GPa) = 46.25807 60.42250 53.34028
# Shear Modulus (GPa) = -112.31202 20.32132 -45.99535
#
# Velocity S-wave (km/s) = -7.46208 3.17412 -4.77534
# Velocity P-wave (km/s) = 7.16306 6.58711 1.98992
#
# Compressibility (1/GPa) = 0.02161785
#
# Stress axis : x y z
#
# Youngs Moduli (GPa) = 109.36363 57.62482 67.73750
#
# Poissons Ratio (x) = 0.30189 0.30087
# Poissons Ratio (y) = 0.57295 0.00952
# Poissons Ratio (z) = 0.48577 0.00810
#
# Static dielectric constant tensor:
#      x y z
#    x 4.059540 0.000000 -0.279940 
#    y 0.000000 3.615220 0.000000 
#    z -0.279940 0.000000 3.804780 
# 
# 
# High freq. dielectric constant tensor:
#      x y z
#    x 1.780620 0.000000 -0.000400 
#    y 0.000000 1.781540 0.000000 
#    z -0.000400 0.000000 1.776110 
# 
# From -- ./inp_files/246601.got.cif
#   From: 2010.06.25/outbox.cif.g09.slc.cpg/sg12_124_cif.got.tgz:246601.got - 2010.06.28 00:19:55.
