data_PCOD8110074
_publ_section_title
;
Structure prediction by ZEFSAII (Michael W. Deem and Ramdas Pophale) SiO2 
 PCOD8110074
Probable space group: C 2/M
;
_chemical_formula_sum "Si O2"
_cell_formula_units_Z 56
_cell_length_a 18.501090
_cell_length_b 8.799853
_cell_length_c 18.022593
_cell_angle_alpha 90.000000
_cell_angle_beta 67.737075
_cell_angle_gamma 90.000000
_cell_volume 2715.472096
_symmetry_space_group_name_H-M "C 2/M"
_symmetry_group_IT_number 12
_symmetry_cell_setting 'monoclinic'
loop_
_space_group_symop_operation_xyz
x,y,z
-x,y,-z
-x,-y,-z
x,-y,z
1/2+x,1/2+y,z
1/2-x,1/2+y,-z
1/2-x,1/2-y,-z
1/2+x,1/2-y,z
loop_
_atom_site_type_symbol
_atom_site_label
_atom_site_fract_x
_atom_site_fract_y
_atom_site_fract_z
Si Si1 0.942844 0.828737 0.461550
Si Si2 0.270038 0.329418 0.567934
Si Si3 0.080736 0.823569 0.008135
Si Si4 0.469612 0.178588 0.296296
Si Si5 0.108693 0.824731 0.166392
Si Si6 0.284631 0.178137 0.133776
Si Si7 0.670809 0.678988 0.729880
O O1 0.862445 0.833221 0.537290
O O2 0.940472 0.728337 0.388750
O O3 0.000000 0.755307 0.500000
O O4 0.968382 0.000000 0.429123
O O5 0.234661 0.500000 0.584538
O O6 0.250000 0.250000 0.500000
O O7 0.237486 0.232274 0.648016
O O8 0.151605 0.720418 0.952417
O O9 0.099182 0.000000 0.984302
O O10 0.074575 0.792481 0.098018
O O11 0.000000 0.774487 0.000000
O O12 0.557986 0.230969 0.245614
O O13 0.412672 0.248888 0.256767
O O14 0.464784 0.000000 0.292995
O O15 0.199182 0.775267 0.136709
O O16 0.099944 0.000000 0.191006
O O17 0.303214 0.274391 0.198945
O O18 0.289066 0.000000 0.150160
O O19 0.661213 0.500000 0.728492
#
# Coordination Sequence:
#
# PCOD8110074 Si02
#       7
#     8   8   8   8   8   8   8
#     4  10  23  42  64  89 123 168 210 254 315 376
#     4  11  22  39  64  93 124 163 209 261 316 374
#     4  10  21  40  67  96 126 167 212 254 307 373
#     4  12  25  41  64  94 126 162 212 265 313 374
#     4  10  23  42  64  92 132 172 206 251 314 375
#     4  11  24  41  64  95 129 167 210 260 311 369
#     4  12  25  42  64  89 125 168 212 264 318 374
#
# _framework density 20.622564000000001
#
# number of rings (size 3 to 8) (size 9 to 14) (size 15 to 20)
#    0.000    1.143    1.429    4.714    2.000    4.000 
#    0.000    0.000    0.000    0.000    0.000    0.000 
#    0.000    0.000    0.000    0.000    0.000    0.000 
#
# Total GULP energy -347333.990451 kJ/mol
# GULP energy per Si atom -12404.785373 kJ/mol
# Density = 2.057563 g / cm^3
# Si number density = 20.622564 Si / 1000 Ang^3
#
#
#
# Elastic Constant Matrix: (Units=GPa)
#
#
# Indices 1 2 3 4 5 6 
#
# 1 123.9348 42.5608 25.2947 0.0001 -3.9078 0.0001
# 2 42.5608 125.1057 36.6124 0.0002 -6.1843 0.0003
# 3 25.2947 36.6124 79.4194 0.0000 -11.7577 0.0001
# 4 0.0001 0.0002 0.0000 37.5102 0.0000 -4.0962
# 5 -3.9078 -6.1843 -11.7577 0.0000 40.5382 0.0000
# 6 0.0001 0.0003 0.0001 -4.0962 0.0000 29.6678
#
#
#
# Elastic Compliance Matrix: (Units=1/GPa)
#
#
# Indices 1 2 3 4 5 6 
#
# 1 0.009341 -0.002667 -0.001748 0.000000 -0.000013 0.000000
# 2 -0.002667 0.010003 -0.003734 0.000000 0.000186 0.000000
# 3 -0.001748 -0.003734 0.015422 0.000000 0.003735 0.000000
# 4 0.000000 0.000000 0.000000 0.027068 0.000000 0.003737
# 5 -0.000013 0.000186 0.003735 0.000000 0.025778 0.000000
# 6 0.000000 0.000000 0.000000 0.003737 0.000000 0.034223
#
#
# Mechanical properties :
#
#
# Convention : Reuss Voigt Hill
#
# Bulk Modulus (GPa) = 54.14679 59.71064 56.92871
# Shear Modulus (GPa) = 34.65289 36.47603 35.56446
#
# Velocity S-wave (km/s) = 4.10364 4.21021 4.15726
# Velocity P-wave (km/s) = 6.98328 7.25612 7.12101
#
# Compressibility (1/GPa) = 0.01846832
#
# Stress axis : x y z
#
# Youngs Moduli (GPa) = 107.05631 99.97424 64.84072
#
# Poissons Ratio (x) = 0.26663 0.11331
# Poissons Ratio (y) = 0.28552 0.24213
# Poissons Ratio (z) = 0.18708 0.37333
#
# Static dielectric constant tensor:
#      x y z
#    x 58.449710 0.000000 -42.916940 
#    y 0.000000 3.757550 0.000000 
#    z -42.916940 0.000000 37.310090 
# 
# 
# High freq. dielectric constant tensor:
#      x y z
#    x 1.820270 0.000000 -0.003960 
#    y 0.000000 1.806700 0.000000 
#    z -0.003960 0.000000 1.813570 
# 
# From -- ./inp_files/275342.got.cif
#   From: 2010.06.25/outbox.cif.g09.slc.cpg/sg12_138_cif.got.tgz:275342.got - 2010.06.28 00:19:55.
