data_PCOD8110895
_publ_section_title
;
Structure prediction by ZEFSAII (Michael W. Deem and Ramdas Pophale) SiO2 
 PCOD8110895
Probable space group: C 2/M
;
_chemical_formula_sum "Si O2"
_cell_formula_units_Z 32
_cell_length_a 14.732748
_cell_length_b 15.298239
_cell_length_c 11.120631
_cell_angle_alpha 90.000000
_cell_angle_beta 36.818572
_cell_angle_gamma 90.000000
_cell_volume 1502.057908
_symmetry_space_group_name_H-M "C 2/M"
_symmetry_group_IT_number 12
_symmetry_cell_setting 'monoclinic'
loop_
_space_group_symop_operation_xyz
x,y,z
-x,y,-z
-x,-y,-z
x,-y,z
1/2+x,1/2+y,z
1/2-x,1/2+y,-z
1/2-x,1/2-y,-z
1/2+x,1/2-y,z
loop_
_atom_site_type_symbol
_atom_site_label
_atom_site_fract_x
_atom_site_fract_y
_atom_site_fract_z
Si Si1 0.500000 0.719917 0.000000
Si Si2 0.828517 0.000000 0.838335
Si Si3 0.000000 0.722805 0.500000
Si Si4 0.682644 0.500000 0.428376
Si Si5 0.235104 0.189401 0.403320
Si Si6 0.769311 0.164899 0.060215
O O1 0.634085 0.785160 0.826151
O O2 0.570154 0.662287 0.035462
O O3 0.771866 0.000000 0.760699
O O4 0.763539 0.083413 0.977270
O O5 0.007343 0.000000 0.643883
O O6 0.071924 0.790463 0.518792
O O7 0.126986 0.660956 0.303891
O O8 0.751401 0.586865 0.417465
O O9 0.250000 0.250000 0.500000
O O10 0.750000 0.250000 0.000000
#
# Coordination Sequence:
#
# PCOD8110895 Si02
#       6
#     4   4   4   4   8   8
#     4  10  22  38  60  88 122 162 202 244 302 368
#     4  11  22  38  64  90 118 159 204 254 308 360
#     4  10  22  40  62  88 124 164 204 248 302 366
#     4  11  22  37  62  93 118 154 208 252 300 367
#     4  11  22  40  63  89 123 159 198 250 304 357
#     4  11  22  40  63  89 124 163 204 255 308 358
#
# _framework density 21.304106000000001
#
# number of rings (size 3 to 8) (size 9 to 14) (size 15 to 20)
#    0.000    1.250    0.000    9.000    0.000    1.500 
#    0.000   10.000    0.000    0.000    0.000    0.000 
#    0.000    0.000    0.000    0.000    0.000    0.000 
#
# Total GULP energy -198369.042434 kJ/mol
# GULP energy per Si atom -12398.065152 kJ/mol
# Density = 2.125562 g / cm^3
# Si number density = 21.304106 Si / 1000 Ang^3
#
#
#
# Elastic Constant Matrix: (Units=GPa)
#
#
# Indices 1 2 3 4 5 6 
#
# 1 129.1192 57.0755 29.9106 -0.0003 1.4945 0.0001
# 2 57.0755 186.0299 49.0097 -0.0001 20.4117 0.0001
# 3 29.9106 49.0097 78.6726 -0.0005 4.7517 0.0002
# 4 -0.0003 -0.0001 -0.0005 23.5027 0.0004 9.2350
# 5 1.4945 20.4117 4.7517 0.0004 34.0077 -0.0002
# 6 0.0001 0.0001 0.0002 9.2350 -0.0002 34.0843
#
#
#
# Elastic Compliance Matrix: (Units=1/GPa)
#
#
# Indices 1 2 3 4 5 6 
#
# 1 0.009296 -0.002450 -0.002090 0.000000 0.001354 0.000000
# 2 -0.002450 0.007473 -0.003489 0.000000 -0.003890 0.000000
# 3 -0.002090 -0.003489 0.015679 0.000000 -0.000005 0.000000
# 4 0.000000 0.000000 0.000000 0.047618 -0.000001 -0.012902
# 5 0.001354 -0.003890 -0.000005 -0.000001 0.031681 0.000000
# 6 0.000000 0.000000 0.000000 -0.012902 0.000000 0.032835
#
#
# Mechanical properties :
#
#
# Convention : Reuss Voigt Hill
#
# Bulk Modulus (GPa) = 61.00988 73.97927 67.49457
# Shear Modulus (GPa) = 30.10157 35.50733 32.80445
#
# Velocity S-wave (km/s) = 3.76300 4.08694 3.92831
# Velocity P-wave (km/s) = 6.89782 7.55457 7.23365
#
# Compressibility (1/GPa) = 0.01639079
#
# Stress axis : x y z
#
# Youngs Moduli (GPa) = 107.56983 133.81030 63.77864
#
# Poissons Ratio (x) = 0.32786 0.13328
# Poissons Ratio (y) = 0.26357 0.22252
# Poissons Ratio (z) = 0.22480 0.46687
#
# Static dielectric constant tensor:
#      x y z
#    x 3.978190 0.000000 -0.018480 
#    y 0.000000 5.020230 0.000010 
#    z -0.018480 0.000010 5.352250 
# 
# 
# High freq. dielectric constant tensor:
#      x y z
#    x 1.830850 0.000000 0.004980 
#    y 0.000000 1.822500 0.000000 
#    z 0.004980 0.000000 1.855400 
# 
# From -- ./inp_files/142483.got.cif
#   From: 2010.06.25/outbox.cif.g09.slc.cpg/sg12_72_cif.got.tgz:142483.got - 2010.06.28 00:19:55.
