data_PCOD8110729
_publ_section_title
;
Structure prediction by ZEFSAII (Michael W. Deem and Ramdas Pophale) SiO2 
 PCOD8110729
Probable space group: C 2/M
;
_chemical_formula_sum "Si O2"
_cell_formula_units_Z 40
_cell_length_a 12.251087
_cell_length_b 27.107543
_cell_length_c 7.723270
_cell_angle_alpha 90.000000
_cell_angle_beta 132.990763
_cell_angle_gamma 90.000000
_cell_volume 1876.111911
_symmetry_space_group_name_H-M "C 2/M"
_symmetry_group_IT_number 12
_symmetry_cell_setting 'monoclinic'
loop_
_space_group_symop_operation_xyz
x,y,z
-x,y,-z
-x,-y,-z
x,-y,z
1/2+x,1/2+y,z
1/2-x,1/2+y,-z
1/2-x,1/2-y,-z
1/2+x,1/2-y,z
loop_
_atom_site_type_symbol
_atom_site_label
_atom_site_fract_x
_atom_site_fract_y
_atom_site_fract_z
Si Si1 0.834315 0.696900 0.269470
Si Si2 0.871634 0.055985 0.661093
Si Si3 0.827619 0.601177 0.842159
Si Si4 0.335523 0.212443 0.870550
Si Si5 0.684485 0.598589 0.053517
O O1 0.779976 0.745152 0.320398
O O2 0.718009 0.652388 0.170366
O O3 0.000000 0.680031 0.500000
O O4 0.833846 0.711418 0.072310
O O5 0.765951 0.066732 0.385249
O O6 0.785641 0.061566 0.752692
O O7 0.928912 0.000000 0.705866
O O8 0.012598 0.093139 0.807620
O O9 0.792853 0.658205 0.752489
O O10 0.789607 0.588646 0.001137
O O11 0.000000 0.589107 0.000000
O O12 0.500000 0.229144 0.000000
#
# Coordination Sequence:
#
# PCOD8110729 Si02
#       5
#     8   8   8   8   8
#     4  10  22  37  60  93 127 166 208 253 312 373
#     4  11  25  44  68  93 122 169 221 270 323 380
#     4  10  23  42  66  96 132 167 210 264 324 377
#     4   9  21  38  57  91 128 165 209 248 304 381
#     4  10  23  41  65  93 128 165 213 264 316 383
#
# _framework density 21.320689999999999
#
# number of rings (size 3 to 8) (size 9 to 14) (size 15 to 20)
#    0.000    2.000    0.000    1.800   11.200    8.400 
#    0.000    1.000    0.000    0.000    0.000    0.000 
#    0.000    0.000    0.000    0.000    0.000    0.000 
#
# Total GULP energy -247892.208136 kJ/mol
# GULP energy per Si atom -12394.610407 kJ/mol
# Density = 2.127216 g / cm^3
# Si number density = 21.320690 Si / 1000 Ang^3
#
#
#
# Elastic Constant Matrix: (Units=GPa)
#
#
# Indices 1 2 3 4 5 6 
#
# 1 90.4355 36.1208 21.4964 0.0000 14.5171 0.0000
# 2 36.1208 117.9722 55.1202 0.0000 22.6294 0.0000
# 3 21.4964 55.1202 87.7625 0.0000 13.3332 0.0000
# 4 0.0000 0.0000 0.0000 29.7532 0.0000 -1.5402
# 5 14.5171 22.6294 13.3332 0.0000 31.6561 0.0000
# 6 0.0000 0.0000 0.0000 -1.5402 0.0000 25.3078
#
#
#
# Elastic Compliance Matrix: (Units=1/GPa)
#
#
# Indices 1 2 3 4 5 6 
#
# 1 0.012982 -0.002920 -0.000810 0.000000 -0.003525 0.000000
# 2 -0.002920 0.013730 -0.007073 0.000000 -0.005496 0.000000
# 3 -0.000810 -0.007073 0.016250 0.000000 -0.001417 0.000000
# 4 0.000000 0.000000 0.000000 0.033716 0.000000 0.002052
# 5 -0.003525 -0.005496 -0.001417 0.000000 0.037732 0.000000
# 6 0.000000 0.000000 0.000000 0.002052 0.000000 0.039638
#
#
# Mechanical properties :
#
#
# Convention : Reuss Voigt Hill
#
# Bulk Modulus (GPa) = 46.82586 57.96057 52.39321
# Shear Modulus (GPa) = 27.35623 29.57226 28.46425
#
# Velocity S-wave (km/s) = 3.58590 3.72831 3.65780
# Velocity P-wave (km/s) = 6.25741 6.76594 6.51664
#
# Compressibility (1/GPa) = 0.02135572
#
# Stress axis : x y z
#
# Youngs Moduli (GPa) = 77.02743 72.83525 61.53765
#
# Poissons Ratio (x) = 0.21270 0.04986
# Poissons Ratio (y) = 0.22494 0.43524
# Poissons Ratio (z) = 0.06241 0.51514
#
# Static dielectric constant tensor:
#      x y z
#    x 3.920900 0.000000 -0.096090 
#    y 0.000000 4.321460 0.000000 
#    z -0.096090 0.000000 3.593030 
# 
# 
# High freq. dielectric constant tensor:
#      x y z
#    x 1.846770 0.000000 -0.004440 
#    y 0.000000 1.833750 0.000000 
#    z -0.004440 0.000000 1.823600 
# 
# From -- ./inp_files/53964.got.cif
#   From: 2010.06.25/outbox.cif.g09.slc.cpg/sg12_27_cif.got.tgz:53964.got - 2010.06.28 00:19:55.
