data_PCOD8110980
_publ_section_title
;
Structure prediction by ZEFSAII (Michael W. Deem and Ramdas Pophale) SiO2 
 PCOD8110980
Probable space group: C 2/M
;
_chemical_formula_sum "Si O2"
_cell_formula_units_Z 40
_cell_length_a 19.616021
_cell_length_b 21.412040
_cell_length_c 5.566808
_cell_angle_alpha 90.000000
_cell_angle_beta 53.373866
_cell_angle_gamma 90.000000
_cell_volume 1876.483878
_symmetry_space_group_name_H-M "C 2/M"
_symmetry_group_IT_number 12
_symmetry_cell_setting 'monoclinic'
loop_
_space_group_symop_operation_xyz
x,y,z
-x,y,-z
-x,-y,-z
x,-y,z
1/2+x,1/2+y,z
1/2-x,1/2+y,-z
1/2-x,1/2-y,-z
1/2+x,1/2-y,z
loop_
_atom_site_type_symbol
_atom_site_label
_atom_site_fract_x
_atom_site_fract_y
_atom_site_fract_z
Si Si1 0.239294 0.431394 0.924457
Si Si2 0.063907 0.568526 0.556922
Si Si3 0.053001 0.253491 0.140341
Si Si4 0.153539 0.641809 0.726740
Si Si5 0.716824 0.309245 0.918492
O O1 0.285804 0.500000 0.821570
O O2 0.208584 0.414740 0.720427
O O3 0.158543 0.437575 0.262608
O O4 0.294715 0.373204 0.902787
O O5 0.028157 0.500000 0.702962
O O6 0.070343 0.613816 0.770428
O O7 0.000000 0.599709 0.500000
O O8 0.000000 0.252615 0.500000
O O9 0.111162 0.315855 0.022058
O O10 0.122670 0.198367 0.005984
O O11 0.000000 0.246714 0.000000
O O12 0.213123 0.684154 0.435959
O O13 0.750000 0.250000 0.000000
#
# Coordination Sequence:
#
# PCOD8110980 Si02
#       5
#     8   8   8   8   8
#     4  10  22  38  64  95 130 173 227 274 335 404
#     4   9  20  36  54  87 135 181 220 266 325 400
#     4  12  28  42  67 104 138 174 226 285 348 400
#     4  11  23  37  67  91 133 172 230 270 341 403
#     4  11  23  45  68  95 134 182 227 282 334 408
#
# _framework density 21.316462999999999
#
# number of rings (size 3 to 8) (size 9 to 14) (size 15 to 20)
#    0.000    1.400    2.000    2.400    8.400    0.800 
#    0.000    3.000    0.000    3.000    0.000    0.000 
#    0.000    0.000    0.000    0.000    0.000    0.000 
#
# Total GULP energy -247811.721771 kJ/mol
# GULP energy per Si atom -12390.586089 kJ/mol
# Density = 2.126795 g / cm^3
# Si number density = 21.316463 Si / 1000 Ang^3
#
#
#
# Elastic Constant Matrix: (Units=GPa)
#
#
# Indices 1 2 3 4 5 6 
#
# 1 116.5002 65.8138 43.7810 0.0000 11.8039 0.0000
# 2 65.8138 160.0395 37.8011 0.0000 4.1365 0.0000
# 3 43.7810 37.8011 88.1409 0.0000 6.8942 0.0000
# 4 0.0000 0.0000 0.0000 68.0528 0.0000 131.7516
# 5 11.8039 4.1365 6.8942 0.0000 28.9549 0.0000
# 6 0.0000 0.0000 0.0000 131.7516 0.0000 295.7543
#
#
#
# Elastic Compliance Matrix: (Units=1/GPa)
#
#
# Indices 1 2 3 4 5 6 
#
# 1 0.012967 -0.004211 -0.004349 0.000000 -0.003649 0.000000
# 2 -0.004211 0.008322 -0.001548 0.000000 0.000896 0.000000
# 3 -0.004349 -0.001548 0.014280 0.000000 -0.001406 0.000000
# 4 0.000000 0.000000 0.000000 0.106831 0.000000 -0.047591
# 5 -0.003649 0.000896 -0.001406 0.000000 0.036231 0.000000
# 6 0.000000 0.000000 0.000000 -0.047591 0.000000 0.024582
#
#
# Mechanical properties :
#
#
# Convention : Reuss Voigt Hill
#
# Bulk Modulus (GPa) = 65.13475 73.27471 69.20473
# Shear Modulus (GPa) = 21.87742 93.03805 57.45774
#
# Velocity S-wave (km/s) = 3.20709 6.61369 5.19742
# Velocity P-wave (km/s) = 6.65855 9.63174 8.27970
#
# Compressibility (1/GPa) = 0.01535279
#
# Stress axis : x y z
#
# Youngs Moduli (GPa) = 77.12094 120.15662 70.02940
#
# Poissons Ratio (x) = 0.50594 0.30459
# Poissons Ratio (y) = 0.32473 0.10840
# Poissons Ratio (z) = 0.33544 0.18599
#
# Static dielectric constant tensor:
#      x y z
#    x 4.101350 0.000000 0.217800 
#    y 0.000000 4.611620 0.000000 
#    z 0.217800 0.000000 3.744410 
# 
# 
# High freq. dielectric constant tensor:
#      x y z
#    x 1.827230 0.000000 0.024360 
#    y 0.000000 1.840430 0.000000 
#    z 0.024360 0.000000 1.826160 
# 
# From -- ./inp_files/15294.got.cif
#   From: 2010.06.25/outbox.cif.g09.slc.cpg/sg12_8_cif.got.tgz:15294.got - 2010.06.28 00:19:55.
