data_PCOD8110905
_publ_section_title
;
Structure prediction by ZEFSAII (Michael W. Deem and Ramdas Pophale) SiO2 
 PCOD8110905
Probable space group: C 2/M
;
_chemical_formula_sum "Si O2"
_cell_formula_units_Z 48
_cell_length_a 27.524234
_cell_length_b 16.547570
_cell_length_c 9.475472
_cell_angle_alpha 90.000000
_cell_angle_beta 145.518714
_cell_angle_gamma 90.000000
_cell_volume 2443.272366
_symmetry_space_group_name_H-M "C 2/M"
_symmetry_group_IT_number 12
_symmetry_cell_setting 'monoclinic'
loop_
_space_group_symop_operation_xyz
x,y,z
-x,y,-z
-x,-y,-z
x,-y,z
1/2+x,1/2+y,z
1/2-x,1/2+y,-z
1/2-x,1/2-y,-z
1/2+x,1/2-y,z
loop_
_atom_site_type_symbol
_atom_site_label
_atom_site_fract_x
_atom_site_fract_y
_atom_site_fract_z
Si Si1 0.019503 0.822740 0.889731
Si Si2 0.296567 0.906107 0.757408
Si Si3 0.306966 0.689877 0.043179
Si Si4 0.353135 0.406962 0.409980
Si Si5 0.799132 0.903838 0.751439
Si Si6 0.443129 0.196251 0.238434
O O1 0.002887 0.745165 0.749624
O O2 0.949006 0.889877 0.687983
O O3 0.112439 0.864137 0.092841
O O4 0.000000 0.791544 0.000000
O O5 0.220008 0.865376 0.666523
O O6 0.275049 0.889549 0.542179
O O7 0.306037 0.000000 0.810355
O O8 0.386756 0.868305 0.019221
O O9 0.264161 0.644372 0.805852
O O10 0.250000 0.750000 0.000000
O O11 0.340331 0.617191 0.218518
O O12 0.388526 0.737784 0.188345
O O13 0.336890 0.500000 0.388805
O O14 0.812451 0.000000 0.811100
O O15 0.500000 0.154890 0.500000
#
# Coordination Sequence:
#
# PCOD8110905 Si02
#       6
#     8   8   8   8   8   8
#     4  11  22  36  60  92 126 159 191 241 304 361
#     4  10  22  40  62  86 116 158 204 250 295 350
#     4  11  22  38  59  87 123 159 200 245 300 352
#     4  11  21  36  60  90 120 158 200 240 297 364
#     4  10  22  38  60  90 124 159 196 243 300 359
#     4  11  23  40  59  86 120 158 204 247 297 352
#
# _framework density 19.645783000000002
#
# number of rings (size 3 to 8) (size 9 to 14) (size 15 to 20)
#    0.000    1.333    5.000    1.000    0.000    5.000 
#    0.000    2.500    0.000    0.500    0.000    0.000 
#    0.000    0.000    0.000    0.000    0.000    0.000 
#
# Total GULP energy -297444.077155 kJ/mol
# GULP energy per Si atom -12393.503215 kJ/mol
# Density = 1.960107 g / cm^3
# Si number density = 19.645783 Si / 1000 Ang^3
#
#
#
# Elastic Constant Matrix: (Units=GPa)
#
#
# Indices 1 2 3 4 5 6 
#
# 1 104.8533 42.2322 40.3235 0.0000 -28.8417 0.0000
# 2 42.2322 67.7609 49.6566 0.0000 -10.3402 0.0000
# 3 40.3235 49.6566 136.6787 0.0000 -24.6806 0.0000
# 4 0.0000 0.0000 0.0000 38.8180 0.0000 -3.6050
# 5 -28.8417 -10.3402 -24.6806 0.0000 30.0386 0.0000
# 6 0.0000 0.0000 0.0000 -3.6050 0.0000 29.2303
#
#
#
# Elastic Compliance Matrix: (Units=1/GPa)
#
#
# Indices 1 2 3 4 5 6 
#
# 1 0.016469 -0.008766 0.000747 0.000000 0.013409 0.000000
# 2 -0.008766 0.024808 -0.007520 0.000000 -0.006056 0.000000
# 3 0.000747 -0.007520 0.011144 0.000000 0.007285 0.000000
# 4 0.000000 0.000000 0.000000 0.026060 0.000000 0.003214
# 5 0.013409 -0.006056 0.007285 0.000000 0.050066 0.000000
# 6 0.000000 0.000000 0.000000 0.003214 0.000000 0.034607
#
#
# Mechanical properties :
#
#
# Convention : Reuss Voigt Hill
#
# Bulk Modulus (GPa) = 46.85400 63.74638 55.30019
# Shear Modulus (GPa) = 24.83298 31.42275 28.12787
#
# Velocity S-wave (km/s) = 3.55919 4.00367 3.78795
# Velocity P-wave (km/s) = 6.38683 7.34104 6.88049
#
# Compressibility (1/GPa) = 0.02134290
#
# Stress axis : x y z
#
# Youngs Moduli (GPa) = 60.72119 40.30968 89.73762
#
# Poissons Ratio (x) = 0.35334 -0.06706
# Poissons Ratio (y) = 0.53226 0.67486
# Poissons Ratio (z) = -0.04538 0.30314
#
# Static dielectric constant tensor:
#      x y z
#    x 3.446850 0.000000 -0.192700 
#    y 0.000000 3.544590 0.000000 
#    z -0.192700 0.000000 3.630080 
# 
# 
# High freq. dielectric constant tensor:
#      x y z
#    x 1.767780 0.000000 -0.021250 
#    y 0.000000 1.755650 0.000000 
#    z -0.021250 0.000000 1.769720 
# 
# From -- ./inp_files/87757.got.cif
#   From: 2010.06.25/outbox.cif.g09.slc.cpg/sg12_44_cif.got.tgz:87757.got - 2010.06.28 00:19:55.
