data_PCOD8110744
_publ_section_title
;
Structure prediction by ZEFSAII (Michael W. Deem and Ramdas Pophale) SiO2 
 PCOD8110744
Probable space group: C 2/M
;
_chemical_formula_sum "Si O2"
_cell_formula_units_Z 64
_cell_length_a 8.182648
_cell_length_b 26.455062
_cell_length_c 13.609344
_cell_angle_alpha 90.000000
_cell_angle_beta 81.264992
_cell_angle_gamma 90.000000
_cell_volume 2911.877793
_symmetry_space_group_name_H-M "C 2/M"
_symmetry_group_IT_number 12
_symmetry_cell_setting 'monoclinic'
loop_
_space_group_symop_operation_xyz
x,y,z
-x,y,-z
-x,-y,-z
x,-y,z
1/2+x,1/2+y,z
1/2-x,1/2+y,-z
1/2-x,1/2-y,-z
1/2+x,1/2-y,z
loop_
_atom_site_type_symbol
_atom_site_label
_atom_site_fract_x
_atom_site_fract_y
_atom_site_fract_z
Si Si1 0.236811 0.871186 0.133357
Si Si2 0.209712 0.589265 0.286662
Si Si3 0.134283 0.557204 0.737268
Si Si4 0.672380 0.197385 0.035035
Si Si5 0.072634 0.801716 0.286850
Si Si6 0.545820 0.441595 0.882904
Si Si7 0.975727 0.095095 0.614781
Si Si8 0.783314 0.299937 0.743763
O O1 0.386334 0.905481 0.164605
O O2 0.239487 0.852710 0.019793
O O3 0.217862 0.821072 0.201529
O O4 0.078240 0.906828 0.168915
O O5 0.272654 0.577388 0.168467
O O6 0.361835 0.571801 0.343800
O O7 0.172685 0.647966 0.314107
O O8 0.032018 0.561846 0.315398
O O9 0.148004 0.500000 0.773880
O O10 0.299875 0.571297 0.662292
O O11 0.500000 0.194578 0.000000
O O12 0.750000 0.250000 0.000000
O O13 0.651688 0.193661 0.152099
O O14 0.035113 0.843482 0.373488
O O15 0.131862 0.747055 0.322114
O O16 0.912513 0.791793 0.234602
O O17 0.521647 0.500000 0.857152
O O18 0.500000 0.432786 0.000000
O O19 0.000000 0.081218 0.500000
#
# Coordination Sequence:
#
# PCOD8110744 Si02
#       8
#     8   8   8   8   8   8   8   8
#     4  11  22  38  57  88 132 172 216 273 323 390
#     4  11  23  43  69  97 133 176 222 281 337 400
#     4  11  24  43  72  99 130 176 226 281 345 409
#     4  12  24  33  53  88 128 174 223 276 320 386
#     4  10  22  37  62  89 122 173 210 265 331 398
#     4  11  22  39  64  91 127 178 228 272 327 391
#     4  10  24  47  70 100 139 169 218 282 351 421
#     4  11  21  37  59  88 127 173 218 265 328 387
#
# _framework density 21.978943999999998
#
# number of rings (size 3 to 8) (size 9 to 14) (size 15 to 20)
#    0.000    1.125    5.000    3.000    3.500    1.250 
#    0.000    3.125    0.000    3.750    0.000    0.000 
#    0.000    0.000    0.000    0.000    0.000    0.000 
#
# Total GULP energy -396435.137080 kJ/mol
# GULP energy per Si atom -12388.598034 kJ/mol
# Density = 2.192892 g / cm^3
# Si number density = 21.978944 Si / 1000 Ang^3
#
#
#
# Elastic Constant Matrix: (Units=GPa)
#
#
# Indices 1 2 3 4 5 6 
#
# 1 131.6695 38.3058 24.0316 0.0000 3.9092 0.0000
# 2 38.3058 128.4941 10.6909 0.0000 -3.2047 0.0000
# 3 24.0316 10.6909 63.4017 0.0000 1.5168 0.0000
# 4 0.0000 0.0000 0.0000 17.9387 0.0000 -0.5016
# 5 3.9092 -3.2047 1.5168 0.0000 18.3101 0.0000
# 6 0.0000 0.0000 0.0000 -0.5016 0.0000 29.7277
#
#
#
# Elastic Compliance Matrix: (Units=1/GPa)
#
#
# Indices 1 2 3 4 5 6 
#
# 1 0.008905 -0.002465 -0.002910 0.000000 -0.002092 0.000000
# 2 -0.002465 0.008616 -0.000568 0.000000 0.002081 0.000000
# 3 -0.002910 -0.000568 0.016992 0.000000 -0.000886 0.000000
# 4 0.000000 0.000000 0.000000 0.055772 0.000000 0.000941
# 5 -0.002092 0.002081 -0.000886 0.000000 0.055499 0.000000
# 6 0.000000 0.000000 0.000000 0.000941 0.000000 0.033655
#
#
# Mechanical properties :
#
#
# Convention : Reuss Voigt Hill
#
# Bulk Modulus (GPa) = 44.19309 52.18020 48.18664
# Shear Modulus (GPa) = 25.14234 29.89776 27.52005
#
# Velocity S-wave (km/s) = 3.38587 3.69221 3.54236
# Velocity P-wave (km/s) = 5.95283 6.47836 6.22114
#
# Compressibility (1/GPa) = 0.02262797
#
# Stress axis : x y z
#
# Youngs Moduli (GPa) = 112.29662 116.05709 58.84999
#
# Poissons Ratio (x) = 0.28605 0.17123
# Poissons Ratio (y) = 0.27679 0.03345
# Poissons Ratio (z) = 0.32675 0.06598
#
# Static dielectric constant tensor:
#      x y z
#    x 4.113280 0.000000 0.184130 
#    y 0.000000 4.219570 0.000000 
#    z 0.184130 0.000000 3.528320 
# 
# 
# High freq. dielectric constant tensor:
#      x y z
#    x 1.873040 0.000000 0.004230 
#    y 0.000000 1.880630 0.000000 
#    z 0.004230 0.000000 1.814970 
# 
# From -- ./inp_files/199839.got.cif
#   From: 2010.06.25/outbox.cif.g09.slc.cpg/sg12_100_cif.got.tgz:199839.got - 2010.06.28 00:19:55.
