data_PCOD8110438
_publ_section_title
;
Structure prediction by ZEFSAII (Michael W. Deem and Ramdas Pophale) SiO2 
 PCOD8110438
Probable space group: C 2/M
;
_chemical_formula_sum "Si O2"
_cell_formula_units_Z 48
_cell_length_a 21.102361
_cell_length_b 16.650583
_cell_length_c 18.280513
_cell_angle_alpha 90.000000
_cell_angle_beta 20.476217
_cell_angle_gamma 90.000000
_cell_volume 2246.941173
_symmetry_space_group_name_H-M "C 2/M"
_symmetry_group_IT_number 12
_symmetry_cell_setting 'monoclinic'
loop_
_space_group_symop_operation_xyz
x,y,z
-x,y,-z
-x,-y,-z
x,-y,z
1/2+x,1/2+y,z
1/2-x,1/2+y,-z
1/2-x,1/2-y,-z
1/2+x,1/2-y,z
loop_
_atom_site_type_symbol
_atom_site_label
_atom_site_fract_x
_atom_site_fract_y
_atom_site_fract_z
Si Si1 0.338249 0.157663 0.570071
Si Si2 0.379433 0.345758 0.702632
Si Si3 0.491630 0.090706 0.927811
Si Si4 0.226019 0.669467 0.194619
Si Si5 0.169292 0.828026 0.499006
Si Si6 0.926845 0.091486 0.250539
O O1 0.540640 0.126428 0.368571
O O2 0.244821 0.173686 0.749453
O O3 0.339668 0.236266 0.516948
O O4 0.226785 0.091122 0.646222
O O5 0.500000 0.337024 0.500000
O O6 0.283087 0.260846 0.824438
O O7 0.516713 0.375536 0.617146
O O8 0.216208 0.408961 0.874512
O O9 0.626236 0.141132 0.731996
O O10 0.562888 0.000000 0.850595
O O11 0.500000 0.127843 0.000000
O O12 0.385447 0.619106 0.987004
O O13 0.121809 0.843611 0.634592
O O14 0.941595 0.000000 0.264344
#
# Coordination Sequence:
#
# PCOD8110438 Si02
#       6
#     8   8   8   8   8   8
#     4  10  21  42  70  93 120 167 224 274 312 368
#     4  11  20  40  68  94 121 161 216 276 318 366
#     4  11  22  34  57  90 126 169 212 258 314 378
#     4  10  21  42  69  97 120 161 224 273 318 369
#     4  11  23  43  64  93 130 169 214 266 318 380
#     4  12  27  41  61  96 141 176 204 255 328 397
#
# _framework density 21.362375
#
# number of rings (size 3 to 8) (size 9 to 14) (size 15 to 20)
#    0.000    1.167    5.000    2.500    0.000    7.667 
#    0.000    1.667    0.000    0.000    0.000    0.000 
#    0.000    0.000    0.000    0.000    0.000    0.000 
#
# Total GULP energy -297535.043178 kJ/mol
# GULP energy per Si atom -12397.293466 kJ/mol
# Density = 2.131375 g / cm^3
# Si number density = 21.362375 Si / 1000 Ang^3
#
#
#
# Elastic Constant Matrix: (Units=GPa)
#
#
# Indices 1 2 3 4 5 6 
#
# 1 81.1841 15.6521 55.4307 -0.0167 -8.8989 0.0069
# 2 15.6521 62.3136 35.3923 0.0188 6.0646 -0.0170
# 3 55.4307 35.3923 130.0929 0.0160 -4.2864 -0.0172
# 4 -0.0167 0.0188 0.0160 20.8587 -0.0109 -4.0810
# 5 -8.8989 6.0646 -4.2864 -0.0109 36.4345 0.0103
# 6 0.0069 -0.0170 -0.0172 -4.0810 0.0103 19.7024
#
#
#
# Elastic Compliance Matrix: (Units=1/GPa)
#
#
# Indices 1 2 3 4 5 6 
#
# 1 0.017822 -0.000689 -0.007287 0.000020 0.003610 -0.000011
# 2 -0.000689 0.019541 -0.005155 -0.000014 -0.004027 0.000012
# 3 -0.007287 -0.005155 0.012211 -0.000009 0.000515 0.000007
# 4 0.000020 -0.000014 -0.000009 0.049967 0.000018 0.010350
# 5 0.003610 -0.004027 0.000515 0.000018 0.029059 -0.000016
# 6 -0.000011 0.000012 0.000007 0.010350 -0.000016 0.052899
#
#
# Mechanical properties :
#
#
# Convention : Reuss Voigt Hill
#
# Bulk Modulus (GPa) = 42.89819 54.06008 48.47913
# Shear Modulus (GPa) = 23.19837 26.54014 24.86926
#
# Velocity S-wave (km/s) = 3.29894 3.52856 3.41568
# Velocity P-wave (km/s) = 5.88519 6.47782 6.18860
#
# Compressibility (1/GPa) = 0.02331101
#
# Stress axis : x y z
#
# Youngs Moduli (GPa) = 56.11100 51.17452 81.89138
#
# Poissons Ratio (x) = 0.03526 0.59676
# Poissons Ratio (y) = 0.03866 0.42218
# Poissons Ratio (z) = 0.40889 0.26382
#
# Static dielectric constant tensor:
#      x y z
#    x 4.089380 0.000000 -0.243670 
#    y 0.000000 3.546430 0.000030 
#    z -0.243670 0.000030 3.907280 
# 
# 
# High freq. dielectric constant tensor:
#      x y z
#    x 1.842320 0.000000 -0.014910 
#    y 0.000000 1.814070 0.000010 
#    z -0.014910 0.000010 1.845350 
# 
# From -- ./inp_files/285349.got.cif
#   From: 2010.06.25/outbox.cif.g09.slc.cpg/sg12_143_cif.got.tgz:285349.got - 2010.06.28 00:19:55.
