data_PCOD8110565
_publ_section_title
;
Structure prediction by ZEFSAII (Michael W. Deem and Ramdas Pophale) SiO2 
 PCOD8110565
Probable space group: C 2/M
;
_chemical_formula_sum "Si O2"
_cell_formula_units_Z 56
_cell_length_a 11.347575
_cell_length_b 20.895745
_cell_length_c 13.566612
_cell_angle_alpha 90.000000
_cell_angle_beta 108.142567
_cell_angle_gamma 90.000000
_cell_volume 3056.933868
_symmetry_space_group_name_H-M "C 2/M"
_symmetry_group_IT_number 12
_symmetry_cell_setting 'monoclinic'
loop_
_space_group_symop_operation_xyz
x,y,z
-x,y,-z
-x,-y,-z
x,-y,z
1/2+x,1/2+y,z
1/2-x,1/2+y,-z
1/2-x,1/2-y,-z
1/2+x,1/2-y,z
loop_
_atom_site_type_symbol
_atom_site_label
_atom_site_fract_x
_atom_site_fract_y
_atom_site_fract_z
Si Si1 0.886424 0.000000 0.346315
Si Si2 0.343187 0.500000 0.563198
Si Si3 0.591621 0.156921 0.409724
Si Si4 0.394178 0.926090 0.268585
Si Si5 0.740856 0.630052 0.380551
Si Si6 0.765574 0.131762 0.282727
Si Si7 0.454642 0.074677 0.879590
Si Si8 0.001699 0.795110 0.383444
O O1 0.820851 0.938146 0.288477
O O2 0.880111 0.000000 0.460642
O O3 0.027464 0.000000 0.342985
O O4 0.264688 0.562305 0.566334
O O5 0.511056 0.093672 0.367464
O O6 0.640183 0.163950 0.535274
O O7 0.714583 0.152218 0.375625
O O8 0.513401 0.220321 0.364863
O O9 0.276042 0.883367 0.274579
O O10 0.429118 0.913175 0.163912
O O11 0.363252 0.000000 0.278896
O O12 0.616623 0.670412 0.359073
O O13 0.653362 0.126586 0.174031
O O14 0.876745 0.182368 0.293874
O O15 0.411800 0.000000 0.858575
O O16 0.500000 0.090831 0.000000
O O17 0.000000 0.813067 0.500000
#
# Coordination Sequence:
#
# PCOD8110565 Si02
#       8
#     4   4   8   8   8   8   8   8
#     4  11  18  34  48  81 112 143 192 217 261 326
#     4  11  20  28  50  76 116 158 175 217 270 309
#     4  11  24  34  52  75 116 156 189 220 259 318
#     4  10  22  35  53  82 108 139 180 228 284 327
#     4  12  21  33  49  77 116 152 182 221 262 321
#     4  11  21  35  57  82 109 142 189 231 267 324
#     4   9  19  38  63  86 107 134 177 236 289 332
#     4  12  23  37  51  76 116 162 193 213 252 319
#
# _framework density 18.319009999999999
#
# number of rings (size 3 to 8) (size 9 to 14) (size 15 to 20)
#    0.000    1.143    5.714    1.714    4.000    0.571 
#    0.000    0.000    0.000    4.286    0.000    4.000 
#    0.000    0.000    0.000    0.000    0.000    0.000 
#
# Total GULP energy -347000.762116 kJ/mol
# GULP energy per Si atom -12392.884361 kJ/mol
# Density = 1.827732 g / cm^3
# Si number density = 18.319010 Si / 1000 Ang^3
#
#
#
# Elastic Constant Matrix: (Units=GPa)
#
#
# Indices 1 2 3 4 5 6 
#
# 1 85.4795 21.1557 30.6543 0.0000 -9.0518 0.0000
# 2 21.1557 64.8036 4.2317 0.0000 4.7917 0.0000
# 3 30.6543 4.2317 68.4585 0.0000 -3.4348 0.0000
# 4 0.0000 0.0000 0.0000 18.1460 0.0000 5.7556
# 5 -9.0518 4.7917 -3.4348 0.0000 16.8795 0.0000
# 6 0.0000 0.0000 0.0000 5.7556 0.0000 7.6002
#
#
#
# Elastic Compliance Matrix: (Units=1/GPa)
#
#
# Indices 1 2 3 4 5 6 
#
# 1 0.016384 -0.005591 -0.006537 0.000000 0.009043 0.000000
# 2 -0.005591 0.017770 0.001012 0.000000 -0.007837 0.000000
# 3 -0.006537 0.001012 0.017460 0.000000 -0.000240 0.000000
# 4 0.000000 0.000000 0.000000 0.072531 0.000000 -0.054928
# 5 0.009043 -0.007837 -0.000240 0.000000 0.066269 0.000000
# 6 0.000000 0.000000 0.000000 -0.054928 0.000000 0.173173
#
#
# Mechanical properties :
#
#
# Convention : Reuss Voigt Hill
#
# Bulk Modulus (GPa) = 34.03456 36.75832 35.39644
# Shear Modulus (GPa) = 12.63862 19.37179 16.00520
#
# Velocity S-wave (km/s) = 2.62948 3.25540 2.95904
# Velocity P-wave (km/s) = 5.27618 5.85145 5.57124
#
# Compressibility (1/GPa) = 0.02938190
#
# Stress axis : x y z
#
# Youngs Moduli (GPa) = 61.03397 56.27551 57.27352
#
# Poissons Ratio (x) = 0.31461 0.37441
# Poissons Ratio (y) = 0.34121 -0.05795
# Poissons Ratio (z) = 0.39900 -0.05694
#
# Static dielectric constant tensor:
#      x y z
#    x 3.817350 0.000000 -0.074000 
#    y 0.000000 3.436010 0.000000 
#    z -0.074000 0.000000 2.959660 
# 
# 
# High freq. dielectric constant tensor:
#      x y z
#    x 1.732920 0.000000 -0.004010 
#    y 0.000000 1.713060 0.000000 
#    z -0.004010 0.000000 1.645720 
# 
# From -- ./inp_files/207329.got.cif
#   From: 2010.06.25/outbox.cif.g09.slc.cpg/sg12_104_cif.got.tgz:207329.got - 2010.06.28 00:19:55.
