data_PCOD8110376
_publ_section_title
;
Structure prediction by ZEFSAII (Michael W. Deem and Ramdas Pophale) SiO2 
 PCOD8110376
Probable space group: C 2/M
;
_chemical_formula_sum "Si O2"
_cell_formula_units_Z 60
_cell_length_a 11.765298
_cell_length_b 19.882830
_cell_length_c 22.397332
_cell_angle_alpha 90.000000
_cell_angle_beta 147.262102
_cell_angle_gamma 90.000000
_cell_volume 2833.423843
_symmetry_space_group_name_H-M "C 2/M"
_symmetry_group_IT_number 12
_symmetry_cell_setting 'monoclinic'
loop_
_space_group_symop_operation_xyz
x,y,z
-x,y,-z
-x,-y,-z
x,-y,z
1/2+x,1/2+y,z
1/2-x,1/2+y,-z
1/2-x,1/2-y,-z
1/2+x,1/2-y,z
loop_
_atom_site_type_symbol
_atom_site_label
_atom_site_fract_x
_atom_site_fract_y
_atom_site_fract_z
Si Si1 0.850730 0.658585 0.565713
Si Si2 0.432799 0.821718 0.139004
Si Si3 0.500000 0.614597 0.500000
Si Si4 0.115069 0.735530 0.765019
Si Si5 0.987090 0.183569 0.106490
Si Si6 0.211502 0.926461 0.710702
Si Si7 0.269869 0.077852 0.297670
Si Si8 0.387539 0.364804 0.651688
O O1 0.666646 0.657024 0.534208
O O2 0.763464 0.675251 0.461242
O O3 0.012921 0.717779 0.655316
O O4 0.992648 0.590805 0.621094
O O5 0.455846 0.823570 0.220717
O O6 0.425992 0.740905 0.126698
O O7 0.624538 0.867042 0.199854
O O8 0.213181 0.848898 0.015802
O O9 0.367921 0.572422 0.393035
O O10 0.366596 0.727813 0.873389
O O11 0.045226 0.810841 0.751722
O O12 0.102860 0.120068 0.185818
O O13 0.015987 0.918927 0.669272
O O14 0.314141 0.000000 0.767307
O O15 0.247217 0.097844 0.357377
O O16 0.216268 0.000000 0.265508
#
# Coordination Sequence:
#
# PCOD8110376 Si02
#       8
#     8   8   4   8   8   8   8   8
#     4  10  23  38  64  94 125 165 207 256 306 372
#     4  11  21  41  65  90 122 162 208 262 316 362
#     4  10  21  42  62  90 126 166 205 252 305 370
#     4  11  20  40  62  93 125 158 210 260 315 368
#     4  10  23  40  65  90 120 162 212 262 310 368
#     4  11  23  39  62  93 128 164 208 252 307 373
#     4  11  24  43  63  91 128 168 210 254 309 372
#     4  11  22  39  62  93 129 168 204 253 307 370
#
# _framework density 21.175795000000001
#
# number of rings (size 3 to 8) (size 9 to 14) (size 15 to 20)
#    0.000    1.333    4.000    1.800    0.000    4.267 
#    2.400    0.667    0.000    4.000    0.000    0.000 
#    0.000    0.000    0.000    0.000    0.000    0.000 
#
# Total GULP energy -371682.423595 kJ/mol
# GULP energy per Si atom -12389.414120 kJ/mol
# Density = 2.112760 g / cm^3
# Si number density = 21.175795 Si / 1000 Ang^3
#
#
#
# Elastic Constant Matrix: (Units=GPa)
#
#
# Indices 1 2 3 4 5 6 
#
# 1 91.9420 25.7562 32.0484 -0.0007 8.8414 -0.0001
# 2 25.7562 77.8409 39.3725 -0.0002 -3.1860 -0.0003
# 3 32.0484 39.3725 108.9959 -0.0050 7.0226 -0.0003
# 4 -0.0007 -0.0002 -0.0050 21.6910 -0.0004 3.3682
# 5 8.8414 -3.1860 7.0226 -0.0004 29.4437 0.0000
# 6 -0.0001 -0.0003 -0.0003 3.3682 0.0000 19.5378
#
#
#
# Elastic Compliance Matrix: (Units=1/GPa)
#
#
# Indices 1 2 3 4 5 6 
#
# 1 0.012973 -0.003221 -0.002415 0.000000 -0.003668 0.000000
# 2 -0.003221 0.016803 -0.005385 -0.000001 0.004070 0.000000
# 3 -0.002415 -0.005385 0.012005 0.000003 -0.002721 0.000000
# 4 0.000000 -0.000001 0.000003 0.047370 0.000000 -0.008166
# 5 -0.003668 0.004070 -0.002721 0.000000 0.036154 0.000000
# 6 0.000000 0.000000 0.000000 -0.008166 0.000000 0.052591
#
#
# Mechanical properties :
#
#
# Convention : Reuss Voigt Hill
#
# Bulk Modulus (GPa) = 50.65917 52.57031 51.61474
# Shear Modulus (GPa) = 24.21104 26.24126 25.22615
#
# Velocity S-wave (km/s) = 3.38499 3.52406 3.45523
# Velocity P-wave (km/s) = 6.26519 6.43725 6.35181
#
# Compressibility (1/GPa) = 0.01973976
#
# Stress axis : x y z
#
# Youngs Moduli (GPa) = 77.08160 59.51375 83.29845
#
# Poissons Ratio (x) = 0.19172 0.20113
# Poissons Ratio (y) = 0.24832 0.44854
# Poissons Ratio (z) = 0.18612 0.32046
#
# Static dielectric constant tensor:
#      x y z
#    x 3.905760 0.000000 0.033060 
#    y 0.000000 3.454850 0.000000 
#    z 0.033060 0.000000 3.876400 
# 
# 
# High freq. dielectric constant tensor:
#      x y z
#    x 1.837680 0.000000 0.002520 
#    y 0.000000 1.804510 0.000000 
#    z 0.002520 0.000000 1.829800 
# 
# From -- ./inp_files/336875.got.cif
#   From: 2010.06.25/outbox.cif.g09.slc.cpg/sg12_169_cif.got.tgz:336875.got - 2010.06.28 00:19:55.
