data_PCOD8110713
_publ_section_title
;
Structure prediction by ZEFSAII (Michael W. Deem and Ramdas Pophale) SiO2 
 PCOD8110713
Probable space group: C 2/M
;
_chemical_formula_sum "Si O2"
_cell_formula_units_Z 64
_cell_length_a 31.329721
_cell_length_b 14.382046
_cell_length_c 12.380479
_cell_angle_alpha 90.000000
_cell_angle_beta 37.878527
_cell_angle_gamma 90.000000
_cell_volume 3425.118032
_symmetry_space_group_name_H-M "C 2/M"
_symmetry_group_IT_number 12
_symmetry_cell_setting 'monoclinic'
loop_
_space_group_symop_operation_xyz
x,y,z
-x,y,-z
-x,-y,-z
x,-y,z
1/2+x,1/2+y,z
1/2-x,1/2+y,-z
1/2-x,1/2-y,-z
1/2+x,1/2-y,z
loop_
_atom_site_type_symbol
_atom_site_label
_atom_site_fract_x
_atom_site_fract_y
_atom_site_fract_z
Si Si1 0.081496 0.610090 0.311848
Si Si2 0.778466 0.390163 0.425384
Si Si3 0.891075 0.099637 0.668013
Si Si4 0.192513 0.728934 0.207353
Si Si5 0.436079 0.107607 0.062845
Si Si6 0.536952 0.600530 0.262702
Si Si7 0.761989 0.768677 0.297892
Si Si8 0.589864 0.777143 0.080314
O O1 0.093618 0.500000 0.270843
O O2 0.136294 0.647476 0.292203
O O3 0.102770 0.670830 0.166726
O O4 0.000000 0.630360 0.500000
O O5 0.761887 0.500000 0.441172
O O6 0.861361 0.371368 0.265098
O O7 0.744542 0.329693 0.394367
O O8 0.748527 0.354770 0.599125
O O9 0.845876 0.174551 0.698552
O O10 0.900723 0.120347 0.776089
O O11 0.965520 0.095662 0.466323
O O12 0.853416 0.000000 0.729159
O O13 0.220540 0.708550 0.271067
O O14 0.250000 0.750000 0.000000
O O15 0.449524 0.000000 0.024370
O O16 0.500000 0.153844 0.000000
O O17 0.443388 0.145928 0.928503
O O18 0.549920 0.500000 0.178806
O O19 0.537102 0.689490 0.185051
O O20 0.841178 0.766082 0.105877
#
# Coordination Sequence:
#
# PCOD8110713 Si02
#       8
#     8   8   8   8   8   8   8   8
#     4  11  24  39  57  87 127 169 204 244 306 371
#     4   9  20  40  61  82 114 153 196 254 304 351
#     4   9  18  32  50  73 105 146 189 233 278 334
#     4  12  22  37  56  89 125 157 199 249 296 365
#     4   9  19  35  58  86 109 143 197 247 301 363
#     4   9  17  31  52  76 102 141 192 233 278 342
#     4  10  22  37  58  86 115 154 204 242 299 367
#     4  11  19  36  58  79 117 156 194 244 305 364
#
# _framework density 18.685486999999998
#
# number of rings (size 3 to 8) (size 9 to 14) (size 15 to 20)
#    0.000    2.000    2.500    1.875    0.000    4.500 
#    0.000    2.500    0.000    0.375    0.000    0.000 
#    0.000    0.000    0.000    0.000    0.000    0.000 
#
# Total GULP energy -396432.694650 kJ/mol
# GULP energy per Si atom -12388.521708 kJ/mol
# Density = 1.864296 g / cm^3
# Si number density = 18.685487 Si / 1000 Ang^3
#
#
#
# Elastic Constant Matrix: (Units=GPa)
#
#
# Indices 1 2 3 4 5 6 
#
# 1 93.9832 28.1441 32.2814 0.0000 5.7356 0.0000
# 2 28.1441 108.8942 44.2154 0.0000 1.5267 0.0000
# 3 32.2814 44.2154 69.6103 0.0000 12.4451 0.0000
# 4 0.0000 0.0000 0.0000 30.6417 0.0000 2.7360
# 5 5.7356 1.5267 12.4451 0.0000 24.2408 0.0000
# 6 0.0000 0.0000 0.0000 2.7360 0.0000 17.4930
#
#
#
# Elastic Compliance Matrix: (Units=1/GPa)
#
#
# Indices 1 2 3 4 5 6 
#
# 1 0.012775 -0.001234 -0.005080 0.000000 -0.000337 0.000000
# 2 -0.001234 0.012784 -0.008209 0.000000 0.003702 0.000000
# 3 -0.005080 -0.008209 0.023815 0.000000 -0.010507 0.000000
# 4 0.000000 0.000000 0.000000 0.033097 0.000000 -0.005177
# 5 -0.000337 0.003702 -0.010507 0.000000 0.046494 0.000000
# 6 0.000000 0.000000 0.000000 -0.005177 0.000000 0.057975
#
#
# Mechanical properties :
#
#
# Convention : Reuss Voigt Hill
#
# Bulk Modulus (GPa) = 49.19866 53.52994 51.36430
# Shear Modulus (GPa) = 22.44533 25.66488 24.05510
#
# Velocity S-wave (km/s) = 3.46962 3.71012 3.59188
# Velocity P-wave (km/s) = 6.51445 6.86028 6.68960
#
# Compressibility (1/GPa) = 0.02032576
#
# Stress axis : x y z
#
# Youngs Moduli (GPa) = 78.27573 78.22475 41.99102
#
# Poissons Ratio (x) = 0.09656 0.21332
# Poissons Ratio (y) = 0.09662 0.34472
# Poissons Ratio (z) = 0.39766 0.64218
#
# Static dielectric constant tensor:
#      x y z
#    x 4.320100 0.000000 -0.216760 
#    y 0.000000 3.170290 0.000000 
#    z -0.216760 0.000000 3.511880 
# 
# 
# High freq. dielectric constant tensor:
#      x y z
#    x 1.706170 0.000000 -0.002610 
#    y 0.000000 1.739900 0.000000 
#    z -0.002610 0.000000 1.722110 
# 
# From -- ./inp_files/189443.got.cif
#   From: 2010.06.25/outbox.cif.g09.slc.cpg/sg12_95_cif.got.tgz:189443.got - 2010.06.28 00:19:55.
