data_PCOD8110679
_publ_section_title
;
Structure prediction by ZEFSAII (Michael W. Deem and Ramdas Pophale) SiO2 
 PCOD8110679
Probable space group: C 2/M
;
_chemical_formula_sum "Si O2"
_cell_formula_units_Z 56
_cell_length_a 14.049402
_cell_length_b 25.695186
_cell_length_c 8.876264
_cell_angle_alpha 90.000000
_cell_angle_beta 67.734475
_cell_angle_gamma 90.000000
_cell_volume 2965.425947
_symmetry_space_group_name_H-M "C 2/M"
_symmetry_group_IT_number 12
_symmetry_cell_setting 'monoclinic'
loop_
_space_group_symop_operation_xyz
x,y,z
-x,y,-z
-x,-y,-z
x,-y,z
1/2+x,1/2+y,z
1/2-x,1/2+y,-z
1/2-x,1/2-y,-z
1/2+x,1/2-y,z
loop_
_atom_site_type_symbol
_atom_site_label
_atom_site_fract_x
_atom_site_fract_y
_atom_site_fract_z
Si Si1 0.596504 0.943839 0.547652
Si Si2 0.675952 0.251662 0.687402
Si Si3 0.225207 0.438847 0.194542
Si Si4 0.537157 0.890392 0.148046
Si Si5 0.123277 0.152117 0.933118
Si Si6 0.699104 0.713819 0.150193
Si Si7 0.971014 0.710655 0.680548
O O1 0.500000 0.952615 0.500000
O O2 0.687730 0.923488 0.385648
O O3 0.567035 0.904264 0.697525
O O4 0.626210 0.000000 0.601494
O O5 0.750000 0.250000 0.500000
O O6 0.671614 0.306823 0.782965
O O7 0.713916 0.204028 0.774415
O O8 0.562116 0.239619 0.708525
O O9 0.252092 0.500000 0.165242
O O10 0.135382 0.427163 0.124197
O O11 0.328497 0.405137 0.115377
O O12 0.572722 0.833385 0.181371
O O13 0.500000 0.892628 0.000000
O O14 0.152651 0.164903 0.090104
O O15 0.000000 0.149570 0.000000
O O16 0.613549 0.745498 0.295484
O O17 0.750000 0.750000 0.000000
O O18 0.000000 0.686438 0.500000
#
# Coordination Sequence:
#
# PCOD8110679 Si02
#       7
#     8   8   8   8   8   8   8
#     4   8  16  34  55  76 109 149 191 238 287 345
#     4  11  23  37  60  87 119 163 202 237 289 363
#     4  10  22  41  61  83 115 158 204 251 299 356
#     4  11  23  32  57  91 125 157 194 239 303 363
#     4  11  23  40  61  86 117 155 201 254 299 344
#     4  10  22  37  55  79 119 154 193 238 291 338
#     4  12  23  37  55  88 124 163 196 239 287 367
#
# _framework density 18.884302999999999
#
# number of rings (size 3 to 8) (size 9 to 14) (size 15 to 20)
#    0.000    1.571    2.857    4.286    8.000    1.429 
#    0.000    0.000    0.000    0.000    0.000    0.000 
#    0.000    6.857    0.000    0.000    0.000    0.000 
#
# Total GULP energy -346865.719042 kJ/mol
# GULP energy per Si atom -12388.061394 kJ/mol
# Density = 1.884132 g / cm^3
# Si number density = 18.884303 Si / 1000 Ang^3
#
#
#
# Elastic Constant Matrix: (Units=GPa)
#
#
# Indices 1 2 3 4 5 6 
#
# 1 74.1999 28.7719 34.8284 0.0000 0.2360 0.0000
# 2 28.7719 91.3202 36.3040 0.0000 -2.3648 0.0000
# 3 34.8284 36.3040 101.4359 0.0000 8.3944 0.0000
# 4 0.0000 0.0000 0.0000 34.9733 0.0000 -8.8690
# 5 0.2360 -2.3648 8.3944 0.0000 32.9179 0.0000
# 6 0.0000 0.0000 0.0000 -8.8690 0.0000 25.2695
#
#
#
# Elastic Compliance Matrix: (Units=1/GPa)
#
#
# Indices 1 2 3 4 5 6 
#
# 1 0.017015 -0.003486 -0.004662 0.000000 0.000816 0.000000
# 2 -0.003486 0.013629 -0.003845 0.000000 0.001985 0.000000
# 3 -0.004662 -0.003845 0.013132 0.000000 -0.003592 0.000000
# 4 0.000000 0.000000 0.000000 0.031387 0.000000 0.011016
# 5 0.000816 0.001985 -0.003592 0.000000 0.031431 0.000000
# 6 0.000000 0.000000 0.000000 0.011016 0.000000 0.043440
#
#
# Mechanical properties :
#
#
# Convention : Reuss Voigt Hill
#
# Bulk Modulus (GPa) = 50.53141 51.86274 51.19707
# Shear Modulus (GPa) = 27.68294 29.76889 28.72592
#
# Velocity S-wave (km/s) = 3.83289 3.97468 3.90443
# Velocity P-wave (km/s) = 6.81209 6.97044 6.89172
#
# Compressibility (1/GPa) = 0.01978967
#
# Stress axis : x y z
#
# Youngs Moduli (GPa) = 58.77316 73.37377 76.14716
#
# Poissons Ratio (x) = 0.25580 0.35499
# Poissons Ratio (y) = 0.20490 0.29278
# Poissons Ratio (z) = 0.27399 0.28212
#
# Static dielectric constant tensor:
#      x y z
#    x 3.816330 0.000000 0.029250 
#    y 0.000000 3.403480 0.000000 
#    z 0.029250 0.000000 3.977690 
# 
# 
# High freq. dielectric constant tensor:
#      x y z
#    x 1.726670 0.000000 -0.000050 
#    y 0.000000 1.713360 0.000000 
#    z -0.000050 0.000000 1.738540 
# 
# From -- ./inp_files/65286.got.cif
#   From: 2010.06.25/outbox.cif.g09.slc.cpg/sg12_33_cif.got.tgz:65286.got - 2010.06.28 00:19:55.
