data_PCOD8110379
_publ_section_title
;
Structure prediction by ZEFSAII (Michael W. Deem and Ramdas Pophale) SiO2 
 PCOD8110379
Probable space group: C 2/M
;
_chemical_formula_sum "Si O2"
_cell_formula_units_Z 60
_cell_length_a 20.187897
_cell_length_b 22.785418
_cell_length_c 11.665008
_cell_angle_alpha 90.000000
_cell_angle_beta 147.563588
_cell_angle_gamma 90.000000
_cell_volume 2878.008996
_symmetry_space_group_name_H-M "C 2/M"
_symmetry_group_IT_number 12
_symmetry_cell_setting 'monoclinic'
loop_
_space_group_symop_operation_xyz
x,y,z
-x,y,-z
-x,-y,-z
x,-y,z
1/2+x,1/2+y,z
1/2-x,1/2+y,-z
1/2-x,1/2-y,-z
1/2+x,1/2-y,z
loop_
_atom_site_type_symbol
_atom_site_label
_atom_site_fract_x
_atom_site_fract_y
_atom_site_fract_z
Si Si1 0.051727 0.713895 0.456281
Si Si2 0.041476 0.349569 0.884700
Si Si3 0.500000 0.404241 0.500000
Si Si4 0.385941 0.361413 0.758610
Si Si5 0.464479 0.671200 0.231542
Si Si6 0.329346 0.932276 0.642469
Si Si7 0.671806 0.268502 0.150472
Si Si8 0.741170 0.063002 0.202261
O O1 0.184940 0.745234 0.657681
O O2 0.000000 0.689294 0.500000
O O3 0.040638 0.661752 0.348282
O O4 0.964179 0.764600 0.284667
O O5 0.953137 0.392158 0.830741
O O6 0.085818 0.289642 0.013294
O O7 0.164821 0.385325 0.028883
O O8 0.557930 0.369463 0.692197
O O9 0.615341 0.440717 0.623000
O O10 0.417633 0.349670 0.670865
O O11 0.270522 0.406226 0.594143
O O12 0.351803 0.296850 0.758918
O O13 0.500000 0.388258 0.000000
O O14 0.354382 0.678298 0.978234
O O15 0.265939 0.927921 0.672608
O O16 0.361507 0.000000 0.656856
O O17 0.683005 0.000000 0.083431
#
# Coordination Sequence:
#
# PCOD8110379 Si02
#       8
#     8   8   4   8   8   8   8   8
#     4  11  23  38  60  92 131 167 207 257 323 395
#     4  11  24  41  67  94 126 173 212 268 324 384
#     4  12  21  40  66  92 130 166 213 262 322 382
#     4  10  21  42  62  96 131 164 218 265 321 380
#     4  10  22  36  60  91 128 167 203 261 319 384
#     4  11  23  43  68  94 129 170 218 269 322 374
#     4  10  23  40  63  96 132 165 208 264 328 386
#     4  11  25  42  64  93 125 167 219 269 319 379
#
# _framework density 20.847746000000001
#
# number of rings (size 3 to 8) (size 9 to 14) (size 15 to 20)
#    0.000    1.333    3.333    1.800    1.867    8.267 
#    0.000    0.000    0.000    4.800    0.000    0.000 
#    0.000    0.000    0.000    0.000    0.000    0.000 
#
# Total GULP energy -371676.488474 kJ/mol
# GULP energy per Si atom -12389.216282 kJ/mol
# Density = 2.080030 g / cm^3
# Si number density = 20.847746 Si / 1000 Ang^3
#
#
#
# Elastic Constant Matrix: (Units=GPa)
#
#
# Indices 1 2 3 4 5 6 
#
# 1 109.5721 41.1461 34.4014 0.0000 2.7038 0.0000
# 2 41.1461 120.5195 48.4466 0.0000 -1.4096 0.0000
# 3 34.4014 48.4466 90.3928 0.0000 14.2389 0.0000
# 4 0.0000 0.0000 0.0000 27.5755 0.0000 1.0372
# 5 2.7038 -1.4096 14.2389 0.0000 33.8862 0.0000
# 6 0.0000 0.0000 0.0000 1.0372 0.0000 13.3918
#
#
#
# Elastic Compliance Matrix: (Units=1/GPa)
#
#
# Indices 1 2 3 4 5 6 
#
# 1 0.010987 -0.002620 -0.002808 0.000000 0.000194 0.000000
# 2 -0.002620 0.011498 -0.005647 0.000000 0.003060 0.000000
# 3 -0.002808 -0.005647 0.016234 0.000000 -0.006833 0.000000
# 4 0.000000 0.000000 0.000000 0.036370 0.000000 -0.002817
# 5 0.000194 0.003060 -0.006833 0.000000 0.032493 0.000000
# 6 0.000000 0.000000 0.000000 -0.002817 0.000000 0.074891
#
#
# Mechanical properties :
#
#
# Convention : Reuss Voigt Hill
#
# Bulk Modulus (GPa) = 60.35358 63.16361 61.75860
# Shear Modulus (GPa) = 23.79292 28.07005 25.93149
#
# Velocity S-wave (km/s) = 3.38193 3.67336 3.53065
# Velocity P-wave (km/s) = 6.65301 6.95376 6.80504
#
# Compressibility (1/GPa) = 0.01656902
#
# Stress axis : x y z
#
# Youngs Moduli (GPa) = 91.01635 86.97312 61.59781
#
# Poissons Ratio (x) = 0.22788 0.17295
# Poissons Ratio (y) = 0.23847 0.34786
# Poissons Ratio (z) = 0.25555 0.49116
#
# Static dielectric constant tensor:
#      x y z
#    x 3.853820 0.000000 -0.279110 
#    y 0.000000 3.728650 0.000000 
#    z -0.279110 0.000000 4.361090 
# 
# 
# High freq. dielectric constant tensor:
#      x y z
#    x 1.811440 0.000000 0.002610 
#    y 0.000000 1.801030 0.000000 
#    z 0.002610 0.000000 1.820820 
# 
# From -- ./inp_files/170400.got.cif
#   From: 2010.06.25/outbox.cif.g09.slc.cpg/sg12_86_cif.got.tgz:170400.got - 2010.06.28 00:19:55.
