data_PCOD8110072
_publ_section_title
;
Structure prediction by ZEFSAII (Michael W. Deem and Ramdas Pophale) SiO2 
 PCOD8110072
Probable space group: C 2/M
;
_chemical_formula_sum "Si O2"
_cell_formula_units_Z 64
_cell_length_a 9.132970
_cell_length_b 18.250442
_cell_length_c 28.993526
_cell_angle_alpha 90.000000
_cell_angle_beta 39.520077
_cell_angle_gamma 90.000000
_cell_volume 3075.257755
_symmetry_space_group_name_H-M "C 2/M"
_symmetry_group_IT_number 12
_symmetry_cell_setting 'monoclinic'
loop_
_space_group_symop_operation_xyz
x,y,z
-x,y,-z
-x,-y,-z
x,-y,z
1/2+x,1/2+y,z
1/2-x,1/2+y,-z
1/2-x,1/2-y,-z
1/2+x,1/2-y,z
loop_
_atom_site_type_symbol
_atom_site_label
_atom_site_fract_x
_atom_site_fract_y
_atom_site_fract_z
Si Si1 0.364751 0.167613 0.629724
Si Si2 0.954548 0.176695 0.381711
Si Si3 0.592871 0.583881 0.770750
Si Si4 0.396693 0.080658 0.126179
Si Si5 0.335363 0.082236 0.243426
Si Si6 0.319009 0.414093 0.503868
Si Si7 0.338750 0.584083 0.144412
Si Si8 0.166875 0.826479 0.002517
O O1 0.241160 0.178008 0.610291
O O2 0.486787 0.241983 0.616100
O O3 0.178007 0.141872 0.712406
O O4 0.559754 0.105028 0.581855
O O5 0.864558 0.131126 0.446688
O O6 0.188447 0.139428 0.307891
O O7 0.631692 0.500000 0.744244
O O8 0.325495 0.596879 0.851392
O O9 0.720967 0.599321 0.787633
O O10 0.265211 0.085246 0.207328
O O11 0.500920 0.000000 0.092501
O O12 0.601073 0.135483 0.069746
O O13 0.602483 0.104980 0.176858
O O14 0.301868 0.000000 0.272169
O O15 0.500000 0.392256 0.500000
O O16 0.336221 0.500000 0.488671
O O17 0.408174 0.500000 0.118827
O O18 0.544548 0.632119 0.074141
O O19 0.250000 0.750000 0.000000
O O20 0.000000 0.818821 0.000000
#
# Coordination Sequence:
#
# PCOD8110072 Si02
#       8
#     8   8   8   8   8   8   8   8
#     4  12  26  44  67  97 137 176 215 263 321 384
#     4  12  26  43  67  98 135 178 215 262 323 383
#     4  10  23  42  67  98 128 165 213 267 321 378
#     4  10  21  42  68  92 123 164 216 267 314 377
#     4  10  21  40  67  96 124 164 218 268 316 379
#     4  11  26  47  72 100 131 170 218 269 318 378
#     4  10  23  42  67  94 123 165 216 266 317 378
#     4  12  27  42  61  90 127 168 210 263 326 387
#
# _framework density 20.811263
#
# number of rings (size 3 to 8) (size 9 to 14) (size 15 to 20)
#    0.000    1.125    2.500    2.625    5.250    4.500 
#    0.000    1.875    0.000    0.000    0.000    0.000 
#    0.000    0.000    0.000    0.000    0.000    0.000 
#
# Total GULP energy -396781.469762 kJ/mol
# GULP energy per Si atom -12399.420930 kJ/mol
# Density = 2.076390 g / cm^3
# Si number density = 20.811263 Si / 1000 Ang^3
#
#
#
# Elastic Constant Matrix: (Units=GPa)
#
#
# Indices 1 2 3 4 5 6 
#
# 1 110.5576 57.0144 35.6311 -0.0382 5.0922 0.0121
# 2 57.0144 116.4837 53.4472 -0.0456 -5.7794 0.0329
# 3 35.6311 53.4472 94.8259 -0.2194 -5.0904 0.1268
# 4 -0.0382 -0.0456 -0.2194 50.0348 0.0761 -8.5491
# 5 5.0922 -5.7794 -5.0904 0.0761 24.5148 -0.0327
# 6 0.0121 0.0329 0.1268 -8.5491 -0.0327 35.7374
#
#
#
# Elastic Compliance Matrix: (Units=1/GPa)
#
#
# Indices 1 2 3 4 5 6 
#
# 1 0.012730 -0.005590 -0.001866 0.000004 -0.004350 0.000004
# 2 -0.005590 0.014082 -0.005659 -0.000020 0.003306 0.000007
# 3 -0.001866 -0.005659 0.014548 0.000049 0.002074 -0.000032
# 4 0.000004 -0.000020 0.000049 0.020838 -0.000053 0.004985
# 5 -0.004350 0.003306 0.002074 -0.000053 0.042906 0.000018
# 6 0.000004 0.000007 -0.000032 0.004985 0.000018 0.029174
#
#
# Mechanical properties :
#
#
# Convention : Reuss Voigt Hill
#
# Bulk Modulus (GPa) = 66.09826 68.22807 67.16316
# Shear Modulus (GPa) = 30.20228 33.77570 31.98899
#
# Velocity S-wave (km/s) = 3.81366 4.03296 3.92484
# Velocity P-wave (km/s) = 7.15694 7.38524 7.27198
#
# Compressibility (1/GPa) = 0.01512899
#
# Stress axis : x y z
#
# Youngs Moduli (GPa) = 78.55660 71.01387 68.73908
#
# Poissons Ratio (x) = 0.39700 0.12825
# Poissons Ratio (y) = 0.43917 0.38899
# Poissons Ratio (z) = 0.14657 0.40186
#
# Static dielectric constant tensor:
#      x y z
#    x 6.671370 -0.000640 0.894950 
#    y -0.000640 3.712420 -0.000200 
#    z 0.894950 -0.000200 3.995740 
# 
# 
# High freq. dielectric constant tensor:
#      x y z
#    x 1.835770 0.000000 -0.005590 
#    y 0.000000 1.813350 0.000000 
#    z -0.005590 0.000000 1.817150 
# 
# From -- ./inp_files/372904.got.cif
#   From: 2010.06.25/outbox.cif.g09.slc.cpg/sg12_187_cif.got.tgz:372904.got - 2010.06.28 00:19:55.
