data_PCOD8110011
_publ_section_title
;
Structure prediction by ZEFSAII (Michael W. Deem and Ramdas Pophale) SiO2 
 PCOD8110011
Probable space group: C 2/M
;
_chemical_formula_sum "Si O2"
_cell_formula_units_Z 48
_cell_length_a 20.036689
_cell_length_b 14.095602
_cell_length_c 11.672523
_cell_angle_alpha 90.000000
_cell_angle_beta 43.156970
_cell_angle_gamma 90.000000
_cell_volume 2254.914475
_symmetry_space_group_name_H-M "C 2/M"
_symmetry_group_IT_number 12
_symmetry_cell_setting 'monoclinic'
loop_
_space_group_symop_operation_xyz
x,y,z
-x,y,-z
-x,-y,-z
x,-y,z
1/2+x,1/2+y,z
1/2-x,1/2+y,-z
1/2-x,1/2-y,-z
1/2+x,1/2-y,z
loop_
_atom_site_type_symbol
_atom_site_label
_atom_site_fract_x
_atom_site_fract_y
_atom_site_fract_z
Si Si1 0.105518 0.302935 0.898282
Si Si2 0.463760 0.285833 0.427924
Si Si3 0.854185 0.294985 0.896922
Si Si4 0.135567 0.605187 0.344383
Si Si5 0.668082 0.395266 0.775229
Si Si6 0.282319 0.391569 0.546639
O O1 0.093722 0.188858 0.898821
O O2 0.185434 0.338610 0.708662
O O3 0.141325 0.334642 0.979525
O O4 0.000000 0.347866 0.000000
O O5 0.500000 0.335971 0.500000
O O6 0.556584 0.280611 0.226424
O O7 0.426830 0.179865 0.504672
O O8 0.379581 0.346727 0.476769
O O9 0.872525 0.377575 0.781743
O O10 0.750000 0.250000 0.000000
O O11 0.095521 0.500000 0.422507
O O12 0.248260 0.613925 0.235110
O O13 0.617870 0.500000 0.845650
O O14 0.716534 0.381212 0.590734
O O15 0.277524 0.500000 0.592822
#
# Coordination Sequence:
#
# PCOD8110011 Si02
#       6
#     8   8   8   8   8   8
#     4  12  24  39  66  95 131 166 204 264 331 374
#     4  10  21  40  67  89 121 166 217 257 304 376
#     4  11  22  40  60  94 131 162 200 259 323 375
#     4  10  21  40  67  93 120 163 212 254 302 369
#     4  10  21  40  66  91 121 164 213 256 302 374
#     4  11  24  43  63  89 126 170 218 261 308 375
#
# _framework density 21.286837999999999
#
# number of rings (size 3 to 8) (size 9 to 14) (size 15 to 20)
#    0.000    1.333    3.333    2.500    2.333    4.667 
#    0.000    1.667    0.000    0.000    0.000    0.000 
#    0.000    0.000    0.000    0.000    0.000    0.000 
#
# Total GULP energy -297536.053552 kJ/mol
# GULP energy per Si atom -12397.335565 kJ/mol
# Density = 2.123839 g / cm^3
# Si number density = 21.286838 Si / 1000 Ang^3
#
#
#
# Elastic Constant Matrix: (Units=GPa)
#
#
# Indices 1 2 3 4 5 6 
#
# 1 123.5333 32.8128 28.7069 0.0000 -6.1373 0.0000
# 2 32.8128 98.2071 19.3517 0.0000 -2.6142 0.0000
# 3 28.7069 19.3517 65.6373 0.0000 -12.7433 0.0000
# 4 0.0000 0.0000 0.0000 11.9737 0.0000 10.2948
# 5 -6.1373 -2.6142 -12.7433 0.0000 48.0814 0.0000
# 6 0.0000 0.0000 0.0000 10.2948 0.0000 22.9922
#
#
#
# Elastic Compliance Matrix: (Units=1/GPa)
#
#
# Indices 1 2 3 4 5 6 
#
# 1 0.009565 -0.002520 -0.003405 0.000000 0.000181 0.000000
# 2 -0.002520 0.011478 -0.002344 0.000000 -0.000319 0.000000
# 3 -0.003405 -0.002344 0.018245 0.000000 0.004274 0.000000
# 4 0.000000 0.000000 0.000000 0.135791 0.000000 -0.060801
# 5 0.000181 -0.000319 0.004274 0.000000 0.021937 0.000000
# 6 0.000000 0.000000 0.000000 -0.060801 0.000000 0.070716
#
#
# Mechanical properties :
#
#
# Convention : Reuss Voigt Hill
#
# Bulk Modulus (GPa) = 43.95557 49.90229 46.92893
# Shear Modulus (GPa) = 17.13194 30.37657 23.75425
#
# Velocity S-wave (km/s) = 2.84000 3.78168 3.34415
# Velocity P-wave (km/s) = 5.60787 6.52394 6.08317
#
# Compressibility (1/GPa) = 0.02275024
#
# Stress axis : x y z
#
# Youngs Moduli (GPa) = 104.55231 87.12414 54.80912
#
# Poissons Ratio (x) = 0.21955 0.18662
# Poissons Ratio (y) = 0.26346 0.12846
# Poissons Ratio (z) = 0.35600 0.20420
#
# Static dielectric constant tensor:
#      x y z
#    x 4.134160 0.000000 0.073080 
#    y 0.000000 3.852220 0.000000 
#    z 0.073080 0.000000 3.829910 
# 
# 
# High freq. dielectric constant tensor:
#      x y z
#    x 1.856990 0.000000 -0.003330 
#    y 0.000000 1.814800 0.000000 
#    z -0.003330 0.000000 1.834950 
# 
# From -- ./inp_files/167541.got.cif
#   From: 2010.06.25/outbox.cif.g09.slc.cpg/sg12_84_cif.got.tgz:167541.got - 2010.06.28 00:19:55.
