data_PCOD8110812
_publ_section_title
;
Structure prediction by ZEFSAII (Michael W. Deem and Ramdas Pophale) SiO2 
 PCOD8110812
Probable space group: C 2/M
;
_chemical_formula_sum "Si O2"
_cell_formula_units_Z 64
_cell_length_a 14.569563
_cell_length_b 9.006417
_cell_length_c 25.698305
_cell_angle_alpha 90.000000
_cell_angle_beta 90.565679
_cell_angle_gamma 90.000000
_cell_volume 3371.955924
_symmetry_space_group_name_H-M "C 2/M"
_symmetry_group_IT_number 12
_symmetry_cell_setting 'monoclinic'
loop_
_space_group_symop_operation_xyz
x,y,z
-x,y,-z
-x,-y,-z
x,-y,z
1/2+x,1/2+y,z
1/2-x,1/2+y,-z
1/2-x,1/2-y,-z
1/2+x,1/2-y,z
loop_
_atom_site_type_symbol
_atom_site_label
_atom_site_fract_x
_atom_site_fract_y
_atom_site_fract_z
Si Si1 0.371593 0.330080 0.225535
Si Si2 0.884787 0.824114 0.864237
Si Si3 0.931303 0.328864 0.124544
Si Si4 0.261795 0.829817 0.054205
Si Si5 0.475494 0.674091 0.689864
Si Si6 0.336175 0.828540 0.756970
Si Si7 0.348534 0.826662 0.500434
Si Si8 0.998337 0.325647 0.417646
O O1 0.386140 0.500000 0.207179
O O2 0.379845 0.222684 0.176371
O O3 0.445277 0.284450 0.268917
O O4 0.272200 0.307418 0.250280
O O5 0.807189 0.763740 0.902907
O O6 0.873635 0.752663 0.808008
O O7 0.981909 0.773225 0.887792
O O8 0.880968 0.000000 0.857565
O O9 0.960343 0.500000 0.131554
O O10 0.864833 0.308940 0.074964
O O11 0.236595 0.000000 0.044878
O O12 0.250000 0.750000 0.000000
O O13 0.456835 0.500000 0.687248
O O14 0.382333 0.756182 0.706536
O O15 0.507215 0.730740 0.634316
O O16 0.364072 0.000000 0.761027
O O17 0.250000 0.750000 0.500000
O O18 0.407787 0.782915 0.450042
O O19 0.408737 0.781516 0.551097
O O20 0.329608 0.000000 0.500765
O O21 0.998895 0.500000 0.404924
#
# Coordination Sequence:
#
# PCOD8110812 Si02
#       8
#     8   8   8   8   8   8   8   8
#     4  10  22  38  57  83 116 153 192 237 291 347
#     4  11  22  39  60  86 117 150 190 239 290 345
#     4  11  22  38  61  88 114 149 194 237 286 348
#     4  10  24  42  61  86 118 151 191 241 293 347
#     4  11  23  38  57  86 122 156 195 246 293 342
#     4  11  22  37  59  86 114 155 197 235 291 352
#     4   9  19  37  62  87 115 154 199 244 293 347
#     4   9  20  39  58  82 119 159 195 239 294 351
#
# _framework density 18.980081999999999
#
# number of rings (size 3 to 8) (size 9 to 14) (size 15 to 20)
#    0.000    1.750    2.500    2.250    0.000    5.500 
#    0.000    7.500    0.000    0.000    0.000    0.000 
#    0.000    0.000    0.000    0.000    0.000    0.000 
#
# Total GULP energy -396907.291526 kJ/mol
# GULP energy per Si atom -12403.352860 kJ/mol
# Density = 1.893688 g / cm^3
# Si number density = 18.980082 Si / 1000 Ang^3
#
#
#
# Elastic Constant Matrix: (Units=GPa)
#
#
# Indices 1 2 3 4 5 6 
#
# 1 104.3154 33.5670 21.6764 0.0000 -6.7374 0.0000
# 2 33.5670 77.3535 39.0875 0.0000 -2.2261 0.0000
# 3 21.6764 39.0875 88.9792 0.0000 -4.1865 0.0000
# 4 0.0000 0.0000 0.0000 37.3645 0.0000 -1.6580
# 5 -6.7374 -2.2261 -4.1865 0.0000 24.0651 0.0000
# 6 0.0000 0.0000 0.0000 -1.6580 0.0000 34.4322
#
#
#
# Elastic Compliance Matrix: (Units=1/GPa)
#
#
# Indices 1 2 3 4 5 6 
#
# 1 0.011347 -0.004516 -0.000656 0.000000 0.002645 0.000000
# 2 -0.004516 0.018415 -0.007026 0.000000 -0.000783 0.000000
# 3 -0.000656 -0.007026 0.014565 0.000000 0.001700 0.000000
# 4 0.000000 0.000000 0.000000 0.026821 0.000000 0.001291
# 5 0.002645 -0.000783 0.001700 0.000000 0.042518 0.000000
# 6 0.000000 0.000000 0.000000 0.001291 0.000000 0.029105
#
#
# Mechanical properties :
#
#
# Convention : Reuss Voigt Hill
#
# Bulk Modulus (GPa) = 50.17512 51.03445 50.60479
# Shear Modulus (GPa) = 28.76700 30.92686 29.84693
#
# Velocity S-wave (km/s) = 3.89735 4.04101 3.96983
# Velocity P-wave (km/s) = 6.83707 6.97996 6.90888
#
# Compressibility (1/GPa) = 0.01993019
#
# Stress axis : x y z
#
# Youngs Moduli (GPa) = 88.13148 54.30234 68.65824
#
# Poissons Ratio (x) = 0.24525 0.04502
# Poissons Ratio (y) = 0.39803 0.48241
# Poissons Ratio (z) = 0.05780 0.38154
#
# Static dielectric constant tensor:
#      x y z
#    x 3.766480 0.000000 -0.076780 
#    y 0.000000 3.475380 0.000000 
#    z -0.076780 0.000000 3.388960 
# 
# 
# High freq. dielectric constant tensor:
#      x y z
#    x 1.750760 0.000000 -0.002680 
#    y 0.000000 1.740980 0.000000 
#    z -0.002680 0.000000 1.732460 
# 
# From -- ./inp_files/338712.got.cif
#   From: 2010.06.25/outbox.cif.g09.slc.cpg/sg12_170_cif.got.tgz:338712.got - 2010.06.28 00:19:55.
