data_PCOD8110613
_publ_section_title
;
Structure prediction by ZEFSAII (Michael W. Deem and Ramdas Pophale) SiO2 
 PCOD8110613
Probable space group: C 2/M
;
_chemical_formula_sum "Si O2"
_cell_formula_units_Z 48
_cell_length_a 23.743596
_cell_length_b 9.199405
_cell_length_c 11.782383
_cell_angle_alpha 90.000000
_cell_angle_beta 89.390694
_cell_angle_gamma 90.000000
_cell_volume 2573.444528
_symmetry_space_group_name_H-M "C 2/M"
_symmetry_group_IT_number 12
_symmetry_cell_setting 'monoclinic'
loop_
_space_group_symop_operation_xyz
x,y,z
-x,y,-z
-x,-y,-z
x,-y,z
1/2+x,1/2+y,z
1/2-x,1/2+y,-z
1/2-x,1/2-y,-z
1/2+x,1/2-y,z
loop_
_atom_site_type_symbol
_atom_site_label
_atom_site_fract_x
_atom_site_fract_y
_atom_site_fract_z
Si Si1 0.668349 0.329409 0.049731
Si Si2 0.737317 0.669380 0.829594
Si Si3 0.542673 0.672280 0.093184
Si Si4 0.591568 0.833640 0.529500
Si Si5 0.704207 0.328228 0.577640
Si Si6 0.484785 0.165740 0.681446
O O1 0.671982 0.500000 0.071451
O O2 0.704948 0.253419 0.146610
O O3 0.604905 0.270843 0.061148
O O4 0.690543 0.287640 0.924062
O O5 0.751460 0.500000 0.833897
O O6 0.714215 0.716166 0.707924
O O7 0.541118 0.500000 0.095309
O O8 0.523367 0.726599 0.215191
O O9 0.500000 0.734307 0.000000
O O10 0.642620 0.723515 0.543191
O O11 0.564038 0.803534 0.408272
O O12 0.545774 0.802498 0.627323
O O13 0.612951 0.000000 0.536414
O O14 0.708751 0.500000 0.559373
O O15 0.750000 0.250000 0.500000
O O16 0.481189 0.000000 0.723686
#
# Coordination Sequence:
#
# PCOD8110613 Si02
#       6
#     8   8   8   8   8   8
#     4   9  19  37  58  81 110 145 185 229 277 329
#     4   9  20  38  58  80 108 147 187 227 278 330
#     4  10  22  36  56  85 117 148 183 233 283 329
#     4   9  20  40  61  83 113 149 187 234 285 332
#     4  11  24  38  58  86 116 150 188 233 281 335
#     4   9  20  39  61  83 113 150 188 232 283 337
#
# _framework density 18.652042999999999
#
# number of rings (size 3 to 8) (size 9 to 14) (size 15 to 20)
#    0.000    2.500    0.000    1.500    4.667    3.667 
#    0.000    1.667    0.000    0.000    0.000    0.000 
#    0.000    0.000    0.000    0.000    0.000    0.000 
#
# Total GULP energy -297664.629134 kJ/mol
# GULP energy per Si atom -12402.692881 kJ/mol
# Density = 1.860959 g / cm^3
# Si number density = 18.652043 Si / 1000 Ang^3
#
#
#
# Elastic Constant Matrix: (Units=GPa)
#
#
# Indices 1 2 3 4 5 6 
#
# 1 140.8207 46.3998 58.6498 0.0000 7.7956 0.0000
# 2 46.3998 44.8865 38.0123 0.0000 2.4852 0.0000
# 3 58.6498 38.0123 111.0710 0.0000 0.4286 0.0000
# 4 0.0000 0.0000 0.0000 35.1621 0.0000 -0.1387
# 5 7.7956 2.4852 0.4286 0.0000 20.6565 0.0000
# 6 0.0000 0.0000 0.0000 -0.1387 0.0000 33.8070
#
#
#
# Elastic Compliance Matrix: (Units=1/GPa)
#
#
# Indices 1 2 3 4 5 6 
#
# 1 0.011553 -0.009309 -0.002903 0.000000 -0.003180 0.000000
# 2 -0.009309 0.039133 -0.008473 0.000000 -0.001019 0.000000
# 3 -0.002903 -0.008473 0.013429 0.000000 0.001836 0.000000
# 4 0.000000 0.000000 0.000000 0.028440 0.000000 0.000117
# 5 -0.003180 -0.001019 0.001836 0.000000 0.049696 0.000000
# 6 0.000000 0.000000 0.000000 0.000117 0.000000 0.029580
#
#
# Mechanical properties :
#
#
# Convention : Reuss Voigt Hill
#
# Bulk Modulus (GPa) = 43.96417 64.76690 54.36553
# Shear Modulus (GPa) = 22.64672 28.17286 25.40979
#
# Velocity S-wave (km/s) = 3.48827 3.89066 3.69495
# Velocity P-wave (km/s) = 6.31236 7.41499 6.88578
#
# Compressibility (1/GPa) = 0.02274580
#
# Stress axis : x y z
#
# Youngs Moduli (GPa) = 86.55504 25.55378 74.46728
#
# Poissons Ratio (x) = 0.23787 0.21615
# Poissons Ratio (y) = 0.80572 0.63099
# Poissons Ratio (z) = 0.25123 0.21653
#
# Static dielectric constant tensor:
#      x y z
#    x 3.570040 0.000000 0.007920 
#    y 0.000000 3.305960 0.000000 
#    z 0.007920 0.000000 3.469730 
# 
# 
# High freq. dielectric constant tensor:
#      x y z
#    x 1.733390 0.000000 -0.000770 
#    y 0.000000 1.717480 0.000000 
#    z -0.000770 0.000000 1.730120 
# 
# From -- ./inp_files/172114.got.cif
#   From: 2010.06.25/outbox.cif.g09.slc.cpg/sg12_87_cif.got.tgz:172114.got - 2010.06.28 00:19:55.
