data_PCOD8110300
_publ_section_title
;
Structure prediction by ZEFSAII (Michael W. Deem and Ramdas Pophale) SiO2 
 PCOD8110300
Probable space group: C 2/M
;
_chemical_formula_sum "Si O2"
_cell_formula_units_Z 40
_cell_length_a 26.759979
_cell_length_b 7.648375
_cell_length_c 18.305613
_cell_angle_alpha 90.000000
_cell_angle_beta 149.739258
_cell_angle_gamma 90.000000
_cell_volume 1888.054543
_symmetry_space_group_name_H-M "C 2/M"
_symmetry_group_IT_number 12
_symmetry_cell_setting 'monoclinic'
loop_
_space_group_symop_operation_xyz
x,y,z
-x,y,-z
-x,-y,-z
x,-y,z
1/2+x,1/2+y,z
1/2-x,1/2+y,-z
1/2-x,1/2-y,-z
1/2+x,1/2-y,z
loop_
_atom_site_type_symbol
_atom_site_label
_atom_site_fract_x
_atom_site_fract_y
_atom_site_fract_z
Si Si1 0.550523 0.201250 0.408943
Si Si2 0.666603 0.204626 0.836320
Si Si3 0.656804 0.000000 0.161678
Si Si4 0.638245 0.695183 0.373881
Si Si5 0.707579 0.202329 0.726302
Si Si6 0.447026 0.000000 0.821539
O O1 0.439625 0.283106 0.273387
O O2 0.615120 0.304578 0.430994
O O3 0.601752 0.221283 0.552629
O O4 0.546744 0.000000 0.379554
O O5 0.697208 0.276449 0.795503
O O6 0.652318 0.000000 0.810232
O O7 0.750000 0.250000 0.000000
O O8 0.713193 0.821762 0.214507
O O9 0.637745 0.000000 0.223986
O O10 0.555658 0.000000 0.990198
O O11 0.621326 0.500000 0.321955
O O12 0.750000 0.750000 0.500000
O O13 0.563094 0.825620 0.239190
O O14 0.743763 0.000000 0.769950
#
# Coordination Sequence:
#
# PCOD8110300 Si02
#       6
#     8   8   4   8   8   4
#     4  10  21  41  67  95 133 176 220 273 328 390
#     4  10  23  40  63  95 135 175 217 271 332 391
#     4  11  26  44  71  92 135 175 222 277 327 400
#     4  12  24  41  68  98 134 171 220 275 327 389
#     4  10  23  43  68  95 133 174 220 272 331 395
#     4  11  26  46  64 100 132 175 223 275 337 384
#
# _framework density 21.185828999999998
#
# number of rings (size 3 to 8) (size 9 to 14) (size 15 to 20)
#    0.000    1.400    2.000    1.800    5.600    6.400 
#    0.000    3.000    0.000    0.000    0.000    0.000 
#    0.000    0.000    0.000    0.000    0.000    0.000 
#
# Total GULP energy -248064.266656 kJ/mol
# GULP energy per Si atom -12403.213333 kJ/mol
# Density = 2.113761 g / cm^3
# Si number density = 21.185829 Si / 1000 Ang^3
#
#
#
# Elastic Constant Matrix: (Units=GPa)
#
#
# Indices 1 2 3 4 5 6 
#
# 1 126.2700 33.9200 62.1606 0.0000 -2.8443 0.0000
# 2 33.9200 116.4330 31.6870 0.0000 0.5690 0.0000
# 3 62.1606 31.6870 117.3283 0.0000 -0.9624 0.0000
# 4 0.0000 0.0000 0.0000 26.9335 0.0000 -0.4542
# 5 -2.8443 0.5690 -0.9624 0.0000 39.3397 0.0000
# 6 0.0000 0.0000 0.0000 -0.4542 0.0000 26.4013
#
#
#
# Elastic Compliance Matrix: (Units=1/GPa)
#
#
# Indices 1 2 3 4 5 6 
#
# 1 0.011054 -0.001761 -0.005375 0.000000 0.000693 0.000000
# 2 -0.001761 0.009552 -0.001649 0.000000 -0.000306 0.000000
# 3 -0.005375 -0.001649 0.011816 0.000000 -0.000076 0.000000
# 4 0.000000 0.000000 0.000000 0.037139 0.000000 0.000639
# 5 0.000693 -0.000306 -0.000076 0.000000 0.025472 0.000000
# 6 0.000000 0.000000 0.000000 0.000639 0.000000 0.037888
#
#
# Mechanical properties :
#
#
# Convention : Reuss Voigt Hill
#
# Bulk Modulus (GPa) = 67.33556 68.39626 67.86591
# Shear Modulus (GPa) = 32.16610 34.01913 33.09262
#
# Velocity S-wave (km/s) = 3.90074 4.01153 3.95652
# Velocity P-wave (km/s) = 7.22081 7.33557 7.27841
#
# Compressibility (1/GPa) = 0.01485099
#
# Stress axis : x y z
#
# Youngs Moduli (GPa) = 90.46174 104.69041 84.63268
#
# Poissons Ratio (x) = 0.18435 0.45493
# Poissons Ratio (y) = 0.15930 0.13958
# Poissons Ratio (z) = 0.48626 0.17266
#
# Static dielectric constant tensor:
#      x y z
#    x 3.994690 0.000000 0.036210 
#    y 0.000000 4.035070 0.000000 
#    z 0.036210 0.000000 3.602860 
# 
# 
# High freq. dielectric constant tensor:
#      x y z
#    x 1.842260 0.000000 -0.002240 
#    y 0.000000 1.830710 0.000000 
#    z -0.002240 0.000000 1.830950 
# 
# From -- ./inp_files/273957.got.cif
#   From: 2010.06.25/outbox.cif.g09.slc.cpg/sg12_137_cif.got.tgz:273957.got - 2010.06.28 00:19:55.
