data_PCOD8110879
_publ_section_title
;
Structure prediction by ZEFSAII (Michael W. Deem and Ramdas Pophale) SiO2 
 PCOD8110879
Probable space group: C 2/M
;
_chemical_formula_sum "Si O2"
_cell_formula_units_Z 48
_cell_length_a 12.143038
_cell_length_b 15.889699
_cell_length_c 21.865531
_cell_angle_alpha 90.000000
_cell_angle_beta 145.083765
_cell_angle_gamma 90.000000
_cell_volume 2414.827823
_symmetry_space_group_name_H-M "C 2/M"
_symmetry_group_IT_number 12
_symmetry_cell_setting 'monoclinic'
loop_
_space_group_symop_operation_xyz
x,y,z
-x,y,-z
-x,-y,-z
x,-y,z
1/2+x,1/2+y,z
1/2-x,1/2+y,-z
1/2-x,1/2-y,-z
1/2+x,1/2-y,z
loop_
_atom_site_type_symbol
_atom_site_label
_atom_site_fract_x
_atom_site_fract_y
_atom_site_fract_z
Si Si1 0.290214 0.401284 0.893586
Si Si2 0.152315 0.593498 0.122418
Si Si3 0.051778 0.842534 0.255603
Si Si4 0.923348 0.699474 0.111557
Si Si5 0.849286 0.596706 0.296647
Si Si6 0.664114 0.093562 0.525684
O O1 0.309248 0.500000 0.892864
O O2 0.164056 0.382303 0.895470
O O3 0.202296 0.359436 0.791666
O O4 0.500000 0.360618 0.000000
O O5 0.169856 0.500000 0.160502
O O6 0.349195 0.617079 0.179053
O O7 0.088113 0.665133 0.141380
O O8 0.000000 0.590572 0.000000
O O9 0.024795 0.752147 0.211771
O O10 0.166989 0.898307 0.258916
O O11 0.174533 0.841768 0.375134
O O12 0.750000 0.750000 0.000000
O O13 0.894462 0.500000 0.305547
O O14 0.050425 0.634429 0.415526
O O15 0.500000 0.078866 0.500000
O O16 0.754030 0.000000 0.552662
#
# Coordination Sequence:
#
# PCOD8110879 Si02
#       6
#     8   8   8   8   8   8
#     4  10  22  38  60  84 112 151 193 234 289 360
#     4  11  24  40  58  83 117 160 201 237 290 361
#     4  11  21  34  62  87 116 151 194 242 289 345
#     4  12  25  38  55  81 123 156 188 240 300 347
#     4   9  18  35  63  91 116 147 191 246 292 339
#     4   8  15  32  58  89 116 145 192 244 289 335
#
# _framework density 19.877195
#
# number of rings (size 3 to 8) (size 9 to 14) (size 15 to 20)
#    0.000    1.833    1.667    4.000    4.667    0.000 
#    0.000    0.833    3.667    0.000    0.000    4.667 
#    0.000    0.000    0.000    0.000    0.000    0.000 
#
# Total GULP energy -297342.603955 kJ/mol
# GULP energy per Si atom -12389.275165 kJ/mol
# Density = 1.983195 g / cm^3
# Si number density = 19.877195 Si / 1000 Ang^3
#
#
#
# Elastic Constant Matrix: (Units=GPa)
#
#
# Indices 1 2 3 4 5 6 
#
# 1 86.5813 25.5706 42.5442 0.0002 0.5372 -0.0002
# 2 25.5706 65.4161 40.2960 0.0000 -0.0123 0.0000
# 3 42.5442 40.2960 147.4695 0.0012 -10.4917 0.0000
# 4 0.0002 0.0000 0.0012 25.0897 0.0003 -8.2071
# 5 0.5372 -0.0123 -10.4917 0.0003 29.1349 -0.0002
# 6 -0.0002 0.0000 0.0000 -8.2071 -0.0002 38.3413
#
#
#
# Elastic Compliance Matrix: (Units=1/GPa)
#
#
# Indices 1 2 3 4 5 6 
#
# 1 0.014195 -0.003564 -0.003223 0.000000 -0.001424 0.000000
# 2 -0.003564 0.019373 -0.004372 0.000000 -0.001501 0.000000
# 3 -0.003223 -0.004372 0.009144 0.000000 0.003350 0.000000
# 4 0.000000 0.000000 0.000000 0.042858 -0.000001 0.009174
# 5 -0.001424 -0.001501 0.003350 -0.000001 0.035555 0.000000
# 6 0.000000 0.000000 0.000000 0.009174 0.000000 0.028045
#
#
# Mechanical properties :
#
#
# Convention : Reuss Voigt Hill
#
# Bulk Modulus (GPa) = 49.03368 57.36540 53.19954
# Shear Modulus (GPa) = 28.04498 31.25023 29.64761
#
# Velocity S-wave (km/s) = 3.76029 3.96936 3.86623
# Velocity P-wave (km/s) = 6.60113 7.06614 6.83758
#
# Compressibility (1/GPa) = 0.02039414
#
# Stress axis : x y z
#
# Youngs Moduli (GPa) = 70.44882 51.61873 109.36313
#
# Poissons Ratio (x) = 0.18396 0.35243
# Poissons Ratio (y) = 0.25106 0.47816
# Poissons Ratio (z) = 0.22703 0.22569
#
# Static dielectric constant tensor:
#      x y z
#    x 4.053850 0.000000 1.257600 
#    y 0.000000 3.451590 0.000010 
#    z 1.257600 0.000010 7.834780 
# 
# 
# High freq. dielectric constant tensor:
#      x y z
#    x 1.755730 0.000000 -0.004010 
#    y 0.000000 1.753360 0.000000 
#    z -0.004010 0.000000 1.788290 
# 
# From -- ./inp_files/305696.got.cif
#   From: 2010.06.25/outbox.cif.g09.slc.cpg/sg12_153_cif.got.tgz:305696.got - 2010.06.28 00:19:55.
