data_PCOD8110785
_publ_section_title
;
Structure prediction by ZEFSAII (Michael W. Deem and Ramdas Pophale) SiO2 
 PCOD8110785
Probable space group: C 2/M
;
_chemical_formula_sum "Si O2"
_cell_formula_units_Z 56
_cell_length_a 28.196294
_cell_length_b 8.853228
_cell_length_c 17.494949
_cell_angle_alpha 90.000000
_cell_angle_beta 43.697312
_cell_angle_gamma 90.000000
_cell_volume 3017.096314
_symmetry_space_group_name_H-M "C 2/M"
_symmetry_group_IT_number 12
_symmetry_cell_setting 'monoclinic'
loop_
_space_group_symop_operation_xyz
x,y,z
-x,y,-z
-x,-y,-z
x,-y,z
1/2+x,1/2+y,z
1/2-x,1/2+y,-z
1/2-x,1/2-y,-z
1/2+x,1/2-y,z
loop_
_atom_site_type_symbol
_atom_site_label
_atom_site_fract_x
_atom_site_fract_y
_atom_site_fract_z
Si Si1 0.177023 0.326125 0.939220
Si Si2 0.355949 0.821923 0.594834
Si Si3 0.832956 0.821882 0.779646
Si Si4 0.913170 0.822181 0.833380
Si Si5 0.067909 0.820784 0.629017
Si Si6 0.784060 0.672245 0.271141
Si Si7 0.321075 0.825271 0.394436
O O1 0.162268 0.500000 0.973536
O O2 0.252777 0.279978 0.879904
O O3 0.170769 0.288401 0.856151
O O4 0.119721 0.231259 0.049238
O O5 0.366193 0.759408 0.668016
O O6 0.413999 0.749280 0.473932
O O7 0.281875 0.779753 0.646240
O O8 0.364655 0.000000 0.584884
O O9 0.870688 0.757537 0.810682
O O10 0.843209 0.000000 0.756892
O O11 0.991318 0.766774 0.738422
O O12 0.909111 0.000000 0.835783
O O13 0.116551 0.760173 0.639066
O O14 0.074842 0.000000 0.616338
O O15 0.756321 0.500000 0.295815
O O16 0.830822 0.691193 0.291602
O O17 0.250000 0.750000 0.500000
O O18 0.320747 0.000000 0.420279
#
# Coordination Sequence:
#
# PCOD8110785 Si02
#       7
#     8   8   8   8   8   8   8
#     4   9  18  34  58  83 108 140 179 229 279 323
#     4  11  21  33  54  84 111 140 182 229 278 325
#     4   9  19  37  58  80 109 145 185 225 277 333
#     4  10  22  38  56  78 108 151 190 225 272 326
#     4  11  23  38  54  77 114 151 184 224 275 331
#     4   9  19  36  57  82 112 143 176 222 278 330
#     4  11  21  35  59  86 111 142 183 225 274 329
#
# _framework density 18.560891000000002
#
# number of rings (size 3 to 8) (size 9 to 14) (size 15 to 20)
#    0.000    2.000    1.429    3.429    0.000    5.143 
#    0.000    3.571    0.000    4.286    0.000    0.000 
#    0.000    0.000    0.000    0.000    0.000    0.000 
#
# Total GULP energy -347263.214207 kJ/mol
# GULP energy per Si atom -12402.257650 kJ/mol
# Density = 1.851865 g / cm^3
# Si number density = 18.560891 Si / 1000 Ang^3
#
#
#
# Elastic Constant Matrix: (Units=GPa)
#
#
# Indices 1 2 3 4 5 6 
#
# 1 82.8524 28.5523 71.3732 0.0131 5.4515 -0.0098
# 2 28.5523 70.3322 50.3881 0.0170 -0.8385 -0.0088
# 3 71.3732 50.3881 156.2531 0.0084 2.8849 -0.0070
# 4 0.0131 0.0170 0.0084 32.4119 -0.0018 3.7180
# 5 5.4515 -0.8385 2.8849 -0.0018 25.4617 0.0038
# 6 -0.0098 -0.0088 -0.0070 3.7180 0.0038 27.2074
#
#
#
# Elastic Compliance Matrix: (Units=1/GPa)
#
#
# Indices 1 2 3 4 5 6 
#
# 1 0.020429 -0.002205 -0.008556 -0.000006 -0.003477 0.000006
# 2 -0.002205 0.018770 -0.005077 -0.000008 0.001665 0.000005
# 3 -0.008556 -0.005077 0.011940 0.000003 0.000312 -0.000002
# 4 -0.000006 -0.000008 0.000003 0.031344 0.000003 -0.004283
# 5 -0.003477 0.001665 0.000312 0.000003 0.040039 -0.000007
# 6 0.000006 0.000005 -0.000002 -0.004283 -0.000007 0.037340
#
#
# Mechanical properties :
#
#
# Convention : Reuss Voigt Hill
#
# Bulk Modulus (GPa) = 51.37889 67.78501 59.58195
# Shear Modulus (GPa) = 25.24927 27.62446 26.43686
#
# Velocity S-wave (km/s) = 3.69229 3.86205 3.77813
# Velocity P-wave (km/s) = 6.77633 7.51578 7.15561
#
# Compressibility (1/GPa) = 0.01946325
#
# Stress axis : x y z
#
# Youngs Moduli (GPa) = 48.94951 53.27588 83.75499
#
# Poissons Ratio (x) = 0.11747 0.71664
# Poissons Ratio (y) = 0.10793 0.42519
# Poissons Ratio (z) = 0.41883 0.27046
#
# Static dielectric constant tensor:
#      x y z
#    x 3.522760 -0.000010 0.208880 
#    y -0.000010 3.358530 0.000020 
#    z 0.208880 0.000020 3.407790 
# 
# 
# High freq. dielectric constant tensor:
#      x y z
#    x 1.716310 0.000000 0.018960 
#    y 0.000000 1.719440 0.000000 
#    z 0.018960 0.000000 1.718070 
# 
# From -- ./inp_files/288204.got.cif
#   From: 2010.06.25/outbox.cif.g09.slc.cpg/sg12_145_cif.got.tgz:288204.got - 2010.06.28 00:19:55.
