data_PCOD8110360
_publ_section_title
;
Structure prediction by ZEFSAII (Michael W. Deem and Ramdas Pophale) SiO2 
 PCOD8110360
Probable space group: C 2/M
;
_chemical_formula_sum "Si O2"
_cell_formula_units_Z 56
_cell_length_a 21.840711
_cell_length_b 16.886123
_cell_length_c 9.082468
_cell_angle_alpha 90.000000
_cell_angle_beta 59.018559
_cell_angle_gamma 90.000000
_cell_volume 2871.776829
_symmetry_space_group_name_H-M "C 2/M"
_symmetry_group_IT_number 12
_symmetry_cell_setting 'monoclinic'
loop_
_space_group_symop_operation_xyz
x,y,z
-x,y,-z
-x,-y,-z
x,-y,z
1/2+x,1/2+y,z
1/2-x,1/2+y,-z
1/2-x,1/2-y,-z
1/2+x,1/2-y,z
loop_
_atom_site_type_symbol
_atom_site_label
_atom_site_fract_x
_atom_site_fract_y
_atom_site_fract_z
Si Si1 0.617977 0.650891 0.042593
Si Si2 0.177540 0.716902 0.521905
Si Si3 0.837419 0.845911 0.693671
Si Si4 0.812292 0.407640 0.039384
Si Si5 0.574819 0.500000 0.489985
Si Si6 0.731295 0.908606 0.236685
Si Si7 0.419229 0.195231 0.078093
Si Si8 0.521530 0.500000 0.139260
O O1 0.638447 0.686162 0.176710
O O2 0.565934 0.576997 0.129820
O O3 0.688351 0.623302 0.870119
O O4 0.579741 0.718035 0.995488
O O5 0.250000 0.750000 0.500000
O O6 0.144575 0.780956 0.450712
O O7 0.190529 0.636294 0.416671
O O8 0.119943 0.697788 0.717056
O O9 0.753120 0.863649 0.799294
O O10 0.879194 0.924833 0.606508
O O11 0.810556 0.500000 0.081988
O O12 0.883805 0.368258 0.012551
O O13 0.808682 0.395224 0.868573
O O14 0.500000 0.500000 0.500000
O O15 0.555245 0.500000 0.685961
O O16 0.733014 0.000000 0.278510
O O17 0.500000 0.166917 0.000000
O O18 0.500000 0.500000 0.000000
#
# Coordination Sequence:
#
# PCOD8110360 Si02
#       8
#     8   8   8   8   4   8   8   4
#     4  11  21  41  63  91 130 176 210 247 322 391
#     4  12  24  41  62 100 130 166 219 267 323 381
#     4  11  22  40  67  93 132 172 218 265 302 393
#     4  10  21  43  69  94 118 169 223 266 325 375
#     4  12  24  40  62 102 141 173 212 253 321 405
#     4  10  21  41  71  95 122 161 220 273 311 384
#     4  12  27  43  61  92 135 170 210 269 332 384
#     4  12  26  38  58  96 144 179 202 250 321 392
#
# _framework density 19.500122999999999
#
# number of rings (size 3 to 8) (size 9 to 14) (size 15 to 20)
#    0.000    0.857    5.714    1.286    4.000    3.143 
#    1.286    2.143    0.000    1.714    0.000    0.000 
#    0.000    0.000    0.000    0.000    0.000    0.000 
#
# Total GULP energy -347338.889707 kJ/mol
# GULP energy per Si atom -12404.960347 kJ/mol
# Density = 1.945574 g / cm^3
# Si number density = 19.500123 Si / 1000 Ang^3
#
#
#
# Elastic Constant Matrix: (Units=GPa)
#
#
# Indices 1 2 3 4 5 6 
#
# 1 109.0890 18.7958 29.9779 0.0000 -3.2396 0.0000
# 2 18.7958 57.8154 15.5494 0.0000 13.2345 0.0000
# 3 29.9779 15.5494 105.1641 0.0000 -1.1337 0.0000
# 4 0.0000 0.0000 0.0000 -103.5522 0.0000 3.9515
# 5 -3.2396 13.2345 -1.1337 0.0000 26.4043 0.0000
# 6 0.0000 0.0000 0.0000 3.9515 0.0000 21.3780
#
#
#
# Elastic Compliance Matrix: (Units=1/GPa)
#
#
# Indices 1 2 3 4 5 6 
#
# 1 0.010519 -0.003422 -0.002461 0.000000 0.002900 0.000000
# 2 -0.003422 0.021642 -0.002347 0.000000 -0.011368 0.000000
# 3 -0.002461 -0.002347 0.010572 0.000000 0.001328 0.000000
# 4 0.000000 0.000000 0.000000 -0.009589 0.000000 0.001772
# 5 0.002900 -0.011368 0.001328 0.000000 0.043984 0.000000
# 6 0.000000 0.000000 0.000000 0.001772 0.000000 0.046449
#
#
# Mechanical properties :
#
#
# Convention : Reuss Voigt Hill
#
# Bulk Modulus (GPa) = 38.06189 44.52386 41.29287
# Shear Modulus (GPa) = 33.60337 2.69571 18.14954
#
# Velocity S-wave (km/s) = 4.15569 1.17703 3.05411
# Velocity P-wave (km/s) = 6.52591 4.97286 5.80159
#
# Compressibility (1/GPa) = 0.02627300
#
# Stress axis : x y z
#
# Youngs Moduli (GPa) = 95.06750 46.20572 94.58999
#
# Poissons Ratio (x) = 0.15809 0.23282
# Poissons Ratio (y) = 0.32527 0.22202
# Poissons Ratio (z) = 0.23399 0.10846
#
# Static dielectric constant tensor:
#      x y z
#    x 3.986000 0.000000 -0.328870 
#    y 0.000000 3.565050 0.000000 
#    z -0.328870 0.000000 4.203100 
# 
# 
# High freq. dielectric constant tensor:
#      x y z
#    x 1.757100 0.000000 0.013280 
#    y 0.000000 1.765090 0.000000 
#    z 0.013280 0.000000 1.766470 
# 
# From -- ./inp_files/96804.got.cif
#   From: 2010.06.25/outbox.cif.g09.slc.cpg/sg12_49_cif.got.tgz:96804.got - 2010.06.28 00:19:55.
