data_PCOD8110697
_publ_section_title
;
Structure prediction by ZEFSAII (Michael W. Deem and Ramdas Pophale) SiO2 
 PCOD8110697
Probable space group: C 2/M
;
_chemical_formula_sum "Si O2"
_cell_formula_units_Z 64
_cell_length_a 9.899929
_cell_length_b 26.763921
_cell_length_c 14.788439
_cell_angle_alpha 90.000000
_cell_angle_beta 121.294644
_cell_angle_gamma 90.000000
_cell_volume 3348.266186
_symmetry_space_group_name_H-M "C 2/M"
_symmetry_group_IT_number 12
_symmetry_cell_setting 'monoclinic'
loop_
_space_group_symop_operation_xyz
x,y,z
-x,y,-z
-x,-y,-z
x,-y,z
1/2+x,1/2+y,z
1/2-x,1/2+y,-z
1/2-x,1/2-y,-z
1/2+x,1/2-y,z
loop_
_atom_site_type_symbol
_atom_site_label
_atom_site_fract_x
_atom_site_fract_y
_atom_site_fract_z
Si Si1 0.656620 0.443077 0.814555
Si Si2 0.747856 0.705198 0.286179
Si Si3 0.661407 0.442955 0.188622
Si Si4 0.574681 0.704648 0.727017
Si Si5 0.018377 0.895419 0.400740
Si Si6 0.825392 0.850757 0.920062
Si Si7 0.828953 0.605912 0.405836
Si Si8 0.318824 0.849031 0.938692
O O1 0.715953 0.500000 0.844501
O O2 0.509029 0.430744 0.828053
O O3 0.599439 0.433489 0.691961
O O4 0.795348 0.405603 0.893351
O O5 0.576419 0.721352 0.265555
O O6 0.865058 0.752053 0.318956
O O7 0.739213 0.681973 0.183953
O O8 0.824863 0.664503 0.379480
O O9 0.679785 0.500000 0.165300
O O10 0.678474 0.409680 0.105337
O O11 0.795264 0.428516 0.307252
O O12 0.527533 0.660266 0.643953
O O13 0.715161 0.688915 0.843312
O O14 0.000000 0.904061 0.500000
O O15 0.200292 0.906162 0.438340
O O16 0.720494 0.842699 0.970566
O O17 0.000000 0.831729 0.000000
O O18 0.000000 0.590462 0.500000
O O19 0.500000 0.833408 0.000000
#
# Coordination Sequence:
#
# PCOD8110697 Si02
#       8
#     8   8   8   8   8   8   8   8
#     4   9  18  36  58  80 110 144 181 222 266 320
#     4  10  22  37  57  81 110 141 181 224 268 318
#     4   9  18  34  59  84 106 142 185 221 263 321
#     4  10  22  39  55  81 110 141 181 226 267 320
#     4   9  19  37  58  79 107 143 181 218 267 326
#     4  11  19  37  57  79 109 143 184 223 259 320
#     4   9  19  37  56  80 112 140 173 226 273 312
#     4  11  23  37  54  80 113 146 179 222 272 315
#
# _framework density 19.114371999999999
#
# number of rings (size 3 to 8) (size 9 to 14) (size 15 to 20)
#    0.000    2.250    2.500    1.500    1.750    4.000 
#    6.750    2.500    0.000    0.000    0.000    0.000 
#    0.000    0.000    0.000    0.000    0.000    0.000 
#
# Total GULP energy -396813.069019 kJ/mol
# GULP energy per Si atom -12400.408407 kJ/mol
# Density = 1.907087 g / cm^3
# Si number density = 19.114372 Si / 1000 Ang^3
#
#
#
# Elastic Constant Matrix: (Units=GPa)
#
#
# Indices 1 2 3 4 5 6 
#
# 1 89.0093 -2.5906 21.8188 0.0000 -3.2442 0.0000
# 2 -2.5906 38.1188 -28.1141 0.0000 2.0406 0.0000
# 3 21.8188 -28.1141 45.3429 0.0000 0.7808 0.0000
# 4 0.0000 0.0000 0.0000 11.8125 0.0000 0.6750
# 5 -3.2442 2.0406 0.7808 0.0000 31.5068 0.0000
# 6 0.0000 0.0000 0.0000 0.6750 0.0000 22.5681
#
#
#
# Elastic Compliance Matrix: (Units=1/GPa)
#
#
# Indices 1 2 3 4 5 6 
#
# 1 0.013901 -0.007619 -0.011451 0.000000 0.002209 0.000000
# 2 -0.007619 0.052993 0.036612 0.000000 -0.005124 0.000000
# 3 -0.011451 0.036612 0.050347 0.000000 -0.004798 0.000000
# 4 0.000000 0.000000 0.000000 0.084801 0.000000 -0.002536
# 5 0.002209 -0.005124 -0.004798 0.000000 0.032417 0.000000
# 6 0.000000 0.000000 0.000000 -0.002536 0.000000 0.044386
#
#
# Mechanical properties :
#
#
# Convention : Reuss Voigt Hill
#
# Bulk Modulus (GPa) = 6.56493 17.18881 11.87687
# Shear Modulus (GPa) = 16.97583 25.26794 21.12188
#
# Velocity S-wave (km/s) = 2.98336 3.63979 3.32780
# Velocity P-wave (km/s) = 3.91271 5.16490 4.58178
#
# Compressibility (1/GPa) = 0.15232446
#
# Stress axis : x y z
#
# Youngs Moduli (GPa) = 71.93981 18.87043 19.86199
#
# Poissons Ratio (x) = 0.14378 0.22744
# Poissons Ratio (y) = 0.54811 -0.72718
# Poissons Ratio (z) = 0.82378 -0.69088
#
# Static dielectric constant tensor:
#      x y z
#    x 3.295610 0.000000 -0.013710 
#    y 0.000000 3.465450 0.000000 
#    z -0.013710 0.000000 3.366900 
# 
# 
# High freq. dielectric constant tensor:
#      x y z
#    x 1.730310 0.000000 -0.004300 
#    y 0.000000 1.741020 0.000000 
#    z -0.004300 0.000000 1.743090 
# 
# From -- ./inp_files/200965.got.cif
#   From: 2010.06.25/outbox.cif.g09.slc.cpg/sg12_101_cif.got.tgz:200965.got - 2010.06.28 00:19:55.
