data_PCOD8110012
_publ_section_title
;
Structure prediction by ZEFSAII (Michael W. Deem and Ramdas Pophale) SiO2 
 PCOD8110012
Probable space group: C 2/M
;
_chemical_formula_sum "Si O2"
_cell_formula_units_Z 64
_cell_length_a 15.100043
_cell_length_b 25.793788
_cell_length_c 11.924655
_cell_angle_alpha 90.000000
_cell_angle_beta 41.401339
_cell_angle_gamma 90.000000
_cell_volume 3071.545549
_symmetry_space_group_name_H-M "C 2/M"
_symmetry_group_IT_number 12
_symmetry_cell_setting 'monoclinic'
loop_
_space_group_symop_operation_xyz
x,y,z
-x,y,-z
-x,-y,-z
x,-y,z
1/2+x,1/2+y,z
1/2-x,1/2+y,-z
1/2-x,1/2-y,-z
1/2+x,1/2-y,z
loop_
_atom_site_type_symbol
_atom_site_label
_atom_site_fract_x
_atom_site_fract_y
_atom_site_fract_z
Si Si1 0.863489 0.442446 0.429324
Si Si2 0.224328 0.734646 0.210348
Si Si3 0.920804 0.287822 0.864739
Si Si4 0.653950 0.126999 0.345268
Si Si5 0.228294 0.707545 0.614920
Si Si6 0.864575 0.939969 0.744447
Si Si7 0.150236 0.097742 0.485764
Si Si8 0.356019 0.098596 0.887486
O O1 0.894712 0.500000 0.445029
O O2 0.810721 0.406948 0.581011
O O3 0.743792 0.445001 0.454553
O O4 0.992079 0.420369 0.241512
O O5 0.094176 0.734324 0.249654
O O6 0.243262 0.678967 0.253020
O O7 0.212452 0.776408 0.320442
O O8 0.355430 0.746813 0.011694
O O9 0.840021 0.342040 0.943187
O O10 0.069033 0.300407 0.765999
O O11 0.500000 0.145016 0.500000
O O12 0.679352 0.092673 0.210385
O O13 0.250000 0.750000 0.500000
O O14 0.303796 0.654343 0.514052
O O15 0.828153 0.908348 0.667430
O O16 0.998111 0.913549 0.667952
O O17 0.892188 0.000000 0.689570
O O18 0.744446 0.936693 0.946762
#
# Coordination Sequence:
#
# PCOD8110012 Si02
#       8
#     8   8   8   8   8   8   8   8
#     4  11  21  39  67  94 124 167 215 268 329 382
#     4  10  22  38  64  84 125 173 204 263 331 375
#     4  10  22  42  59  91 128 166 215 270 318 386
#     4   9  21  39  61  90 128 160 208 270 314 381
#     4  12  25  38  64  93 126 168 221 267 318 394
#     4  11  24  43  65  93 131 173 219 268 328 396
#     4  11  24  43  62  90 132 170 212 270 326 388
#     4  10  21  40  66  91 130 164 213 272 322 383
#
# _framework density 20.836416
#
# number of rings (size 3 to 8) (size 9 to 14) (size 15 to 20)
#    0.000    1.500    1.250    3.750    3.500    8.250 
#    0.000    4.375    0.000    1.500    0.000    0.000 
#    0.000    0.000    0.000    0.000    0.000    0.000 
#
# Total GULP energy -396755.819625 kJ/mol
# GULP energy per Si atom -12398.619363 kJ/mol
# Density = 2.078899 g / cm^3
# Si number density = 20.836416 Si / 1000 Ang^3
#
#
#
# Elastic Constant Matrix: (Units=GPa)
#
#
# Indices 1 2 3 4 5 6 
#
# 1 103.7043 37.8907 42.0284 0.0000 -6.3003 0.0000
# 2 37.8907 120.7379 42.5356 0.0000 -0.9200 0.0000
# 3 42.0284 42.5356 109.4377 0.0000 9.8700 0.0000
# 4 0.0000 0.0000 0.0000 35.2233 0.0000 1.3226
# 5 -6.3003 -0.9200 9.8700 0.0000 23.1817 0.0000
# 6 0.0000 0.0000 0.0000 1.3226 0.0000 26.9846
#
#
#
# Elastic Compliance Matrix: (Units=1/GPa)
#
#
# Indices 1 2 3 4 5 6 
#
# 1 0.012603 -0.002370 -0.004388 0.000000 0.005199 0.000000
# 2 -0.002370 0.010136 -0.003128 0.000000 0.001090 0.000000
# 3 -0.004388 -0.003128 0.012643 0.000000 -0.006700 0.000000
# 4 0.000000 0.000000 0.000000 0.028443 0.000000 -0.001394
# 5 0.005199 0.001090 -0.006700 0.000000 0.047446 0.000000
# 6 0.000000 0.000000 0.000000 -0.001394 0.000000 0.037126
#
#
# Mechanical properties :
#
#
# Convention : Reuss Voigt Hill
#
# Bulk Modulus (GPa) = 64.05813 64.30993 64.18403
# Shear Modulus (GPa) = 28.83974 31.17292 30.00633
#
# Velocity S-wave (km/s) = 3.72439 3.87211 3.79897
# Velocity P-wave (km/s) = 7.02174 7.13598 7.07909
#
# Compressibility (1/GPa) = 0.01561082
#
# Stress axis : x y z
#
# Youngs Moduli (GPa) = 79.34784 98.65483 79.09679
#
# Poissons Ratio (x) = 0.23377 0.34707
# Poissons Ratio (y) = 0.18802 0.24742
# Poissons Ratio (z) = 0.34817 0.30860
#
# Static dielectric constant tensor:
#      x y z
#    x 3.909570 0.000000 0.098730 
#    y 0.000000 3.739770 0.000000 
#    z 0.098730 0.000000 3.686790 
# 
# 
# High freq. dielectric constant tensor:
#      x y z
#    x 1.816940 0.000000 0.009270 
#    y 0.000000 1.820940 0.000000 
#    z 0.009270 0.000000 1.804450 
# 
# From -- ./inp_files/149744.got.cif
#   From: 2010.06.25/outbox.cif.g09.slc.cpg/sg12_75_cif.got.tgz:149744.got - 2010.06.28 00:19:55.
