data_PCOD8110070
_publ_section_title
;
Structure prediction by ZEFSAII (Michael W. Deem and Ramdas Pophale) SiO2 
 PCOD8110070
Probable space group: C 2/M
;
_chemical_formula_sum "Si O2"
_cell_formula_units_Z 56
_cell_length_a 18.799160
_cell_length_b 15.032216
_cell_length_c 10.014056
_cell_angle_alpha 90.000000
_cell_angle_beta 62.917586
_cell_angle_gamma 90.000000
_cell_volume 2519.610974
_symmetry_space_group_name_H-M "C 2/M"
_symmetry_group_IT_number 12
_symmetry_cell_setting 'monoclinic'
loop_
_space_group_symop_operation_xyz
x,y,z
-x,y,-z
-x,-y,-z
x,-y,z
1/2+x,1/2+y,z
1/2-x,1/2+y,-z
1/2-x,1/2-y,-z
1/2+x,1/2-y,z
loop_
_atom_site_type_symbol
_atom_site_label
_atom_site_fract_x
_atom_site_fract_y
_atom_site_fract_z
Si Si1 0.978367 0.103069 0.283782
Si Si2 0.968398 0.709256 0.387735
Si Si3 0.952621 0.398473 0.907151
Si Si4 0.794094 0.659367 0.456297
Si Si5 0.219957 0.600873 0.833707
Si Si6 0.660850 0.602053 0.055928
Si Si7 0.169057 0.900831 0.762328
O O1 0.968746 0.182142 0.400402
O O2 0.912030 0.135903 0.234190
O O3 0.065892 0.109568 0.148113
O O4 0.962070 0.000000 0.350026
O O5 0.882806 0.665347 0.435575
O O6 0.000000 0.671018 0.500000
O O7 0.026727 0.673595 0.222780
O O8 0.974145 0.500000 0.844759
O O9 0.858994 0.388456 0.011422
O O10 0.000000 0.373618 0.000000
O O11 0.750000 0.750000 0.500000
O O12 0.792973 0.639008 0.301504
O O13 0.743699 0.595369 0.596832
O O14 0.242833 0.500000 0.785756
O O15 0.292085 0.647017 0.858570
O O16 0.689678 0.500000 0.033429
O O17 0.685585 0.647823 0.891533
O O18 0.147250 0.000000 0.823394
#
# Coordination Sequence:
#
# PCOD8110070 Si02
#       7
#     8   8   8   8   8   8   8
#     4  10  22  43  68  95 133 179 222 269 330 397
#     4  12  28  44  65 101 137 173 225 277 329 393
#     4  10  22  45  71  94 128 175 222 269 330 395
#     4  12  25  42  60  92 135 171 213 268 329 393
#     4  10  22  43  69  96 126 171 222 273 330 398
#     4   9  20  38  67 100 126 161 220 273 324 394
#     4  10  21  40  67  95 128 171 214 271 333 389
#
# _framework density 22.225653999999999
#
# number of rings (size 3 to 8) (size 9 to 14) (size 15 to 20)
#    0.000    1.571    2.857    0.857    4.000    5.143 
#    0.000    1.429    0.000    0.000    0.000    0.000 
#    0.000    0.000    0.000    0.000    0.000    0.000 
#
# Total GULP energy -346897.733354 kJ/mol
# GULP energy per Si atom -12389.204763 kJ/mol
# Density = 2.217507 g / cm^3
# Si number density = 22.225654 Si / 1000 Ang^3
#
#
#
# Elastic Constant Matrix: (Units=GPa)
#
#
# Indices 1 2 3 4 5 6 
#
# 1 140.7222 36.4349 95.3638 0.0000 17.4250 0.0000
# 2 36.4349 61.4125 30.2115 0.0000 9.0497 0.0000
# 3 95.3638 30.2115 117.4157 0.0000 22.6397 0.0000
# 4 0.0000 0.0000 0.0000 26.4954 0.0000 -5.0747
# 5 17.4250 9.0497 22.6397 0.0000 37.7459 0.0000
# 6 0.0000 0.0000 0.0000 -5.0747 0.0000 19.2461
#
#
#
# Elastic Compliance Matrix: (Units=1/GPa)
#
#
# Indices 1 2 3 4 5 6 
#
# 1 0.016517 -0.003714 -0.012620 0.000000 0.000835 0.000000
# 2 -0.003714 0.019587 -0.001638 0.000000 -0.001999 0.000000
# 3 -0.012620 -0.001638 0.020342 0.000000 -0.005982 0.000000
# 4 0.000000 0.000000 0.000000 0.039750 0.000000 0.010481
# 5 0.000835 -0.001999 -0.005982 0.000000 0.030175 0.000000
# 6 0.000000 0.000000 0.000000 0.010481 0.000000 0.054722
#
#
# Mechanical properties :
#
#
# Convention : Reuss Voigt Hill
#
# Bulk Modulus (GPa) = 48.77709 71.50785 60.14247
# Shear Modulus (GPa) = 22.33441 27.20015 24.76728
#
# Velocity S-wave (km/s) = 3.17344 3.50211 3.34182
# Velocity P-wave (km/s) = 5.95161 6.97111 6.48144
#
# Compressibility (1/GPa) = 0.02050143
#
# Stress axis : x y z
#
# Youngs Moduli (GPa) = 60.54494 51.05411 49.16029
#
# Poissons Ratio (x) = 0.18960 0.62041
# Poissons Ratio (y) = 0.22484 0.08053
# Poissons Ratio (z) = 0.76409 0.08363
#
# Static dielectric constant tensor:
#      x y z
#    x 4.200680 0.000000 0.281290 
#    y 0.000000 3.982690 0.000000 
#    z 0.281290 0.000000 3.668070 
# 
# 
# High freq. dielectric constant tensor:
#      x y z
#    x 1.892110 0.000000 0.005700 
#    y 0.000000 1.860760 0.000000 
#    z 0.005700 0.000000 1.870790 
# 
# From -- ./inp_files/75890.got.cif
#   From: 2010.06.25/outbox.cif.g09.slc.cpg/sg12_38_cif.got.tgz:75890.got - 2010.06.28 00:19:55.
