data_PCOD8110918
_publ_section_title
;
Structure prediction by ZEFSAII (Michael W. Deem and Ramdas Pophale) SiO2 
 PCOD8110918
Probable space group: C 2/M
;
_chemical_formula_sum "Si O2"
_cell_formula_units_Z 40
_cell_length_a 13.133563
_cell_length_b 27.999677
_cell_length_c 7.993559
_cell_angle_alpha 90.000000
_cell_angle_beta 146.010107
_cell_angle_gamma 90.000000
_cell_volume 1643.326350
_symmetry_space_group_name_H-M "C 2/M"
_symmetry_group_IT_number 12
_symmetry_cell_setting 'monoclinic'
loop_
_space_group_symop_operation_xyz
x,y,z
-x,y,-z
-x,-y,-z
x,-y,z
1/2+x,1/2+y,z
1/2-x,1/2+y,-z
1/2-x,1/2-y,-z
1/2+x,1/2-y,z
loop_
_atom_site_type_symbol
_atom_site_label
_atom_site_fract_x
_atom_site_fract_y
_atom_site_fract_z
Si Si1 0.818209 0.053257 0.861639
Si Si2 0.001543 0.130248 0.306186
Si Si3 0.982300 0.302122 0.221036
Si Si4 0.889964 0.400490 0.705745
Si Si5 0.199743 0.213553 0.131487
O O1 0.645360 0.070107 0.513151
O O2 0.776484 0.000000 0.871712
O O3 0.851733 0.088437 0.064867
O O4 0.000000 0.053519 0.000000
O O5 0.000000 0.144359 0.500000
O O6 0.199177 0.114284 0.522884
O O7 0.954440 0.174951 0.123184
O O8 0.854903 0.290912 0.204418
O O9 0.970513 0.356183 0.138873
O O10 0.196571 0.295261 0.553189
O O11 0.902049 0.264213 0.979252
O O12 0.000000 0.430321 0.000000
#
# Coordination Sequence:
#
# PCOD8110918 Si02
#       5
#     8   8   8   8   8
#     4   9  20  42  67  91 124 164 206 260 321 379
#     4  11  23  40  64  91 127 167 210 258 314 373
#     4  10  22  39  59  89 126 167 207 255 310 367
#     4  11  23  40  62  95 126 163 212 259 312 373
#     4  10  22  38  61  88 127 166 207 254 311 367
#
# _framework density 24.340876000000002
#
# number of rings (size 3 to 8) (size 9 to 14) (size 15 to 20)
#    0.000    1.800    2.000    1.200    8.400    1.600 
#    0.000    0.000    0.000    8.400    0.000    0.000 
#    0.000    0.000    0.000    0.000    0.000    0.000 
#
# Total GULP energy -247816.290295 kJ/mol
# GULP energy per Si atom -12390.814515 kJ/mol
# Density = 2.428547 g / cm^3
# Si number density = 24.340876 Si / 1000 Ang^3
#
#
#
# Elastic Constant Matrix: (Units=GPa)
#
#
# Indices 1 2 3 4 5 6 
#
# 1 37.9949 -11.8917 5.9724 0.0000 4.3141 0.0000
# 2 -11.8917 109.5093 26.2759 0.0000 2.8403 0.0000
# 3 5.9724 26.2759 156.3933 0.0000 -11.1823 0.0000
# 4 0.0000 0.0000 0.0000 67.9507 0.0000 -9.0057
# 5 4.3141 2.8403 -11.1823 0.0000 24.1672 0.0000
# 6 0.0000 0.0000 0.0000 -9.0057 0.0000 16.7083
#
#
#
# Elastic Compliance Matrix: (Units=1/GPa)
#
#
# Indices 1 2 3 4 5 6 
#
# 1 0.028602 0.003805 -0.002201 0.000000 -0.006572 0.000000
# 2 0.003805 0.010108 -0.002045 0.000000 -0.002813 0.000000
# 3 -0.002201 -0.002045 0.007102 0.000000 0.003919 0.000000
# 4 0.000000 0.000000 0.000000 0.015849 0.000000 0.008542
# 5 -0.006572 -0.002813 0.003919 0.000000 0.044696 0.000000
# 6 0.000000 0.000000 0.000000 0.008542 0.000000 0.064455
#
#
# Mechanical properties :
#
#
# Convention : Reuss Voigt Hill
#
# Bulk Modulus (GPa) = 22.25704 38.29006 30.27355
# Shear Modulus (GPa) = 26.78500 40.66796 33.72648
#
# Velocity S-wave (km/s) = 3.32085 4.09194 3.72639
# Velocity P-wave (km/s) = 4.88546 6.17172 5.56588
#
# Compressibility (1/GPa) = 0.04492961
#
# Stress axis : x y z
#
# Youngs Moduli (GPa) = 34.96222 98.92776 140.80564
#
# Poissons Ratio (x) = -0.37638 0.30996
# Poissons Ratio (y) = -0.13302 0.28792
# Poissons Ratio (z) = 0.07696 0.20228
#
# Static dielectric constant tensor:
#      x y z
#    x 4.120310 0.000000 -0.267340 
#    y 0.000000 4.433560 0.000000 
#    z -0.267340 0.000000 5.149460 
# 
# 
# High freq. dielectric constant tensor:
#      x y z
#    x 1.953760 0.000000 -0.000110 
#    y 0.000000 1.938880 0.000000 
#    z -0.000110 0.000000 1.995950 
# 
# From -- ./inp_files/68739.got.cif
#   From: 2010.06.25/outbox.cif.g09.slc.cpg/sg12_35_cif.got.tgz:68739.got - 2010.06.28 00:19:55.
