data_PCOD8110983
_publ_section_title
;
Structure prediction by ZEFSAII (Michael W. Deem and Ramdas Pophale) SiO2 
 PCOD8110983
Probable space group: C 2/M
;
_chemical_formula_sum "Si O2"
_cell_formula_units_Z 28
_cell_length_a 13.378282
_cell_length_b 16.351029
_cell_length_c 4.833712
_cell_angle_alpha 90.000000
_cell_angle_beta 98.021396
_cell_angle_gamma 90.000000
_cell_volume 1047.022845
_symmetry_space_group_name_H-M "C 2/M"
_symmetry_group_IT_number 12
_symmetry_cell_setting 'monoclinic'
loop_
_space_group_symop_operation_xyz
x,y,z
-x,y,-z
-x,-y,-z
x,-y,z
1/2+x,1/2+y,z
1/2-x,1/2+y,-z
1/2-x,1/2-y,-z
1/2+x,1/2-y,z
loop_
_atom_site_type_symbol
_atom_site_label
_atom_site_fract_x
_atom_site_fract_y
_atom_site_fract_z
Si Si1 0.618097 0.660315 0.505763
Si Si2 0.613743 0.156761 0.446132
Si Si3 0.425358 0.500000 0.726164
Si Si4 0.731398 0.904623 0.010618
O O1 0.500000 0.654199 0.500000
O O2 0.638255 0.748711 0.381062
O O3 0.644756 0.583057 0.307594
O O4 0.676714 0.647357 0.817658
O O5 0.500000 0.140761 0.500000
O O6 0.634884 0.103556 0.180822
O O7 0.696394 0.132958 0.706284
O O8 0.500000 0.500000 0.500000
O O9 0.500000 0.500000 0.000000
O O10 0.764056 0.000000 0.996687
#
# Coordination Sequence:
#
# PCOD8110983 Si02
#       4
#     8   8   4   8
#     4  10  23  45  69 102 138 175 221 280 343 409
#     4  11  26  45  70  97 134 181 231 281 332 393
#     4  10  22  38  64  98 133 170 209 264 336 404
#     4  12  25  44  70 100 135 179 227 279 338 401
#
# _framework density 26.742493
#
# number of rings (size 3 to 8) (size 9 to 14) (size 15 to 20)
#    0.000    1.143    1.429    3.429    0.000   14.857 
#    0.000    0.000    0.000    0.000    0.000    0.000 
#    0.000    0.000    0.000    0.000    0.000    0.000 
#
# Total GULP energy -173579.263049 kJ/mol
# GULP energy per Si atom -12398.518789 kJ/mol
# Density = 2.668163 g / cm^3
# Si number density = 26.742493 Si / 1000 Ang^3
#
#
#
# Elastic Constant Matrix: (Units=GPa)
#
#
# Indices 1 2 3 4 5 6 
#
# 1 100.5468 24.4607 -6.9642 0.0000 34.7490 0.0000
# 2 24.4607 138.5978 46.8487 0.0000 4.7795 0.0000
# 3 -6.9642 46.8487 126.5417 0.0000 6.8016 0.0000
# 4 0.0000 0.0000 0.0000 48.8004 0.0000 -1.2100
# 5 34.7490 4.7795 6.8016 0.0000 46.5457 0.0000
# 6 0.0000 0.0000 0.0000 -1.2100 0.0000 37.1702
#
#
#
# Elastic Compliance Matrix: (Units=1/GPa)
#
#
# Indices 1 2 3 4 5 6 
#
# 1 0.014672 -0.003066 0.002534 0.000000 -0.011009 0.000000
# 2 -0.003066 0.008896 -0.003564 0.000000 0.001897 0.000000
# 3 0.002534 -0.003564 0.009518 0.000000 -0.002917 0.000000
# 4 0.000000 0.000000 0.000000 0.020508 0.000000 0.000668
# 5 -0.011009 0.001897 -0.002917 0.000000 0.029934 0.000000
# 6 0.000000 0.000000 0.000000 0.000668 0.000000 0.026925
#
#
# Mechanical properties :
#
#
# Convention : Reuss Voigt Hill
#
# Bulk Modulus (GPa) = 40.17095 54.93075 47.55085
# Shear Modulus (GPa) = 39.38762 46.59265 42.99013
#
# Velocity S-wave (km/s) = 3.84193 4.17858 4.01379
# Velocity P-wave (km/s) = 5.89361 6.62313 6.26899
#
# Compressibility (1/GPa) = 0.02489361
#
# Stress axis : x y z
#
# Youngs Moduli (GPa) = 68.15795 112.41479 105.06066
#
# Poissons Ratio (x) = 0.34471 -0.26627
# Poissons Ratio (y) = 0.20900 0.37444
# Poissons Ratio (z) = -0.17274 0.40065
#
# Static dielectric constant tensor:
#      x y z
#    x 5.626490 0.000000 -0.112680 
#    y 0.000000 5.476840 0.000000 
#    z -0.112680 0.000000 4.803190 
# 
# 
# High freq. dielectric constant tensor:
#      x y z
#    x 2.123020 0.000000 0.000710 
#    y 0.000000 2.091350 0.000000 
#    z 0.000710 0.000000 2.073200 
# 
# From -- ./inp_files/10304.got.cif
#   From: 2010.06.25/outbox.cif.g09.slc.cpg/sg12_6_cif.got.tgz:10304.got - 2010.06.28 00:19:55.
