data_PCOD8110853
_publ_section_title
;
Structure prediction by ZEFSAII (Michael W. Deem and Ramdas Pophale) SiO2 
 PCOD8110853
Probable space group: C 2/M
;
_chemical_formula_sum "Si O2"
_cell_formula_units_Z 48
_cell_length_a 18.237882
_cell_length_b 16.556622
_cell_length_c 14.957429
_cell_angle_alpha 90.000000
_cell_angle_beta 148.647742
_cell_angle_gamma 90.000000
_cell_volume 2349.932728
_symmetry_space_group_name_H-M "C 2/M"
_symmetry_group_IT_number 12
_symmetry_cell_setting 'monoclinic'
loop_
_space_group_symop_operation_xyz
x,y,z
-x,y,-z
-x,-y,-z
x,-y,z
1/2+x,1/2+y,z
1/2-x,1/2+y,-z
1/2-x,1/2-y,-z
1/2+x,1/2-y,z
loop_
_atom_site_type_symbol
_atom_site_label
_atom_site_fract_x
_atom_site_fract_y
_atom_site_fract_z
Si Si1 0.194014 0.300674 0.022681
Si Si2 0.490759 0.320044 0.383895
Si Si3 0.948579 0.652566 0.654962
Si Si4 0.648960 0.596169 0.401416
Si Si5 0.931805 0.152576 0.025076
Si Si6 0.161115 0.000000 0.135762
Si Si7 0.927000 0.500000 0.517598
O O1 0.329151 0.349527 0.198992
O O2 0.250000 0.250000 0.000000
O O3 0.144054 0.237766 0.045426
O O4 0.062693 0.355095 0.854195
O O5 0.500000 0.315957 0.500000
O O6 0.532142 0.234484 0.381659
O O7 0.592417 0.386307 0.443138
O O8 0.795009 0.643798 0.539449
O O9 0.977914 0.578751 0.620760
O O10 0.669125 0.500000 0.409399
O O11 0.540998 0.635035 0.218186
O O12 0.815596 0.079886 0.901015
O O13 0.000000 0.156125 0.000000
O O14 0.257986 0.000000 0.325258
O O15 0.000000 0.000000 0.000000
O O16 0.000000 0.500000 0.500000
#
# Coordination Sequence:
#
# PCOD8110853 Si02
#       7
#     8   8   8   8   8   4   4
#     4  10  23  42  61  94 128 172 220 265 329 388
#     4  11  26  44  69  95 130 176 227 281 325 389
#     4  11  23  44  65  97 136 172 221 271 340 401
#     4  12  24  44  66  96 135 179 222 270 333 400
#     4  11  22  36  65  96 134 171 215 267 330 407
#     4  10  22  38  58  96 139 167 206 255 335 410
#     4  12  26  36  64 106 139 173 208 279 353 398
#
# _framework density 20.426117000000001
#
# number of rings (size 3 to 8) (size 9 to 14) (size 15 to 20)
#    0.000    1.000    5.000    3.000    9.333    0.333 
#    1.500    0.000    0.000    1.000    0.000    0.000 
#    0.000    0.000    0.000    0.000    0.000    0.000 
#
# Total GULP energy -297413.003464 kJ/mol
# GULP energy per Si atom -12392.208478 kJ/mol
# Density = 2.037963 g / cm^3
# Si number density = 20.426117 Si / 1000 Ang^3
#
#
#
# Elastic Constant Matrix: (Units=GPa)
#
#
# Indices 1 2 3 4 5 6 
#
# 1 123.2005 36.4483 45.4659 0.0000 -5.5117 0.0000
# 2 36.4483 76.2928 39.2513 0.0000 4.0456 0.0000
# 3 45.4659 39.2513 120.5113 0.0000 -1.3360 -0.0002
# 4 0.0000 0.0000 0.0000 27.0105 0.0000 -2.7709
# 5 -5.5117 4.0456 -1.3360 0.0000 26.4721 -0.0001
# 6 0.0000 0.0000 -0.0002 -2.7709 -0.0001 33.3377
#
#
#
# Elastic Compliance Matrix: (Units=1/GPa)
#
#
# Indices 1 2 3 4 5 6 
#
# 1 0.010305 -0.003693 -0.002656 0.000000 0.002576 0.000000
# 2 -0.003693 0.017260 -0.004269 0.000000 -0.003622 0.000000
# 3 -0.002656 -0.004269 0.010698 0.000000 0.000639 0.000000
# 4 0.000000 0.000000 0.000000 0.037341 0.000000 0.003104
# 5 0.002576 -0.003622 0.000639 0.000000 0.038898 0.000000
# 6 0.000000 0.000000 0.000000 0.003104 0.000000 0.030254
#
#
# Mechanical properties :
#
#
# Convention : Reuss Voigt Hill
#
# Bulk Modulus (GPa) = 58.73213 62.48176 60.60695
# Shear Modulus (GPa) = 29.12623 30.62001 29.87312
#
# Velocity S-wave (km/s) = 3.78025 3.87597 3.82841
# Velocity P-wave (km/s) = 6.91878 7.11944 7.01983
#
# Compressibility (1/GPa) = 0.01702645
#
# Stress axis : x y z
#
# Youngs Moduli (GPa) = 97.04044 57.93791 93.47938
#
# Poissons Ratio (x) = 0.21397 0.24832
# Poissons Ratio (y) = 0.35837 0.39902
# Poissons Ratio (z) = 0.25778 0.24731
#
# Static dielectric constant tensor:
#      x y z
#    x 3.629330 0.000000 -0.022290 
#    y 0.000000 3.369860 0.000000 
#    z -0.022290 0.000000 0.991320 
# 
# 
# High freq. dielectric constant tensor:
#      x y z
#    x 1.800890 0.000000 0.008620 
#    y 0.000000 1.785090 0.000000 
#    z 0.008620 0.000000 1.806920 
# 
# From -- ./inp_files/226973.got.cif
#   From: 2010.06.25/outbox.cif.g09.slc.cpg/sg12_114_cif.got.tgz:226973.got - 2010.06.28 00:19:55.
